MODEL 1
REMARK VINA RESULT:    -4.637      0.000      0.000
REMARK INTER + INTRA:         -16.392
REMARK INTER:                 -11.686
REMARK INTRA:                  -4.706
REMARK UNBOUND:                -4.706
REMARK SMILES CCCCCCCCCCCCCCCCCCCCCCCCCCCC(=O)[O-]
REMARK SMILES IDX 15 1 16 2 17 3 18 4 19 5 20 6 21 7 22 8 23 9 24 10 25 11
REMARK SMILES IDX 26 12 27 13 28 14 29 15 30 16 14 17 13 18 12 19 11 20 10 21
REMARK SMILES IDX 9 22 8 23 7 24 6 25 5 26 4 27 3 28 2 29 1 30
REMARK H PARENT
REMARK Flexibility Score: inf
ROOT
ATOM      1  C   UNL     1      16.636  69.464  20.766  1.00  0.00     0.000 C 
ENDROOT
BRANCH   1   2
ATOM      2  C   UNL     1      16.304  68.901  19.371  1.00  0.00     0.000 C 
BRANCH   2   3
ATOM      3  C   UNL     1      17.327  69.336  18.304  1.00  0.00     0.000 C 
BRANCH   3   4
ATOM      4  C   UNL     1      16.751  69.471  16.880  1.00  0.00     0.000 C 
BRANCH   4   5
ATOM      5  C   UNL     1      16.886  70.872  16.245  1.00  0.00     0.000 C 
BRANCH   5   6
ATOM      6  C   UNL     1      15.565  71.650  16.093  1.00  0.00     0.000 C 
BRANCH   6   7
ATOM      7  C   UNL     1      15.137  72.354  17.391  1.00  0.00     0.000 C 
BRANCH   7   8
ATOM      8  C   UNL     1      14.125  71.531  18.206  1.00  0.00     0.000 C 
BRANCH   8   9
ATOM      9  C   UNL     1      12.695  71.606  17.637  1.00  0.00     0.000 C 
BRANCH   9  10
ATOM     10  C   UNL     1      12.258  70.296  16.961  1.00  0.00     0.000 C 
BRANCH  10  11
ATOM     11  C   UNL     1      13.146  69.101  17.349  1.00  0.00     0.000 C 
BRANCH  11  12
ATOM     12  C   UNL     1      12.487  68.187  18.401  1.00  0.00     0.006 C 
BRANCH  12  13
ATOM     13  C   UNL     1      13.147  66.803  18.517  1.00  0.00     0.053 C 
BRANCH  13  14
ATOM     14  C   UNL     1      12.706  65.866  17.434  1.00  0.00     0.041 C 
ATOM     15  O   UNL     1      11.675  65.161  17.588  1.00  0.00    -0.550 OA
ATOM     16  O   UNL     1      13.426  65.784  16.247  1.00  0.00    -0.550 OA
ENDBRANCH  13  14
ENDBRANCH  12  13
ENDBRANCH  11  12
ENDBRANCH  10  11
ENDBRANCH   9  10
ENDBRANCH   8   9
ENDBRANCH   7   8
ENDBRANCH   6   7
ENDBRANCH   5   6
ENDBRANCH   4   5
ENDBRANCH   3   4
ENDBRANCH   2   3
ENDBRANCH   1   2
BRANCH   1  17
ATOM     17  C   UNL     1      16.597  71.006  20.803  1.00  0.00     0.000 C 
BRANCH  17  18
ATOM     18  C   UNL     1      17.984  71.670  20.671  1.00  0.00     0.000 C 
BRANCH  18  19
ATOM     19  C   UNL     1      18.061  72.833  19.660  1.00  0.00     0.000 C 
BRANCH  19  20
ATOM     20  C   UNL     1      19.145  72.643  18.582  1.00  0.00     0.000 C 
BRANCH  20  21
ATOM     21  C   UNL     1      19.008  73.657  17.423  1.00  0.00     0.000 C 
BRANCH  21  22
ATOM     22  C   UNL     1      17.936  74.725  17.696  1.00  0.00    -0.000 C 
BRANCH  22  23
ATOM     23  C   UNL     1      17.391  75.325  16.388  1.00  0.00    -0.000 C 
BRANCH  23  24
ATOM     24  C   UNL     1      17.686  76.826  16.243  1.00  0.00    -0.000 C 
BRANCH  24  25
ATOM     25  C   UNL     1      19.193  77.135  16.207  1.00  0.00    -0.000 C 
BRANCH  25  26
ATOM     26  C   UNL     1      19.513  78.522  16.790  1.00  0.00    -0.000 C 
BRANCH  26  27
ATOM     27  C   UNL     1      20.417  78.435  18.031  1.00  0.00    -0.000 C 
BRANCH  27  28
ATOM     28  C   UNL     1      19.960  77.355  19.029  1.00  0.00    -0.000 C 
BRANCH  28  29
ATOM     29  C   UNL     1      21.031  76.303  19.377  1.00  0.00    -0.003 C 
ATOM     30  C   UNL     1      20.625  75.395  20.540  1.00  0.00     0.004 C 
ENDBRANCH  28  29
ENDBRANCH  27  28
ENDBRANCH  26  27
ENDBRANCH  25  26
ENDBRANCH  24  25
ENDBRANCH  23  24
ENDBRANCH  22  23
ENDBRANCH  21  22
ENDBRANCH  20  21
ENDBRANCH  19  20
ENDBRANCH  18  19
ENDBRANCH  17  18
ENDBRANCH   1  17
TORSDOF 26
ENDMDL
MODEL 2
REMARK VINA RESULT:    -4.609      3.310      7.963
REMARK INTER + INTRA:         -16.319
REMARK INTER:                 -12.109
REMARK INTRA:                  -4.211
REMARK UNBOUND:                -4.706
REMARK SMILES CCCCCCCCCCCCCCCCCCCCCCCCCCCC(=O)[O-]
REMARK SMILES IDX 15 1 16 2 17 3 18 4 19 5 20 6 21 7 22 8 23 9 24 10 25 11
REMARK SMILES IDX 26 12 27 13 28 14 29 15 30 16 14 17 13 18 12 19 11 20 10 21
REMARK SMILES IDX 9 22 8 23 7 24 6 25 5 26 4 27 3 28 2 29 1 30
REMARK H PARENT
REMARK Flexibility Score: inf
ROOT
ATOM      1  C   UNL     1      18.934  74.709  17.608  1.00  0.00     0.000 C 
ENDROOT
BRANCH   1   2
ATOM      2  C   UNL     1      17.994  75.893  17.315  1.00  0.00     0.000 C 
BRANCH   2   3
ATOM      3  C   UNL     1      16.557  75.438  16.995  1.00  0.00     0.000 C 
BRANCH   3   4
ATOM      4  C   UNL     1      16.413  73.932  16.693  1.00  0.00     0.000 C 
BRANCH   4   5
ATOM      5  C   UNL     1      15.334  73.196  17.515  1.00  0.00     0.000 C 
BRANCH   5   6
ATOM      6  C   UNL     1      15.627  73.079  19.023  1.00  0.00     0.000 C 
BRANCH   6   7
ATOM      7  C   UNL     1      15.270  71.696  19.593  1.00  0.00     0.000 C 
BRANCH   7   8
ATOM      8  C   UNL     1      16.147  71.305  20.794  1.00  0.00     0.000 C 
BRANCH   8   9
ATOM      9  C   UNL     1      16.183  69.785  21.040  1.00  0.00     0.000 C 
BRANCH   9  10
ATOM     10  C   UNL     1      17.019  69.404  22.273  1.00  0.00     0.000 C 
BRANCH  10  11
ATOM     11  C   UNL     1      16.239  69.560  23.591  1.00  0.00     0.000 C 
BRANCH  11  12
ATOM     12  C   UNL     1      16.898  68.811  24.765  1.00  0.00     0.006 C 
BRANCH  12  13
ATOM     13  C   UNL     1      17.077  67.304  24.515  1.00  0.00     0.053 C 
BRANCH  13  14
ATOM     14  C   UNL     1      16.921  66.494  25.766  1.00  0.00     0.041 C 
ATOM     15  O   UNL     1      17.744  66.621  26.710  1.00  0.00    -0.550 OA
ATOM     16  O   UNL     1      15.856  65.610  25.896  1.00  0.00    -0.550 OA
ENDBRANCH  13  14
ENDBRANCH  12  13
ENDBRANCH  11  12
ENDBRANCH  10  11
ENDBRANCH   9  10
ENDBRANCH   8   9
ENDBRANCH   7   8
ENDBRANCH   6   7
ENDBRANCH   5   6
ENDBRANCH   4   5
ENDBRANCH   3   4
ENDBRANCH   2   3
ENDBRANCH   1   2
BRANCH   1  17
ATOM     17  C   UNL     1      19.202  74.528  19.117  1.00  0.00     0.000 C 
BRANCH  17  18
ATOM     18  C   UNL     1      19.152  73.060  19.589  1.00  0.00     0.000 C 
BRANCH  18  19
ATOM     19  C   UNL     1      19.078  72.010  18.461  1.00  0.00     0.000 C 
BRANCH  19  20
ATOM     20  C   UNL     1      19.060  70.556  18.971  1.00  0.00     0.000 C 
BRANCH  20  21
ATOM     21  C   UNL     1      18.298  69.607  18.018  1.00  0.00     0.000 C 
BRANCH  21  22
ATOM     22  C   UNL     1      17.475  70.364  16.963  1.00  0.00    -0.000 C 
BRANCH  22  23
ATOM     23  C   UNL     1      16.562  69.412  16.169  1.00  0.00    -0.000 C 
BRANCH  23  24
ATOM     24  C   UNL     1      15.092  69.480  16.610  1.00  0.00    -0.000 C 
BRANCH  24  25
ATOM     25  C   UNL     1      14.545  68.116  17.067  1.00  0.00    -0.000 C 
BRANCH  25  26
ATOM     26  C   UNL     1      14.203  68.103  18.566  1.00  0.00    -0.000 C 
BRANCH  26  27
ATOM     27  C   UNL     1      13.625  66.751  19.019  1.00  0.00    -0.000 C 
BRANCH  27  28
ATOM     28  C   UNL     1      12.106  66.645  18.788  1.00  0.00    -0.000 C 
BRANCH  28  29
ATOM     29  C   UNL     1      11.692  65.724  17.623  1.00  0.00    -0.003 C 
ATOM     30  C   UNL     1      12.797  64.750  17.206  1.00  0.00     0.004 C 
ENDBRANCH  28  29
ENDBRANCH  27  28
ENDBRANCH  26  27
ENDBRANCH  25  26
ENDBRANCH  24  25
ENDBRANCH  23  24
ENDBRANCH  22  23
ENDBRANCH  21  22
ENDBRANCH  20  21
ENDBRANCH  19  20
ENDBRANCH  18  19
ENDBRANCH  17  18
ENDBRANCH   1  17
TORSDOF 26
ENDMDL
MODEL 3
REMARK VINA RESULT:    -4.563      2.921      4.072
REMARK INTER + INTRA:         -16.205
REMARK INTER:                 -12.247
REMARK INTRA:                  -3.958
REMARK UNBOUND:                -4.706
REMARK SMILES CCCCCCCCCCCCCCCCCCCCCCCCCCCC(=O)[O-]
REMARK SMILES IDX 15 1 16 2 17 3 18 4 19 5 20 6 21 7 22 8 23 9 24 10 25 11
REMARK SMILES IDX 26 12 27 13 28 14 29 15 30 16 14 17 13 18 12 19 11 20 10 21
REMARK SMILES IDX 9 22 8 23 7 24 6 25 5 26 4 27 3 28 2 29 1 30
REMARK H PARENT
REMARK Flexibility Score: inf
ROOT
ATOM      1  C   UNL     1      18.420  71.382  20.126  1.00  0.00     0.000 C 
ENDROOT
BRANCH   1   2
ATOM      2  C   UNL     1      19.036  70.601  18.950  1.00  0.00     0.000 C 
BRANCH   2   3
ATOM      3  C   UNL     1      18.071  69.545  18.377  1.00  0.00     0.000 C 
BRANCH   3   4
ATOM      4  C   UNL     1      16.857  69.230  19.274  1.00  0.00     0.000 C 
BRANCH   4   5
ATOM      5  C   UNL     1      15.554  68.882  18.523  1.00  0.00     0.000 C 
BRANCH   5   6
ATOM      6  C   UNL     1      15.649  68.946  16.987  1.00  0.00     0.000 C 
BRANCH   6   7
ATOM      7  C   UNL     1      14.291  69.220  16.318  1.00  0.00     0.000 C 
BRANCH   7   8
ATOM      8  C   UNL     1      13.106  69.021  17.278  1.00  0.00     0.000 C 
BRANCH   8   9
ATOM      9  C   UNL     1      12.197  70.261  17.372  1.00  0.00     0.000 C 
BRANCH   9  10
ATOM     10  C   UNL     1      12.701  71.432  16.512  1.00  0.00     0.000 C 
BRANCH  10  11
ATOM     11  C   UNL     1      11.817  72.685  16.639  1.00  0.00     0.000 C 
BRANCH  11  12
ATOM     12  C   UNL     1      11.023  72.723  17.959  1.00  0.00     0.006 C 
BRANCH  12  13
ATOM     13  C   UNL     1      11.275  73.988  18.796  1.00  0.00     0.053 C 
BRANCH  13  14
ATOM     14  C   UNL     1      10.175  74.252  19.778  1.00  0.00     0.041 C 
ATOM     15  O   UNL     1      10.433  74.776  20.893  1.00  0.00    -0.550 OA
ATOM     16  O   UNL     1       8.861  73.934  19.455  1.00  0.00    -0.550 OA
ENDBRANCH  13  14
ENDBRANCH  12  13
ENDBRANCH  11  12
ENDBRANCH  10  11
ENDBRANCH   9  10
ENDBRANCH   8   9
ENDBRANCH   7   8
ENDBRANCH   6   7
ENDBRANCH   5   6
ENDBRANCH   4   5
ENDBRANCH   3   4
ENDBRANCH   2   3
ENDBRANCH   1   2
BRANCH   1  17
ATOM     17  C   UNL     1      17.758  72.701  19.673  1.00  0.00     0.000 C 
BRANCH  17  18
ATOM     18  C   UNL     1      16.262  72.807  20.038  1.00  0.00     0.000 C 
BRANCH  18  19
ATOM     19  C   UNL     1      15.288  72.721  18.844  1.00  0.00     0.000 C 
BRANCH  19  20
ATOM     20  C   UNL     1      15.993  72.673  17.475  1.00  0.00     0.000 C 
BRANCH  20  21
ATOM     21  C   UNL     1      16.068  74.062  16.802  1.00  0.00     0.000 C 
BRANCH  21  22
ATOM     22  C   UNL     1      17.479  74.670  16.856  1.00  0.00    -0.000 C 
BRANCH  22  23
ATOM     23  C   UNL     1      17.444  76.198  16.676  1.00  0.00    -0.000 C 
BRANCH  23  24
ATOM     24  C   UNL     1      18.793  76.785  16.235  1.00  0.00    -0.000 C 
BRANCH  24  25
ATOM     25  C   UNL     1      19.056  78.182  16.827  1.00  0.00    -0.000 C 
BRANCH  25  26
ATOM     26  C   UNL     1      19.839  78.112  18.148  1.00  0.00    -0.000 C 
BRANCH  26  27
ATOM     27  C   UNL     1      21.061  77.181  18.051  1.00  0.00    -0.000 C 
BRANCH  27  28
ATOM     28  C   UNL     1      21.356  76.444  19.369  1.00  0.00    -0.000 C 
BRANCH  28  29
ATOM     29  C   UNL     1      20.435  75.242  19.657  1.00  0.00    -0.003 C 
ATOM     30  C   UNL     1      20.407  74.848  21.136  1.00  0.00     0.004 C 
ENDBRANCH  28  29
ENDBRANCH  27  28
ENDBRANCH  26  27
ENDBRANCH  25  26
ENDBRANCH  24  25
ENDBRANCH  23  24
ENDBRANCH  22  23
ENDBRANCH  21  22
ENDBRANCH  20  21
ENDBRANCH  19  20
ENDBRANCH  18  19
ENDBRANCH  17  18
ENDBRANCH   1  17
TORSDOF 26
ENDMDL
MODEL 4
REMARK VINA RESULT:    -4.517      4.110      8.120
REMARK INTER + INTRA:         -16.088
REMARK INTER:                 -11.658
REMARK INTRA:                  -4.430
REMARK UNBOUND:                -4.706
REMARK SMILES CCCCCCCCCCCCCCCCCCCCCCCCCCCC(=O)[O-]
REMARK SMILES IDX 15 1 16 2 17 3 18 4 19 5 20 6 21 7 22 8 23 9 24 10 25 11
REMARK SMILES IDX 26 12 27 13 28 14 29 15 30 16 14 17 13 18 12 19 11 20 10 21
REMARK SMILES IDX 9 22 8 23 7 24 6 25 5 26 4 27 3 28 2 29 1 30
REMARK H PARENT
REMARK Flexibility Score: inf
ROOT
ATOM      1  C   UNL     1      17.403  72.005  20.361  1.00  0.00     0.000 C 
ENDROOT
BRANCH   1   2
ATOM      2  C   UNL     1      18.702  71.184  20.269  1.00  0.00     0.000 C 
BRANCH   2   3
ATOM      3  C   UNL     1      18.877  70.512  18.893  1.00  0.00     0.000 C 
BRANCH   3   4
ATOM      4  C   UNL     1      18.351  71.339  17.703  1.00  0.00     0.000 C 
BRANCH   4   5
ATOM      5  C   UNL     1      17.446  70.572  16.716  1.00  0.00     0.000 C 
BRANCH   5   6
ATOM      6  C   UNL     1      16.146  71.298  16.322  1.00  0.00     0.000 C 
BRANCH   6   7
ATOM      7  C   UNL     1      15.995  72.664  17.012  1.00  0.00     0.000 C 
BRANCH   7   8
ATOM      8  C   UNL     1      15.741  73.807  16.016  1.00  0.00     0.000 C 
BRANCH   8   9
ATOM      9  C   UNL     1      16.578  75.064  16.321  1.00  0.00     0.000 C 
BRANCH   9  10
ATOM     10  C   UNL     1      18.064  74.744  16.555  1.00  0.00     0.000 C 
BRANCH  10  11
ATOM     11  C   UNL     1      18.530  75.094  17.979  1.00  0.00     0.000 C 
BRANCH  11  12
ATOM     12  C   UNL     1      17.851  76.363  18.533  1.00  0.00     0.006 C 
BRANCH  12  13
ATOM     13  C   UNL     1      18.824  77.334  19.222  1.00  0.00     0.053 C 
BRANCH  13  14
ATOM     14  C   UNL     1      19.873  77.852  18.286  1.00  0.00     0.041 C 
ATOM     15  O   UNL     1      21.092  77.647  18.526  1.00  0.00    -0.550 OA
ATOM     16  O   UNL     1      19.504  78.548  17.140  1.00  0.00    -0.550 OA
ENDBRANCH  13  14
ENDBRANCH  12  13
ENDBRANCH  11  12
ENDBRANCH  10  11
ENDBRANCH   9  10
ENDBRANCH   8   9
ENDBRANCH   7   8
ENDBRANCH   6   7
ENDBRANCH   5   6
ENDBRANCH   4   5
ENDBRANCH   3   4
ENDBRANCH   2   3
ENDBRANCH   1   2
BRANCH   1  17
ATOM     17  C   UNL     1      16.164  71.121  20.615  1.00  0.00     0.000 C 
BRANCH  17  18
ATOM     18  C   UNL     1      16.463  69.845  21.431  1.00  0.00     0.000 C 
BRANCH  18  19
ATOM     19  C   UNL     1      16.226  68.518  20.681  1.00  0.00     0.000 C 
BRANCH  19  20
ATOM     20  C   UNL     1      15.711  68.704  19.242  1.00  0.00     0.000 C 
BRANCH  20  21
ATOM     21  C   UNL     1      14.447  67.863  18.954  1.00  0.00     0.000 C 
BRANCH  21  22
ATOM     22  C   UNL     1      13.794  68.217  17.608  1.00  0.00    -0.000 C 
BRANCH  22  23
ATOM     23  C   UNL     1      13.224  69.646  17.616  1.00  0.00    -0.000 C 
BRANCH  23  24
ATOM     24  C   UNL     1      11.699  69.688  17.432  1.00  0.00    -0.000 C 
BRANCH  24  25
ATOM     25  C   UNL     1      11.172  71.107  17.152  1.00  0.00    -0.000 C 
BRANCH  25  26
ATOM     26  C   UNL     1      12.263  72.025  16.576  1.00  0.00    -0.000 C 
BRANCH  26  27
ATOM     27  C   UNL     1      12.275  73.407  17.253  1.00  0.00    -0.000 C 
BRANCH  27  28
ATOM     28  C   UNL     1      12.205  73.320  18.788  1.00  0.00    -0.000 C 
BRANCH  28  29
ATOM     29  C   UNL     1      11.093  74.170  19.434  1.00  0.00    -0.003 C 
ATOM     30  C   UNL     1       9.753  74.061  18.703  1.00  0.00     0.004 C 
ENDBRANCH  28  29
ENDBRANCH  27  28
ENDBRANCH  26  27
ENDBRANCH  25  26
ENDBRANCH  24  25
ENDBRANCH  23  24
ENDBRANCH  22  23
ENDBRANCH  21  22
ENDBRANCH  20  21
ENDBRANCH  19  20
ENDBRANCH  18  19
ENDBRANCH  17  18
ENDBRANCH   1  17
TORSDOF 26
ENDMDL
MODEL 5
REMARK VINA RESULT:    -4.506      1.400      2.408
REMARK INTER + INTRA:         -16.062
REMARK INTER:                 -11.470
REMARK INTRA:                  -4.592
REMARK UNBOUND:                -4.706
REMARK SMILES CCCCCCCCCCCCCCCCCCCCCCCCCCCC(=O)[O-]
REMARK SMILES IDX 15 1 16 2 17 3 18 4 19 5 20 6 21 7 22 8 23 9 24 10 25 11
REMARK SMILES IDX 26 12 27 13 28 14 29 15 30 16 14 17 13 18 12 19 11 20 10 21
REMARK SMILES IDX 9 22 8 23 7 24 6 25 5 26 4 27 3 28 2 29 1 30
REMARK H PARENT
REMARK Flexibility Score: inf
ROOT
ATOM      1  C   UNL     1      17.752  69.339  18.440  1.00  0.00     0.000 C 
ENDROOT
BRANCH   1   2
ATOM      2  C   UNL     1      17.598  69.846  16.994  1.00  0.00     0.000 C 
BRANCH   2   3
ATOM      3  C   UNL     1      17.543  71.384  16.913  1.00  0.00     0.000 C 
BRANCH   3   4
ATOM      4  C   UNL     1      16.524  71.937  15.897  1.00  0.00     0.000 C 
BRANCH   4   5
ATOM      5  C   UNL     1      16.114  73.410  16.110  1.00  0.00     0.000 C 
BRANCH   5   6
ATOM      6  C   UNL     1      14.646  73.627  16.519  1.00  0.00     0.000 C 
BRANCH   6   7
ATOM      7  C   UNL     1      14.440  73.582  18.043  1.00  0.00     0.000 C 
BRANCH   7   8
ATOM      8  C   UNL     1      13.793  72.269  18.514  1.00  0.00     0.000 C 
BRANCH   8   9
ATOM      9  C   UNL     1      12.465  71.963  17.795  1.00  0.00     0.000 C 
BRANCH   9  10
ATOM     10  C   UNL     1      12.491  70.617  17.051  1.00  0.00     0.000 C 
BRANCH  10  11
ATOM     11  C   UNL     1      13.921  70.112  16.786  1.00  0.00     0.000 C 
BRANCH  11  12
ATOM     12  C   UNL     1      14.026  68.575  16.827  1.00  0.00     0.006 C 
BRANCH  12  13
ATOM     13  C   UNL     1      13.988  67.991  18.249  1.00  0.00     0.053 C 
BRANCH  13  14
ATOM     14  C   UNL     1      12.792  67.118  18.477  1.00  0.00     0.041 C 
ATOM     15  O   UNL     1      12.937  65.944  18.909  1.00  0.00    -0.550 OA
ATOM     16  O   UNL     1      11.515  67.606  18.227  1.00  0.00    -0.550 OA
ENDBRANCH  13  14
ENDBRANCH  12  13
ENDBRANCH  11  12
ENDBRANCH  10  11
ENDBRANCH   9  10
ENDBRANCH   8   9
ENDBRANCH   7   8
ENDBRANCH   6   7
ENDBRANCH   5   6
ENDBRANCH   4   5
ENDBRANCH   3   4
ENDBRANCH   2   3
ENDBRANCH   1   2
BRANCH   1  17
ATOM     17  C   UNL     1      16.738  69.991  19.403  1.00  0.00     0.000 C 
BRANCH  17  18
ATOM     18  C   UNL     1      17.371  70.537  20.701  1.00  0.00     0.000 C 
BRANCH  18  19
ATOM     19  C   UNL     1      18.113  71.881  20.554  1.00  0.00     0.000 C 
BRANCH  19  20
ATOM     20  C   UNL     1      17.198  73.050  20.141  1.00  0.00     0.000 C 
BRANCH  20  21
ATOM     21  C   UNL     1      17.947  74.123  19.319  1.00  0.00     0.000 C 
BRANCH  21  22
ATOM     22  C   UNL     1      19.470  73.913  19.322  1.00  0.00    -0.000 C 
BRANCH  22  23
ATOM     23  C   UNL     1      20.039  73.891  17.891  1.00  0.00    -0.000 C 
BRANCH  23  24
ATOM     24  C   UNL     1      19.286  74.822  16.929  1.00  0.00    -0.000 C 
BRANCH  24  25
ATOM     25  C   UNL     1      20.149  76.002  16.448  1.00  0.00    -0.000 C 
BRANCH  25  26
ATOM     26  C   UNL     1      21.318  76.292  17.404  1.00  0.00    -0.000 C 
BRANCH  26  27
ATOM     27  C   UNL     1      21.006  77.451  18.367  1.00  0.00    -0.000 C 
BRANCH  27  28
ATOM     28  C   UNL     1      19.717  78.205  17.996  1.00  0.00    -0.000 C 
BRANCH  28  29
ATOM     29  C   UNL     1      19.939  79.591  17.358  1.00  0.00    -0.003 C 
ATOM     30  C   UNL     1      20.739  80.542  18.252  1.00  0.00     0.004 C 
ENDBRANCH  28  29
ENDBRANCH  27  28
ENDBRANCH  26  27
ENDBRANCH  25  26
ENDBRANCH  24  25
ENDBRANCH  23  24
ENDBRANCH  22  23
ENDBRANCH  21  22
ENDBRANCH  20  21
ENDBRANCH  19  20
ENDBRANCH  18  19
ENDBRANCH  17  18
ENDBRANCH   1  17
TORSDOF 26
ENDMDL
MODEL 6
REMARK VINA RESULT:    -4.456      2.939      4.430
REMARK INTER + INTRA:         -15.936
REMARK INTER:                 -12.211
REMARK INTRA:                  -3.725
REMARK UNBOUND:                -4.706
REMARK SMILES CCCCCCCCCCCCCCCCCCCCCCCCCCCC(=O)[O-]
REMARK SMILES IDX 15 1 16 2 17 3 18 4 19 5 20 6 21 7 22 8 23 9 24 10 25 11
REMARK SMILES IDX 26 12 27 13 28 14 29 15 30 16 14 17 13 18 12 19 11 20 10 21
REMARK SMILES IDX 9 22 8 23 7 24 6 25 5 26 4 27 3 28 2 29 1 30
REMARK H PARENT
REMARK Flexibility Score: inf
ROOT
ATOM      1  C   UNL     1      18.031  72.530  20.029  1.00  0.00     0.000 C 
ENDROOT
BRANCH   1   2
ATOM      2  C   UNL     1      18.494  71.103  20.377  1.00  0.00     0.000 C 
BRANCH   2   3
ATOM      3  C   UNL     1      17.931  70.049  19.404  1.00  0.00     0.000 C 
BRANCH   3   4
ATOM      4  C   UNL     1      16.811  69.166  19.992  1.00  0.00     0.000 C 
BRANCH   4   5
ATOM      5  C   UNL     1      15.639  68.864  19.035  1.00  0.00     0.000 C 
BRANCH   5   6
ATOM      6  C   UNL     1      15.905  69.190  17.553  1.00  0.00     0.000 C 
BRANCH   6   7
ATOM      7  C   UNL     1      14.637  69.094  16.687  1.00  0.00     0.000 C 
BRANCH   7   8
ATOM      8  C   UNL     1      13.371  68.825  17.517  1.00  0.00     0.000 C 
BRANCH   8   9
ATOM      9  C   UNL     1      12.415  70.033  17.558  1.00  0.00     0.000 C 
BRANCH   9  10
ATOM     10  C   UNL     1      12.988  71.267  16.843  1.00  0.00     0.000 C 
BRANCH  10  11
ATOM     11  C   UNL     1      11.980  72.427  16.758  1.00  0.00     0.000 C 
BRANCH  11  12
ATOM     12  C   UNL     1      11.861  73.210  18.081  1.00  0.00     0.006 C 
BRANCH  12  13
ATOM     13  C   UNL     1      10.623  74.119  18.151  1.00  0.00     0.053 C 
BRANCH  13  14
ATOM     14  C   UNL     1       9.961  74.081  19.495  1.00  0.00     0.041 C 
ATOM     15  O   UNL     1       8.863  73.484  19.644  1.00  0.00    -0.550 OA
ATOM     16  O   UNL     1      10.566  74.693  20.588  1.00  0.00    -0.550 OA
ENDBRANCH  13  14
ENDBRANCH  12  13
ENDBRANCH  11  12
ENDBRANCH  10  11
ENDBRANCH   9  10
ENDBRANCH   8   9
ENDBRANCH   7   8
ENDBRANCH   6   7
ENDBRANCH   5   6
ENDBRANCH   4   5
ENDBRANCH   3   4
ENDBRANCH   2   3
ENDBRANCH   1   2
BRANCH   1  17
ATOM     17  C   UNL     1      16.553  72.775  20.398  1.00  0.00     0.000 C 
BRANCH  17  18
ATOM     18  C   UNL     1      15.724  73.417  19.265  1.00  0.00     0.000 C 
BRANCH  18  19
ATOM     19  C   UNL     1      16.074  72.935  17.842  1.00  0.00     0.000 C 
BRANCH  19  20
ATOM     20  C   UNL     1      15.684  73.936  16.738  1.00  0.00     0.000 C 
BRANCH  20  21
ATOM     21  C   UNL     1      15.732  75.402  17.226  1.00  0.00     0.000 C 
BRANCH  21  22
ATOM     22  C   UNL     1      17.086  76.074  16.944  1.00  0.00    -0.000 C 
BRANCH  22  23
ATOM     23  C   UNL     1      17.966  76.122  18.206  1.00  0.00    -0.000 C 
BRANCH  23  24
ATOM     24  C   UNL     1      19.291  75.362  18.046  1.00  0.00    -0.000 C 
BRANCH  24  25
ATOM     25  C   UNL     1      20.357  75.804  19.066  1.00  0.00    -0.000 C 
BRANCH  25  26
ATOM     26  C   UNL     1      20.920  77.198  18.746  1.00  0.00    -0.000 C 
BRANCH  26  27
ATOM     27  C   UNL     1      20.800  77.545  17.251  1.00  0.00    -0.000 C 
BRANCH  27  28
ATOM     28  C   UNL     1      20.040  78.861  17.004  1.00  0.00    -0.000 C 
BRANCH  28  29
ATOM     29  C   UNL     1      19.924  79.781  18.235  1.00  0.00    -0.003 C 
ATOM     30  C   UNL     1      21.016  80.852  18.290  1.00  0.00     0.004 C 
ENDBRANCH  28  29
ENDBRANCH  27  28
ENDBRANCH  26  27
ENDBRANCH  25  26
ENDBRANCH  24  25
ENDBRANCH  23  24
ENDBRANCH  22  23
ENDBRANCH  21  22
ENDBRANCH  20  21
ENDBRANCH  19  20
ENDBRANCH  18  19
ENDBRANCH  17  18
ENDBRANCH   1  17
TORSDOF 26
ENDMDL
MODEL 7
REMARK VINA RESULT:    -4.388      2.901      4.958
REMARK INTER + INTRA:         -15.764
REMARK INTER:                 -11.294
REMARK INTRA:                  -4.470
REMARK UNBOUND:                -4.706
REMARK SMILES CCCCCCCCCCCCCCCCCCCCCCCCCCCC(=O)[O-]
REMARK SMILES IDX 15 1 16 2 17 3 18 4 19 5 20 6 21 7 22 8 23 9 24 10 25 11
REMARK SMILES IDX 26 12 27 13 28 14 29 15 30 16 14 17 13 18 12 19 11 20 10 21
REMARK SMILES IDX 9 22 8 23 7 24 6 25 5 26 4 27 3 28 2 29 1 30
REMARK H PARENT
REMARK Flexibility Score: inf
ROOT
ATOM      1  C   UNL     1      15.268  73.932  18.958  1.00  0.00     0.000 C 
ENDROOT
BRANCH   1   2
ATOM      2  C   UNL     1      14.064  73.011  19.231  1.00  0.00     0.000 C 
BRANCH   2   3
ATOM      3  C   UNL     1      12.719  73.758  19.135  1.00  0.00     0.000 C 
BRANCH   3   4
ATOM      4  C   UNL     1      11.646  73.042  18.290  1.00  0.00     0.000 C 
BRANCH   4   5
ATOM      5  C   UNL     1      11.921  73.004  16.771  1.00  0.00     0.000 C 
BRANCH   5   6
ATOM      6  C   UNL     1      12.068  71.594  16.169  1.00  0.00     0.000 C 
BRANCH   6   7
ATOM      7  C   UNL     1      12.209  70.501  17.241  1.00  0.00     0.000 C 
BRANCH   7   8
ATOM      8  C   UNL     1      13.361  69.525  16.945  1.00  0.00     0.000 C 
BRANCH   8   9
ATOM      9  C   UNL     1      14.651  70.239  16.499  1.00  0.00     0.000 C 
BRANCH   9  10
ATOM     10  C   UNL     1      15.905  69.689  17.199  1.00  0.00     0.000 C 
BRANCH  10  11
ATOM     11  C   UNL     1      15.832  69.811  18.731  1.00  0.00     0.000 C 
BRANCH  11  12
ATOM     12  C   UNL     1      17.098  69.282  19.432  1.00  0.00     0.006 C 
BRANCH  12  13
ATOM     13  C   UNL     1      18.278  70.268  19.404  1.00  0.00     0.053 C 
BRANCH  13  14
ATOM     14  C   UNL     1      18.347  71.112  20.640  1.00  0.00     0.041 C 
ATOM     15  O   UNL     1      17.851  72.269  20.646  1.00  0.00    -0.550 OA
ATOM     16  O   UNL     1      18.947  70.614  21.791  1.00  0.00    -0.550 OA
ENDBRANCH  13  14
ENDBRANCH  12  13
ENDBRANCH  11  12
ENDBRANCH  10  11
ENDBRANCH   9  10
ENDBRANCH   8   9
ENDBRANCH   7   8
ENDBRANCH   6   7
ENDBRANCH   5   6
ENDBRANCH   4   5
ENDBRANCH   3   4
ENDBRANCH   2   3
ENDBRANCH   1   2
BRANCH   1  17
ATOM     17  C   UNL     1      14.879  75.182  18.139  1.00  0.00     0.000 C 
BRANCH  17  18
ATOM     18  C   UNL     1      15.546  75.252  16.749  1.00  0.00     0.000 C 
BRANCH  18  19
ATOM     19  C   UNL     1      15.558  73.927  15.960  1.00  0.00     0.000 C 
BRANCH  19  20
ATOM     20  C   UNL     1      16.901  73.176  16.032  1.00  0.00     0.000 C 
BRANCH  20  21
ATOM     21  C   UNL     1      18.048  74.069  16.558  1.00  0.00     0.000 C 
BRANCH  21  22
ATOM     22  C   UNL     1      18.886  73.376  17.644  1.00  0.00    -0.000 C 
BRANCH  22  23
ATOM     23  C   UNL     1      19.990  74.304  18.183  1.00  0.00    -0.000 C 
BRANCH  23  24
ATOM     24  C   UNL     1      19.585  75.039  19.470  1.00  0.00    -0.000 C 
BRANCH  24  25
ATOM     25  C   UNL     1      19.788  76.561  19.374  1.00  0.00    -0.000 C 
BRANCH  25  26
ATOM     26  C   UNL     1      18.615  77.257  18.664  1.00  0.00    -0.000 C 
BRANCH  26  27
ATOM     27  C   UNL     1      18.906  77.511  17.174  1.00  0.00    -0.000 C 
BRANCH  27  28
ATOM     28  C   UNL     1      20.221  78.278  16.946  1.00  0.00    -0.000 C 
BRANCH  28  29
ATOM     29  C   UNL     1      20.084  79.813  16.965  1.00  0.00    -0.003 C 
ATOM     30  C   UNL     1      20.610  80.447  18.255  1.00  0.00     0.004 C 
ENDBRANCH  28  29
ENDBRANCH  27  28
ENDBRANCH  26  27
ENDBRANCH  25  26
ENDBRANCH  24  25
ENDBRANCH  23  24
ENDBRANCH  22  23
ENDBRANCH  21  22
ENDBRANCH  20  21
ENDBRANCH  19  20
ENDBRANCH  18  19
ENDBRANCH  17  18
ENDBRANCH   1  17
TORSDOF 26
ENDMDL
MODEL 8
REMARK VINA RESULT:    -4.375      2.980      7.140
REMARK INTER + INTRA:         -15.730
REMARK INTER:                 -11.250
REMARK INTRA:                  -4.480
REMARK UNBOUND:                -4.706
REMARK SMILES CCCCCCCCCCCCCCCCCCCCCCCCCCCC(=O)[O-]
REMARK SMILES IDX 15 1 16 2 17 3 18 4 19 5 20 6 21 7 22 8 23 9 24 10 25 11
REMARK SMILES IDX 26 12 27 13 28 14 29 15 30 16 14 17 13 18 12 19 11 20 10 21
REMARK SMILES IDX 9 22 8 23 7 24 6 25 5 26 4 27 3 28 2 29 1 30
REMARK H PARENT
REMARK Flexibility Score: inf
ROOT
ATOM      1  C   UNL     1      20.147  76.765  18.925  1.00  0.00     0.000 C 
ENDROOT
BRANCH   1   2
ATOM      2  C   UNL     1      20.831  76.774  17.545  1.00  0.00     0.000 C 
BRANCH   2   3
ATOM      3  C   UNL     1      19.830  76.571  16.391  1.00  0.00     0.000 C 
BRANCH   3   4
ATOM      4  C   UNL     1      18.470  77.269  16.591  1.00  0.00     0.000 C 
BRANCH   4   5
ATOM      5  C   UNL     1      17.248  76.502  16.042  1.00  0.00     0.000 C 
BRANCH   5   6
ATOM      6  C   UNL     1      17.423  74.975  15.949  1.00  0.00     0.000 C 
BRANCH   6   7
ATOM      7  C   UNL     1      16.113  74.210  16.202  1.00  0.00     0.000 C 
BRANCH   7   8
ATOM      8  C   UNL     1      15.687  74.236  17.679  1.00  0.00     0.000 C 
BRANCH   8   9
ATOM      9  C   UNL     1      15.432  72.830  18.255  1.00  0.00     0.000 C 
BRANCH   9  10
ATOM     10  C   UNL     1      14.013  72.673  18.827  1.00  0.00     0.000 C 
BRANCH  10  11
ATOM     11  C   UNL     1      12.984  72.259  17.760  1.00  0.00     0.000 C 
BRANCH  11  12
ATOM     12  C   UNL     1      11.582  72.839  18.028  1.00  0.00     0.006 C 
BRANCH  12  13
ATOM     13  C   UNL     1      11.531  73.804  19.225  1.00  0.00     0.053 C 
BRANCH  13  14
ATOM     14  C   UNL     1      10.158  74.357  19.455  1.00  0.00     0.041 C 
ATOM     15  O   UNL     1       9.279  74.264  18.559  1.00  0.00    -0.550 OA
ATOM     16  O   UNL     1       9.844  74.963  20.667  1.00  0.00    -0.550 OA
ENDBRANCH  13  14
ENDBRANCH  12  13
ENDBRANCH  11  12
ENDBRANCH  10  11
ENDBRANCH   9  10
ENDBRANCH   8   9
ENDBRANCH   7   8
ENDBRANCH   6   7
ENDBRANCH   5   6
ENDBRANCH   4   5
ENDBRANCH   3   4
ENDBRANCH   2   3
ENDBRANCH   1   2
BRANCH   1  17
ATOM     17  C   UNL     1      20.829  75.794  19.913  1.00  0.00     0.000 C 
BRANCH  17  18
ATOM     18  C   UNL     1      19.930  74.622  20.358  1.00  0.00     0.000 C 
BRANCH  18  19
ATOM     19  C   UNL     1      18.936  74.115  19.292  1.00  0.00     0.000 C 
BRANCH  19  20
ATOM     20  C   UNL     1      19.528  73.045  18.356  1.00  0.00     0.000 C 
BRANCH  20  21
ATOM     21  C   UNL     1      18.571  71.849  18.149  1.00  0.00     0.000 C 
BRANCH  21  22
ATOM     22  C   UNL     1      19.161  70.524  18.661  1.00  0.00    -0.000 C 
BRANCH  22  23
ATOM     23  C   UNL     1      18.089  69.653  19.339  1.00  0.00    -0.000 C 
BRANCH  23  24
ATOM     24  C   UNL     1      17.128  70.460  20.225  1.00  0.00    -0.000 C 
BRANCH  24  25
ATOM     25  C   UNL     1      15.840  69.688  20.563  1.00  0.00    -0.000 C 
BRANCH  25  26
ATOM     26  C   UNL     1      15.808  68.299  19.902  1.00  0.00    -0.000 C 
BRANCH  26  27
ATOM     27  C   UNL     1      14.604  68.133  18.958  1.00  0.00    -0.000 C 
BRANCH  27  28
ATOM     28  C   UNL     1      14.667  69.072  17.740  1.00  0.00    -0.000 C 
BRANCH  28  29
ATOM     29  C   UNL     1      15.821  68.782  16.760  1.00  0.00    -0.003 C 
ATOM     30  C   UNL     1      16.274  70.020  15.982  1.00  0.00     0.004 C 
ENDBRANCH  28  29
ENDBRANCH  27  28
ENDBRANCH  26  27
ENDBRANCH  25  26
ENDBRANCH  24  25
ENDBRANCH  23  24
ENDBRANCH  22  23
ENDBRANCH  21  22
ENDBRANCH  20  21
ENDBRANCH  19  20
ENDBRANCH  18  19
ENDBRANCH  17  18
ENDBRANCH   1  17
TORSDOF 26
ENDMDL
MODEL 9
REMARK VINA RESULT:    -4.293      4.144      8.581
REMARK INTER + INTRA:         -15.524
REMARK INTER:                 -11.449
REMARK INTRA:                  -4.075
REMARK UNBOUND:                -4.706
REMARK SMILES CCCCCCCCCCCCCCCCCCCCCCCCCCCC(=O)[O-]
REMARK SMILES IDX 15 1 16 2 17 3 18 4 19 5 20 6 21 7 22 8 23 9 24 10 25 11
REMARK SMILES IDX 26 12 27 13 28 14 29 15 30 16 14 17 13 18 12 19 11 20 10 21
REMARK SMILES IDX 9 22 8 23 7 24 6 25 5 26 4 27 3 28 2 29 1 30
REMARK H PARENT
REMARK Flexibility Score: inf
ROOT
ATOM      1  C   UNL     1      18.609  71.545  18.317  1.00  0.00     0.000 C 
ENDROOT
BRANCH   1   2
ATOM      2  C   UNL     1      18.047  70.759  17.118  1.00  0.00     0.000 C 
BRANCH   2   3
ATOM      3  C   UNL     1      16.581  71.123  16.812  1.00  0.00     0.000 C 
BRANCH   3   4
ATOM      4  C   UNL     1      16.314  72.633  16.656  1.00  0.00     0.000 C 
BRANCH   4   5
ATOM      5  C   UNL     1      15.513  73.283  17.805  1.00  0.00     0.000 C 
BRANCH   5   6
ATOM      6  C   UNL     1      15.534  74.822  17.827  1.00  0.00     0.000 C 
BRANCH   6   7
ATOM      7  C   UNL     1      16.069  75.429  16.519  1.00  0.00     0.000 C 
BRANCH   7   8
ATOM      8  C   UNL     1      17.401  76.173  16.712  1.00  0.00     0.000 C 
BRANCH   8   9
ATOM      9  C   UNL     1      18.615  75.367  16.212  1.00  0.00     0.000 C 
BRANCH   9  10
ATOM     10  C   UNL     1      19.555  74.944  17.353  1.00  0.00     0.000 C 
BRANCH  10  11
ATOM     11  C   UNL     1      19.068  75.421  18.733  1.00  0.00     0.000 C 
BRANCH  11  12
ATOM     12  C   UNL     1      20.022  76.445  19.379  1.00  0.00     0.006 C 
BRANCH  12  13
ATOM     13  C   UNL     1      20.949  77.147  18.373  1.00  0.00     0.053 C 
BRANCH  13  14
ATOM     14  C   UNL     1      20.325  78.376  17.783  1.00  0.00     0.041 C 
ATOM     15  O   UNL     1      19.853  79.269  18.533  1.00  0.00    -0.550 OA
ATOM     16  O   UNL     1      20.280  78.540  16.403  1.00  0.00    -0.550 OA
ENDBRANCH  13  14
ENDBRANCH  12  13
ENDBRANCH  11  12
ENDBRANCH  10  11
ENDBRANCH   9  10
ENDBRANCH   8   9
ENDBRANCH   7   8
ENDBRANCH   6   7
ENDBRANCH   5   6
ENDBRANCH   4   5
ENDBRANCH   3   4
ENDBRANCH   2   3
ENDBRANCH   1   2
BRANCH   1  17
ATOM     17  C   UNL     1      18.379  70.818  19.658  1.00  0.00     0.000 C 
BRANCH  17  18
ATOM     18  C   UNL     1      17.247  71.426  20.514  1.00  0.00     0.000 C 
BRANCH  18  19
ATOM     19  C   UNL     1      16.216  70.414  21.053  1.00  0.00     0.000 C 
BRANCH  19  20
ATOM     20  C   UNL     1      16.666  68.946  20.924  1.00  0.00     0.000 C 
BRANCH  20  21
ATOM     21  C   UNL     1      15.717  68.116  20.030  1.00  0.00     0.000 C 
BRANCH  21  22
ATOM     22  C   UNL     1      15.163  68.924  18.845  1.00  0.00    -0.000 C 
BRANCH  22  23
ATOM     23  C   UNL     1      14.148  68.104  18.028  1.00  0.00    -0.000 C 
BRANCH  23  24
ATOM     24  C   UNL     1      12.842  68.865  17.752  1.00  0.00    -0.000 C 
BRANCH  24  25
ATOM     25  C   UNL     1      13.066  70.373  17.537  1.00  0.00    -0.000 C 
BRANCH  25  26
ATOM     26  C   UNL     1      11.742  71.137  17.371  1.00  0.00    -0.000 C 
BRANCH  26  27
ATOM     27  C   UNL     1      11.966  72.637  17.110  1.00  0.00    -0.000 C 
BRANCH  27  28
ATOM     28  C   UNL     1      11.754  73.499  18.367  1.00  0.00    -0.000 C 
BRANCH  28  29
ATOM     29  C   UNL     1      10.281  73.694  18.777  1.00  0.00    -0.003 C 
ATOM     30  C   UNL     1      10.117  74.504  20.065  1.00  0.00     0.004 C 
ENDBRANCH  28  29
ENDBRANCH  27  28
ENDBRANCH  26  27
ENDBRANCH  25  26
ENDBRANCH  24  25
ENDBRANCH  23  24
ENDBRANCH  22  23
ENDBRANCH  21  22
ENDBRANCH  20  21
ENDBRANCH  19  20
ENDBRANCH  18  19
ENDBRANCH  17  18
ENDBRANCH   1  17
TORSDOF 26
ENDMDL
