MODEL 1
REMARK VINA RESULT:    -2.245      0.000      0.000
REMARK INTER + INTRA:          -3.382
REMARK INTER:                  -3.163
REMARK INTRA:                  -0.218
REMARK UNBOUND:                -0.218
REMARK SMILES CCCCCCCCC(=O)[O-]
REMARK SMILES IDX 6 1 7 2 8 3 9 4 10 5 11 6 5 7 4 8 3 9 2 10 1 11
REMARK H PARENT
REMARK Flexibility Score: inf
ROOT
ATOM      1  C   UNL     1      89.407  18.025 120.038  1.00  0.00     0.000 C 
ENDROOT
BRANCH   1   2
ATOM      2  C   UNL     1      90.828  18.111 120.613  1.00  0.00     0.006 C 
BRANCH   2   3
ATOM      3  C   UNL     1      91.877  18.006 119.502  1.00  0.00     0.053 C 
BRANCH   3   4
ATOM      4  C   UNL     1      92.759  16.818 119.723  1.00  0.00     0.041 C 
ATOM      5  O   UNL     1      93.147  16.125 118.745  1.00  0.00    -0.550 OA
ATOM      6  O   UNL     1      93.194  16.504 121.004  1.00  0.00    -0.550 OA
ENDBRANCH   3   4
ENDBRANCH   2   3
ENDBRANCH   1   2
BRANCH   1   7
ATOM      7  C   UNL     1      88.314  18.163 121.115  1.00  0.00     0.000 C 
BRANCH   7   8
ATOM      8  C   UNL     1      87.302  19.298 120.872  1.00  0.00    -0.000 C 
BRANCH   8   9
ATOM      9  C   UNL     1      85.849  18.868 121.120  1.00  0.00    -0.000 C 
BRANCH   9  10
ATOM     10  C   UNL     1      85.525  17.571 120.370  1.00  0.00    -0.003 C 
ATOM     11  C   UNL     1      84.038  17.240 120.457  1.00  0.00     0.004 C 
ENDBRANCH   9  10
ENDBRANCH   8   9
ENDBRANCH   7   8
ENDBRANCH   1   7
TORSDOF 7
ENDMDL
MODEL 2
REMARK VINA RESULT:    -1.984      1.363      2.034
REMARK INTER + INTRA:          -3.014
REMARK INTER:                  -2.854
REMARK INTRA:                  -0.160
REMARK UNBOUND:                -0.218
REMARK SMILES CCCCCCCCC(=O)[O-]
REMARK SMILES IDX 6 1 7 2 8 3 9 4 10 5 11 6 5 7 4 8 3 9 2 10 1 11
REMARK H PARENT
REMARK Flexibility Score: inf
ROOT
ATOM      1  C   UNL     1      91.089  17.701 119.896  1.00  0.00     0.000 C 
ENDROOT
BRANCH   1   2
ATOM      2  C   UNL     1      92.368  17.253 120.620  1.00  0.00     0.006 C 
BRANCH   2   3
ATOM      3  C   UNL     1      93.315  16.526 119.660  1.00  0.00     0.053 C 
BRANCH   3   4
ATOM      4  C   UNL     1      94.338  15.747 120.423  1.00  0.00     0.041 C 
ATOM      5  O   UNL     1      95.240  16.346 121.067  1.00  0.00    -0.550 OA
ATOM      6  O   UNL     1      94.267  14.361 120.464  1.00  0.00    -0.550 OA
ENDBRANCH   3   4
ENDBRANCH   2   3
ENDBRANCH   1   2
BRANCH   1   7
ATOM      7  C   UNL     1      90.003  18.216 120.859  1.00  0.00     0.000 C 
BRANCH   7   8
ATOM      8  C   UNL     1      88.573  18.211 120.288  1.00  0.00    -0.000 C 
BRANCH   8   9
ATOM      9  C   UNL     1      87.590  19.042 121.125  1.00  0.00    -0.000 C 
BRANCH   9  10
ATOM     10  C   UNL     1      86.195  18.406 121.125  1.00  0.00    -0.003 C 
ATOM     11  C   UNL     1      86.067  17.357 120.025  1.00  0.00     0.004 C 
ENDBRANCH   9  10
ENDBRANCH   8   9
ENDBRANCH   7   8
ENDBRANCH   1   7
TORSDOF 7
ENDMDL
MODEL 3
REMARK VINA RESULT:    -1.511      4.140      6.686
REMARK INTER + INTRA:          -2.348
REMARK INTER:                  -2.173
REMARK INTRA:                  -0.176
REMARK UNBOUND:                -0.218
REMARK SMILES CCCCCCCCC(=O)[O-]
REMARK SMILES IDX 6 1 7 2 8 3 9 4 10 5 11 6 5 7 4 8 3 9 2 10 1 11
REMARK H PARENT
REMARK Flexibility Score: inf
ROOT
ATOM      1  C   UNL     1      87.724  18.420 120.166  1.00  0.00     0.000 C 
ENDROOT
BRANCH   1   2
ATOM      2  C   UNL     1      86.746  17.715 121.116  1.00  0.00     0.006 C 
BRANCH   2   3
ATOM      3  C   UNL     1      85.386  18.419 121.125  1.00  0.00     0.053 C 
BRANCH   3   4
ATOM      4  C   UNL     1      84.302  17.472 120.719  1.00  0.00     0.041 C 
ATOM      5  O   UNL     1      84.586  16.296 120.369  1.00  0.00    -0.550 OA
ATOM      6  O   UNL     1      82.973  17.871 120.775  1.00  0.00    -0.550 OA
ENDBRANCH   3   4
ENDBRANCH   2   3
ENDBRANCH   1   2
BRANCH   1   7
ATOM      7  C   UNL     1      88.950  19.006 120.891  1.00  0.00     0.000 C 
BRANCH   7   8
ATOM      8  C   UNL     1      90.104  18.015 121.123  1.00  0.00    -0.000 C 
BRANCH   8   9
ATOM      9  C   UNL     1      91.171  18.068 120.019  1.00  0.00    -0.000 C 
BRANCH   9  10
ATOM     10  C   UNL     1      92.433  17.305 120.438  1.00  0.00    -0.003 C 
ATOM     11  C   UNL     1      93.026  16.532 119.264  1.00  0.00     0.004 C 
ENDBRANCH   9  10
ENDBRANCH   8   9
ENDBRANCH   7   8
ENDBRANCH   1   7
TORSDOF 7
ENDMDL
MODEL 4
REMARK VINA RESULT:    -0.835      3.253      6.790
REMARK INTER + INTRA:          -1.395
REMARK INTER:                  -1.124
REMARK INTRA:                  -0.271
REMARK UNBOUND:                -0.218
REMARK SMILES CCCCCCCCC(=O)[O-]
REMARK SMILES IDX 6 1 7 2 8 3 9 4 10 5 11 6 5 7 4 8 3 9 2 10 1 11
REMARK H PARENT
REMARK Flexibility Score: inf
ROOT
ATOM      1  C   UNL     1      90.951  18.143 119.654  1.00  0.00     0.000 C 
ENDROOT
BRANCH   1   2
ATOM      2  C   UNL     1      90.010  17.905 120.844  1.00  0.00     0.006 C 
BRANCH   2   3
ATOM      3  C   UNL     1      89.112  19.123 121.084  1.00  0.00     0.053 C 
BRANCH   3   4
ATOM      4  C   UNL     1      87.684  18.787 120.793  1.00  0.00     0.041 C 
ATOM      5  O   UNL     1      86.765  19.583 121.125  1.00  0.00    -0.550 OA
ATOM      6  O   UNL     1      87.370  17.619 120.111  1.00  0.00    -0.550 OA
ENDBRANCH   3   4
ENDBRANCH   2   3
ENDBRANCH   1   2
BRANCH   1   7
ATOM      7  C   UNL     1      92.142  17.167 119.625  1.00  0.00     0.000 C 
BRANCH   7   8
ATOM      8  C   UNL     1      92.968  17.111 120.923  1.00  0.00    -0.000 C 
BRANCH   8   9
ATOM      9  C   UNL     1      93.722  15.784 121.097  1.00  0.00    -0.000 C 
BRANCH   9  10
ATOM     10  C   UNL     1      95.042  15.797 120.317  1.00  0.00    -0.003 C 
ATOM     11  C   UNL     1      96.140  16.506 121.103  1.00  0.00     0.004 C 
ENDBRANCH   9  10
ENDBRANCH   8   9
ENDBRANCH   7   8
ENDBRANCH   1   7
TORSDOF 7
ENDMDL
MODEL 5
REMARK VINA RESULT:    -0.549      3.654      6.681
REMARK INTER + INTRA:          -0.991
REMARK INTER:                  -0.838
REMARK INTRA:                  -0.153
REMARK UNBOUND:                -0.218
REMARK SMILES CCCCCCCCC(=O)[O-]
REMARK SMILES IDX 6 1 7 2 8 3 9 4 10 5 11 6 5 7 4 8 3 9 2 10 1 11
REMARK H PARENT
REMARK Flexibility Score: inf
ROOT
ATOM      1  C   UNL     1      89.246  18.161 120.055  1.00  0.00     0.000 C 
ENDROOT
BRANCH   1   2
ATOM      2  C   UNL     1      88.144  17.801 121.062  1.00  0.00     0.006 C 
BRANCH   2   3
ATOM      3  C   UNL     1      86.961  18.767 120.948  1.00  0.00     0.053 C 
BRANCH   3   4
ATOM      4  C   UNL     1      85.678  18.010 120.804  1.00  0.00     0.041 C 
ATOM      5  O   UNL     1      84.575  18.606 120.919  1.00  0.00    -0.550 OA
ATOM      6  O   UNL     1      85.701  16.657 120.492  1.00  0.00    -0.550 OA
ENDBRANCH   3   4
ENDBRANCH   2   3
ENDBRANCH   1   2
BRANCH   1   7
ATOM      7  C   UNL     1      90.631  18.317 120.710  1.00  0.00     0.000 C 
BRANCH   7   8
ATOM      8  C   UNL     1      91.748  17.465 120.080  1.00  0.00    -0.000 C 
BRANCH   8   9
ATOM      9  C   UNL     1      92.629  16.764 121.125  1.00  0.00    -0.000 C 
BRANCH   9  10
ATOM     10  C   UNL     1      94.051  16.555 120.592  1.00  0.00    -0.003 C 
ATOM     11  C   UNL     1      94.286  15.098 120.206  1.00  0.00     0.004 C 
ENDBRANCH   9  10
ENDBRANCH   8   9
ENDBRANCH   7   8
ENDBRANCH   1   7
TORSDOF 7
ENDMDL
MODEL 6
REMARK VINA RESULT:     0.343      3.568      6.626
REMARK INTER + INTRA:           0.265
REMARK INTER:                  -0.198
REMARK INTRA:                   0.463
REMARK UNBOUND:                -0.218
REMARK SMILES CCCCCCCCC(=O)[O-]
REMARK SMILES IDX 6 1 7 2 8 3 9 4 10 5 11 6 5 7 4 8 3 9 2 10 1 11
REMARK H PARENT
REMARK Flexibility Score: inf
ROOT
ATOM      1  C   UNL     1      92.709  16.634 119.302  1.00  0.00     0.000 C 
ENDROOT
BRANCH   1   2
ATOM      2  C   UNL     1      92.766  17.296 120.687  1.00  0.00     0.006 C 
BRANCH   2   3
ATOM      3  C   UNL     1      91.378  17.771 121.125  1.00  0.00     0.053 C 
BRANCH   3   4
ATOM      4  C   UNL     1      90.554  18.152 119.935  1.00  0.00     0.041 C 
ATOM      5  O   UNL     1      91.110  18.590 118.893  1.00  0.00    -0.550 OA
ATOM      6  O   UNL     1      89.177  17.976 119.959  1.00  0.00    -0.550 OA
ENDBRANCH   3   4
ENDBRANCH   2   3
ENDBRANCH   1   2
BRANCH   1   7
ATOM      7  C   UNL     1      93.859  15.638 119.064  1.00  0.00     0.000 C 
BRANCH   7   8
ATOM      8  C   UNL     1      94.973  15.665 120.127  1.00  0.00    -0.000 C 
BRANCH   8   9
ATOM      9  C   UNL     1      95.074  14.355 120.923  1.00  0.00    -0.000 C 
BRANCH   9  10
ATOM     10  C   UNL     1      93.716  13.647 120.988  1.00  0.00    -0.003 C 
ATOM     11  C   UNL     1      93.888  12.137 121.125  1.00  0.00     0.004 C 
ENDBRANCH   9  10
ENDBRANCH   8   9
ENDBRANCH   7   8
ENDBRANCH   1   7
TORSDOF 7
ENDMDL
MODEL 7
REMARK VINA RESULT:     0.660     14.275     15.580
REMARK INTER + INTRA:           0.712
REMARK INTER:                   0.992
REMARK INTRA:                  -0.280
REMARK UNBOUND:                -0.218
REMARK SMILES CCCCCCCCC(=O)[O-]
REMARK SMILES IDX 6 1 7 2 8 3 9 4 10 5 11 6 5 7 4 8 3 9 2 10 1 11
REMARK H PARENT
REMARK Flexibility Score: inf
ROOT
ATOM      1  C   UNL     1      88.177   7.846 109.656  1.00  0.00     0.000 C 
ENDROOT
BRANCH   1   2
ATOM      2  C   UNL     1      87.067   7.339 110.588  1.00  0.00     0.006 C 
BRANCH   2   3
ATOM      3  C   UNL     1      87.645   6.882 111.931  1.00  0.00     0.053 C 
BRANCH   3   4
ATOM      4  C   UNL     1      86.605   6.962 113.004  1.00  0.00     0.041 C 
ATOM      5  O   UNL     1      85.383   6.970 112.702  1.00  0.00    -0.550 OA
ATOM      6  O   UNL     1      86.984   6.976 114.339  1.00  0.00    -0.550 OA
ENDBRANCH   3   4
ENDBRANCH   2   3
ENDBRANCH   1   2
BRANCH   1   7
ATOM      7  C   UNL     1      89.425   6.943 109.661  1.00  0.00     0.000 C 
BRANCH   7   8
ATOM      8  C   UNL     1      90.182   6.875 108.322  1.00  0.00    -0.000 C 
BRANCH   8   9
ATOM      9  C   UNL     1      90.763   8.231 107.891  1.00  0.00    -0.000 C 
BRANCH   9  10
ATOM     10  C   UNL     1      90.611   8.437 106.380  1.00  0.00    -0.003 C 
ATOM     11  C   UNL     1      89.860   9.729 106.072  1.00  0.00     0.004 C 
ENDBRANCH   9  10
ENDBRANCH   8   9
ENDBRANCH   7   8
ENDBRANCH   1   7
TORSDOF 7
ENDMDL
