MODEL 1
REMARK VINA RESULT:    -4.398      0.000      0.000
REMARK INTER + INTRA:          -9.066
REMARK INTER:                  -7.998
REMARK INTRA:                  -1.069
REMARK UNBOUND:                -1.069
REMARK SMILES CCCCCCCCCCCCCCCC(=O)[O-]
REMARK SMILES IDX 9 1 10 2 11 3 12 4 13 5 14 6 15 7 16 8 17 9 18 10 8 11 7 12
REMARK SMILES IDX 6 13 5 14 4 15 3 16 2 17 1 18
REMARK H PARENT
REMARK Flexibility Score: inf
ROOT
ATOM      1  C   UNL     1     -28.480  22.365  27.702  1.00  0.00     0.000 C 
ENDROOT
BRANCH   1   2
ATOM      2  C   UNL     1     -28.699  22.649  26.206  1.00  0.00     0.000 C 
BRANCH   2   3
ATOM      3  C   UNL     1     -28.347  21.442  25.318  1.00  0.00     0.000 C 
BRANCH   3   4
ATOM      4  C   UNL     1     -28.950  21.549  23.909  1.00  0.00     0.000 C 
BRANCH   4   5
ATOM      5  C   UNL     1     -29.496  20.209  23.392  1.00  0.00     0.000 C 
BRANCH   5   6
ATOM      6  C   UNL     1     -31.031  20.230  23.331  1.00  0.00     0.006 C 
BRANCH   6   7
ATOM      7  C   UNL     1     -31.672  19.724  24.629  1.00  0.00     0.053 C 
BRANCH   7   8
ATOM      8  C   UNL     1     -33.146  19.508  24.474  1.00  0.00     0.041 C 
ATOM      9  O   UNL     1     -33.921  20.493  24.354  1.00  0.00    -0.550 OA
ATOM     10  O   UNL     1     -33.668  18.220  24.496  1.00  0.00    -0.550 OA
ENDBRANCH   7   8
ENDBRANCH   6   7
ENDBRANCH   5   6
ENDBRANCH   4   5
ENDBRANCH   3   4
ENDBRANCH   2   3
ENDBRANCH   1   2
BRANCH   1  11
ATOM     11  C   UNL     1     -29.498  21.358  28.267  1.00  0.00     0.000 C 
BRANCH  11  12
ATOM     12  C   UNL     1     -30.948  21.849  28.133  1.00  0.00    -0.000 C 
BRANCH  12  13
ATOM     13  C   UNL     1     -31.442  22.591  29.389  1.00  0.00    -0.000 C 
BRANCH  13  14
ATOM     14  C   UNL     1     -31.359  24.118  29.243  1.00  0.00    -0.000 C 
BRANCH  14  15
ATOM     15  C   UNL     1     -31.850  24.860  30.495  1.00  0.00    -0.000 C 
BRANCH  15  16
ATOM     16  C   UNL     1     -32.798  23.980  31.319  1.00  0.00    -0.000 C 
BRANCH  16  17
ATOM     17  C   UNL     1     -34.140  24.683  31.551  1.00  0.00    -0.003 C 
ATOM     18  C   UNL     1     -34.402  25.739  30.480  1.00  0.00     0.004 C 
ENDBRANCH  16  17
ENDBRANCH  15  16
ENDBRANCH  14  15
ENDBRANCH  13  14
ENDBRANCH  12  13
ENDBRANCH  11  12
ENDBRANCH   1  11
TORSDOF 14
ENDMDL
MODEL 2
REMARK VINA RESULT:    -4.363      3.348      7.385
REMARK INTER + INTRA:          -9.002
REMARK INTER:                  -7.640
REMARK INTRA:                  -1.362
REMARK UNBOUND:                -1.069
REMARK SMILES CCCCCCCCCCCCCCCC(=O)[O-]
REMARK SMILES IDX 9 1 10 2 11 3 12 4 13 5 14 6 15 7 16 8 17 9 18 10 8 11 7 12
REMARK SMILES IDX 6 13 5 14 4 15 3 16 2 17 1 18
REMARK H PARENT
REMARK Flexibility Score: inf
ROOT
ATOM      1  C   UNL     1     -30.021  21.171  26.677  1.00  0.00     0.000 C 
ENDROOT
BRANCH   1   2
ATOM      2  C   UNL     1     -30.882  21.605  27.875  1.00  0.00     0.000 C 
BRANCH   2   3
ATOM      3  C   UNL     1     -30.333  22.862  28.573  1.00  0.00     0.000 C 
BRANCH   3   4
ATOM      4  C   UNL     1     -30.080  22.643  30.073  1.00  0.00     0.000 C 
BRANCH   4   5
ATOM      5  C   UNL     1     -31.152  23.297  30.958  1.00  0.00     0.000 C 
BRANCH   5   6
ATOM      6  C   UNL     1     -31.589  24.651  30.380  1.00  0.00     0.006 C 
BRANCH   6   7
ATOM      7  C   UNL     1     -33.080  24.677  30.020  1.00  0.00     0.053 C 
BRANCH   7   8
ATOM      8  C   UNL     1     -33.871  25.507  30.985  1.00  0.00     0.041 C 
ATOM      9  O   UNL     1     -34.306  26.636  30.641  1.00  0.00    -0.550 OA
ATOM     10  O   UNL     1     -34.097  25.045  32.277  1.00  0.00    -0.550 OA
ENDBRANCH   7   8
ENDBRANCH   6   7
ENDBRANCH   5   6
ENDBRANCH   4   5
ENDBRANCH   3   4
ENDBRANCH   2   3
ENDBRANCH   1   2
BRANCH   1  11
ATOM     11  C   UNL     1     -28.657  21.884  26.641  1.00  0.00     0.000 C 
BRANCH  11  12
ATOM     12  C   UNL     1     -28.307  22.417  25.243  1.00  0.00    -0.000 C 
BRANCH  12  13
ATOM     13  C   UNL     1     -28.247  21.303  24.181  1.00  0.00    -0.000 C 
BRANCH  13  14
ATOM     14  C   UNL     1     -29.112  21.614  22.950  1.00  0.00    -0.000 C 
BRANCH  14  15
ATOM     15  C   UNL     1     -30.365  20.729  22.868  1.00  0.00    -0.000 C 
BRANCH  15  16
ATOM     16  C   UNL     1     -30.102  19.347  23.477  1.00  0.00    -0.000 C 
BRANCH  16  17
ATOM     17  C   UNL     1     -31.386  18.752  24.068  1.00  0.00    -0.003 C 
ATOM     18  C   UNL     1     -32.446  19.830  24.281  1.00  0.00     0.004 C 
ENDBRANCH  16  17
ENDBRANCH  15  16
ENDBRANCH  14  15
ENDBRANCH  13  14
ENDBRANCH  12  13
ENDBRANCH  11  12
ENDBRANCH   1  11
TORSDOF 14
ENDMDL
MODEL 3
REMARK VINA RESULT:    -4.299      3.299      5.143
REMARK INTER + INTRA:          -8.886
REMARK INTER:                  -6.873
REMARK INTRA:                  -2.012
REMARK UNBOUND:                -1.069
REMARK SMILES CCCCCCCCCCCCCCCC(=O)[O-]
REMARK SMILES IDX 9 1 10 2 11 3 12 4 13 5 14 6 15 7 16 8 17 9 18 10 8 11 7 12
REMARK SMILES IDX 6 13 5 14 4 15 3 16 2 17 1 18
REMARK H PARENT
REMARK Flexibility Score: inf
ROOT
ATOM      1  C   UNL     1     -28.113  18.207  23.844  1.00  0.00     0.000 C 
ENDROOT
BRANCH   1   2
ATOM      2  C   UNL     1     -28.899  18.292  22.524  1.00  0.00     0.000 C 
BRANCH   2   3
ATOM      3  C   UNL     1     -30.422  18.310  22.745  1.00  0.00     0.000 C 
BRANCH   3   4
ATOM      4  C   UNL     1     -30.978  19.733  22.908  1.00  0.00     0.000 C 
BRANCH   4   5
ATOM      5  C   UNL     1     -31.570  19.984  24.304  1.00  0.00     0.000 C 
BRANCH   5   6
ATOM      6  C   UNL     1     -33.042  19.550  24.361  1.00  0.00     0.006 C 
BRANCH   6   7
ATOM      7  C   UNL     1     -33.325  18.606  25.537  1.00  0.00     0.053 C 
BRANCH   7   8
ATOM      8  C   UNL     1     -33.945  17.321  25.081  1.00  0.00     0.041 C 
ATOM      9  O   UNL     1     -34.654  16.645  25.872  1.00  0.00    -0.550 OA
ATOM     10  O   UNL     1     -33.712  16.854  23.793  1.00  0.00    -0.550 OA
ENDBRANCH   7   8
ENDBRANCH   6   7
ENDBRANCH   5   6
ENDBRANCH   4   5
ENDBRANCH   3   4
ENDBRANCH   2   3
ENDBRANCH   1   2
BRANCH   1  11
ATOM     11  C   UNL     1     -27.258  19.461  24.103  1.00  0.00     0.000 C 
BRANCH  11  12
ATOM     12  C   UNL     1     -27.289  20.448  22.926  1.00  0.00    -0.000 C 
BRANCH  12  13
ATOM     13  C   UNL     1     -27.528  21.901  23.377  1.00  0.00    -0.000 C 
BRANCH  13  14
ATOM     14  C   UNL     1     -28.608  22.012  24.464  1.00  0.00    -0.000 C 
BRANCH  14  15
ATOM     15  C   UNL     1     -28.118  22.764  25.711  1.00  0.00    -0.000 C 
BRANCH  15  16
ATOM     16  C   UNL     1     -28.960  22.398  26.939  1.00  0.00    -0.000 C 
BRANCH  16  17
ATOM     17  C   UNL     1     -29.264  20.896  26.970  1.00  0.00    -0.003 C 
ATOM     18  C   UNL     1     -30.480  20.598  27.843  1.00  0.00     0.004 C 
ENDBRANCH  16  17
ENDBRANCH  15  16
ENDBRANCH  14  15
ENDBRANCH  13  14
ENDBRANCH  12  13
ENDBRANCH  11  12
ENDBRANCH   1  11
TORSDOF 14
ENDMDL
MODEL 4
REMARK VINA RESULT:    -4.286      3.424      6.008
REMARK INTER + INTRA:          -8.862
REMARK INTER:                  -7.428
REMARK INTRA:                  -1.434
REMARK UNBOUND:                -1.069
REMARK SMILES CCCCCCCCCCCCCCCC(=O)[O-]
REMARK SMILES IDX 9 1 10 2 11 3 12 4 13 5 14 6 15 7 16 8 17 9 18 10 8 11 7 12
REMARK SMILES IDX 6 13 5 14 4 15 3 16 2 17 1 18
REMARK H PARENT
REMARK Flexibility Score: inf
ROOT
ATOM      1  C   UNL     1     -30.924  19.128  24.661  1.00  0.00     0.000 C 
ENDROOT
BRANCH   1   2
ATOM      2  C   UNL     1     -32.273  19.780  24.309  1.00  0.00     0.000 C 
BRANCH   2   3
ATOM      3  C   UNL     1     -33.466  19.048  24.948  1.00  0.00     0.000 C 
BRANCH   3   4
ATOM      4  C   UNL     1     -33.677  17.641  24.366  1.00  0.00     0.000 C 
BRANCH   4   5
ATOM      5  C   UNL     1     -33.516  16.533  25.418  1.00  0.00     0.000 C 
BRANCH   5   6
ATOM      6  C   UNL     1     -34.455  16.768  26.610  1.00  0.00     0.006 C 
BRANCH   6   7
ATOM      7  C   UNL     1     -34.721  15.482  27.404  1.00  0.00     0.053 C 
BRANCH   7   8
ATOM      8  C   UNL     1     -33.458  14.908  27.970  1.00  0.00     0.041 C 
ATOM      9  O   UNL     1     -32.786  15.561  28.810  1.00  0.00    -0.550 OA
ATOM     10  O   UNL     1     -33.007  13.664  27.544  1.00  0.00    -0.550 OA
ENDBRANCH   7   8
ENDBRANCH   6   7
ENDBRANCH   5   6
ENDBRANCH   4   5
ENDBRANCH   3   4
ENDBRANCH   2   3
ENDBRANCH   1   2
BRANCH   1  11
ATOM     11  C   UNL     1     -29.854  19.367  23.581  1.00  0.00     0.000 C 
BRANCH  11  12
ATOM     12  C   UNL     1     -30.105  20.652  22.776  1.00  0.00    -0.000 C 
BRANCH  12  13
ATOM     13  C   UNL     1     -28.991  21.698  22.967  1.00  0.00    -0.000 C 
BRANCH  13  14
ATOM     14  C   UNL     1     -28.128  21.422  24.208  1.00  0.00    -0.000 C 
BRANCH  14  15
ATOM     15  C   UNL     1     -28.474  22.343  25.387  1.00  0.00    -0.000 C 
BRANCH  15  16
ATOM     16  C   UNL     1     -28.625  21.542  26.685  1.00  0.00    -0.000 C 
BRANCH  16  17
ATOM     17  C   UNL     1     -29.620  22.217  27.636  1.00  0.00    -0.003 C 
ATOM     18  C   UNL     1     -30.917  21.418  27.735  1.00  0.00     0.004 C 
ENDBRANCH  16  17
ENDBRANCH  15  16
ENDBRANCH  14  15
ENDBRANCH  13  14
ENDBRANCH  12  13
ENDBRANCH  11  12
ENDBRANCH   1  11
TORSDOF 14
ENDMDL
MODEL 5
REMARK VINA RESULT:    -4.282      1.528      2.592
REMARK INTER + INTRA:          -8.856
REMARK INTER:                  -8.031
REMARK INTRA:                  -0.825
REMARK UNBOUND:                -1.069
REMARK SMILES CCCCCCCCCCCCCCCC(=O)[O-]
REMARK SMILES IDX 9 1 10 2 11 3 12 4 13 5 14 6 15 7 16 8 17 9 18 10 8 11 7 12
REMARK SMILES IDX 6 13 5 14 4 15 3 16 2 17 1 18
REMARK H PARENT
REMARK Flexibility Score: inf
ROOT
ATOM      1  C   UNL     1     -28.929  21.984  25.211  1.00  0.00     0.000 C 
ENDROOT
BRANCH   1   2
ATOM      2  C   UNL     1     -29.744  20.682  25.119  1.00  0.00     0.000 C 
BRANCH   2   3
ATOM      3  C   UNL     1     -30.207  20.376  23.684  1.00  0.00     0.000 C 
BRANCH   3   4
ATOM      4  C   UNL     1     -31.427  19.441  23.644  1.00  0.00     0.000 C 
BRANCH   4   5
ATOM      5  C   UNL     1     -32.669  20.058  24.306  1.00  0.00     0.000 C 
BRANCH   5   6
ATOM      6  C   UNL     1     -33.501  18.981  25.020  1.00  0.00     0.006 C 
BRANCH   6   7
ATOM      7  C   UNL     1     -32.715  17.680  25.225  1.00  0.00     0.053 C 
BRANCH   7   8
ATOM      8  C   UNL     1     -33.590  16.576  25.734  1.00  0.00     0.041 C 
ATOM      9  O   UNL     1     -33.392  15.389  25.364  1.00  0.00    -0.550 OA
ATOM     10  O   UNL     1     -34.646  16.863  26.591  1.00  0.00    -0.550 OA
ENDBRANCH   7   8
ENDBRANCH   6   7
ENDBRANCH   5   6
ENDBRANCH   4   5
ENDBRANCH   3   4
ENDBRANCH   2   3
ENDBRANCH   1   2
BRANCH   1  11
ATOM     11  C   UNL     1     -29.043  22.655  26.592  1.00  0.00     0.000 C 
BRANCH  11  12
ATOM     12  C   UNL     1     -30.094  21.982  27.488  1.00  0.00    -0.000 C 
BRANCH  12  13
ATOM     13  C   UNL     1     -30.315  22.737  28.813  1.00  0.00    -0.000 C 
BRANCH  13  14
ATOM     14  C   UNL     1     -31.787  22.736  29.254  1.00  0.00    -0.000 C 
BRANCH  14  15
ATOM     15  C   UNL     1     -32.007  23.477  30.582  1.00  0.00    -0.000 C 
BRANCH  15  16
ATOM     16  C   UNL     1     -32.228  24.975  30.344  1.00  0.00    -0.000 C 
BRANCH  16  17
ATOM     17  C   UNL     1     -33.697  25.356  30.561  1.00  0.00    -0.003 C 
ATOM     18  C   UNL     1     -34.280  24.638  31.775  1.00  0.00     0.004 C 
ENDBRANCH  16  17
ENDBRANCH  15  16
ENDBRANCH  14  15
ENDBRANCH  13  14
ENDBRANCH  12  13
ENDBRANCH  11  12
ENDBRANCH   1  11
TORSDOF 14
ENDMDL
MODEL 6
REMARK VINA RESULT:    -4.278      3.073      6.745
REMARK INTER + INTRA:          -8.849
REMARK INTER:                  -8.014
REMARK INTRA:                  -0.835
REMARK UNBOUND:                -1.069
REMARK SMILES CCCCCCCCCCCCCCCC(=O)[O-]
REMARK SMILES IDX 9 1 10 2 11 3 12 4 13 5 14 6 15 7 16 8 17 9 18 10 8 11 7 12
REMARK SMILES IDX 6 13 5 14 4 15 3 16 2 17 1 18
REMARK H PARENT
REMARK Flexibility Score: inf
ROOT
ATOM      1  C   UNL     1     -29.115  20.664  24.645  1.00  0.00     0.000 C 
ENDROOT
BRANCH   1   2
ATOM      2  C   UNL     1     -28.298  21.957  24.807  1.00  0.00     0.000 C 
BRANCH   2   3
ATOM      3  C   UNL     1     -28.531  22.636  26.168  1.00  0.00     0.000 C 
BRANCH   3   4
ATOM      4  C   UNL     1     -29.688  21.999  26.955  1.00  0.00     0.000 C 
BRANCH   4   5
ATOM      5  C   UNL     1     -29.781  22.516  28.399  1.00  0.00     0.000 C 
BRANCH   5   6
ATOM      6  C   UNL     1     -31.229  22.880  28.758  1.00  0.00     0.006 C 
BRANCH   6   7
ATOM      7  C   UNL     1     -31.308  24.067  29.728  1.00  0.00     0.053 C 
BRANCH   7   8
ATOM      8  C   UNL     1     -32.633  24.129  30.424  1.00  0.00     0.041 C 
ATOM      9  O   UNL     1     -33.461  25.030  30.130  1.00  0.00    -0.550 OA
ATOM     10  O   UNL     1     -32.939  23.211  31.422  1.00  0.00    -0.550 OA
ENDBRANCH   7   8
ENDBRANCH   6   7
ENDBRANCH   5   6
ENDBRANCH   4   5
ENDBRANCH   3   4
ENDBRANCH   2   3
ENDBRANCH   1   2
BRANCH   1  11
ATOM     11  C   UNL     1     -30.128  20.747  23.489  1.00  0.00     0.000 C 
BRANCH  11  12
ATOM     12  C   UNL     1     -31.224  19.674  23.588  1.00  0.00    -0.000 C 
BRANCH  12  13
ATOM     13  C   UNL     1     -32.048  19.786  24.885  1.00  0.00    -0.000 C 
BRANCH  13  14
ATOM     14  C   UNL     1     -33.523  19.408  24.681  1.00  0.00    -0.000 C 
BRANCH  14  15
ATOM     15  C   UNL     1     -33.719  17.908  24.413  1.00  0.00    -0.000 C 
BRANCH  15  16
ATOM     16  C   UNL     1     -33.295  17.074  25.627  1.00  0.00    -0.000 C 
BRANCH  16  17
ATOM     17  C   UNL     1     -34.495  16.340  26.236  1.00  0.00    -0.003 C 
ATOM     18  C   UNL     1     -34.247  16.001  27.703  1.00  0.00     0.004 C 
ENDBRANCH  16  17
ENDBRANCH  15  16
ENDBRANCH  14  15
ENDBRANCH  13  14
ENDBRANCH  12  13
ENDBRANCH  11  12
ENDBRANCH   1  11
TORSDOF 14
ENDMDL
MODEL 7
REMARK VINA RESULT:    -4.263      3.223      7.369
REMARK INTER + INTRA:          -8.820
REMARK INTER:                  -8.081
REMARK INTRA:                  -0.739
REMARK UNBOUND:                -1.069
REMARK SMILES CCCCCCCCCCCCCCCC(=O)[O-]
REMARK SMILES IDX 9 1 10 2 11 3 12 4 13 5 14 6 15 7 16 8 17 9 18 10 8 11 7 12
REMARK SMILES IDX 6 13 5 14 4 15 3 16 2 17 1 18
REMARK H PARENT
REMARK Flexibility Score: inf
ROOT
ATOM      1  C   UNL     1     -28.686  22.071  27.054  1.00  0.00     0.000 C 
ENDROOT
BRANCH   1   2
ATOM      2  C   UNL     1     -30.107  21.997  27.638  1.00  0.00     0.000 C 
BRANCH   2   3
ATOM      3  C   UNL     1     -30.210  22.656  29.025  1.00  0.00     0.000 C 
BRANCH   3   4
ATOM      4  C   UNL     1     -31.618  23.195  29.320  1.00  0.00     0.000 C 
BRANCH   4   5
ATOM      5  C   UNL     1     -31.604  24.633  29.861  1.00  0.00     0.000 C 
BRANCH   5   6
ATOM      6  C   UNL     1     -32.708  24.836  30.909  1.00  0.00     0.006 C 
BRANCH   6   7
ATOM      7  C   UNL     1     -33.134  23.518  31.569  1.00  0.00     0.053 C 
BRANCH   7   8
ATOM      8  C   UNL     1     -34.351  23.693  32.425  1.00  0.00     0.041 C 
ATOM      9  O   UNL     1     -35.383  24.239  31.955  1.00  0.00    -0.550 OA
ATOM     10  O   UNL     1     -34.332  23.282  33.753  1.00  0.00    -0.550 OA
ENDBRANCH   7   8
ENDBRANCH   6   7
ENDBRANCH   5   6
ENDBRANCH   4   5
ENDBRANCH   3   4
ENDBRANCH   2   3
ENDBRANCH   1   2
BRANCH   1  11
ATOM     11  C   UNL     1     -28.684  22.183  25.519  1.00  0.00     0.000 C 
BRANCH  11  12
ATOM     12  C   UNL     1     -28.992  20.844  24.831  1.00  0.00    -0.000 C 
BRANCH  12  13
ATOM     13  C   UNL     1     -29.627  21.024  23.439  1.00  0.00    -0.000 C 
BRANCH  13  14
ATOM     14  C   UNL     1     -30.828  20.093  23.213  1.00  0.00    -0.000 C 
BRANCH  14  15
ATOM     15  C   UNL     1     -31.521  19.692  24.525  1.00  0.00    -0.000 C 
BRANCH  15  16
ATOM     16  C   UNL     1     -33.045  19.693  24.363  1.00  0.00    -0.000 C 
BRANCH  16  17
ATOM     17  C   UNL     1     -33.687  18.574  25.193  1.00  0.00    -0.003 C 
ATOM     18  C   UNL     1     -33.862  17.305  24.364  1.00  0.00     0.004 C 
ENDBRANCH  16  17
ENDBRANCH  15  16
ENDBRANCH  14  15
ENDBRANCH  13  14
ENDBRANCH  12  13
ENDBRANCH  11  12
ENDBRANCH   1  11
TORSDOF 14
ENDMDL
MODEL 8
REMARK VINA RESULT:    -4.236      3.278      6.845
REMARK INTER + INTRA:          -8.772
REMARK INTER:                  -6.611
REMARK INTRA:                  -2.161
REMARK UNBOUND:                -1.069
REMARK SMILES CCCCCCCCCCCCCCCC(=O)[O-]
REMARK SMILES IDX 9 1 10 2 11 3 12 4 13 5 14 6 15 7 16 8 17 9 18 10 8 11 7 12
REMARK SMILES IDX 6 13 5 14 4 15 3 16 2 17 1 18
REMARK H PARENT
REMARK Flexibility Score: inf
ROOT
ATOM      1  C   UNL     1     -27.124  19.440  25.571  1.00  0.00     0.000 C 
ENDROOT
BRANCH   1   2
ATOM      2  C   UNL     1     -28.318  19.157  26.499  1.00  0.00     0.000 C 
BRANCH   2   3
ATOM      3  C   UNL     1     -28.448  20.196  27.627  1.00  0.00     0.000 C 
BRANCH   3   4
ATOM      4  C   UNL     1     -28.414  21.641  27.104  1.00  0.00     0.000 C 
BRANCH   4   5
ATOM      5  C   UNL     1     -29.718  22.405  27.383  1.00  0.00     0.000 C 
BRANCH   5   6
ATOM      6  C   UNL     1     -30.188  22.178  28.827  1.00  0.00     0.006 C 
BRANCH   6   7
ATOM      7  C   UNL     1     -31.418  23.025  29.179  1.00  0.00     0.053 C 
BRANCH   7   8
ATOM      8  C   UNL     1     -31.176  23.883  30.383  1.00  0.00     0.041 C 
ATOM      9  O   UNL     1     -30.631  23.397  31.408  1.00  0.00    -0.550 OA
ATOM     10  O   UNL     1     -31.584  25.212  30.385  1.00  0.00    -0.550 OA
ENDBRANCH   7   8
ENDBRANCH   6   7
ENDBRANCH   5   6
ENDBRANCH   4   5
ENDBRANCH   3   4
ENDBRANCH   2   3
ENDBRANCH   1   2
BRANCH   1  11
ATOM     11  C   UNL     1     -27.228  18.690  24.230  1.00  0.00     0.000 C 
BRANCH  11  12
ATOM     12  C   UNL     1     -27.122  19.631  23.020  1.00  0.00    -0.000 C 
BRANCH  12  13
ATOM     13  C   UNL     1     -27.344  21.108  23.396  1.00  0.00    -0.000 C 
BRANCH  13  14
ATOM     14  C   UNL     1     -28.679  21.657  22.868  1.00  0.00    -0.000 C 
BRANCH  14  15
ATOM     15  C   UNL     1     -29.876  21.238  23.735  1.00  0.00    -0.000 C 
BRANCH  15  16
ATOM     16  C   UNL     1     -30.674  20.115  23.063  1.00  0.00    -0.000 C 
BRANCH  16  17
ATOM     17  C   UNL     1     -31.209  19.123  24.103  1.00  0.00    -0.003 C 
ATOM     18  C   UNL     1     -31.736  19.849  25.338  1.00  0.00     0.004 C 
ENDBRANCH  16  17
ENDBRANCH  15  16
ENDBRANCH  14  15
ENDBRANCH  13  14
ENDBRANCH  12  13
ENDBRANCH  11  12
ENDBRANCH   1  11
TORSDOF 14
ENDMDL
MODEL 9
REMARK VINA RESULT:    -4.220      4.037      6.765
REMARK INTER + INTRA:          -8.743
REMARK INTER:                  -6.778
REMARK INTRA:                  -1.965
REMARK UNBOUND:                -1.069
REMARK SMILES CCCCCCCCCCCCCCCC(=O)[O-]
REMARK SMILES IDX 9 1 10 2 11 3 12 4 13 5 14 6 15 7 16 8 17 9 18 10 8 11 7 12
REMARK SMILES IDX 6 13 5 14 4 15 3 16 2 17 1 18
REMARK H PARENT
REMARK Flexibility Score: inf
ROOT
ATOM      1  C   UNL     1     -28.364  17.831  22.867  1.00  0.00     0.000 C 
ENDROOT
BRANCH   1   2
ATOM      2  C   UNL     1     -27.541  18.844  23.680  1.00  0.00     0.000 C 
BRANCH   2   3
ATOM      3  C   UNL     1     -27.247  20.134  22.894  1.00  0.00     0.000 C 
BRANCH   3   4
ATOM      4  C   UNL     1     -27.760  21.392  23.612  1.00  0.00     0.000 C 
BRANCH   4   5
ATOM      5  C   UNL     1     -28.273  21.100  25.031  1.00  0.00     0.000 C 
BRANCH   5   6
ATOM      6  C   UNL     1     -28.639  22.401  25.760  1.00  0.00     0.006 C 
BRANCH   6   7
ATOM      7  C   UNL     1     -29.452  22.145  27.035  1.00  0.00     0.053 C 
BRANCH   7   8
ATOM      8  C   UNL     1     -28.586  22.144  28.257  1.00  0.00     0.041 C 
ATOM      9  O   UNL     1     -29.097  21.978  29.395  1.00  0.00    -0.550 OA
ATOM     10  O   UNL     1     -27.218  22.360  28.141  1.00  0.00    -0.550 OA
ENDBRANCH   7   8
ENDBRANCH   6   7
ENDBRANCH   5   6
ENDBRANCH   4   5
ENDBRANCH   3   4
ENDBRANCH   2   3
ENDBRANCH   1   2
BRANCH   1  11
ATOM     11  C   UNL     1     -29.814  17.710  23.369  1.00  0.00     0.000 C 
BRANCH  11  12
ATOM     12  C   UNL     1     -30.802  18.522  22.517  1.00  0.00    -0.000 C 
BRANCH  12  13
ATOM     13  C   UNL     1     -31.138  19.889  23.140  1.00  0.00    -0.000 C 
BRANCH  13  14
ATOM     14  C   UNL     1     -31.749  19.763  24.545  1.00  0.00    -0.000 C 
BRANCH  14  15
ATOM     15  C   UNL     1     -33.279  19.621  24.514  1.00  0.00    -0.000 C 
BRANCH  15  16
ATOM     16  C   UNL     1     -33.725  18.336  25.220  1.00  0.00    -0.000 C 
BRANCH  16  17
ATOM     17  C   UNL     1     -33.902  17.190  24.218  1.00  0.00    -0.003 C 
ATOM     18  C   UNL     1     -33.035  15.991  24.593  1.00  0.00     0.004 C 
ENDBRANCH  16  17
ENDBRANCH  15  16
ENDBRANCH  14  15
ENDBRANCH  13  14
ENDBRANCH  12  13
ENDBRANCH  11  12
ENDBRANCH   1  11
TORSDOF 14
ENDMDL
