MODEL 1
REMARK VINA RESULT:    -4.153      0.000      0.000
REMARK INTER + INTRA:          -4.274
REMARK INTER:                  -4.274
REMARK INTRA:                   0.000
REMARK UNBOUND:                 0.000
REMARK SMILES Nc1ncnc2nc[nH]c12
REMARK SMILES IDX 8 1 7 2 6 3 5 4 4 5 3 6 2 7 10 8 9 9 1 11
REMARK H PARENT 9 10 1 12 1 13
REMARK Flexibility Score: inf
ROOT
ATOM      1  C   UNL     1      52.644  20.897  -6.053  1.00  0.00     0.199 A 
ATOM      2  N   UNL     1      52.036  19.832  -5.461  1.00  0.00    -0.217 NA
ATOM      3  C   UNL     1      53.084  19.112  -5.026  1.00  0.00     0.182 A 
ATOM      4  N   UNL     1      53.033  17.935  -4.356  1.00  0.00    -0.215 NA
ATOM      5  C   UNL     1      54.213  17.349  -3.993  1.00  0.00     0.226 A 
ATOM      6  N   UNL     1      55.411  17.943  -4.303  1.00  0.00    -0.217 NA
ATOM      7  C   UNL     1      55.463  19.130  -4.977  1.00  0.00     0.152 A 
ATOM      8  C   UNL     1      54.253  19.715  -5.340  1.00  0.00     0.127 A 
ATOM      9  N   UNL     1      53.998  20.854  -5.995  1.00  0.00    -0.340 N 
ATOM     10  H   UNL     1      54.673  21.553  -6.377  1.00  0.00     0.168 HD
ENDROOT
BRANCH   7  11
ATOM     11  N   UNL     1      56.721  19.730  -5.288  1.00  0.00    -0.382 N 
ATOM     12  H   UNL     1      56.986  20.667  -4.911  1.00  0.00     0.158 HD
ATOM     13  H   UNL     1      57.400  19.230  -5.905  1.00  0.00     0.158 HD
ENDBRANCH   7  11
TORSDOF 1
ENDMDL
MODEL 2
REMARK VINA RESULT:    -3.980     18.775     20.573
REMARK INTER + INTRA:          -4.097
REMARK INTER:                  -4.097
REMARK INTRA:                   0.000
REMARK UNBOUND:                 0.000
REMARK SMILES Nc1ncnc2nc[nH]c12
REMARK SMILES IDX 8 1 7 2 6 3 5 4 4 5 3 6 2 7 10 8 9 9 1 11
REMARK H PARENT 9 10 1 12 1 13
REMARK Flexibility Score: inf
ROOT
ATOM      1  C   UNL     1      44.651   9.027   6.963  1.00  0.00     0.199 A 
ATOM      2  N   UNL     1      44.207   8.471   5.803  1.00  0.00    -0.217 NA
ATOM      3  C   UNL     1      43.278   7.604   6.240  1.00  0.00     0.182 A 
ATOM      4  N   UNL     1      42.519   6.780   5.478  1.00  0.00    -0.215 NA
ATOM      5  C   UNL     1      41.621   5.964   6.108  1.00  0.00     0.226 A 
ATOM      6  N   UNL     1      41.500   5.985   7.475  1.00  0.00    -0.217 NA
ATOM      7  C   UNL     1      42.265   6.816   8.245  1.00  0.00     0.152 A 
ATOM      8  C   UNL     1      43.174   7.641   7.589  1.00  0.00     0.127 A 
ATOM      9  N   UNL     1      44.039   8.541   8.071  1.00  0.00    -0.340 N 
ATOM     10  H   UNL     1      44.212   8.813   9.065  1.00  0.00     0.168 HD
ENDROOT
BRANCH   7  11
ATOM     11  N   UNL     1      42.121   6.821   9.665  1.00  0.00    -0.382 N 
ATOM     12  H   UNL     1      41.243   6.492  10.125  1.00  0.00     0.158 HD
ATOM     13  H   UNL     1      42.903   7.159  10.269  1.00  0.00     0.158 HD
ENDBRANCH   7  11
TORSDOF 1
ENDMDL
MODEL 3
REMARK VINA RESULT:    -3.901      0.917      3.007
REMARK INTER + INTRA:          -4.015
REMARK INTER:                  -4.015
REMARK INTRA:                   0.000
REMARK UNBOUND:                 0.000
REMARK SMILES Nc1ncnc2nc[nH]c12
REMARK SMILES IDX 8 1 7 2 6 3 5 4 4 5 3 6 2 7 10 8 9 9 1 11
REMARK H PARENT 9 10 1 12 1 13
REMARK Flexibility Score: inf
ROOT
ATOM      1  C   UNL     1      55.878  18.636  -4.627  1.00  0.00     0.199 A 
ATOM      2  N   UNL     1      54.814  17.942  -4.141  1.00  0.00    -0.217 NA
ATOM      3  C   UNL     1      53.774  18.682  -4.562  1.00  0.00     0.182 A 
ATOM      4  N   UNL     1      52.461  18.429  -4.345  1.00  0.00    -0.215 NA
ATOM      5  C   UNL     1      51.542  19.303  -4.856  1.00  0.00     0.226 A 
ATOM      6  N   UNL     1      51.949  20.403  -5.569  1.00  0.00    -0.217 NA
ATOM      7  C   UNL     1      53.273  20.659  -5.790  1.00  0.00     0.152 A 
ATOM      8  C   UNL     1      54.196  19.760  -5.262  1.00  0.00     0.127 A 
ATOM      9  N   UNL     1      55.533  19.752  -5.317  1.00  0.00    -0.340 N 
ATOM     10  H   UNL     1      56.172  20.437  -5.779  1.00  0.00     0.168 HD
ENDROOT
BRANCH   7  11
ATOM     11  N   UNL     1      53.673  21.810  -6.535  1.00  0.00    -0.382 N 
ATOM     12  H   UNL     1      53.024  22.614  -6.684  1.00  0.00     0.158 HD
ATOM     13  H   UNL     1      54.632  21.860  -6.944  1.00  0.00     0.158 HD
ENDBRANCH   7  11
TORSDOF 1
ENDMDL
MODEL 4
REMARK VINA RESULT:    -3.694     18.349     20.277
REMARK INTER + INTRA:          -3.802
REMARK INTER:                  -3.802
REMARK INTRA:                   0.000
REMARK UNBOUND:                 0.000
REMARK SMILES Nc1ncnc2nc[nH]c12
REMARK SMILES IDX 8 1 7 2 6 3 5 4 4 5 3 6 2 7 10 8 9 9 1 11
REMARK H PARENT 9 10 1 12 1 13
REMARK Flexibility Score: inf
ROOT
ATOM      1  C   UNL     1      43.414   7.000   8.972  1.00  0.00     0.199 A 
ATOM      2  N   UNL     1      44.216   7.936   8.396  1.00  0.00    -0.217 NA
ATOM      3  C   UNL     1      43.813   7.908   7.115  1.00  0.00     0.182 A 
ATOM      4  N   UNL     1      44.296   8.663   6.099  1.00  0.00    -0.215 NA
ATOM      5  C   UNL     1      43.755   8.492   4.855  1.00  0.00     0.226 A 
ATOM      6  N   UNL     1      42.750   7.579   4.651  1.00  0.00    -0.217 NA
ATOM      7  C   UNL     1      42.261   6.819   5.676  1.00  0.00     0.152 A 
ATOM      8  C   UNL     1      42.823   7.004   6.936  1.00  0.00     0.127 A 
ATOM      9  N   UNL     1      42.552   6.412   8.106  1.00  0.00    -0.340 N 
ATOM     10  H   UNL     1      41.845   5.672   8.314  1.00  0.00     0.168 HD
ENDROOT
BRANCH   7  11
ATOM     11  N   UNL     1      41.215   5.875   5.440  1.00  0.00    -0.382 N 
ATOM     12  H   UNL     1      40.609   5.935   4.592  1.00  0.00     0.158 HD
ATOM     13  H   UNL     1      41.043   5.104   6.123  1.00  0.00     0.158 HD
ENDBRANCH   7  11
TORSDOF 1
ENDMDL
MODEL 5
REMARK VINA RESULT:    -3.677      1.093      3.152
REMARK INTER + INTRA:          -3.784
REMARK INTER:                  -3.784
REMARK INTRA:                   0.000
REMARK UNBOUND:                 0.000
REMARK SMILES Nc1ncnc2nc[nH]c12
REMARK SMILES IDX 8 1 7 2 6 3 5 4 4 5 3 6 2 7 10 8 9 9 1 11
REMARK H PARENT 9 10 1 12 1 13
REMARK Flexibility Score: inf
ROOT
ATOM      1  C   UNL     1      54.583  15.939  -3.452  1.00  0.00     0.199 A 
ATOM      2  N   UNL     1      53.309  16.226  -3.836  1.00  0.00    -0.217 NA
ATOM      3  C   UNL     1      53.449  17.437  -4.402  1.00  0.00     0.182 A 
ATOM      4  N   UNL     1      52.467  18.188  -4.957  1.00  0.00    -0.215 NA
ATOM      5  C   UNL     1      52.806  19.402  -5.487  1.00  0.00     0.226 A 
ATOM      6  N   UNL     1      54.106  19.839  -5.453  1.00  0.00    -0.217 NA
ATOM      7  C   UNL     1      55.097  19.082  -4.894  1.00  0.00     0.152 A 
ATOM      8  C   UNL     1      54.737  17.849  -4.358  1.00  0.00     0.127 A 
ATOM      9  N   UNL     1      55.478  16.910  -3.758  1.00  0.00    -0.340 N 
ATOM     10  H   UNL     1      56.504  16.914  -3.564  1.00  0.00     0.168 HD
ENDROOT
BRANCH   7  11
ATOM     11  N   UNL     1      56.443  19.558  -4.870  1.00  0.00    -0.382 N 
ATOM     12  H   UNL     1      56.814  20.180  -5.622  1.00  0.00     0.158 HD
ATOM     13  H   UNL     1      57.080  19.285  -4.089  1.00  0.00     0.158 HD
ENDBRANCH   7  11
TORSDOF 1
ENDMDL
MODEL 6
REMARK VINA RESULT:    -3.668      2.092      2.472
REMARK INTER + INTRA:          -3.775
REMARK INTER:                  -3.775
REMARK INTRA:                   0.000
REMARK UNBOUND:                 0.000
REMARK SMILES Nc1ncnc2nc[nH]c12
REMARK SMILES IDX 8 1 7 2 6 3 5 4 4 5 3 6 2 7 10 8 9 9 1 11
REMARK H PARENT 9 10 1 12 1 13
REMARK Flexibility Score: inf
ROOT
ATOM      1  C   UNL     1      53.079  16.633  -5.964  1.00  0.00     0.199 A 
ATOM      2  N   UNL     1      52.636  16.498  -4.684  1.00  0.00    -0.217 NA
ATOM      3  C   UNL     1      53.458  17.320  -4.011  1.00  0.00     0.182 A 
ATOM      4  N   UNL     1      53.446  17.560  -2.677  1.00  0.00    -0.215 NA
ATOM      5  C   UNL     1      54.368  18.435  -2.171  1.00  0.00     0.226 A 
ATOM      6  N   UNL     1      55.275  19.048  -2.999  1.00  0.00    -0.217 NA
ATOM      7  C   UNL     1      55.287  18.807  -4.344  1.00  0.00     0.152 A 
ATOM      8  C   UNL     1      54.343  17.913  -4.844  1.00  0.00     0.127 A 
ATOM      9  N   UNL     1      54.121  17.491  -6.094  1.00  0.00    -0.340 N 
ATOM     10  H   UNL     1      54.624  17.753  -6.971  1.00  0.00     0.168 HD
ENDROOT
BRANCH   7  11
ATOM     11  N   UNL     1      56.240  19.456  -5.186  1.00  0.00    -0.382 N 
ATOM     12  H   UNL     1      55.974  19.826  -6.126  1.00  0.00     0.158 HD
ATOM     13  H   UNL     1      57.228  19.570  -4.866  1.00  0.00     0.158 HD
ENDBRANCH   7  11
TORSDOF 1
ENDMDL
MODEL 7
REMARK VINA RESULT:    -3.598      2.014      4.276
REMARK INTER + INTRA:          -3.703
REMARK INTER:                  -3.703
REMARK INTRA:                   0.000
REMARK UNBOUND:                 0.000
REMARK SMILES Nc1ncnc2nc[nH]c12
REMARK SMILES IDX 8 1 7 2 6 3 5 4 4 5 3 6 2 7 10 8 9 9 1 11
REMARK H PARENT 9 10 1 12 1 13
REMARK Flexibility Score: inf
ROOT
ATOM      1  C   UNL     1      54.665  14.737  -3.511  1.00  0.00     0.199 A 
ATOM      2  N   UNL     1      55.220  15.805  -2.877  1.00  0.00    -0.217 NA
ATOM      3  C   UNL     1      54.891  16.822  -3.691  1.00  0.00     0.182 A 
ATOM      4  N   UNL     1      55.205  18.129  -3.520  1.00  0.00    -0.215 NA
ATOM      5  C   UNL     1      54.779  19.024  -4.462  1.00  0.00     0.226 A 
ATOM      6  N   UNL     1      54.054  18.600  -5.547  1.00  0.00    -0.217 NA
ATOM      7  C   UNL     1      53.736  17.282  -5.721  1.00  0.00     0.152 A 
ATOM      8  C   UNL     1      54.178  16.384  -4.753  1.00  0.00     0.127 A 
ATOM      9  N   UNL     1      54.020  15.058  -4.660  1.00  0.00    -0.340 N 
ATOM     10  H   UNL     1      53.522  14.412  -5.312  1.00  0.00     0.168 HD
ENDROOT
BRANCH   7  11
ATOM     11  N   UNL     1      52.981  16.865  -6.858  1.00  0.00    -0.382 N 
ATOM     12  H   UNL     1      53.427  16.744  -7.794  1.00  0.00     0.158 HD
ATOM     13  H   UNL     1      51.959  16.673  -6.765  1.00  0.00     0.158 HD
ENDBRANCH   7  11
TORSDOF 1
ENDMDL
MODEL 8
REMARK VINA RESULT:    -3.559      2.002      3.383
REMARK INTER + INTRA:          -3.663
REMARK INTER:                  -3.663
REMARK INTRA:                   0.000
REMARK UNBOUND:                 0.000
REMARK SMILES Nc1ncnc2nc[nH]c12
REMARK SMILES IDX 8 1 7 2 6 3 5 4 4 5 3 6 2 7 10 8 9 9 1 11
REMARK H PARENT 9 10 1 12 1 13
REMARK Flexibility Score: inf
ROOT
ATOM      1  C   UNL     1      54.956  19.205  -5.022  1.00  0.00     0.199 A 
ATOM      2  N   UNL     1      55.313  18.929  -3.738  1.00  0.00    -0.217 NA
ATOM      3  C   UNL     1      54.912  17.654  -3.598  1.00  0.00     0.182 A 
ATOM      4  N   UNL     1      55.034  16.885  -2.489  1.00  0.00    -0.215 NA
ATOM      5  C   UNL     1      54.564  15.602  -2.539  1.00  0.00     0.226 A 
ATOM      6  N   UNL     1      53.986  15.116  -3.685  1.00  0.00    -0.217 NA
ATOM      7  C   UNL     1      53.863  15.890  -4.805  1.00  0.00     0.152 A 
ATOM      8  C   UNL     1      54.346  17.194  -4.738  1.00  0.00     0.127 A 
ATOM      9  N   UNL     1      54.363  18.165  -5.659  1.00  0.00    -0.340 N 
ATOM     10  H   UNL     1      54.007  18.140  -6.641  1.00  0.00     0.168 HD
ENDROOT
BRANCH   7  11
ATOM     11  N   UNL     1      53.258  15.363  -5.986  1.00  0.00    -0.382 N 
ATOM     12  H   UNL     1      53.169  15.936  -6.854  1.00  0.00     0.158 HD
ATOM     13  H   UNL     1      52.894  14.384  -5.994  1.00  0.00     0.158 HD
ENDBRANCH   7  11
TORSDOF 1
ENDMDL
