MODEL 1
REMARK VINA RESULT:    -4.539      0.000      0.000
REMARK INTER + INTRA:         -13.841
REMARK INTER:                 -10.377
REMARK INTRA:                  -3.464
REMARK UNBOUND:                -3.464
REMARK SMILES CCCCCCCCCCCCCCCCCCCCCCCC(=O)[O-]
REMARK SMILES IDX 13 1 14 2 15 3 16 4 17 5 18 6 19 7 20 8 21 9 22 10 23 11
REMARK SMILES IDX 24 12 25 13 26 14 12 15 11 16 10 17 9 18 8 19 7 20 6 21 5 22
REMARK SMILES IDX 4 23 3 24 2 25 1 26
REMARK H PARENT
REMARK Flexibility Score: inf
ROOT
ATOM      1  C   UNL     1     -40.565 -36.183  36.304  1.00  0.00     0.000 C 
ENDROOT
BRANCH   1   2
ATOM      2  C   UNL     1     -41.847 -35.478  35.823  1.00  0.00     0.000 C 
BRANCH   2   3
ATOM      3  C   UNL     1     -43.084 -35.861  36.657  1.00  0.00     0.000 C 
BRANCH   3   4
ATOM      4  C   UNL     1     -44.349 -35.128  36.187  1.00  0.00     0.000 C 
BRANCH   4   5
ATOM      5  C   UNL     1     -45.619 -35.592  36.921  1.00  0.00     0.000 C 
BRANCH   5   6
ATOM      6  C   UNL     1     -45.686 -37.129  37.044  1.00  0.00     0.000 C 
BRANCH   6   7
ATOM      7  C   UNL     1     -46.226 -37.616  38.405  1.00  0.00     0.000 C 
BRANCH   7   8
ATOM      8  C   UNL     1     -47.717 -37.328  38.648  1.00  0.00     0.000 C 
BRANCH   8   9
ATOM      9  C   UNL     1     -47.988 -36.719  40.035  1.00  0.00     0.000 C 
BRANCH   9  10
ATOM     10  C   UNL     1     -47.157 -35.451  40.296  1.00  0.00     0.006 C 
BRANCH  10  11
ATOM     11  C   UNL     1     -47.896 -34.162  39.899  1.00  0.00     0.053 C 
BRANCH  11  12
ATOM     12  C   UNL     1     -47.795 -33.125  40.974  1.00  0.00     0.041 C 
ATOM     13  O   UNL     1     -47.632 -31.911  40.674  1.00  0.00    -0.550 OA
ATOM     14  O   UNL     1     -47.927 -33.489  42.309  1.00  0.00    -0.550 OA
ENDBRANCH  11  12
ENDBRANCH  10  11
ENDBRANCH   9  10
ENDBRANCH   8   9
ENDBRANCH   7   8
ENDBRANCH   6   7
ENDBRANCH   5   6
ENDBRANCH   4   5
ENDBRANCH   3   4
ENDBRANCH   2   3
ENDBRANCH   1   2
BRANCH   1  15
ATOM     15  C   UNL     1     -39.613 -35.281  37.110  1.00  0.00     0.000 C 
BRANCH  15  16
ATOM     16  C   UNL     1     -39.698 -35.531  38.628  1.00  0.00     0.000 C 
BRANCH  16  17
ATOM     17  C   UNL     1     -40.673 -34.572  39.330  1.00  0.00     0.000 C 
BRANCH  17  18
ATOM     18  C   UNL     1     -40.756 -33.200  38.639  1.00  0.00    -0.000 C 
BRANCH  18  19
ATOM     19  C   UNL     1     -41.908 -32.335  39.172  1.00  0.00    -0.000 C 
BRANCH  19  20
ATOM     20  C   UNL     1     -42.975 -33.161  39.912  1.00  0.00    -0.000 C 
BRANCH  20  21
ATOM     21  C   UNL     1     -44.369 -33.033  39.259  1.00  0.00    -0.000 C 
BRANCH  21  22
ATOM     22  C   UNL     1     -44.399 -32.064  38.061  1.00  0.00    -0.000 C 
BRANCH  22  23
ATOM     23  C   UNL     1     -45.731 -31.315  37.872  1.00  0.00    -0.000 C 
BRANCH  23  24
ATOM     24  C   UNL     1     -46.763 -32.052  36.998  1.00  0.00    -0.000 C 
BRANCH  24  25
ATOM     25  C   UNL     1     -47.346 -31.180  35.865  1.00  0.00    -0.003 C 
ATOM     26  C   UNL     1     -48.859 -31.345  35.726  1.00  0.00     0.004 C 
ENDBRANCH  24  25
ENDBRANCH  23  24
ENDBRANCH  22  23
ENDBRANCH  21  22
ENDBRANCH  20  21
ENDBRANCH  19  20
ENDBRANCH  18  19
ENDBRANCH  17  18
ENDBRANCH  16  17
ENDBRANCH  15  16
ENDBRANCH   1  15
TORSDOF 22
ENDMDL
MODEL 2
REMARK VINA RESULT:    -4.342      5.567      7.577
REMARK INTER + INTRA:         -13.390
REMARK INTER:                  -9.000
REMARK INTRA:                  -4.390
REMARK UNBOUND:                -3.464
REMARK SMILES CCCCCCCCCCCCCCCCCCCCCCCC(=O)[O-]
REMARK SMILES IDX 13 1 14 2 15 3 16 4 17 5 18 6 19 7 20 8 21 9 22 10 23 11
REMARK SMILES IDX 24 12 25 13 26 14 12 15 11 16 10 17 9 18 8 19 7 20 6 21 5 22
REMARK SMILES IDX 4 23 3 24 2 25 1 26
REMARK H PARENT
REMARK Flexibility Score: inf
ROOT
ATOM      1  C   UNL     1     -42.169 -29.289  40.978  1.00  0.00     0.000 C 
ENDROOT
BRANCH   1   2
ATOM      2  C   UNL     1     -43.374 -29.514  40.046  1.00  0.00     0.000 C 
BRANCH   2   3
ATOM      3  C   UNL     1     -42.984 -29.482  38.555  1.00  0.00     0.000 C 
BRANCH   3   4
ATOM      4  C   UNL     1     -44.213 -29.404  37.638  1.00  0.00     0.000 C 
BRANCH   4   5
ATOM      5  C   UNL     1     -45.425 -30.173  38.191  1.00  0.00     0.000 C 
BRANCH   5   6
ATOM      6  C   UNL     1     -45.718 -31.453  37.378  1.00  0.00     0.000 C 
BRANCH   6   7
ATOM      7  C   UNL     1     -45.486 -32.755  38.173  1.00  0.00     0.000 C 
BRANCH   7   8
ATOM      8  C   UNL     1     -44.009 -33.103  38.425  1.00  0.00     0.000 C 
BRANCH   8   9
ATOM      9  C   UNL     1     -43.664 -33.186  39.922  1.00  0.00     0.000 C 
BRANCH   9  10
ATOM     10  C   UNL     1     -42.152 -33.080  40.187  1.00  0.00     0.006 C 
BRANCH  10  11
ATOM     11  C   UNL     1     -41.333 -32.905  38.897  1.00  0.00     0.053 C 
BRANCH  11  12
ATOM     12  C   UNL     1     -40.514 -34.124  38.604  1.00  0.00     0.041 C 
ATOM     13  O   UNL     1     -40.826 -34.886  37.649  1.00  0.00    -0.550 OA
ATOM     14  O   UNL     1     -39.378 -34.397  39.356  1.00  0.00    -0.550 OA
ENDBRANCH  11  12
ENDBRANCH  10  11
ENDBRANCH   9  10
ENDBRANCH   8   9
ENDBRANCH   7   8
ENDBRANCH   6   7
ENDBRANCH   5   6
ENDBRANCH   4   5
ENDBRANCH   3   4
ENDBRANCH   2   3
ENDBRANCH   1   2
BRANCH   1  15
ATOM     15  C   UNL     1     -40.850 -28.989  40.242  1.00  0.00     0.000 C 
BRANCH  15  16
ATOM     16  C   UNL     1     -39.932 -28.037  41.031  1.00  0.00     0.000 C 
BRANCH  16  17
ATOM     17  C   UNL     1     -39.173 -27.059  40.119  1.00  0.00     0.000 C 
BRANCH  17  18
ATOM     18  C   UNL     1     -38.838 -25.732  40.821  1.00  0.00    -0.000 C 
BRANCH  18  19
ATOM     19  C   UNL     1     -39.044 -24.510  39.913  1.00  0.00    -0.000 C 
BRANCH  19  20
ATOM     20  C   UNL     1     -40.006 -23.475  40.523  1.00  0.00    -0.000 C 
BRANCH  20  21
ATOM     21  C   UNL     1     -40.758 -24.030  41.752  1.00  0.00    -0.000 C 
BRANCH  21  22
ATOM     22  C   UNL     1     -42.255 -24.285  41.492  1.00  0.00    -0.000 C 
BRANCH  22  23
ATOM     23  C   UNL     1     -42.591 -25.708  41.010  1.00  0.00    -0.000 C 
BRANCH  23  24
ATOM     24  C   UNL     1     -43.255 -25.776  39.622  1.00  0.00    -0.000 C 
BRANCH  24  25
ATOM     25  C   UNL     1     -42.247 -25.914  38.462  1.00  0.00    -0.003 C 
ATOM     26  C   UNL     1     -42.062 -24.605  37.695  1.00  0.00     0.004 C 
ENDBRANCH  24  25
ENDBRANCH  23  24
ENDBRANCH  22  23
ENDBRANCH  21  22
ENDBRANCH  20  21
ENDBRANCH  19  20
ENDBRANCH  18  19
ENDBRANCH  17  18
ENDBRANCH  16  17
ENDBRANCH  15  16
ENDBRANCH   1  15
TORSDOF 22
ENDMDL
MODEL 3
REMARK VINA RESULT:    -4.325      2.742      5.253
REMARK INTER + INTRA:         -13.352
REMARK INTER:                  -9.459
REMARK INTRA:                  -3.892
REMARK UNBOUND:                -3.464
REMARK SMILES CCCCCCCCCCCCCCCCCCCCCCCC(=O)[O-]
REMARK SMILES IDX 13 1 14 2 15 3 16 4 17 5 18 6 19 7 20 8 21 9 22 10 23 11
REMARK SMILES IDX 24 12 25 13 26 14 12 15 11 16 10 17 9 18 8 19 7 20 6 21 5 22
REMARK SMILES IDX 4 23 3 24 2 25 1 26
REMARK H PARENT
REMARK Flexibility Score: inf
ROOT
ATOM      1  C   UNL     1     -44.553 -33.453  40.730  1.00  0.00     0.000 C 
ENDROOT
BRANCH   1   2
ATOM      2  C   UNL     1     -44.486 -34.903  40.217  1.00  0.00     0.000 C 
BRANCH   2   3
ATOM      3  C   UNL     1     -43.560 -35.057  38.994  1.00  0.00     0.000 C 
BRANCH   3   4
ATOM      4  C   UNL     1     -44.051 -34.238  37.791  1.00  0.00     0.000 C 
BRANCH   4   5
ATOM      5  C   UNL     1     -44.952 -35.047  36.842  1.00  0.00     0.000 C 
BRANCH   5   6
ATOM      6  C   UNL     1     -44.396 -36.464  36.586  1.00  0.00     0.000 C 
BRANCH   6   7
ATOM      7  C   UNL     1     -45.426 -37.585  36.839  1.00  0.00     0.000 C 
BRANCH   7   8
ATOM      8  C   UNL     1     -46.050 -37.582  38.245  1.00  0.00     0.000 C 
BRANCH   8   9
ATOM      9  C   UNL     1     -47.566 -37.322  38.223  1.00  0.00     0.000 C 
BRANCH   9  10
ATOM     10  C   UNL     1     -48.176 -37.259  39.634  1.00  0.00     0.006 C 
BRANCH  10  11
ATOM     11  C   UNL     1     -48.509 -38.650  40.201  1.00  0.00     0.053 C 
BRANCH  11  12
ATOM     12  C   UNL     1     -49.955 -38.752  40.575  1.00  0.00     0.041 C 
ATOM     13  O   UNL     1     -50.844 -38.297  39.807  1.00  0.00    -0.550 OA
ATOM     14  O   UNL     1     -50.327 -39.392  41.751  1.00  0.00    -0.550 OA
ENDBRANCH  11  12
ENDBRANCH  10  11
ENDBRANCH   9  10
ENDBRANCH   8   9
ENDBRANCH   7   8
ENDBRANCH   6   7
ENDBRANCH   5   6
ENDBRANCH   4   5
ENDBRANCH   3   4
ENDBRANCH   2   3
ENDBRANCH   1   2
BRANCH   1  15
ATOM     15  C   UNL     1     -45.984 -32.913  40.911  1.00  0.00     0.000 C 
BRANCH  15  16
ATOM     16  C   UNL     1     -47.054 -33.863  40.342  1.00  0.00     0.000 C 
BRANCH  16  17
ATOM     17  C   UNL     1     -47.523 -33.451  38.937  1.00  0.00     0.000 C 
BRANCH  17  18
ATOM     18  C   UNL     1     -48.280 -32.112  38.934  1.00  0.00    -0.000 C 
BRANCH  18  19
ATOM     19  C   UNL     1     -47.853 -31.191  37.781  1.00  0.00    -0.000 C 
BRANCH  19  20
ATOM     20  C   UNL     1     -46.535 -31.637  37.124  1.00  0.00    -0.000 C 
BRANCH  20  21
ATOM     21  C   UNL     1     -45.449 -30.542  37.190  1.00  0.00    -0.000 C 
BRANCH  21  22
ATOM     22  C   UNL     1     -44.666 -30.532  38.517  1.00  0.00    -0.000 C 
BRANCH  22  23
ATOM     23  C   UNL     1     -43.148 -30.738  38.370  1.00  0.00    -0.000 C 
BRANCH  23  24
ATOM     24  C   UNL     1     -42.372 -30.771  39.700  1.00  0.00    -0.000 C 
BRANCH  24  25
ATOM     25  C   UNL     1     -42.730 -29.609  40.652  1.00  0.00    -0.003 C 
ATOM     26  C   UNL     1     -41.589 -28.601  40.790  1.00  0.00     0.004 C 
ENDBRANCH  24  25
ENDBRANCH  23  24
ENDBRANCH  22  23
ENDBRANCH  21  22
ENDBRANCH  20  21
ENDBRANCH  19  20
ENDBRANCH  18  19
ENDBRANCH  17  18
ENDBRANCH  16  17
ENDBRANCH  15  16
ENDBRANCH   1  15
TORSDOF 22
ENDMDL
MODEL 4
REMARK VINA RESULT:    -4.306      2.451      5.420
REMARK INTER + INTRA:         -13.307
REMARK INTER:                 -10.355
REMARK INTRA:                  -2.952
REMARK UNBOUND:                -3.464
REMARK SMILES CCCCCCCCCCCCCCCCCCCCCCCC(=O)[O-]
REMARK SMILES IDX 13 1 14 2 15 3 16 4 17 5 18 6 19 7 20 8 21 9 22 10 23 11
REMARK SMILES IDX 24 12 25 13 26 14 12 15 11 16 10 17 9 18 8 19 7 20 6 21 5 22
REMARK SMILES IDX 4 23 3 24 2 25 1 26
REMARK H PARENT
REMARK Flexibility Score: inf
ROOT
ATOM      1  C   UNL     1     -40.949 -34.042  39.603  1.00  0.00     0.000 C 
ENDROOT
BRANCH   1   2
ATOM      2  C   UNL     1     -41.336 -32.769  38.827  1.00  0.00     0.000 C 
BRANCH   2   3
ATOM      3  C   UNL     1     -42.858 -32.532  38.798  1.00  0.00     0.000 C 
BRANCH   3   4
ATOM      4  C   UNL     1     -43.584 -33.304  39.910  1.00  0.00     0.000 C 
BRANCH   4   5
ATOM      5  C   UNL     1     -45.053 -32.875  40.077  1.00  0.00     0.000 C 
BRANCH   5   6
ATOM      6  C   UNL     1     -46.028 -33.902  39.462  1.00  0.00     0.000 C 
BRANCH   6   7
ATOM      7  C   UNL     1     -47.454 -33.350  39.254  1.00  0.00     0.000 C 
BRANCH   7   8
ATOM      8  C   UNL     1     -47.547 -32.148  38.300  1.00  0.00     0.000 C 
BRANCH   8   9
ATOM      9  C   UNL     1     -46.776 -32.368  36.987  1.00  0.00     0.000 C 
BRANCH   9  10
ATOM     10  C   UNL     1     -46.346 -31.048  36.325  1.00  0.00     0.006 C 
BRANCH  10  11
ATOM     11  C   UNL     1     -47.533 -30.258  35.748  1.00  0.00     0.053 C 
BRANCH  11  12
ATOM     12  C   UNL     1     -47.076 -29.256  34.733  1.00  0.00     0.041 C 
ATOM     13  O   UNL     1     -47.879 -28.816  33.867  1.00  0.00    -0.550 OA
ATOM     14  O   UNL     1     -45.774 -28.770  34.771  1.00  0.00    -0.550 OA
ENDBRANCH  11  12
ENDBRANCH  10  11
ENDBRANCH   9  10
ENDBRANCH   8   9
ENDBRANCH   7   8
ENDBRANCH   6   7
ENDBRANCH   5   6
ENDBRANCH   4   5
ENDBRANCH   3   4
ENDBRANCH   2   3
ENDBRANCH   1   2
BRANCH   1  15
ATOM     15  C   UNL     1     -39.939 -34.945  38.870  1.00  0.00     0.000 C 
BRANCH  15  16
ATOM     16  C   UNL     1     -39.843 -34.631  37.365  1.00  0.00     0.000 C 
BRANCH  16  17
ATOM     17  C   UNL     1     -40.376 -35.777  36.489  1.00  0.00     0.000 C 
BRANCH  17  18
ATOM     18  C   UNL     1     -41.725 -35.441  35.831  1.00  0.00    -0.000 C 
BRANCH  18  19
ATOM     19  C   UNL     1     -42.906 -35.545  36.808  1.00  0.00    -0.000 C 
BRANCH  19  20
ATOM     20  C   UNL     1     -44.268 -35.377  36.111  1.00  0.00    -0.000 C 
BRANCH  20  21
ATOM     21  C   UNL     1     -45.421 -36.006  36.923  1.00  0.00    -0.000 C 
BRANCH  21  22
ATOM     22  C   UNL     1     -45.409 -37.547  36.915  1.00  0.00    -0.000 C 
BRANCH  22  23
ATOM     23  C   UNL     1     -46.479 -38.203  37.807  1.00  0.00    -0.000 C 
BRANCH  23  24
ATOM     24  C   UNL     1     -47.462 -37.215  38.462  1.00  0.00    -0.000 C 
BRANCH  24  25
ATOM     25  C   UNL     1     -47.444 -37.259  40.005  1.00  0.00    -0.003 C 
ATOM     26  C   UNL     1     -47.703 -38.664  40.549  1.00  0.00     0.004 C 
ENDBRANCH  24  25
ENDBRANCH  23  24
ENDBRANCH  22  23
ENDBRANCH  21  22
ENDBRANCH  20  21
ENDBRANCH  19  20
ENDBRANCH  18  19
ENDBRANCH  17  18
ENDBRANCH  16  17
ENDBRANCH  15  16
ENDBRANCH   1  15
TORSDOF 22
ENDMDL
MODEL 5
REMARK VINA RESULT:    -4.292      2.758      4.472
REMARK INTER + INTRA:         -13.277
REMARK INTER:                 -10.513
REMARK INTRA:                  -2.764
REMARK UNBOUND:                -3.464
REMARK SMILES CCCCCCCCCCCCCCCCCCCCCCCC(=O)[O-]
REMARK SMILES IDX 13 1 14 2 15 3 16 4 17 5 18 6 19 7 20 8 21 9 22 10 23 11
REMARK SMILES IDX 24 12 25 13 26 14 12 15 11 16 10 17 9 18 8 19 7 20 6 21 5 22
REMARK SMILES IDX 4 23 3 24 2 25 1 26
REMARK H PARENT
REMARK Flexibility Score: inf
ROOT
ATOM      1  C   UNL     1     -43.192 -35.500  37.160  1.00  0.00     0.000 C 
ENDROOT
BRANCH   1   2
ATOM      2  C   UNL     1     -44.540 -35.737  36.454  1.00  0.00     0.000 C 
BRANCH   2   3
ATOM      3  C   UNL     1     -45.110 -37.143  36.723  1.00  0.00     0.000 C 
BRANCH   3   4
ATOM      4  C   UNL     1     -46.374 -37.097  37.593  1.00  0.00     0.000 C 
BRANCH   4   5
ATOM      5  C   UNL     1     -46.070 -37.188  39.099  1.00  0.00     0.000 C 
BRANCH   5   6
ATOM      6  C   UNL     1     -46.287 -35.838  39.815  1.00  0.00     0.000 C 
BRANCH   6   7
ATOM      7  C   UNL     1     -47.712 -35.271  39.644  1.00  0.00     0.000 C 
BRANCH   7   8
ATOM      8  C   UNL     1     -47.772 -33.784  39.257  1.00  0.00     0.000 C 
BRANCH   8   9
ATOM      9  C   UNL     1     -46.485 -33.294  38.570  1.00  0.00     0.000 C 
BRANCH   9  10
ATOM     10  C   UNL     1     -46.740 -32.749  37.154  1.00  0.00     0.006 C 
BRANCH  10  11
ATOM     11  C   UNL     1     -45.963 -31.454  36.866  1.00  0.00     0.053 C 
BRANCH  11  12
ATOM     12  C   UNL     1     -46.662 -30.618  35.839  1.00  0.00     0.041 C 
ATOM     13  O   UNL     1     -46.135 -29.554  35.418  1.00  0.00    -0.550 OA
ATOM     14  O   UNL     1     -47.877 -31.037  35.309  1.00  0.00    -0.550 OA
ENDBRANCH  11  12
ENDBRANCH  10  11
ENDBRANCH   9  10
ENDBRANCH   8   9
ENDBRANCH   7   8
ENDBRANCH   6   7
ENDBRANCH   5   6
ENDBRANCH   4   5
ENDBRANCH   3   4
ENDBRANCH   2   3
ENDBRANCH   1   2
BRANCH   1  15
ATOM     15  C   UNL     1     -41.965 -35.630  36.238  1.00  0.00     0.000 C 
BRANCH  15  16
ATOM     16  C   UNL     1     -40.662 -35.162  36.912  1.00  0.00     0.000 C 
BRANCH  16  17
ATOM     17  C   UNL     1     -40.827 -34.937  38.424  1.00  0.00     0.000 C 
BRANCH  17  18
ATOM     18  C   UNL     1     -40.777 -33.449  38.811  1.00  0.00    -0.000 C 
BRANCH  18  19
ATOM     19  C   UNL     1     -41.832 -33.073  39.863  1.00  0.00    -0.000 C 
BRANCH  19  20
ATOM     20  C   UNL     1     -43.131 -32.538  39.234  1.00  0.00    -0.000 C 
BRANCH  20  21
ATOM     21  C   UNL     1     -43.680 -31.306  39.986  1.00  0.00    -0.000 C 
BRANCH  21  22
ATOM     22  C   UNL     1     -42.892 -30.013  39.703  1.00  0.00    -0.000 C 
BRANCH  22  23
ATOM     23  C   UNL     1     -42.517 -29.201  40.956  1.00  0.00    -0.000 C 
BRANCH  23  24
ATOM     24  C   UNL     1     -41.317 -28.253  40.772  1.00  0.00    -0.000 C 
BRANCH  24  25
ATOM     25  C   UNL     1     -41.713 -26.763  40.702  1.00  0.00    -0.003 C 
ATOM     26  C   UNL     1     -43.114 -26.507  41.260  1.00  0.00     0.004 C 
ENDBRANCH  24  25
ENDBRANCH  23  24
ENDBRANCH  22  23
ENDBRANCH  21  22
ENDBRANCH  20  21
ENDBRANCH  19  20
ENDBRANCH  18  19
ENDBRANCH  17  18
ENDBRANCH  16  17
ENDBRANCH  15  16
ENDBRANCH   1  15
TORSDOF 22
ENDMDL
MODEL 6
REMARK VINA RESULT:    -4.264      4.236      8.221
REMARK INTER + INTRA:         -13.211
REMARK INTER:                 -10.405
REMARK INTRA:                  -2.806
REMARK UNBOUND:                -3.464
REMARK SMILES CCCCCCCCCCCCCCCCCCCCCCCC(=O)[O-]
REMARK SMILES IDX 13 1 14 2 15 3 16 4 17 5 18 6 19 7 20 8 21 9 22 10 23 11
REMARK SMILES IDX 24 12 25 13 26 14 12 15 11 16 10 17 9 18 8 19 7 20 6 21 5 22
REMARK SMILES IDX 4 23 3 24 2 25 1 26
REMARK H PARENT
REMARK Flexibility Score: inf
ROOT
ATOM      1  C   UNL     1     -45.361 -32.822  40.463  1.00  0.00     0.000 C 
ENDROOT
BRANCH   1   2
ATOM      2  C   UNL     1     -44.153 -33.612  40.999  1.00  0.00     0.000 C 
BRANCH   2   3
ATOM      3  C   UNL     1     -42.992 -33.678  39.989  1.00  0.00     0.000 C 
BRANCH   3   4
ATOM      4  C   UNL     1     -43.097 -32.584  38.915  1.00  0.00     0.000 C 
BRANCH   4   5
ATOM      5  C   UNL     1     -41.800 -31.771  38.758  1.00  0.00     0.000 C 
BRANCH   5   6
ATOM      6  C   UNL     1     -42.038 -30.259  38.960  1.00  0.00     0.000 C 
BRANCH   6   7
ATOM      7  C   UNL     1     -42.696 -29.913  40.312  1.00  0.00     0.000 C 
BRANCH   7   8
ATOM      8  C   UNL     1     -42.033 -28.753  41.073  1.00  0.00     0.000 C 
BRANCH   8   9
ATOM      9  C   UNL     1     -42.865 -27.459  41.027  1.00  0.00     0.000 C 
BRANCH   9  10
ATOM     10  C   UNL     1     -42.034 -26.238  40.598  1.00  0.00     0.006 C 
BRANCH  10  11
ATOM     11  C   UNL     1     -40.611 -26.250  41.182  1.00  0.00     0.053 C 
BRANCH  11  12
ATOM     12  C   UNL     1     -40.058 -24.863  41.296  1.00  0.00     0.041 C 
ATOM     13  O   UNL     1     -40.271 -24.177  42.331  1.00  0.00    -0.550 OA
ATOM     14  O   UNL     1     -39.267 -24.343  40.279  1.00  0.00    -0.550 OA
ENDBRANCH  11  12
ENDBRANCH  10  11
ENDBRANCH   9  10
ENDBRANCH   8   9
ENDBRANCH   7   8
ENDBRANCH   6   7
ENDBRANCH   5   6
ENDBRANCH   4   5
ENDBRANCH   3   4
ENDBRANCH   2   3
ENDBRANCH   1   2
BRANCH   1  15
ATOM     15  C   UNL     1     -46.715 -33.265  41.049  1.00  0.00     0.000 C 
BRANCH  15  16
ATOM     16  C   UNL     1     -47.590 -34.013  40.027  1.00  0.00     0.000 C 
BRANCH  16  17
ATOM     17  C   UNL     1     -46.878 -34.220  38.680  1.00  0.00     0.000 C 
BRANCH  17  18
ATOM     18  C   UNL     1     -46.484 -35.687  38.437  1.00  0.00    -0.000 C 
BRANCH  18  19
ATOM     19  C   UNL     1     -45.048 -35.838  37.913  1.00  0.00    -0.000 C 
BRANCH  19  20
ATOM     20  C   UNL     1     -44.814 -35.072  36.599  1.00  0.00    -0.000 C 
BRANCH  20  21
ATOM     21  C   UNL     1     -43.498 -35.488  35.907  1.00  0.00    -0.000 C 
BRANCH  21  22
ATOM     22  C   UNL     1     -42.272 -35.438  36.839  1.00  0.00    -0.000 C 
BRANCH  22  23
ATOM     23  C   UNL     1     -40.926 -35.719  36.147  1.00  0.00    -0.000 C 
BRANCH  23  24
ATOM     24  C   UNL     1     -39.703 -35.682  37.082  1.00  0.00    -0.000 C 
BRANCH  24  25
ATOM     25  C   UNL     1     -40.008 -35.088  38.474  1.00  0.00    -0.003 C 
ATOM     26  C   UNL     1     -39.002 -35.542  39.532  1.00  0.00     0.004 C 
ENDBRANCH  24  25
ENDBRANCH  23  24
ENDBRANCH  22  23
ENDBRANCH  21  22
ENDBRANCH  20  21
ENDBRANCH  19  20
ENDBRANCH  18  19
ENDBRANCH  17  18
ENDBRANCH  16  17
ENDBRANCH  15  16
ENDBRANCH   1  15
TORSDOF 22
ENDMDL
MODEL 7
REMARK VINA RESULT:    -4.252      5.196      7.498
REMARK INTER + INTRA:         -13.184
REMARK INTER:                 -10.253
REMARK INTRA:                  -2.931
REMARK UNBOUND:                -3.464
REMARK SMILES CCCCCCCCCCCCCCCCCCCCCCCC(=O)[O-]
REMARK SMILES IDX 13 1 14 2 15 3 16 4 17 5 18 6 19 7 20 8 21 9 22 10 23 11
REMARK SMILES IDX 24 12 25 13 26 14 12 15 11 16 10 17 9 18 8 19 7 20 6 21 5 22
REMARK SMILES IDX 4 23 3 24 2 25 1 26
REMARK H PARENT
REMARK Flexibility Score: inf
ROOT
ATOM      1  C   UNL     1     -41.194 -30.987  38.390  1.00  0.00     0.000 C 
ENDROOT
BRANCH   1   2
ATOM      2  C   UNL     1     -42.138 -32.098  38.888  1.00  0.00     0.000 C 
BRANCH   2   3
ATOM      3  C   UNL     1     -43.435 -31.541  39.504  1.00  0.00     0.000 C 
BRANCH   3   4
ATOM      4  C   UNL     1     -44.627 -32.487  39.296  1.00  0.00     0.000 C 
BRANCH   4   5
ATOM      5  C   UNL     1     -44.883 -32.812  37.814  1.00  0.00     0.000 C 
BRANCH   5   6
ATOM      6  C   UNL     1     -45.075 -34.325  37.578  1.00  0.00     0.000 C 
BRANCH   6   7
ATOM      7  C   UNL     1     -43.771 -35.139  37.704  1.00  0.00     0.000 C 
BRANCH   7   8
ATOM      8  C   UNL     1     -43.160 -35.590  36.367  1.00  0.00     0.000 C 
BRANCH   8   9
ATOM      9  C   UNL     1     -41.717 -36.103  36.513  1.00  0.00     0.000 C 
BRANCH   9  10
ATOM     10  C   UNL     1     -40.729 -34.986  36.891  1.00  0.00     0.006 C 
BRANCH  10  11
ATOM     11  C   UNL     1     -39.389 -35.529  37.417  1.00  0.00     0.053 C 
BRANCH  11  12
ATOM     12  C   UNL     1     -39.402 -35.655  38.909  1.00  0.00     0.041 C 
ATOM     13  O   UNL     1     -38.857 -36.644  39.469  1.00  0.00    -0.550 OA
ATOM     14  O   UNL     1     -39.975 -34.656  39.687  1.00  0.00    -0.550 OA
ENDBRANCH  11  12
ENDBRANCH  10  11
ENDBRANCH   9  10
ENDBRANCH   8   9
ENDBRANCH   7   8
ENDBRANCH   6   7
ENDBRANCH   5   6
ENDBRANCH   4   5
ENDBRANCH   3   4
ENDBRANCH   2   3
ENDBRANCH   1   2
BRANCH   1  15
ATOM     15  C   UNL     1     -41.682 -29.559  38.700  1.00  0.00     0.000 C 
BRANCH  15  16
ATOM     16  C   UNL     1     -40.704 -28.778  39.597  1.00  0.00     0.000 C 
BRANCH  16  17
ATOM     17  C   UNL     1     -41.235 -28.591  41.027  1.00  0.00     0.000 C 
BRANCH  17  18
ATOM     18  C   UNL     1     -42.762 -28.413  41.074  1.00  0.00    -0.000 C 
BRANCH  18  19
ATOM     19  C   UNL     1     -43.189 -26.937  41.108  1.00  0.00    -0.000 C 
BRANCH  19  20
ATOM     20  C   UNL     1     -43.618 -26.414  39.726  1.00  0.00    -0.000 C 
BRANCH  20  21
ATOM     21  C   UNL     1     -42.618 -25.386  39.154  1.00  0.00    -0.000 C 
BRANCH  21  22
ATOM     22  C   UNL     1     -42.626 -24.039  39.901  1.00  0.00    -0.000 C 
BRANCH  22  23
ATOM     23  C   UNL     1     -41.235 -23.521  40.309  1.00  0.00    -0.000 C 
BRANCH  23  24
ATOM     24  C   UNL     1     -40.822 -23.860  41.754  1.00  0.00    -0.000 C 
BRANCH  24  25
ATOM     25  C   UNL     1     -40.039 -25.184  41.878  1.00  0.00    -0.003 C 
ATOM     26  C   UNL     1     -39.018 -25.361  40.754  1.00  0.00     0.004 C 
ENDBRANCH  24  25
ENDBRANCH  23  24
ENDBRANCH  22  23
ENDBRANCH  21  22
ENDBRANCH  20  21
ENDBRANCH  19  20
ENDBRANCH  18  19
ENDBRANCH  17  18
ENDBRANCH  16  17
ENDBRANCH  15  16
ENDBRANCH   1  15
TORSDOF 22
ENDMDL
MODEL 8
REMARK VINA RESULT:    -4.241      5.053      7.719
REMARK INTER + INTRA:         -13.159
REMARK INTER:                  -9.212
REMARK INTRA:                  -3.947
REMARK UNBOUND:                -3.464
REMARK SMILES CCCCCCCCCCCCCCCCCCCCCCCC(=O)[O-]
REMARK SMILES IDX 13 1 14 2 15 3 16 4 17 5 18 6 19 7 20 8 21 9 22 10 23 11
REMARK SMILES IDX 24 12 25 13 26 14 12 15 11 16 10 17 9 18 8 19 7 20 6 21 5 22
REMARK SMILES IDX 4 23 3 24 2 25 1 26
REMARK H PARENT
REMARK Flexibility Score: inf
ROOT
ATOM      1  C   UNL     1     -42.611 -28.366  37.714  1.00  0.00     0.000 C 
ENDROOT
BRANCH   1   2
ATOM      2  C   UNL     1     -43.907 -28.203  36.897  1.00  0.00     0.000 C 
BRANCH   2   3
ATOM      3  C   UNL     1     -44.999 -29.208  37.310  1.00  0.00     0.000 C 
BRANCH   3   4
ATOM      4  C   UNL     1     -45.792 -28.730  38.535  1.00  0.00     0.000 C 
BRANCH   4   5
ATOM      5  C   UNL     1     -46.277 -29.887  39.425  1.00  0.00     0.000 C 
BRANCH   5   6
ATOM      6  C   UNL     1     -45.620 -31.230  39.036  1.00  0.00     0.000 C 
BRANCH   6   7
ATOM      7  C   UNL     1     -46.637 -32.326  38.656  1.00  0.00     0.000 C 
BRANCH   7   8
ATOM      8  C   UNL     1     -46.848 -32.513  37.144  1.00  0.00     0.000 C 
BRANCH   8   9
ATOM      9  C   UNL     1     -48.016 -31.675  36.597  1.00  0.00     0.000 C 
BRANCH   9  10
ATOM     10  C   UNL     1     -47.640 -30.895  35.326  1.00  0.00     0.006 C 
BRANCH  10  11
ATOM     11  C   UNL     1     -48.205 -29.464  35.315  1.00  0.00     0.053 C 
BRANCH  11  12
ATOM     12  C   UNL     1     -47.628 -28.660  34.192  1.00  0.00     0.041 C 
ATOM     13  O   UNL     1     -46.383 -28.480  34.113  1.00  0.00    -0.550 OA
ATOM     14  O   UNL     1     -48.459 -28.148  33.203  1.00  0.00    -0.550 OA
ENDBRANCH  11  12
ENDBRANCH  10  11
ENDBRANCH   9  10
ENDBRANCH   8   9
ENDBRANCH   7   8
ENDBRANCH   6   7
ENDBRANCH   5   6
ENDBRANCH   4   5
ENDBRANCH   3   4
ENDBRANCH   2   3
ENDBRANCH   1   2
BRANCH   1  15
ATOM     15  C   UNL     1     -42.259 -29.827  38.051  1.00  0.00     0.000 C 
BRANCH  15  16
ATOM     16  C   UNL     1     -41.733 -29.995  39.489  1.00  0.00     0.000 C 
BRANCH  16  17
ATOM     17  C   UNL     1     -42.743 -29.521  40.546  1.00  0.00     0.000 C 
BRANCH  17  18
ATOM     18  C   UNL     1     -42.277 -28.254  41.285  1.00  0.00    -0.000 C 
BRANCH  18  19
ATOM     19  C   UNL     1     -43.320 -27.126  41.247  1.00  0.00    -0.000 C 
BRANCH  19  20
ATOM     20  C   UNL     1     -42.874 -25.936  40.379  1.00  0.00    -0.000 C 
BRANCH  20  21
ATOM     21  C   UNL     1     -42.487 -24.707  41.229  1.00  0.00    -0.000 C 
BRANCH  21  22
ATOM     22  C   UNL     1     -41.105 -24.834  41.900  1.00  0.00    -0.000 C 
BRANCH  22  23
ATOM     23  C   UNL     1     -39.959 -24.130  41.150  1.00  0.00    -0.000 C 
BRANCH  23  24
ATOM     24  C   UNL     1     -38.754 -25.032  40.826  1.00  0.00    -0.000 C 
BRANCH  24  25
ATOM     25  C   UNL     1     -39.131 -26.516  40.624  1.00  0.00    -0.003 C 
ATOM     26  C   UNL     1     -39.517 -26.824  39.177  1.00  0.00     0.004 C 
ENDBRANCH  24  25
ENDBRANCH  23  24
ENDBRANCH  22  23
ENDBRANCH  21  22
ENDBRANCH  20  21
ENDBRANCH  19  20
ENDBRANCH  18  19
ENDBRANCH  17  18
ENDBRANCH  16  17
ENDBRANCH  15  16
ENDBRANCH   1  15
TORSDOF 22
ENDMDL
MODEL 9
REMARK VINA RESULT:    -4.213      2.850      5.445
REMARK INTER + INTRA:         -13.095
REMARK INTER:                  -9.224
REMARK INTRA:                  -3.871
REMARK UNBOUND:                -3.464
REMARK SMILES CCCCCCCCCCCCCCCCCCCCCCCC(=O)[O-]
REMARK SMILES IDX 13 1 14 2 15 3 16 4 17 5 18 6 19 7 20 8 21 9 22 10 23 11
REMARK SMILES IDX 24 12 25 13 26 14 12 15 11 16 10 17 9 18 8 19 7 20 6 21 5 22
REMARK SMILES IDX 4 23 3 24 2 25 1 26
REMARK H PARENT
REMARK Flexibility Score: inf
ROOT
ATOM      1  C   UNL     1     -41.270 -35.975  36.098  1.00  0.00     0.000 C 
ENDROOT
BRANCH   1   2
ATOM      2  C   UNL     1     -40.181 -35.248  36.909  1.00  0.00     0.000 C 
BRANCH   2   3
ATOM      3  C   UNL     1     -40.576 -35.048  38.385  1.00  0.00     0.000 C 
BRANCH   3   4
ATOM      4  C   UNL     1     -40.392 -33.592  38.840  1.00  0.00     0.000 C 
BRANCH   4   5
ATOM      5  C   UNL     1     -41.702 -32.785  38.814  1.00  0.00     0.000 C 
BRANCH   5   6
ATOM      6  C   UNL     1     -42.331 -32.659  40.218  1.00  0.00     0.000 C 
BRANCH   6   7
ATOM      7  C   UNL     1     -43.802 -32.193  40.194  1.00  0.00     0.000 C 
BRANCH   7   8
ATOM      8  C   UNL     1     -44.112 -31.088  39.171  1.00  0.00     0.000 C 
BRANCH   8   9
ATOM      9  C   UNL     1     -44.530 -29.763  39.833  1.00  0.00     0.000 C 
BRANCH   9  10
ATOM     10  C   UNL     1     -43.420 -28.700  39.779  1.00  0.00     0.006 C 
BRANCH  10  11
ATOM     11  C   UNL     1     -42.460 -28.779  40.979  1.00  0.00     0.053 C 
BRANCH  11  12
ATOM     12  C   UNL     1     -41.032 -28.791  40.532  1.00  0.00     0.041 C 
ATOM     13  O   UNL     1     -40.702 -29.385  39.470  1.00  0.00    -0.550 OA
ATOM     14  O   UNL     1     -40.067 -28.106  41.262  1.00  0.00    -0.550 OA
ENDBRANCH  11  12
ENDBRANCH  10  11
ENDBRANCH   9  10
ENDBRANCH   8   9
ENDBRANCH   7   8
ENDBRANCH   6   7
ENDBRANCH   5   6
ENDBRANCH   4   5
ENDBRANCH   3   4
ENDBRANCH   2   3
ENDBRANCH   1   2
BRANCH   1  15
ATOM     15  C   UNL     1     -42.690 -35.416  36.307  1.00  0.00     0.000 C 
BRANCH  15  16
ATOM     16  C   UNL     1     -43.744 -36.524  36.492  1.00  0.00     0.000 C 
BRANCH  16  17
ATOM     17  C   UNL     1     -44.885 -36.101  37.432  1.00  0.00     0.000 C 
BRANCH  17  18
ATOM     18  C   UNL     1     -44.375 -35.440  38.724  1.00  0.00    -0.000 C 
BRANCH  18  19
ATOM     19  C   UNL     1     -45.289 -35.707  39.929  1.00  0.00    -0.000 C 
BRANCH  19  20
ATOM     20  C   UNL     1     -46.712 -36.120  39.513  1.00  0.00    -0.000 C 
BRANCH  20  21
ATOM     21  C   UNL     1     -47.758 -35.037  39.855  1.00  0.00    -0.000 C 
BRANCH  21  22
ATOM     22  C   UNL     1     -47.145 -33.763  40.470  1.00  0.00    -0.000 C 
BRANCH  22  23
ATOM     23  C   UNL     1     -47.789 -32.447  39.998  1.00  0.00    -0.000 C 
BRANCH  23  24
ATOM     24  C   UNL     1     -48.244 -32.446  38.527  1.00  0.00    -0.000 C 
BRANCH  24  25
ATOM     25  C   UNL     1     -47.231 -31.783  37.568  1.00  0.00    -0.003 C 
ATOM     26  C   UNL     1     -46.311 -32.804  36.899  1.00  0.00     0.004 C 
ENDBRANCH  24  25
ENDBRANCH  23  24
ENDBRANCH  22  23
ENDBRANCH  21  22
ENDBRANCH  20  21
ENDBRANCH  19  20
ENDBRANCH  18  19
ENDBRANCH  17  18
ENDBRANCH  16  17
ENDBRANCH  15  16
ENDBRANCH   1  15
TORSDOF 22
ENDMDL
