MODEL 1
REMARK VINA RESULT:    -5.489      0.000      0.000
REMARK INTER + INTRA:          -7.144
REMARK INTER:                  -7.735
REMARK INTRA:                   0.591
REMARK UNBOUND:                 0.591
REMARK SMILES CC1=CCC(=C(C)C)C(=O)CC(C)=CCC1
REMARK SMILES IDX 12 1 14 2 13 3 15 4 16 5 2 6 1 7 3 8 11 10 9 11 10 12 5 13
REMARK SMILES IDX 6 14 7 15 8 16 4 17
REMARK H PARENT
REMARK Flexibility Score: 60.00
ROOT
ATOM      1  C   UNL     1     -12.569 -15.903  31.104  1.00  0.00    -0.070 C 
ATOM      2  C   UNL     1     -13.401 -15.137  30.363  1.00  0.00    -0.027 C 
ATOM      3  C   UNL     1     -13.122 -16.542  32.353  1.00  0.00     0.039 C 
ENDROOT
BRANCH   2   4
ATOM      4  C   UNL     1     -13.011 -14.339  29.137  1.00  0.00     0.032 C 
BRANCH   4   5
ATOM      5  C   UNL     1     -11.917 -14.989  28.264  1.00  0.00     0.034 C 
BRANCH   5   6
ATOM      6  C   UNL     1     -12.460 -16.034  27.305  1.00  0.00    -0.077 C 
ATOM      7  C   UNL     1     -13.595 -15.630  26.397  1.00  0.00     0.039 C 
ATOM      8  C   UNL     1     -12.039 -17.322  27.261  1.00  0.00    -0.023 CG0
ATOM      9  G   UNL     1     -10.910 -17.942  28.059  1.00  0.00     0.000 G0
ENDBRANCH   5   6
ENDBRANCH   4   5
ENDBRANCH   2   4
BRANCH   1  10
ATOM     10  C   UNL     1     -11.096 -16.073  30.792  1.00  0.00     0.111 C 
BRANCH  10  11
ATOM     11  C   UNL     1     -10.736 -17.519  30.577  1.00  0.00     0.163 C 
ATOM     12  O   UNL     1      -9.877 -18.037  31.341  1.00  0.00    -0.294 OA
BRANCH  11  13
ATOM     13  C   UNL     1     -11.312 -18.333  29.465  1.00  0.00    -0.002 C 
ATOM     14  C   UNL     1     -12.098 -19.419  29.728  1.00  0.00    -0.069 C 
ATOM     15  C   UNL     1     -12.564 -20.353  28.633  1.00  0.00     0.039 C 
ATOM     16  C   UNL     1     -12.542 -19.743  31.138  1.00  0.00     0.039 C 
BRANCH  13  17
ATOM     17  C   UNL     1     -10.908 -17.957  28.048  1.00  0.00     0.066 CG0
ATOM     18  G   UNL     1     -12.045 -17.317  27.276  1.00  0.00     0.000 G0
ENDBRANCH  13  17
ENDBRANCH  11  13
ENDBRANCH  10  11
ENDBRANCH   1  10
TORSDOF 0
ENDMDL
MODEL 2
REMARK VINA RESULT:    -5.450      1.615      3.020
REMARK INTER + INTRA:          -7.089
REMARK INTER:                  -7.652
REMARK INTRA:                   0.563
REMARK UNBOUND:                 0.591
REMARK SMILES CC1=CCC(=C(C)C)C(=O)CC(C)=CCC1
REMARK SMILES IDX 12 1 14 2 13 3 15 4 16 5 2 6 1 7 3 8 11 10 9 11 10 12 5 13
REMARK SMILES IDX 6 14 7 15 8 16 4 17
REMARK H PARENT
REMARK Flexibility Score: 60.00
ROOT
ATOM      1  C   UNL     1     -13.403 -14.300  28.651  1.00  0.00    -0.070 C 
ATOM      2  C   UNL     1     -13.748 -14.610  27.382  1.00  0.00    -0.027 C 
ATOM      3  C   UNL     1     -14.254 -13.297  29.389  1.00  0.00     0.039 C 
ENDROOT
BRANCH   2   4
ATOM      4  C   UNL     1     -12.970 -15.514  26.450  1.00  0.00     0.032 C 
BRANCH   4   5
ATOM      5  C   UNL     1     -12.965 -17.005  26.850  1.00  0.00     0.034 C 
BRANCH   5   6
ATOM      6  C   UNL     1     -11.574 -17.540  27.143  1.00  0.00    -0.077 C 
ATOM      7  C   UNL     1     -10.565 -17.518  26.023  1.00  0.00     0.039 C 
ATOM      8  C   UNL     1     -11.203 -18.098  28.321  1.00  0.00    -0.023 CG0
ATOM      9  G   UNL     1     -12.036 -18.210  29.582  1.00  0.00     0.000 G0
ENDBRANCH   5   6
ENDBRANCH   4   5
ENDBRANCH   2   4
BRANCH   1  10
ATOM     10  C   UNL     1     -12.160 -14.838  29.331  1.00  0.00     0.111 C 
BRANCH  10  11
ATOM     11  C   UNL     1     -12.502 -15.828  30.412  1.00  0.00     0.163 C 
ATOM     12  O   UNL     1     -13.420 -15.529  31.223  1.00  0.00    -0.294 OA
BRANCH  11  13
ATOM     13  C   UNL     1     -11.757 -17.110  30.591  1.00  0.00    -0.002 C 
ATOM     14  C   UNL     1     -10.806 -17.237  31.563  1.00  0.00    -0.069 C 
ATOM     15  C   UNL     1      -9.926 -18.463  31.668  1.00  0.00     0.039 C 
ATOM     16  C   UNL     1     -10.584 -16.147  32.590  1.00  0.00     0.039 C 
BRANCH  13  17
ATOM     17  C   UNL     1     -12.035 -18.221  29.590  1.00  0.00     0.066 CG0
ATOM     18  G   UNL     1     -11.204 -18.084  28.331  1.00  0.00     0.000 G0
ENDBRANCH  13  17
ENDBRANCH  11  13
ENDBRANCH  10  11
ENDBRANCH   1  10
TORSDOF 0
ENDMDL
MODEL 3
REMARK VINA RESULT:    -5.192      1.285      3.504
REMARK INTER + INTRA:          -6.725
REMARK INTER:                  -7.519
REMARK INTRA:                   0.794
REMARK UNBOUND:                 0.591
REMARK SMILES CC1=CCC(=C(C)C)C(=O)CC(C)=CCC1
REMARK SMILES IDX 12 1 14 2 13 3 15 4 16 5 2 6 1 7 3 8 11 10 9 11 10 12 5 13
REMARK SMILES IDX 6 14 7 15 8 16 4 17
REMARK H PARENT
REMARK Flexibility Score: 60.00
ROOT
ATOM      1  C   UNL     1     -12.212 -16.852  31.365  1.00  0.00    -0.070 C 
ATOM      2  C   UNL     1     -12.749 -18.076  31.562  1.00  0.00    -0.027 C 
ATOM      3  C   UNL     1     -13.115 -15.653  31.511  1.00  0.00     0.039 C 
ENDROOT
BRANCH   2   4
ATOM      4  C   UNL     1     -12.034 -19.396  31.368  1.00  0.00     0.032 C 
BRANCH   4   5
ATOM      5  C   UNL     1     -11.291 -19.538  30.023  1.00  0.00     0.034 C 
BRANCH   5   6
ATOM      6  C   UNL     1     -12.208 -19.422  28.818  1.00  0.00    -0.077 C 
ATOM      7  C   UNL     1     -13.336 -20.416  28.698  1.00  0.00     0.039 C 
ATOM      8  C   UNL     1     -12.038 -18.530  27.813  1.00  0.00    -0.023 CG0
ATOM      9  G   UNL     1     -10.996 -17.433  27.729  1.00  0.00     0.000 G0
ENDBRANCH   5   6
ENDBRANCH   4   5
ENDBRANCH   2   4
BRANCH   1  10
ATOM     10  C   UNL     1     -10.780 -16.633  30.919  1.00  0.00     0.111 C 
BRANCH  10  11
ATOM     11  C   UNL     1     -10.709 -15.788  29.675  1.00  0.00     0.163 C 
ATOM     12  O   UNL     1     -10.056 -14.710  29.727  1.00  0.00    -0.294 OA
BRANCH  11  13
ATOM     13  C   UNL     1     -11.426 -16.149  28.416  1.00  0.00    -0.002 C 
ATOM     14  C   UNL     1     -12.481 -15.401  27.973  1.00  0.00    -0.069 C 
ATOM     15  C   UNL     1     -13.326 -15.828  26.794  1.00  0.00     0.039 C 
ATOM     16  C   UNL     1     -12.857 -14.099  28.647  1.00  0.00     0.039 C 
BRANCH  13  17
ATOM     17  C   UNL     1     -10.996 -17.427  27.713  1.00  0.00     0.066 CG0
ATOM     18  G   UNL     1     -12.040 -18.521  27.817  1.00  0.00     0.000 G0
ENDBRANCH  13  17
ENDBRANCH  11  13
ENDBRANCH  10  11
ENDBRANCH   1  10
TORSDOF 0
ENDMDL
MODEL 4
REMARK VINA RESULT:    -5.165      1.818      4.514
REMARK INTER + INTRA:          -6.688
REMARK INTER:                  -7.030
REMARK INTRA:                   0.342
REMARK UNBOUND:                 0.591
REMARK SMILES CC1=CCC(=C(C)C)C(=O)CC(C)=CCC1
REMARK SMILES IDX 12 1 14 2 13 3 15 4 16 5 2 6 1 7 3 8 11 10 9 11 10 12 5 13
REMARK SMILES IDX 6 14 7 15 8 16 4 17
REMARK H PARENT
REMARK Flexibility Score: 60.00
ROOT
ATOM      1  C   UNL     1     -12.286 -19.172  29.124  1.00  0.00    -0.070 C 
ATOM      2  C   UNL     1     -12.605 -19.477  30.401  1.00  0.00    -0.027 C 
ATOM      3  C   UNL     1     -13.260 -19.558  28.040  1.00  0.00     0.039 C 
ENDROOT
BRANCH   2   4
ATOM      4  C   UNL     1     -11.720 -19.259  31.610  1.00  0.00     0.032 C 
BRANCH   4   5
ATOM      5  C   UNL     1     -11.263 -17.801  31.822  1.00  0.00     0.034 C 
BRANCH   5   6
ATOM      6  C   UNL     1     -12.402 -16.799  31.740  1.00  0.00    -0.077 C 
ATOM      7  C   UNL     1     -13.514 -16.919  32.751  1.00  0.00     0.039 C 
ATOM      8  C   UNL     1     -12.517 -15.851  30.779  1.00  0.00    -0.023 CG0
ATOM      9  G   UNL     1     -11.520 -15.536  29.681  1.00  0.00     0.000 G0
ENDBRANCH   5   6
ENDBRANCH   4   5
ENDBRANCH   2   4
BRANCH   1  10
ATOM     10  C   UNL     1     -10.964 -18.547  28.724  1.00  0.00     0.111 C 
BRANCH  10  11
ATOM     11  C   UNL     1     -11.164 -17.326  27.865  1.00  0.00     0.163 C 
ATOM     12  O   UNL     1     -10.615 -17.303  26.729  1.00  0.00    -0.294 OA
BRANCH  11  13
ATOM     13  C   UNL     1     -11.929 -16.132  28.332  1.00  0.00    -0.002 C 
ATOM     14  C   UNL     1     -12.891 -15.566  27.544  1.00  0.00    -0.069 C 
ATOM     15  C   UNL     1     -13.570 -14.267  27.919  1.00  0.00     0.039 C 
ATOM     16  C   UNL     1     -13.325 -16.214  26.247  1.00  0.00     0.039 C 
BRANCH  13  17
ATOM     17  C   UNL     1     -11.526 -15.527  29.668  1.00  0.00     0.066 CG0
ATOM     18  G   UNL     1     -12.514 -15.854  30.770  1.00  0.00     0.000 G0
ENDBRANCH  13  17
ENDBRANCH  11  13
ENDBRANCH  10  11
ENDBRANCH   1  10
TORSDOF 0
ENDMDL
MODEL 5
REMARK VINA RESULT:    -4.621      1.893      4.700
REMARK INTER + INTRA:          -5.921
REMARK INTER:                  -6.673
REMARK INTRA:                   0.752
REMARK UNBOUND:                 0.591
REMARK SMILES CC1=CCC(=C(C)C)C(=O)CC(C)=CCC1
REMARK SMILES IDX 12 1 14 2 13 3 15 4 16 5 2 6 1 7 3 8 11 10 9 11 10 12 5 13
REMARK SMILES IDX 6 14 7 15 8 16 4 17
REMARK H PARENT
REMARK Flexibility Score: 60.00
ROOT
ATOM      1  C   UNL     1     -11.672 -16.733  26.963  1.00  0.00    -0.070 C 
ATOM      2  C   UNL     1     -11.618 -18.054  27.241  1.00  0.00    -0.027 C 
ATOM      3  C   UNL     1     -10.987 -16.245  25.711  1.00  0.00     0.039 C 
ENDROOT
BRANCH   2   4
ATOM      4  C   UNL     1     -12.156 -18.718  28.490  1.00  0.00     0.032 C 
BRANCH   4   5
ATOM      5  C   UNL     1     -11.079 -19.181  29.492  1.00  0.00     0.034 C 
BRANCH   5   6
ATOM      6  C   UNL     1     -11.536 -19.108  30.938  1.00  0.00    -0.077 C 
ATOM      7  C   UNL     1     -12.140 -20.349  31.546  1.00  0.00     0.039 C 
ATOM      8  C   UNL     1     -11.499 -17.984  31.694  1.00  0.00    -0.023 CG0
ATOM      9  G   UNL     1     -10.922 -16.638  31.305  1.00  0.00     0.000 G0
ENDBRANCH   5   6
ENDBRANCH   4   5
ENDBRANCH   2   4
BRANCH   1  10
ATOM     10  C   UNL     1     -12.304 -15.713  27.889  1.00  0.00     0.111 C 
BRANCH  10  11
ATOM     11  C   UNL     1     -11.442 -15.446  29.094  1.00  0.00     0.163 C 
ATOM     12  O   UNL     1     -10.296 -14.954  28.907  1.00  0.00    -0.294 OA
BRANCH  11  13
ATOM     13  C   UNL     1     -11.870 -15.797  30.481  1.00  0.00    -0.002 C 
ATOM     14  C   UNL     1     -13.034 -15.302  31.000  1.00  0.00    -0.069 C 
ATOM     15  C   UNL     1     -13.416 -15.509  32.449  1.00  0.00     0.039 C 
ATOM     16  C   UNL     1     -14.003 -14.517  30.143  1.00  0.00     0.039 C 
BRANCH  13  17
ATOM     17  C   UNL     1     -10.915 -16.640  31.311  1.00  0.00     0.066 CG0
ATOM     18  G   UNL     1     -11.514 -17.979  31.694  1.00  0.00     0.000 G0
ENDBRANCH  13  17
ENDBRANCH  11  13
ENDBRANCH  10  11
ENDBRANCH   1  10
TORSDOF 0
ENDMDL
MODEL 6
REMARK VINA RESULT:    -4.576      1.175      3.207
REMARK INTER + INTRA:          -5.858
REMARK INTER:                  -7.220
REMARK INTRA:                   1.362
REMARK UNBOUND:                 0.591
REMARK SMILES CC1=CCC(=C(C)C)C(=O)CC(C)=CCC1
REMARK SMILES IDX 12 1 14 2 13 3 15 4 16 5 2 6 1 7 3 8 11 10 9 11 10 12 5 13
REMARK SMILES IDX 6 14 7 15 8 16 4 17
REMARK H PARENT
REMARK Flexibility Score: 60.00
ROOT
ATOM      1  C   UNL     1     -11.818 -19.533  30.198  1.00  0.00    -0.070 C 
ATOM      2  C   UNL     1     -12.739 -19.624  29.214  1.00  0.00    -0.027 C 
ATOM      3  C   UNL     1     -12.096 -20.249  31.496  1.00  0.00     0.039 C 
ENDROOT
BRANCH   2   4
ATOM      4  C   UNL     1     -12.687 -18.902  27.885  1.00  0.00     0.032 C 
BRANCH   4   5
ATOM      5  C   UNL     1     -11.584 -17.829  27.775  1.00  0.00     0.034 C 
BRANCH   5   6
ATOM      6  C   UNL     1     -12.132 -16.428  27.561  1.00  0.00    -0.077 C 
ATOM      7  C   UNL     1     -13.035 -16.203  26.374  1.00  0.00     0.039 C 
ATOM      8  C   UNL     1     -11.809 -15.357  28.326  1.00  0.00    -0.023 CG0
ATOM      9  G   UNL     1     -10.944 -15.350  29.570  1.00  0.00     0.000 G0
ENDBRANCH   5   6
ENDBRANCH   4   5
ENDBRANCH   2   4
BRANCH   1  10
ATOM     10  C   UNL     1     -10.571 -18.677  30.094  1.00  0.00     0.111 C 
BRANCH  10  11
ATOM     11  C   UNL     1     -10.642 -17.478  31.001  1.00  0.00     0.163 C 
ATOM     12  O   UNL     1     -10.018 -17.523  32.095  1.00  0.00    -0.294 OA
BRANCH  11  13
ATOM     13  C   UNL     1     -11.467 -16.276  30.678  1.00  0.00    -0.002 C 
ATOM     14  C   UNL     1     -12.678 -16.076  31.279  1.00  0.00    -0.069 C 
ATOM     15  C   UNL     1     -13.605 -14.957  30.860  1.00  0.00     0.039 C 
ATOM     16  C   UNL     1     -13.153 -16.972  32.402  1.00  0.00     0.039 C 
BRANCH  13  17
ATOM     17  C   UNL     1     -10.947 -15.347  29.591  1.00  0.00     0.066 CG0
ATOM     18  G   UNL     1     -11.818 -15.367  28.351  1.00  0.00     0.000 G0
ENDBRANCH  13  17
ENDBRANCH  11  13
ENDBRANCH  10  11
ENDBRANCH   1  10
TORSDOF 0
ENDMDL
MODEL 7
REMARK VINA RESULT:    -4.533      1.876      3.630
REMARK INTER + INTRA:          -5.797
REMARK INTER:                  -7.096
REMARK INTRA:                   1.298
REMARK UNBOUND:                 0.591
REMARK SMILES CC1=CCC(=C(C)C)C(=O)CC(C)=CCC1
REMARK SMILES IDX 12 1 14 2 13 3 15 4 16 5 2 6 1 7 3 8 11 10 9 11 10 12 5 13
REMARK SMILES IDX 6 14 7 15 8 16 4 17
REMARK H PARENT
REMARK Flexibility Score: 60.00
ROOT
ATOM      1  C   UNL     1     -12.439 -15.068  29.199  1.00  0.00    -0.070 C 
ATOM      2  C   UNL     1     -13.316 -15.019  30.226  1.00  0.00    -0.027 C 
ATOM      3  C   UNL     1     -12.965 -14.815  27.808  1.00  0.00     0.039 C 
ENDROOT
BRANCH   2   4
ATOM      4  C   UNL     1     -13.002 -15.337  31.672  1.00  0.00     0.032 C 
BRANCH   4   5
ATOM      5  C   UNL     1     -12.335 -16.710  31.902  1.00  0.00     0.034 C 
BRANCH   5   6
ATOM      6  C   UNL     1     -10.871 -16.605  32.290  1.00  0.00    -0.077 C 
ATOM      7  C   UNL     1     -10.493 -15.582  33.332  1.00  0.00     0.039 C 
ATOM      8  C   UNL     1      -9.875 -17.320  31.713  1.00  0.00    -0.023 CG0
ATOM      9  G   UNL     1     -10.018 -18.409  30.668  1.00  0.00     0.000 G0
ENDBRANCH   5   6
ENDBRANCH   4   5
ENDBRANCH   2   4
BRANCH   1  10
ATOM     10  C   UNL     1     -10.983 -15.452  29.366  1.00  0.00     0.111 C 
BRANCH  10  11
ATOM     11  C   UNL     1     -10.696 -16.812  28.788  1.00  0.00     0.163 C 
ATOM     12  O   UNL     1     -10.260 -16.875  27.606  1.00  0.00    -0.294 OA
BRANCH  11  13
ATOM     13  C   UNL     1     -10.966 -18.076  29.536  1.00  0.00    -0.002 C 
ATOM     14  C   UNL     1     -12.070 -18.831  29.259  1.00  0.00    -0.069 C 
ATOM     15  C   UNL     1     -12.455 -20.026  30.102  1.00  0.00     0.039 C 
ATOM     16  C   UNL     1     -12.970 -18.504  28.086  1.00  0.00     0.039 C 
BRANCH  13  17
ATOM     17  C   UNL     1     -10.017 -18.427  30.672  1.00  0.00     0.066 CG0
ATOM     18  G   UNL     1      -9.893 -17.307  31.686  1.00  0.00     0.000 G0
ENDBRANCH  13  17
ENDBRANCH  11  13
ENDBRANCH  10  11
ENDBRANCH   1  10
TORSDOF 0
ENDMDL
MODEL 8
REMARK VINA RESULT:    -4.284      2.009      3.527
REMARK INTER + INTRA:          -5.446
REMARK INTER:                  -5.763
REMARK INTRA:                   0.317
REMARK UNBOUND:                 0.591
REMARK SMILES CC1=CCC(=C(C)C)C(=O)CC(C)=CCC1
REMARK SMILES IDX 12 1 14 2 13 3 15 4 16 5 2 6 1 7 3 8 11 10 9 11 10 12 5 13
REMARK SMILES IDX 6 14 7 15 8 16 4 17
REMARK H PARENT
REMARK Flexibility Score: 60.00
ROOT
ATOM      1  C   UNL     1     -11.755 -16.368  31.903  1.00  0.00    -0.070 C 
ATOM      2  C   UNL     1     -12.735 -15.566  32.376  1.00  0.00    -0.027 C 
ATOM      3  C   UNL     1     -10.460 -16.431  32.673  1.00  0.00     0.039 C 
ENDROOT
BRANCH   2   4
ATOM      4  C   UNL     1     -14.061 -15.296  31.698  1.00  0.00     0.032 C 
BRANCH   4   5
ATOM      5  C   UNL     1     -14.238 -13.855  31.176  1.00  0.00     0.034 C 
BRANCH   5   6
ATOM      6  C   UNL     1     -14.759 -13.795  29.750  1.00  0.00    -0.077 C 
ATOM      7  C   UNL     1     -16.236 -13.559  29.553  1.00  0.00     0.039 C 
ATOM      8  C   UNL     1     -13.998 -14.007  28.650  1.00  0.00    -0.023 CG0
ATOM      9  G   UNL     1     -12.501 -14.241  28.604  1.00  0.00     0.000 G0
ENDBRANCH   5   6
ENDBRANCH   4   5
ENDBRANCH   2   4
BRANCH   1  10
ATOM     10  C   UNL     1     -11.862 -17.130  30.597  1.00  0.00     0.111 C 
BRANCH  10  11
ATOM     11  C   UNL     1     -11.282 -16.349  29.448  1.00  0.00     0.163 C 
ATOM     12  O   UNL     1     -10.032 -16.184  29.413  1.00  0.00    -0.294 OA
BRANCH  11  13
ATOM     13  C   UNL     1     -12.133 -15.719  28.395  1.00  0.00    -0.002 C 
ATOM     14  C   UNL     1     -12.494 -16.417  27.277  1.00  0.00    -0.069 C 
ATOM     15  C   UNL     1     -13.219 -15.761  26.123  1.00  0.00     0.039 C 
ATOM     16  C   UNL     1     -12.181 -17.892  27.138  1.00  0.00     0.039 C 
BRANCH  13  17
ATOM     17  C   UNL     1     -12.494 -14.253  28.578  1.00  0.00     0.066 CG0
ATOM     18  G   UNL     1     -13.991 -14.035  28.661  1.00  0.00     0.000 G0
ENDBRANCH  13  17
ENDBRANCH  11  13
ENDBRANCH  10  11
ENDBRANCH   1  10
TORSDOF 0
ENDMDL
MODEL 9
REMARK VINA RESULT:    -4.061      2.043      4.011
REMARK INTER + INTRA:          -5.133
REMARK INTER:                  -6.520
REMARK INTRA:                   1.387
REMARK UNBOUND:                 0.591
REMARK SMILES CC1=CCC(=C(C)C)C(=O)CC(C)=CCC1
REMARK SMILES IDX 12 1 14 2 13 3 15 4 16 5 2 6 1 7 3 8 11 10 9 11 10 12 5 13
REMARK SMILES IDX 6 14 7 15 8 16 4 17
REMARK H PARENT
REMARK Flexibility Score: 60.00
ROOT
ATOM      1  C   UNL     1     -14.002 -13.742  29.490  1.00  0.00    -0.070 C 
ATOM      2  C   UNL     1     -14.089 -13.990  30.815  1.00  0.00    -0.027 C 
ATOM      3  C   UNL     1     -14.384 -12.368  29.001  1.00  0.00     0.039 C 
ENDROOT
BRANCH   2   4
ATOM      4  C   UNL     1     -13.845 -15.326  31.483  1.00  0.00     0.032 C 
BRANCH   4   5
ATOM      5  C   UNL     1     -12.878 -15.281  32.685  1.00  0.00     0.034 C 
BRANCH   5   6
ATOM      6  C   UNL     1     -11.589 -16.048  32.445  1.00  0.00    -0.077 C 
ATOM      7  C   UNL     1     -10.418 -15.751  33.348  1.00  0.00     0.039 C 
ATOM      8  C   UNL     1     -11.403 -16.930  31.433  1.00  0.00    -0.023 CG0
ATOM      9  G   UNL     1     -12.433 -17.395  30.424  1.00  0.00     0.000 G0
ENDBRANCH   5   6
ENDBRANCH   4   5
ENDBRANCH   2   4
BRANCH   1  10
ATOM     10  C   UNL     1     -13.630 -14.799  28.469  1.00  0.00     0.111 C 
BRANCH  10  11
ATOM     11  C   UNL     1     -12.293 -15.420  28.774  1.00  0.00     0.163 C 
ATOM     12  O   UNL     1     -11.277 -14.673  28.773  1.00  0.00    -0.294 OA
BRANCH  11  13
ATOM     13  C   UNL     1     -12.125 -16.884  29.013  1.00  0.00    -0.002 C 
ATOM     14  C   UNL     1     -11.798 -17.728  27.989  1.00  0.00    -0.069 C 
ATOM     15  C   UNL     1     -11.776 -19.230  28.166  1.00  0.00     0.039 C 
ATOM     16  C   UNL     1     -11.442 -17.196  26.618  1.00  0.00     0.039 C 
BRANCH  13  17
ATOM     17  C   UNL     1     -12.424 -17.398  30.413  1.00  0.00     0.066 CG0
ATOM     18  G   UNL     1     -11.399 -16.934  31.428  1.00  0.00     0.000 G0
ENDBRANCH  13  17
ENDBRANCH  11  13
ENDBRANCH  10  11
ENDBRANCH   1  10
TORSDOF 0
ENDMDL
