MODEL 1
REMARK VINA RESULT:    -3.589      0.000      0.000
REMARK INTER + INTRA:          -5.672
REMARK INTER:                  -5.268
REMARK INTRA:                  -0.404
REMARK UNBOUND:                -0.404
REMARK SMILES O=C([O-])CCCCCCCC(=O)[O-]
REMARK SMILES IDX 7 1 6 2 5 3 4 4 2 5 1 6 3 7 8 8 9 9 10 10 11 11 12 12 13 13
REMARK H PARENT
REMARK Flexibility Score: inf
ROOT
ATOM      1  C   UNL     1      62.026  32.600  60.861  1.00  0.00     0.000 C 
ENDROOT
BRANCH   1   2
ATOM      2  C   UNL     1      60.988  31.671  61.515  1.00  0.00     0.000 C 
BRANCH   2   3
ATOM      3  C   UNL     1      61.582  30.313  61.931  1.00  0.00     0.006 C 
BRANCH   3   4
ATOM      4  C   UNL     1      63.116  30.239  61.844  1.00  0.00     0.053 C 
BRANCH   4   5
ATOM      5  C   UNL     1      63.576  29.069  61.032  1.00  0.00     0.041 C 
ATOM      6  O   UNL     1      63.385  27.895  61.447  1.00  0.00    -0.550 OA
ATOM      7  O   UNL     1      64.245  29.273  59.831  1.00  0.00    -0.550 OA
ENDBRANCH   4   5
ENDBRANCH   3   4
ENDBRANCH   2   3
ENDBRANCH   1   2
BRANCH   1   8
ATOM      8  C   UNL     1      61.484  34.021  60.631  1.00  0.00     0.000 C 
BRANCH   8   9
ATOM      9  C   UNL     1      62.481  35.111  61.053  1.00  0.00     0.006 C 
BRANCH   9  10
ATOM     10  C   UNL     1      63.873  34.518  61.284  1.00  0.00     0.053 C 
BRANCH  10  11
ATOM     11  C   UNL     1      64.895  35.606  61.394  1.00  0.00     0.041 C 
ATOM     12  O   UNL     1      65.075  36.198  62.491  1.00  0.00    -0.550 OA
ATOM     13  O   UNL     1      65.684  35.933  60.298  1.00  0.00    -0.550 OA
ENDBRANCH  10  11
ENDBRANCH   9  10
ENDBRANCH   8   9
ENDBRANCH   1   8
TORSDOF 8
ENDMDL
MODEL 2
REMARK VINA RESULT:    -3.473     13.053     14.865
REMARK INTER + INTRA:          -5.501
REMARK INTER:                  -5.085
REMARK INTRA:                  -0.417
REMARK UNBOUND:                -0.404
REMARK SMILES O=C([O-])CCCCCCCC(=O)[O-]
REMARK SMILES IDX 7 1 6 2 5 3 4 4 2 5 1 6 3 7 8 8 9 9 10 10 11 11 12 12 13 13
REMARK H PARENT
REMARK Flexibility Score: inf
ROOT
ATOM      1  C   UNL     1      57.041  28.123  50.324  1.00  0.00     0.000 C 
ENDROOT
BRANCH   1   2
ATOM      2  C   UNL     1      58.124  29.159  49.973  1.00  0.00     0.000 C 
BRANCH   2   3
ATOM      3  C   UNL     1      59.312  28.543  49.211  1.00  0.00     0.006 C 
BRANCH   3   4
ATOM      4  C   UNL     1      59.388  27.009  49.288  1.00  0.00     0.053 C 
BRANCH   4   5
ATOM      5  C   UNL     1      60.571  26.545  50.080  1.00  0.00     0.041 C 
ATOM      6  O   UNL     1      60.415  26.093  51.246  1.00  0.00    -0.550 OA
ATOM      7  O   UNL     1      61.849  26.643  49.545  1.00  0.00    -0.550 OA
ENDBRANCH   4   5
ENDBRANCH   3   4
ENDBRANCH   2   3
ENDBRANCH   1   2
BRANCH   1   8
ATOM      8  C   UNL     1      55.644  28.752  50.454  1.00  0.00     0.000 C 
BRANCH   8   9
ATOM      9  C   UNL     1      54.515  27.764  50.119  1.00  0.00     0.006 C 
BRANCH   9  10
ATOM     10  C   UNL     1      55.074  26.360  49.874  1.00  0.00     0.053 C 
BRANCH  10  11
ATOM     11  C   UNL     1      53.963  25.361  49.787  1.00  0.00     0.041 C 
ATOM     12  O   UNL     1      53.299  25.242  48.724  1.00  0.00    -0.550 OA
ATOM     13  O   UNL     1      53.692  24.526  50.864  1.00  0.00    -0.550 OA
ENDBRANCH  10  11
ENDBRANCH   9  10
ENDBRANCH   8   9
ENDBRANCH   1   8
TORSDOF 8
ENDMDL
MODEL 3
REMARK VINA RESULT:    -3.459      1.182      5.383
REMARK INTER + INTRA:          -5.480
REMARK INTER:                  -4.989
REMARK INTRA:                  -0.491
REMARK UNBOUND:                -0.404
REMARK SMILES O=C([O-])CCCCCCCC(=O)[O-]
REMARK SMILES IDX 7 1 6 2 5 3 4 4 2 5 1 6 3 7 8 8 9 9 10 10 11 11 12 12 13 13
REMARK H PARENT
REMARK Flexibility Score: inf
ROOT
ATOM      1  C   UNL     1      61.161  32.722  59.815  1.00  0.00     0.000 C 
ENDROOT
BRANCH   1   2
ATOM      2  C   UNL     1      61.935  33.593  60.821  1.00  0.00     0.000 C 
BRANCH   2   3
ATOM      3  C   UNL     1      61.591  35.090  60.701  1.00  0.00     0.006 C 
BRANCH   3   4
ATOM      4  C   UNL     1      62.633  36.031  61.327  1.00  0.00     0.053 C 
BRANCH   4   5
ATOM      5  C   UNL     1      64.034  35.574  61.060  1.00  0.00     0.041 C 
ATOM      6  O   UNL     1      64.528  35.688  59.906  1.00  0.00    -0.550 OA
ATOM      7  O   UNL     1      64.783  34.993  62.075  1.00  0.00    -0.550 OA
ENDBRANCH   4   5
ENDBRANCH   3   4
ENDBRANCH   2   3
ENDBRANCH   1   2
BRANCH   1   8
ATOM      8  C   UNL     1      60.833  31.327  60.373  1.00  0.00     0.000 C 
BRANCH   8   9
ATOM      9  C   UNL     1      61.211  31.177  61.855  1.00  0.00     0.006 C 
BRANCH   9  10
ATOM     10  C   UNL     1      62.053  29.918  62.078  1.00  0.00     0.053 C 
BRANCH  10  11
ATOM     11  C   UNL     1      63.364  30.031  61.365  1.00  0.00     0.041 C 
ATOM     12  O   UNL     1      63.699  29.165  60.514  1.00  0.00    -0.550 OA
ATOM     13  O   UNL     1      64.194  31.120  61.602  1.00  0.00    -0.550 OA
ENDBRANCH  10  11
ENDBRANCH   9  10
ENDBRANCH   8   9
ENDBRANCH   1   8
TORSDOF 8
ENDMDL
MODEL 4
REMARK VINA RESULT:    -3.457      1.319      6.478
REMARK INTER + INTRA:          -5.478
REMARK INTER:                  -5.174
REMARK INTRA:                  -0.304
REMARK UNBOUND:                -0.404
REMARK SMILES O=C([O-])CCCCCCCC(=O)[O-]
REMARK SMILES IDX 7 1 6 2 5 3 4 4 2 5 1 6 3 7 8 8 9 9 10 10 11 11 12 12 13 13
REMARK H PARENT
REMARK Flexibility Score: inf
ROOT
ATOM      1  C   UNL     1      61.010  31.871  60.953  1.00  0.00     0.000 C 
ENDROOT
BRANCH   1   2
ATOM      2  C   UNL     1      62.439  32.305  60.578  1.00  0.00     0.000 C 
BRANCH   2   3
ATOM      3  C   UNL     1      62.728  33.774  60.937  1.00  0.00     0.006 C 
BRANCH   3   4
ATOM      4  C   UNL     1      64.206  34.072  61.241  1.00  0.00     0.053 C 
BRANCH   4   5
ATOM      5  C   UNL     1      64.425  35.508  61.603  1.00  0.00     0.041 C 
ATOM      6  O   UNL     1      63.446  36.297  61.690  1.00  0.00    -0.550 OA
ATOM      7  O   UNL     1      65.713  35.985  61.812  1.00  0.00    -0.550 OA
ENDBRANCH   4   5
ENDBRANCH   3   4
ENDBRANCH   2   3
ENDBRANCH   1   2
BRANCH   1   8
ATOM      8  C   UNL     1      60.987  30.850  62.104  1.00  0.00     0.000 C 
BRANCH   8   9
ATOM      9  C   UNL     1      62.186  29.890  62.069  1.00  0.00     0.006 C 
BRANCH   9  10
ATOM     10  C   UNL     1      61.896  28.688  61.164  1.00  0.00     0.053 C 
BRANCH  10  11
ATOM     11  C   UNL     1      62.431  27.431  61.775  1.00  0.00     0.041 C 
ATOM     12  O   UNL     1      63.572  27.006  61.453  1.00  0.00    -0.550 OA
ATOM     13  O   UNL     1      61.692  26.756  62.738  1.00  0.00    -0.550 OA
ENDBRANCH  10  11
ENDBRANCH   9  10
ENDBRANCH   8   9
ENDBRANCH   1   8
TORSDOF 8
ENDMDL
MODEL 5
REMARK VINA RESULT:    -3.454      1.492      2.064
REMARK INTER + INTRA:          -5.473
REMARK INTER:                  -4.851
REMARK INTRA:                  -0.622
REMARK UNBOUND:                -0.404
REMARK SMILES O=C([O-])CCCCCCCC(=O)[O-]
REMARK SMILES IDX 7 1 6 2 5 3 4 4 2 5 1 6 3 7 8 8 9 9 10 10 11 11 12 12 13 13
REMARK H PARENT
REMARK Flexibility Score: inf
ROOT
ATOM      1  C   UNL     1      60.623  31.173  60.498  1.00  0.00     0.000 C 
ENDROOT
BRANCH   1   2
ATOM      2  C   UNL     1      61.241  30.922  61.885  1.00  0.00     0.000 C 
BRANCH   2   3
ATOM      3  C   UNL     1      62.231  29.742  61.890  1.00  0.00     0.006 C 
BRANCH   3   4
ATOM      4  C   UNL     1      63.711  30.156  61.848  1.00  0.00     0.053 C 
BRANCH   4   5
ATOM      5  C   UNL     1      64.187  30.394  60.449  1.00  0.00     0.041 C 
ATOM      6  O   UNL     1      64.935  31.375  60.192  1.00  0.00    -0.550 OA
ATOM      7  O   UNL     1      63.780  29.552  59.422  1.00  0.00    -0.550 OA
ENDBRANCH   4   5
ENDBRANCH   3   4
ENDBRANCH   2   3
ENDBRANCH   1   2
BRANCH   1   8
ATOM      8  C   UNL     1      61.087  32.502  59.878  1.00  0.00     0.000 C 
BRANCH   8   9
ATOM      9  C   UNL     1      61.914  33.354  60.852  1.00  0.00     0.006 C 
BRANCH   9  10
ATOM     10  C   UNL     1      61.634  34.845  60.646  1.00  0.00     0.053 C 
BRANCH  10  11
ATOM     11  C   UNL     1      62.711  35.673  61.272  1.00  0.00     0.041 C 
ATOM     12  O   UNL     1      62.507  36.888  61.532  1.00  0.00    -0.550 OA
ATOM     13  O   UNL     1      63.925  35.091  61.616  1.00  0.00    -0.550 OA
ENDBRANCH  10  11
ENDBRANCH   9  10
ENDBRANCH   8   9
ENDBRANCH   1   8
TORSDOF 8
ENDMDL
MODEL 6
REMARK VINA RESULT:    -3.435     13.020     14.540
REMARK INTER + INTRA:          -5.445
REMARK INTER:                  -4.933
REMARK INTRA:                  -0.513
REMARK UNBOUND:                -0.404
REMARK SMILES O=C([O-])CCCCCCCC(=O)[O-]
REMARK SMILES IDX 7 1 6 2 5 3 4 4 2 5 1 6 3 7 8 8 9 9 10 10 11 11 12 12 13 13
REMARK H PARENT
REMARK Flexibility Score: inf
ROOT
ATOM      1  C   UNL     1      57.895  28.706  50.593  1.00  0.00     0.000 C 
ENDROOT
BRANCH   1   2
ATOM      2  C   UNL     1      56.373  28.728  50.361  1.00  0.00     0.000 C 
BRANCH   2   3
ATOM      3  C   UNL     1      55.664  27.493  50.947  1.00  0.00     0.006 C 
BRANCH   3   4
ATOM      4  C   UNL     1      55.522  26.319  49.965  1.00  0.00     0.053 C 
BRANCH   4   5
ATOM      5  C   UNL     1      54.092  26.061  49.601  1.00  0.00     0.041 C 
ATOM      6  O   UNL     1      53.264  27.010  49.573  1.00  0.00    -0.550 OA
ATOM      7  O   UNL     1      53.665  24.768  49.326  1.00  0.00    -0.550 OA
ENDBRANCH   4   5
ENDBRANCH   3   4
ENDBRANCH   2   3
ENDBRANCH   1   2
BRANCH   1   8
ATOM      8  C   UNL     1      58.689  29.076  49.330  1.00  0.00     0.000 C 
BRANCH   8   9
ATOM      9  C   UNL     1      59.800  28.064  49.009  1.00  0.00     0.006 C 
BRANCH   9  10
ATOM     10  C   UNL     1      59.361  26.641  49.365  1.00  0.00     0.053 C 
BRANCH  10  11
ATOM     11  C   UNL     1      60.537  25.821  49.794  1.00  0.00     0.041 C 
ATOM     12  O   UNL     1      60.438  24.569  49.885  1.00  0.00    -0.550 OA
ATOM     13  O   UNL     1      61.759  26.435  50.044  1.00  0.00    -0.550 OA
ENDBRANCH  10  11
ENDBRANCH   9  10
ENDBRANCH   8   9
ENDBRANCH   1   8
TORSDOF 8
ENDMDL
MODEL 7
REMARK VINA RESULT:    -3.417      1.350      1.858
REMARK INTER + INTRA:          -5.419
REMARK INTER:                  -4.993
REMARK INTRA:                  -0.427
REMARK UNBOUND:                -0.404
REMARK SMILES O=C([O-])CCCCCCCC(=O)[O-]
REMARK SMILES IDX 7 1 6 2 5 3 4 4 2 5 1 6 3 7 8 8 9 9 10 10 11 11 12 12 13 13
REMARK H PARENT
REMARK Flexibility Score: inf
ROOT
ATOM      1  C   UNL     1      61.752  33.436  60.406  1.00  0.00     0.000 C 
ENDROOT
BRANCH   1   2
ATOM      2  C   UNL     1      60.871  32.421  59.656  1.00  0.00     0.000 C 
BRANCH   2   3
ATOM      3  C   UNL     1      60.627  31.133  60.464  1.00  0.00     0.006 C 
BRANCH   3   4
ATOM      4  C   UNL     1      61.307  31.112  61.843  1.00  0.00     0.053 C 
BRANCH   4   5
ATOM      5  C   UNL     1      62.376  30.067  61.925  1.00  0.00     0.041 C 
ATOM      6  O   UNL     1      63.591  30.400  61.897  1.00  0.00    -0.550 OA
ATOM      7  O   UNL     1      62.033  28.723  61.999  1.00  0.00    -0.550 OA
ENDBRANCH   4   5
ENDBRANCH   3   4
ENDBRANCH   2   3
ENDBRANCH   1   2
BRANCH   1   8
ATOM      8  C   UNL     1      61.143  34.847  60.422  1.00  0.00     0.000 C 
BRANCH   8   9
ATOM      9  C   UNL     1      62.029  35.868  61.153  1.00  0.00     0.006 C 
BRANCH   9  10
ATOM     10  C   UNL     1      63.457  35.844  60.602  1.00  0.00     0.053 C 
BRANCH  10  11
ATOM     11  C   UNL     1      64.445  35.678  61.714  1.00  0.00     0.041 C 
ATOM     12  O   UNL     1      64.769  34.526  62.107  1.00  0.00    -0.550 OA
ATOM     13  O   UNL     1      65.047  36.794  62.283  1.00  0.00    -0.550 OA
ENDBRANCH  10  11
ENDBRANCH   9  10
ENDBRANCH   8   9
ENDBRANCH   1   8
TORSDOF 8
ENDMDL
MODEL 8
REMARK VINA RESULT:    -3.395     12.899     14.214
REMARK INTER + INTRA:          -5.386
REMARK INTER:                  -4.866
REMARK INTRA:                  -0.520
REMARK UNBOUND:                -0.404
REMARK SMILES O=C([O-])CCCCCCCC(=O)[O-]
REMARK SMILES IDX 7 1 6 2 5 3 4 4 2 5 1 6 3 7 8 8 9 9 10 10 11 11 12 12 13 13
REMARK H PARENT
REMARK Flexibility Score: inf
ROOT
ATOM      1  C   UNL     1      55.737  28.795  51.673  1.00  0.00     0.000 C 
ENDROOT
BRANCH   1   2
ATOM      2  C   UNL     1      54.791  29.310  50.573  1.00  0.00     0.000 C 
BRANCH   2   3
ATOM      3  C   UNL     1      53.892  28.201  49.995  1.00  0.00     0.006 C 
BRANCH   3   4
ATOM      4  C   UNL     1      54.028  26.842  50.702  1.00  0.00     0.053 C 
BRANCH   4   5
ATOM      5  C   UNL     1      54.625  25.801  49.808  1.00  0.00     0.041 C 
ATOM      6  O   UNL     1      53.881  25.005  49.176  1.00  0.00    -0.550 OA
ATOM      7  O   UNL     1      56.005  25.688  49.695  1.00  0.00    -0.550 OA
ENDBRANCH   4   5
ENDBRANCH   3   4
ENDBRANCH   2   3
ENDBRANCH   1   2
BRANCH   1   8
ATOM      8  C   UNL     1      57.217  29.054  51.345  1.00  0.00     0.000 C 
BRANCH   8   9
ATOM      9  C   UNL     1      57.607  28.574  49.939  1.00  0.00     0.006 C 
BRANCH   9  10
ATOM     10  C   UNL     1      59.029  29.017  49.585  1.00  0.00     0.053 C 
BRANCH  10  11
ATOM     11  C   UNL     1      59.899  27.828  49.322  1.00  0.00     0.041 C 
ATOM     12  O   UNL     1      61.145  27.967  49.210  1.00  0.00    -0.550 OA
ATOM     13  O   UNL     1      59.339  26.558  49.252  1.00  0.00    -0.550 OA
ENDBRANCH  10  11
ENDBRANCH   9  10
ENDBRANCH   8   9
ENDBRANCH   1   8
TORSDOF 8
ENDMDL
MODEL 9
REMARK VINA RESULT:    -3.234      2.133      5.864
REMARK INTER + INTRA:          -5.150
REMARK INTER:                  -4.431
REMARK INTRA:                  -0.719
REMARK UNBOUND:                -0.404
REMARK SMILES O=C([O-])CCCCCCCC(=O)[O-]
REMARK SMILES IDX 7 1 6 2 5 3 4 4 2 5 1 6 3 7 8 8 9 9 10 10 11 11 12 12 13 13
REMARK H PARENT
REMARK Flexibility Score: inf
ROOT
ATOM      1  C   UNL     1      64.501  31.117  60.212  1.00  0.00     0.000 C 
ENDROOT
BRANCH   1   2
ATOM      2  C   UNL     1      64.246  32.614  59.966  1.00  0.00     0.000 C 
BRANCH   2   3
ATOM      3  C   UNL     1      64.097  33.415  61.273  1.00  0.00     0.006 C 
BRANCH   3   4
ATOM      4  C   UNL     1      63.216  34.669  61.150  1.00  0.00     0.053 C 
BRANCH   4   5
ATOM      5  C   UNL     1      63.941  35.908  61.576  1.00  0.00     0.041 C 
ATOM      6  O   UNL     1      63.457  37.044  61.325  1.00  0.00    -0.550 OA
ATOM      7  O   UNL     1      65.167  35.811  62.221  1.00  0.00    -0.550 OA
ENDBRANCH   4   5
ENDBRANCH   3   4
ENDBRANCH   2   3
ENDBRANCH   1   2
BRANCH   1   8
ATOM      8  C   UNL     1      64.088  30.673  61.625  1.00  0.00     0.000 C 
BRANCH   8   9
ATOM      9  C   UNL     1      62.804  29.829  61.631  1.00  0.00     0.006 C 
BRANCH   9  10
ATOM     10  C   UNL     1      61.587  30.689  61.982  1.00  0.00     0.053 C 
BRANCH  10  11
ATOM     11  C   UNL     1      60.832  31.059  60.744  1.00  0.00     0.041 C 
ATOM     12  O   UNL     1      60.714  32.268  60.412  1.00  0.00    -0.550 OA
ATOM     13  O   UNL     1      60.302  30.067  59.929  1.00  0.00    -0.550 OA
ENDBRANCH  10  11
ENDBRANCH   9  10
ENDBRANCH   8   9
ENDBRANCH   1   8
TORSDOF 8
ENDMDL
