MODEL 1
REMARK VINA RESULT:     8.173      0.000      0.000
REMARK INTER + INTRA:           8.337
REMARK INTER:                   8.651
REMARK INTRA:                  -0.313
REMARK UNBOUND:                -0.313
REMARK SMILES CC1=CC[C@@H]2[C@H]3[C@H](C(C)C)CC[C@]2(C)[C@@H]13
REMARK SMILES IDX 1 1 2 2 3 3 4 4 5 5 6 6 15 7 13 8 12 9 11 10 7 11 14 12 8 13
REMARK SMILES IDX 9 14 10 15
REMARK H PARENT
REMARK Flexibility Score: inf
ROOT
ATOM      1  C   UNL     1     138.781 140.115 164.583  1.00  0.00     0.039 C 
ATOM      2  C   UNL     1     137.367 139.630 164.465  1.00  0.00    -0.073 C 
ATOM      3  C   UNL     1     136.551 139.507 165.546  1.00  0.00    -0.027 C 
ATOM      4  C   UNL     1     135.117 139.016 165.337  1.00  0.00     0.031 C 
ATOM      5  C   UNL     1     134.876 138.663 163.834  1.00  0.00     0.003 C 
ATOM      6  C   UNL     1     136.087 137.843 163.340  1.00  0.00     0.004 C 
ATOM      7  C   UNL     1     136.794 139.205 163.112  1.00  0.00     0.024 C 
ATOM      8  C   UNL     1     135.376 139.795 162.905  1.00  0.00    -0.022 C 
ATOM      9  C   UNL     1     134.875 139.521 161.452  1.00  0.00     0.008 C 
ATOM     10  C   UNL     1     135.411 138.178 160.884  1.00  0.00     0.005 C 
ATOM     11  C   UNL     1     135.714 137.137 162.001  1.00  0.00    -0.005 C 
ATOM     12  C   UNL     1     135.085 141.256 163.331  1.00  0.00     0.012 C 
ENDROOT
BRANCH  11  13
ATOM     13  C   UNL     1     136.745 136.040 161.601  1.00  0.00    -0.014 C 
ATOM     14  C   UNL     1     137.507 135.507 162.826  1.00  0.00     0.007 C 
ATOM     15  C   UNL     1     136.145 134.875 160.795  1.00  0.00     0.007 C 
ENDBRANCH  11  13
TORSDOF 1
ENDMDL
MODEL 2
REMARK VINA RESULT:     9.144      1.266      4.322
REMARK INTER + INTRA:           9.365
REMARK INTER:                   9.674
REMARK INTRA:                  -0.309
REMARK UNBOUND:                -0.313
REMARK SMILES CC1=CC[C@@H]2[C@H]3[C@H](C(C)C)CC[C@]2(C)[C@@H]13
REMARK SMILES IDX 1 1 2 2 3 3 4 4 5 5 6 6 15 7 13 8 12 9 11 10 7 11 14 12 8 13
REMARK SMILES IDX 9 14 10 15
REMARK H PARENT
REMARK Flexibility Score: inf
ROOT
ATOM      1  C   UNL     1     134.875 135.132 162.285  1.00  0.00     0.039 C 
ATOM      2  C   UNL     1     135.708 136.354 162.037  1.00  0.00    -0.073 C 
ATOM      3  C   UNL     1     136.836 136.319 161.278  1.00  0.00    -0.027 C 
ATOM      4  C   UNL     1     137.623 137.614 161.065  1.00  0.00     0.031 C 
ATOM      5  C   UNL     1     136.973 138.785 161.870  1.00  0.00     0.003 C 
ATOM      6  C   UNL     1     136.650 138.264 163.287  1.00  0.00     0.004 C 
ATOM      7  C   UNL     1     135.343 137.695 162.676  1.00  0.00     0.024 C 
ATOM      8  C   UNL     1     135.444 138.843 161.640  1.00  0.00    -0.022 C 
ATOM      9  C   UNL     1     134.887 140.173 162.239  1.00  0.00     0.008 C 
ATOM     10  C   UNL     1     135.135 140.282 163.769  1.00  0.00     0.005 C 
ATOM     11  C   UNL     1     136.385 139.477 164.230  1.00  0.00    -0.005 C 
ATOM     12  C   UNL     1     134.926 138.620 160.196  1.00  0.00     0.012 C 
ENDROOT
BRANCH  11  13
ATOM     13  C   UNL     1     136.375 139.069 165.733  1.00  0.00    -0.014 C 
ATOM     14  C   UNL     1     136.898 137.637 165.934  1.00  0.00     0.007 C 
ATOM     15  C   UNL     1     137.122 140.047 166.656  1.00  0.00     0.007 C 
ENDBRANCH  11  13
TORSDOF 1
ENDMDL
