MODEL 1
REMARK VINA RESULT:    -4.668      0.000      0.000
REMARK INTER + INTRA:         -14.579
REMARK INTER:                 -10.672
REMARK INTRA:                  -3.906
REMARK UNBOUND:                -3.906
REMARK SMILES CCCCCCCCCCCCCCCCCCCCCCCC(=O)[O-]
REMARK SMILES IDX 13 1 14 2 15 3 16 4 17 5 18 6 19 7 20 8 21 9 22 10 23 11
REMARK SMILES IDX 24 12 25 13 26 14 12 15 11 16 10 17 9 18 8 19 7 20 6 21 5 22
REMARK SMILES IDX 4 23 3 24 2 25 1 26
REMARK H PARENT
REMARK Flexibility Score: inf
ROOT
ATOM      1  C   UNL     1      48.440 -36.210  -5.615  1.00  0.00     0.000 C 
ENDROOT
BRANCH   1   2
ATOM      2  C   UNL     1      49.642 -35.333  -6.003  1.00  0.00     0.000 C 
BRANCH   2   3
ATOM      3  C   UNL     1      50.925 -36.152  -6.223  1.00  0.00     0.000 C 
BRANCH   3   4
ATOM      4  C   UNL     1      50.883 -37.509  -5.503  1.00  0.00     0.000 C 
BRANCH   4   5
ATOM      5  C   UNL     1      51.408 -38.656  -6.383  1.00  0.00     0.000 C 
BRANCH   5   6
ATOM      6  C   UNL     1      50.736 -40.006  -6.071  1.00  0.00     0.000 C 
BRANCH   6   7
ATOM      7  C   UNL     1      49.568 -39.936  -5.070  1.00  0.00     0.000 C 
BRANCH   7   8
ATOM      8  C   UNL     1      49.542 -41.121  -4.094  1.00  0.00     0.000 C 
BRANCH   8   9
ATOM      9  C   UNL     1      50.480 -40.870  -2.902  1.00  0.00     0.000 C 
BRANCH   9  10
ATOM     10  C   UNL     1      51.752 -41.731  -2.955  1.00  0.00     0.006 C 
BRANCH  10  11
ATOM     11  C   UNL     1      52.616 -41.585  -1.694  1.00  0.00     0.053 C 
BRANCH  11  12
ATOM     12  C   UNL     1      53.816 -40.733  -1.964  1.00  0.00     0.041 C 
ATOM     13  O   UNL     1      53.676 -39.537  -2.336  1.00  0.00    -0.550 OA
ATOM     14  O   UNL     1      55.092 -41.264  -1.825  1.00  0.00    -0.550 OA
ENDBRANCH  11  12
ENDBRANCH  10  11
ENDBRANCH   9  10
ENDBRANCH   8   9
ENDBRANCH   7   8
ENDBRANCH   6   7
ENDBRANCH   5   6
ENDBRANCH   4   5
ENDBRANCH   3   4
ENDBRANCH   2   3
ENDBRANCH   1   2
BRANCH   1  15
ATOM     15  C   UNL     1      47.263 -35.393  -5.060  1.00  0.00     0.000 C 
BRANCH  15  16
ATOM     16  C   UNL     1      46.104 -36.312  -4.646  1.00  0.00     0.000 C 
BRANCH  16  17
ATOM     17  C   UNL     1      45.523 -37.113  -5.826  1.00  0.00     0.000 C 
BRANCH  17  18
ATOM     18  C   UNL     1      44.933 -38.485  -5.454  1.00  0.00    -0.000 C 
BRANCH  18  19
ATOM     19  C   UNL     1      45.981 -39.443  -4.862  1.00  0.00    -0.000 C 
BRANCH  19  20
ATOM     20  C   UNL     1      45.630 -39.901  -3.434  1.00  0.00    -0.000 C 
BRANCH  20  21
ATOM     21  C   UNL     1      46.801 -39.874  -2.432  1.00  0.00    -0.000 C 
BRANCH  21  22
ATOM     22  C   UNL     1      46.562 -38.952  -1.216  1.00  0.00    -0.000 C 
BRANCH  22  23
ATOM     23  C   UNL     1      47.662 -37.885  -1.070  1.00  0.00    -0.000 C 
BRANCH  23  24
ATOM     24  C   UNL     1      48.548 -37.771  -2.320  1.00  0.00    -0.000 C 
BRANCH  24  25
ATOM     25  C   UNL     1      49.677 -36.742  -2.153  1.00  0.00    -0.003 C 
ATOM     26  C   UNL     1      49.117 -35.351  -1.874  1.00  0.00     0.004 C 
ENDBRANCH  24  25
ENDBRANCH  23  24
ENDBRANCH  22  23
ENDBRANCH  21  22
ENDBRANCH  20  21
ENDBRANCH  19  20
ENDBRANCH  18  19
ENDBRANCH  17  18
ENDBRANCH  16  17
ENDBRANCH  15  16
ENDBRANCH   1  15
TORSDOF 22
ENDMDL
MODEL 2
REMARK VINA RESULT:    -4.551      1.260      3.955
REMARK INTER + INTRA:         -14.311
REMARK INTER:                 -10.417
REMARK INTRA:                  -3.894
REMARK UNBOUND:                -3.906
REMARK SMILES CCCCCCCCCCCCCCCCCCCCCCCC(=O)[O-]
REMARK SMILES IDX 13 1 14 2 15 3 16 4 17 5 18 6 19 7 20 8 21 9 22 10 23 11
REMARK SMILES IDX 24 12 25 13 26 14 12 15 11 16 10 17 9 18 8 19 7 20 6 21 5 22
REMARK SMILES IDX 4 23 3 24 2 25 1 26
REMARK H PARENT
REMARK Flexibility Score: inf
ROOT
ATOM      1  C   UNL     1      45.780 -35.995  -6.128  1.00  0.00     0.000 C 
ENDROOT
BRANCH   1   2
ATOM      2  C   UNL     1      44.430 -36.731  -6.145  1.00  0.00     0.000 C 
BRANCH   2   3
ATOM      3  C   UNL     1      44.590 -38.260  -6.081  1.00  0.00     0.000 C 
BRANCH   3   4
ATOM      4  C   UNL     1      44.760 -38.770  -4.640  1.00  0.00     0.000 C 
BRANCH   4   5
ATOM      5  C   UNL     1      46.216 -39.144  -4.319  1.00  0.00     0.000 C 
BRANCH   5   6
ATOM      6  C   UNL     1      46.328 -40.288  -3.294  1.00  0.00     0.000 C 
BRANCH   6   7
ATOM      7  C   UNL     1      47.767 -40.721  -2.955  1.00  0.00     0.000 C 
BRANCH   7   8
ATOM      8  C   UNL     1      48.693 -40.738  -4.180  1.00  0.00     0.000 C 
BRANCH   8   9
ATOM      9  C   UNL     1      50.004 -41.475  -3.866  1.00  0.00     0.000 C 
BRANCH   9  10
ATOM     10  C   UNL     1      50.956 -40.645  -2.989  1.00  0.00     0.006 C 
BRANCH  10  11
ATOM     11  C   UNL     1      52.062 -41.498  -2.350  1.00  0.00     0.053 C 
BRANCH  11  12
ATOM     12  C   UNL     1      53.332 -40.716  -2.222  1.00  0.00     0.041 C 
ATOM     13  O   UNL     1      54.379 -41.272  -1.794  1.00  0.00    -0.550 OA
ATOM     14  O   UNL     1      53.357 -39.369  -2.557  1.00  0.00    -0.550 OA
ENDBRANCH  11  12
ENDBRANCH  10  11
ENDBRANCH   9  10
ENDBRANCH   8   9
ENDBRANCH   7   8
ENDBRANCH   6   7
ENDBRANCH   5   6
ENDBRANCH   4   5
ENDBRANCH   3   4
ENDBRANCH   2   3
ENDBRANCH   1   2
BRANCH   1  15
ATOM     15  C   UNL     1      45.938 -35.074  -4.909  1.00  0.00     0.000 C 
BRANCH  15  16
ATOM     16  C   UNL     1      44.666 -35.079  -4.047  1.00  0.00     0.000 C 
BRANCH  16  17
ATOM     17  C   UNL     1      44.913 -35.600  -2.619  1.00  0.00     0.000 C 
BRANCH  17  18
ATOM     18  C   UNL     1      46.200 -35.084  -1.951  1.00  0.00    -0.000 C 
BRANCH  18  19
ATOM     19  C   UNL     1      46.882 -36.148  -1.074  1.00  0.00    -0.000 C 
BRANCH  19  20
ATOM     20  C   UNL     1      47.784 -37.099  -1.882  1.00  0.00    -0.000 C 
BRANCH  20  21
ATOM     21  C   UNL     1      49.291 -36.776  -1.828  1.00  0.00    -0.000 C 
BRANCH  21  22
ATOM     22  C   UNL     1      50.068 -37.206  -3.091  1.00  0.00    -0.000 C 
BRANCH  22  23
ATOM     23  C   UNL     1      49.205 -37.120  -4.363  1.00  0.00    -0.000 C 
BRANCH  23  24
ATOM     24  C   UNL     1      50.045 -36.973  -5.640  1.00  0.00    -0.000 C 
BRANCH  24  25
ATOM     25  C   UNL     1      51.360 -37.765  -5.578  1.00  0.00    -0.003 C 
ATOM     26  C   UNL     1      51.290 -39.017  -6.448  1.00  0.00     0.004 C 
ENDBRANCH  24  25
ENDBRANCH  23  24
ENDBRANCH  22  23
ENDBRANCH  21  22
ENDBRANCH  20  21
ENDBRANCH  19  20
ENDBRANCH  18  19
ENDBRANCH  17  18
ENDBRANCH  16  17
ENDBRANCH  15  16
ENDBRANCH   1  15
TORSDOF 22
ENDMDL
MODEL 3
REMARK VINA RESULT:    -4.494      3.500      6.234
REMARK INTER + INTRA:         -14.179
REMARK INTER:                  -9.368
REMARK INTRA:                  -4.811
REMARK UNBOUND:                -3.906
REMARK SMILES CCCCCCCCCCCCCCCCCCCCCCCC(=O)[O-]
REMARK SMILES IDX 13 1 14 2 15 3 16 4 17 5 18 6 19 7 20 8 21 9 22 10 23 11
REMARK SMILES IDX 24 12 25 13 26 14 12 15 11 16 10 17 9 18 8 19 7 20 6 21 5 22
REMARK SMILES IDX 4 23 3 24 2 25 1 26
REMARK H PARENT
REMARK Flexibility Score: inf
ROOT
ATOM      1  C   UNL     1      50.118 -41.137  -3.763  1.00  0.00     0.000 C 
ENDROOT
BRANCH   1   2
ATOM      2  C   UNL     1      50.935 -39.873  -4.073  1.00  0.00     0.000 C 
BRANCH   2   3
ATOM      3  C   UNL     1      50.441 -39.146  -5.336  1.00  0.00     0.000 C 
BRANCH   3   4
ATOM      4  C   UNL     1      50.093 -37.673  -5.066  1.00  0.00     0.000 C 
BRANCH   4   5
ATOM      5  C   UNL     1      50.258 -37.295  -3.584  1.00  0.00     0.000 C 
BRANCH   5   6
ATOM      6  C   UNL     1      48.991 -36.656  -2.985  1.00  0.00     0.000 C 
BRANCH   6   7
ATOM      7  C   UNL     1      48.476 -37.317  -1.693  1.00  0.00     0.000 C 
BRANCH   7   8
ATOM      8  C   UNL     1      48.362 -36.333  -0.520  1.00  0.00     0.000 C 
BRANCH   8   9
ATOM      9  C   UNL     1      48.783 -34.918  -0.947  1.00  0.00     0.000 C 
BRANCH   9  10
ATOM     10  C   UNL     1      47.664 -33.882  -0.754  1.00  0.00     0.006 C 
BRANCH  10  11
ATOM     11  C   UNL     1      47.468 -32.990  -1.988  1.00  0.00     0.053 C 
BRANCH  11  12
ATOM     12  C   UNL     1      47.730 -31.553  -1.657  1.00  0.00     0.041 C 
ATOM     13  O   UNL     1      47.540 -30.657  -2.521  1.00  0.00    -0.550 OA
ATOM     14  O   UNL     1      48.203 -31.205  -0.398  1.00  0.00    -0.550 OA
ENDBRANCH  11  12
ENDBRANCH  10  11
ENDBRANCH   9  10
ENDBRANCH   8   9
ENDBRANCH   7   8
ENDBRANCH   6   7
ENDBRANCH   5   6
ENDBRANCH   4   5
ENDBRANCH   3   4
ENDBRANCH   2   3
ENDBRANCH   1   2
BRANCH   1  15
ATOM     15  C   UNL     1      48.683 -41.066  -4.307  1.00  0.00     0.000 C 
BRANCH  15  16
ATOM     16  C   UNL     1      47.701 -40.630  -3.209  1.00  0.00     0.000 C 
BRANCH  16  17
ATOM     17  C   UNL     1      46.389 -40.052  -3.772  1.00  0.00     0.000 C 
BRANCH  17  18
ATOM     18  C   UNL     1      46.560 -38.848  -4.715  1.00  0.00    -0.000 C 
BRANCH  18  19
ATOM     19  C   UNL     1      45.306 -38.573  -5.563  1.00  0.00    -0.000 C 
BRANCH  19  20
ATOM     20  C   UNL     1      45.263 -37.137  -6.115  1.00  0.00    -0.000 C 
BRANCH  20  21
ATOM     21  C   UNL     1      46.504 -36.276  -5.801  1.00  0.00    -0.000 C 
BRANCH  21  22
ATOM     22  C   UNL     1      46.209 -35.061  -4.895  1.00  0.00    -0.000 C 
BRANCH  22  23
ATOM     23  C   UNL     1      44.947 -35.267  -4.038  1.00  0.00    -0.000 C 
BRANCH  23  24
ATOM     24  C   UNL     1      45.258 -35.868  -2.659  1.00  0.00    -0.000 C 
BRANCH  24  25
ATOM     25  C   UNL     1      44.238 -36.935  -2.234  1.00  0.00    -0.003 C 
ATOM     26  C   UNL     1      44.840 -37.898  -1.215  1.00  0.00     0.004 C 
ENDBRANCH  24  25
ENDBRANCH  23  24
ENDBRANCH  22  23
ENDBRANCH  21  22
ENDBRANCH  20  21
ENDBRANCH  19  20
ENDBRANCH  18  19
ENDBRANCH  17  18
ENDBRANCH  16  17
ENDBRANCH  15  16
ENDBRANCH   1  15
TORSDOF 22
ENDMDL
MODEL 4
REMARK VINA RESULT:    -4.472      3.515      6.231
REMARK INTER + INTRA:         -14.129
REMARK INTER:                  -9.247
REMARK INTRA:                  -4.882
REMARK UNBOUND:                -3.906
REMARK SMILES CCCCCCCCCCCCCCCCCCCCCCCC(=O)[O-]
REMARK SMILES IDX 13 1 14 2 15 3 16 4 17 5 18 6 19 7 20 8 21 9 22 10 23 11
REMARK SMILES IDX 24 12 25 13 26 14 12 15 11 16 10 17 9 18 8 19 7 20 6 21 5 22
REMARK SMILES IDX 4 23 3 24 2 25 1 26
REMARK H PARENT
REMARK Flexibility Score: inf
ROOT
ATOM      1  C   UNL     1      49.847 -36.911  -2.724  1.00  0.00     0.000 C 
ENDROOT
BRANCH   1   2
ATOM      2  C   UNL     1      50.578 -37.625  -3.872  1.00  0.00     0.000 C 
BRANCH   2   3
ATOM      3  C   UNL     1      49.983 -37.288  -5.250  1.00  0.00     0.000 C 
BRANCH   3   4
ATOM      4  C   UNL     1      49.344 -35.890  -5.286  1.00  0.00     0.000 C 
BRANCH   4   5
ATOM      5  C   UNL     1      47.983 -35.886  -6.002  1.00  0.00     0.000 C 
BRANCH   5   6
ATOM      6  C   UNL     1      46.859 -36.510  -5.155  1.00  0.00     0.000 C 
BRANCH   6   7
ATOM      7  C   UNL     1      45.831 -35.509  -4.596  1.00  0.00     0.000 C 
BRANCH   7   8
ATOM      8  C   UNL     1      45.470 -35.776  -3.127  1.00  0.00     0.000 C 
BRANCH   8   9
ATOM      9  C   UNL     1      45.812 -34.563  -2.249  1.00  0.00     0.000 C 
BRANCH   9  10
ATOM     10  C   UNL     1      47.198 -33.975  -2.561  1.00  0.00     0.006 C 
BRANCH  10  11
ATOM     11  C   UNL     1      47.850 -33.320  -1.335  1.00  0.00     0.053 C 
BRANCH  11  12
ATOM     12  C   UNL     1      47.620 -31.841  -1.333  1.00  0.00     0.041 C 
ATOM     13  O   UNL     1      47.950 -31.148  -0.334  1.00  0.00    -0.550 OA
ATOM     14  O   UNL     1      47.024 -31.228  -2.428  1.00  0.00    -0.550 OA
ENDBRANCH  11  12
ENDBRANCH  10  11
ENDBRANCH   9  10
ENDBRANCH   8   9
ENDBRANCH   7   8
ENDBRANCH   6   7
ENDBRANCH   5   6
ENDBRANCH   4   5
ENDBRANCH   3   4
ENDBRANCH   2   3
ENDBRANCH   1   2
BRANCH   1  15
ATOM     15  C   UNL     1      48.649 -37.712  -2.193  1.00  0.00     0.000 C 
BRANCH  15  16
ATOM     16  C   UNL     1      48.138 -37.125  -0.869  1.00  0.00     0.000 C 
BRANCH  16  17
ATOM     17  C   UNL     1      47.062 -38.001  -0.200  1.00  0.00     0.000 C 
BRANCH  17  18
ATOM     18  C   UNL     1      47.272 -39.518  -0.350  1.00  0.00    -0.000 C 
BRANCH  18  19
ATOM     19  C   UNL     1      46.063 -40.226  -0.985  1.00  0.00    -0.000 C 
BRANCH  19  20
ATOM     20  C   UNL     1      45.237 -39.296  -1.893  1.00  0.00    -0.000 C 
BRANCH  20  21
ATOM     21  C   UNL     1      45.416 -39.531  -3.406  1.00  0.00    -0.000 C 
BRANCH  21  22
ATOM     22  C   UNL     1      46.464 -40.611  -3.752  1.00  0.00    -0.000 C 
BRANCH  22  23
ATOM     23  C   UNL     1      47.579 -40.070  -4.664  1.00  0.00    -0.000 C 
BRANCH  23  24
ATOM     24  C   UNL     1      48.863 -40.911  -4.592  1.00  0.00    -0.000 C 
BRANCH  24  25
ATOM     25  C   UNL     1      49.317 -41.176  -3.149  1.00  0.00    -0.003 C 
ATOM     26  C   UNL     1      50.830 -41.360  -3.073  1.00  0.00     0.004 C 
ENDBRANCH  24  25
ENDBRANCH  23  24
ENDBRANCH  22  23
ENDBRANCH  21  22
ENDBRANCH  20  21
ENDBRANCH  19  20
ENDBRANCH  18  19
ENDBRANCH  17  18
ENDBRANCH  16  17
ENDBRANCH  15  16
ENDBRANCH   1  15
TORSDOF 22
ENDMDL
MODEL 5
REMARK VINA RESULT:    -4.467      1.879      4.188
REMARK INTER + INTRA:         -14.119
REMARK INTER:                  -8.740
REMARK INTRA:                  -5.379
REMARK UNBOUND:                -3.906
REMARK SMILES CCCCCCCCCCCCCCCCCCCCCCCC(=O)[O-]
REMARK SMILES IDX 13 1 14 2 15 3 16 4 17 5 18 6 19 7 20 8 21 9 22 10 23 11
REMARK SMILES IDX 24 12 25 13 26 14 12 15 11 16 10 17 9 18 8 19 7 20 6 21 5 22
REMARK SMILES IDX 4 23 3 24 2 25 1 26
REMARK H PARENT
REMARK Flexibility Score: inf
ROOT
ATOM      1  C   UNL     1      49.134 -36.438  -2.430  1.00  0.00     0.000 C 
ENDROOT
BRANCH   1   2
ATOM      2  C   UNL     1      48.671 -36.518  -0.966  1.00  0.00     0.000 C 
BRANCH   2   3
ATOM      3  C   UNL     1      47.297 -37.194  -0.817  1.00  0.00     0.000 C 
BRANCH   3   4
ATOM      4  C   UNL     1      47.369 -38.489   0.008  1.00  0.00     0.000 C 
BRANCH   4   5
ATOM      5  C   UNL     1      47.277 -39.749  -0.869  1.00  0.00     0.000 C 
BRANCH   5   6
ATOM      6  C   UNL     1      46.097 -39.706  -1.856  1.00  0.00     0.000 C 
BRANCH   6   7
ATOM      7  C   UNL     1      46.380 -40.323  -3.238  1.00  0.00     0.000 C 
BRANCH   7   8
ATOM      8  C   UNL     1      47.842 -40.761  -3.411  1.00  0.00     0.000 C 
BRANCH   8   9
ATOM      9  C   UNL     1      48.366 -40.386  -4.806  1.00  0.00     0.000 C 
BRANCH   9  10
ATOM     10  C   UNL     1      49.901 -40.342  -4.871  1.00  0.00     0.006 C 
BRANCH  10  11
ATOM     11  C   UNL     1      50.536 -39.922  -3.537  1.00  0.00     0.053 C 
BRANCH  11  12
ATOM     12  C   UNL     1      51.652 -38.949  -3.759  1.00  0.00     0.041 C 
ATOM     13  O   UNL     1      51.541 -38.044  -4.628  1.00  0.00    -0.550 OA
ATOM     14  O   UNL     1      52.822 -39.051  -3.018  1.00  0.00    -0.550 OA
ENDBRANCH  11  12
ENDBRANCH  10  11
ENDBRANCH   9  10
ENDBRANCH   8   9
ENDBRANCH   7   8
ENDBRANCH   6   7
ENDBRANCH   5   6
ENDBRANCH   4   5
ENDBRANCH   3   4
ENDBRANCH   2   3
ENDBRANCH   1   2
BRANCH   1  15
ATOM     15  C   UNL     1      48.125 -37.062  -3.407  1.00  0.00     0.000 C 
BRANCH  15  16
ATOM     16  C   UNL     1      48.383 -36.584  -4.843  1.00  0.00     0.000 C 
BRANCH  16  17
ATOM     17  C   UNL     1      47.085 -36.332  -5.633  1.00  0.00     0.000 C 
BRANCH  17  18
ATOM     18  C   UNL     1      46.061 -37.479  -5.586  1.00  0.00    -0.000 C 
BRANCH  18  19
ATOM     19  C   UNL     1      44.633 -36.990  -5.292  1.00  0.00    -0.000 C 
BRANCH  19  20
ATOM     20  C   UNL     1      44.231 -37.174  -3.818  1.00  0.00    -0.000 C 
BRANCH  20  21
ATOM     21  C   UNL     1      44.499 -35.958  -2.908  1.00  0.00    -0.000 C 
BRANCH  21  22
ATOM     22  C   UNL     1      44.189 -34.600  -3.574  1.00  0.00    -0.000 C 
BRANCH  22  23
ATOM     23  C   UNL     1      45.426 -33.686  -3.636  1.00  0.00    -0.000 C 
BRANCH  23  24
ATOM     24  C   UNL     1      46.394 -33.919  -2.466  1.00  0.00    -0.000 C 
BRANCH  24  25
ATOM     25  C   UNL     1      47.596 -32.962  -2.493  1.00  0.00    -0.003 C 
ATOM     26  C   UNL     1      48.317 -33.021  -3.837  1.00  0.00     0.004 C 
ENDBRANCH  24  25
ENDBRANCH  23  24
ENDBRANCH  22  23
ENDBRANCH  21  22
ENDBRANCH  20  21
ENDBRANCH  19  20
ENDBRANCH  18  19
ENDBRANCH  17  18
ENDBRANCH  16  17
ENDBRANCH  15  16
ENDBRANCH   1  15
TORSDOF 22
ENDMDL
MODEL 6
REMARK VINA RESULT:    -4.449      3.545      5.602
REMARK INTER + INTRA:         -14.077
REMARK INTER:                  -9.505
REMARK INTRA:                  -4.572
REMARK UNBOUND:                -3.906
REMARK SMILES CCCCCCCCCCCCCCCCCCCCCCCC(=O)[O-]
REMARK SMILES IDX 13 1 14 2 15 3 16 4 17 5 18 6 19 7 20 8 21 9 22 10 23 11
REMARK SMILES IDX 24 12 25 13 26 14 12 15 11 16 10 17 9 18 8 19 7 20 6 21 5 22
REMARK SMILES IDX 4 23 3 24 2 25 1 26
REMARK H PARENT
REMARK Flexibility Score: inf
ROOT
ATOM      1  C   UNL     1      48.381 -40.742  -2.929  1.00  0.00     0.000 C 
ENDROOT
BRANCH   1   2
ATOM      2  C   UNL     1      49.220 -41.350  -4.064  1.00  0.00     0.000 C 
BRANCH   2   3
ATOM      3  C   UNL     1      50.519 -40.567  -4.323  1.00  0.00     0.000 C 
BRANCH   3   4
ATOM      4  C   UNL     1      50.536 -39.907  -5.711  1.00  0.00     0.000 C 
BRANCH   4   5
ATOM      5  C   UNL     1      50.655 -38.375  -5.630  1.00  0.00     0.000 C 
BRANCH   5   6
ATOM      6  C   UNL     1      50.567 -37.844  -4.188  1.00  0.00     0.000 C 
BRANCH   6   7
ATOM      7  C   UNL     1      49.397 -36.880  -3.919  1.00  0.00     0.000 C 
BRANCH   7   8
ATOM      8  C   UNL     1      48.564 -36.583  -5.175  1.00  0.00     0.000 C 
BRANCH   8   9
ATOM      9  C   UNL     1      48.015 -35.147  -5.142  1.00  0.00     0.000 C 
BRANCH   9  10
ATOM     10  C   UNL     1      48.400 -34.394  -3.859  1.00  0.00     0.006 C 
BRANCH  10  11
ATOM     11  C   UNL     1      48.638 -32.896  -4.104  1.00  0.00     0.053 C 
BRANCH  11  12
ATOM     12  C   UNL     1      47.777 -32.064  -3.204  1.00  0.00     0.041 C 
ATOM     13  O   UNL     1      46.579 -32.389  -2.994  1.00  0.00    -0.550 OA
ATOM     14  O   UNL     1      48.293 -30.918  -2.613  1.00  0.00    -0.550 OA
ENDBRANCH  11  12
ENDBRANCH  10  11
ENDBRANCH   9  10
ENDBRANCH   8   9
ENDBRANCH   7   8
ENDBRANCH   6   7
ENDBRANCH   5   6
ENDBRANCH   4   5
ENDBRANCH   3   4
ENDBRANCH   2   3
ENDBRANCH   1   2
BRANCH   1  15
ATOM     15  C   UNL     1      46.924 -40.479  -3.343  1.00  0.00     0.000 C 
BRANCH  15  16
ATOM     16  C   UNL     1      46.856 -39.852  -4.744  1.00  0.00     0.000 C 
BRANCH  16  17
ATOM     17  C   UNL     1      45.722 -38.819  -4.883  1.00  0.00     0.000 C 
BRANCH  17  18
ATOM     18  C   UNL     1      44.453 -39.132  -4.072  1.00  0.00    -0.000 C 
BRANCH  18  19
ATOM     19  C   UNL     1      44.130 -38.048  -3.029  1.00  0.00    -0.000 C 
BRANCH  19  20
ATOM     20  C   UNL     1      44.944 -36.758  -3.239  1.00  0.00    -0.000 C 
BRANCH  20  21
ATOM     21  C   UNL     1      45.895 -36.389  -2.082  1.00  0.00    -0.000 C 
BRANCH  21  22
ATOM     22  C   UNL     1      46.172 -37.552  -1.105  1.00  0.00    -0.000 C 
BRANCH  22  23
ATOM     23  C   UNL     1      47.675 -37.735  -0.829  1.00  0.00    -0.000 C 
BRANCH  23  24
ATOM     24  C   UNL     1      48.195 -36.797   0.271  1.00  0.00    -0.000 C 
BRANCH  24  25
ATOM     25  C   UNL     1      49.062 -35.657  -0.284  1.00  0.00    -0.003 C 
ATOM     26  C   UNL     1      48.336 -34.318  -0.192  1.00  0.00     0.004 C 
ENDBRANCH  24  25
ENDBRANCH  23  24
ENDBRANCH  22  23
ENDBRANCH  21  22
ENDBRANCH  20  21
ENDBRANCH  19  20
ENDBRANCH  18  19
ENDBRANCH  17  18
ENDBRANCH  16  17
ENDBRANCH  15  16
ENDBRANCH   1  15
TORSDOF 22
ENDMDL
MODEL 7
REMARK VINA RESULT:    -4.404      3.102      6.294
REMARK INTER + INTRA:         -13.975
REMARK INTER:                  -9.079
REMARK INTRA:                  -4.897
REMARK UNBOUND:                -3.906
REMARK SMILES CCCCCCCCCCCCCCCCCCCCCCCC(=O)[O-]
REMARK SMILES IDX 13 1 14 2 15 3 16 4 17 5 18 6 19 7 20 8 21 9 22 10 23 11
REMARK SMILES IDX 24 12 25 13 26 14 12 15 11 16 10 17 9 18 8 19 7 20 6 21 5 22
REMARK SMILES IDX 4 23 3 24 2 25 1 26
REMARK H PARENT
REMARK Flexibility Score: inf
ROOT
ATOM      1  C   UNL     1      49.065 -36.108  -4.333  1.00  0.00     0.000 C 
ENDROOT
BRANCH   1   2
ATOM      2  C   UNL     1      47.797 -36.592  -5.053  1.00  0.00     0.000 C 
BRANCH   2   3
ATOM      3  C   UNL     1      47.226 -35.538  -6.016  1.00  0.00     0.000 C 
BRANCH   3   4
ATOM      4  C   UNL     1      45.902 -35.987  -6.658  1.00  0.00     0.000 C 
BRANCH   4   5
ATOM      5  C   UNL     1      45.387 -37.313  -6.072  1.00  0.00     0.000 C 
BRANCH   5   6
ATOM      6  C   UNL     1      44.060 -37.153  -5.307  1.00  0.00     0.000 C 
BRANCH   6   7
ATOM      7  C   UNL     1      44.197 -36.613  -3.871  1.00  0.00     0.000 C 
BRANCH   7   8
ATOM      8  C   UNL     1      43.972 -35.096  -3.777  1.00  0.00     0.000 C 
BRANCH   8   9
ATOM      9  C   UNL     1      44.971 -34.453  -2.802  1.00  0.00     0.000 C 
BRANCH   9  10
ATOM     10  C   UNL     1      45.575 -33.148  -3.346  1.00  0.00     0.006 C 
BRANCH  10  11
ATOM     11  C   UNL     1      47.107 -33.119  -3.240  1.00  0.00     0.053 C 
BRANCH  11  12
ATOM     12  C   UNL     1      47.541 -32.580  -1.913  1.00  0.00     0.041 C 
ATOM     13  O   UNL     1      47.662 -31.338  -1.741  1.00  0.00    -0.550 OA
ATOM     14  O   UNL     1      47.832 -33.450  -0.870  1.00  0.00    -0.550 OA
ENDBRANCH  11  12
ENDBRANCH  10  11
ENDBRANCH   9  10
ENDBRANCH   8   9
ENDBRANCH   7   8
ENDBRANCH   6   7
ENDBRANCH   5   6
ENDBRANCH   4   5
ENDBRANCH   3   4
ENDBRANCH   2   3
ENDBRANCH   1   2
BRANCH   1  15
ATOM     15  C   UNL     1      48.999 -36.312  -2.811  1.00  0.00     0.000 C 
BRANCH  15  16
ATOM     16  C   UNL     1      47.594 -36.758  -2.377  1.00  0.00     0.000 C 
BRANCH  16  17
ATOM     17  C   UNL     1      47.592 -38.124  -1.667  1.00  0.00     0.000 C 
BRANCH  17  18
ATOM     18  C   UNL     1      46.301 -38.944  -1.837  1.00  0.00    -0.000 C 
BRANCH  18  19
ATOM     19  C   UNL     1      46.535 -40.278  -2.566  1.00  0.00    -0.000 C 
BRANCH  19  20
ATOM     20  C   UNL     1      46.614 -40.116  -4.095  1.00  0.00    -0.000 C 
BRANCH  20  21
ATOM     21  C   UNL     1      48.019 -40.304  -4.701  1.00  0.00    -0.000 C 
BRANCH  21  22
ATOM     22  C   UNL     1      48.839 -41.433  -4.042  1.00  0.00    -0.000 C 
BRANCH  22  23
ATOM     23  C   UNL     1      50.307 -41.030  -3.813  1.00  0.00    -0.000 C 
BRANCH  23  24
ATOM     24  C   UNL     1      50.476 -39.523  -3.566  1.00  0.00    -0.000 C 
BRANCH  24  25
ATOM     25  C   UNL     1      51.580 -38.901  -4.435  1.00  0.00    -0.003 C 
ATOM     26  C   UNL     1      51.157 -38.838  -5.900  1.00  0.00     0.004 C 
ENDBRANCH  24  25
ENDBRANCH  23  24
ENDBRANCH  22  23
ENDBRANCH  21  22
ENDBRANCH  20  21
ENDBRANCH  19  20
ENDBRANCH  18  19
ENDBRANCH  17  18
ENDBRANCH  16  17
ENDBRANCH  15  16
ENDBRANCH   1  15
TORSDOF 22
ENDMDL
MODEL 8
REMARK VINA RESULT:    -4.400      3.453      6.852
REMARK INTER + INTRA:         -13.965
REMARK INTER:                  -9.330
REMARK INTRA:                  -4.635
REMARK UNBOUND:                -3.906
REMARK SMILES CCCCCCCCCCCCCCCCCCCCCCCC(=O)[O-]
REMARK SMILES IDX 13 1 14 2 15 3 16 4 17 5 18 6 19 7 20 8 21 9 22 10 23 11
REMARK SMILES IDX 24 12 25 13 26 14 12 15 11 16 10 17 9 18 8 19 7 20 6 21 5 22
REMARK SMILES IDX 4 23 3 24 2 25 1 26
REMARK H PARENT
REMARK Flexibility Score: inf
ROOT
ATOM      1  C   UNL     1      48.235 -40.616  -2.929  1.00  0.00     0.000 C 
ENDROOT
BRANCH   1   2
ATOM      2  C   UNL     1      47.161 -40.307  -3.983  1.00  0.00     0.000 C 
BRANCH   2   3
ATOM      3  C   UNL     1      45.772 -40.080  -3.362  1.00  0.00     0.000 C 
BRANCH   3   4
ATOM      4  C   UNL     1      44.946 -39.042  -4.140  1.00  0.00     0.000 C 
BRANCH   4   5
ATOM      5  C   UNL     1      45.739 -38.407  -5.294  1.00  0.00     0.000 C 
BRANCH   5   6
ATOM      6  C   UNL     1      45.536 -36.884  -5.394  1.00  0.00     0.000 C 
BRANCH   6   7
ATOM      7  C   UNL     1      44.452 -36.309  -4.463  1.00  0.00     0.000 C 
BRANCH   7   8
ATOM      8  C   UNL     1      45.012 -35.326  -3.425  1.00  0.00     0.000 C 
BRANCH   8   9
ATOM      9  C   UNL     1      46.123 -34.457  -4.036  1.00  0.00     0.000 C 
BRANCH   9  10
ATOM     10  C   UNL     1      46.933 -33.696  -2.974  1.00  0.00     0.006 C 
BRANCH  10  11
ATOM     11  C   UNL     1      46.620 -32.193  -2.959  1.00  0.00     0.053 C 
BRANCH  11  12
ATOM     12  C   UNL     1      47.863 -31.391  -2.729  1.00  0.00     0.041 C 
ATOM     13  O   UNL     1      48.061 -30.831  -1.618  1.00  0.00    -0.550 OA
ATOM     14  O   UNL     1      48.795 -31.244  -3.748  1.00  0.00    -0.550 OA
ENDBRANCH  11  12
ENDBRANCH  10  11
ENDBRANCH   9  10
ENDBRANCH   8   9
ENDBRANCH   7   8
ENDBRANCH   6   7
ENDBRANCH   5   6
ENDBRANCH   4   5
ENDBRANCH   3   4
ENDBRANCH   2   3
ENDBRANCH   1   2
BRANCH   1  15
ATOM     15  C   UNL     1      49.638 -40.766  -3.537  1.00  0.00     0.000 C 
BRANCH  15  16
ATOM     16  C   UNL     1      49.588 -40.652  -5.068  1.00  0.00     0.000 C 
BRANCH  16  17
ATOM     17  C   UNL     1      50.532 -39.567  -5.620  1.00  0.00     0.000 C 
BRANCH  17  18
ATOM     18  C   UNL     1      50.686 -38.323  -4.727  1.00  0.00    -0.000 C 
BRANCH  18  19
ATOM     19  C   UNL     1      49.608 -37.259  -4.999  1.00  0.00    -0.000 C 
BRANCH  19  20
ATOM     20  C   UNL     1      48.749 -36.950  -3.760  1.00  0.00    -0.000 C 
BRANCH  20  21
ATOM     21  C   UNL     1      49.535 -36.786  -2.443  1.00  0.00    -0.000 C 
BRANCH  21  22
ATOM     22  C   UNL     1      48.639 -36.579  -1.203  1.00  0.00    -0.000 C 
BRANCH  22  23
ATOM     23  C   UNL     1      47.308 -37.345  -1.311  1.00  0.00    -0.000 C 
BRANCH  23  24
ATOM     24  C   UNL     1      47.154 -38.421  -0.226  1.00  0.00    -0.000 C 
BRANCH  24  25
ATOM     25  C   UNL     1      45.684 -38.703   0.123  1.00  0.00    -0.003 C 
ATOM     26  C   UNL     1      44.751 -37.737  -0.601  1.00  0.00     0.004 C 
ENDBRANCH  24  25
ENDBRANCH  23  24
ENDBRANCH  22  23
ENDBRANCH  21  22
ENDBRANCH  20  21
ENDBRANCH  19  20
ENDBRANCH  18  19
ENDBRANCH  17  18
ENDBRANCH  16  17
ENDBRANCH  15  16
ENDBRANCH   1  15
TORSDOF 22
ENDMDL
MODEL 9
REMARK VINA RESULT:    -4.399      2.906      5.600
REMARK INTER + INTRA:         -13.962
REMARK INTER:                  -9.345
REMARK INTRA:                  -4.617
REMARK UNBOUND:                -3.906
REMARK SMILES CCCCCCCCCCCCCCCCCCCCCCCC(=O)[O-]
REMARK SMILES IDX 13 1 14 2 15 3 16 4 17 5 18 6 19 7 20 8 21 9 22 10 23 11
REMARK SMILES IDX 24 12 25 13 26 14 12 15 11 16 10 17 9 18 8 19 7 20 6 21 5 22
REMARK SMILES IDX 4 23 3 24 2 25 1 26
REMARK H PARENT
REMARK Flexibility Score: inf
ROOT
ATOM      1  C   UNL     1      51.321 -39.938  -3.251  1.00  0.00     0.000 C 
ENDROOT
BRANCH   1   2
ATOM      2  C   UNL     1      51.653 -38.617  -3.965  1.00  0.00     0.000 C 
BRANCH   2   3
ATOM      3  C   UNL     1      50.860 -38.436  -5.271  1.00  0.00     0.000 C 
BRANCH   3   4
ATOM      4  C   UNL     1      50.639 -36.956  -5.621  1.00  0.00     0.000 C 
BRANCH   4   5
ATOM      5  C   UNL     1      49.185 -36.510  -5.393  1.00  0.00     0.000 C 
BRANCH   5   6
ATOM      6  C   UNL     1      48.800 -35.274  -6.228  1.00  0.00     0.000 C 
BRANCH   6   7
ATOM      7  C   UNL     1      47.288 -34.990  -6.312  1.00  0.00     0.000 C 
BRANCH   7   8
ATOM      8  C   UNL     1      46.430 -36.248  -6.116  1.00  0.00     0.000 C 
BRANCH   8   9
ATOM      9  C   UNL     1      45.274 -35.977  -5.140  1.00  0.00     0.000 C 
BRANCH   9  10
ATOM     10  C   UNL     1      45.742 -35.874  -3.679  1.00  0.00     0.006 C 
BRANCH  10  11
ATOM     11  C   UNL     1      45.806 -34.422  -3.182  1.00  0.00     0.053 C 
BRANCH  11  12
ATOM     12  C   UNL     1      47.059 -34.181  -2.399  1.00  0.00     0.041 C 
ATOM     13  O   UNL     1      48.141 -33.931  -2.994  1.00  0.00    -0.550 OA
ATOM     14  O   UNL     1      47.038 -34.250  -1.012  1.00  0.00    -0.550 OA
ENDBRANCH  11  12
ENDBRANCH  10  11
ENDBRANCH   9  10
ENDBRANCH   8   9
ENDBRANCH   7   8
ENDBRANCH   6   7
ENDBRANCH   5   6
ENDBRANCH   4   5
ENDBRANCH   3   4
ENDBRANCH   2   3
ENDBRANCH   1   2
BRANCH   1  15
ATOM     15  C   UNL     1      50.637 -40.957  -4.176  1.00  0.00     0.000 C 
BRANCH  15  16
ATOM     16  C   UNL     1      49.553 -41.742  -3.422  1.00  0.00     0.000 C 
BRANCH  16  17
ATOM     17  C   UNL     1      48.213 -40.989  -3.343  1.00  0.00     0.000 C 
BRANCH  17  18
ATOM     18  C   UNL     1      47.814 -40.233  -4.623  1.00  0.00    -0.000 C 
BRANCH  18  19
ATOM     19  C   UNL     1      46.449 -39.535  -4.501  1.00  0.00    -0.000 C 
BRANCH  19  20
ATOM     20  C   UNL     1      45.523 -40.212  -3.474  1.00  0.00    -0.000 C 
BRANCH  20  21
ATOM     21  C   UNL     1      44.525 -39.269  -2.771  1.00  0.00    -0.000 C 
BRANCH  21  22
ATOM     22  C   UNL     1      44.921 -38.907  -1.323  1.00  0.00    -0.000 C 
BRANCH  22  23
ATOM     23  C   UNL     1      45.967 -39.877  -0.746  1.00  0.00    -0.000 C 
BRANCH  23  24
ATOM     24  C   UNL     1      47.255 -39.166  -0.304  1.00  0.00    -0.000 C 
BRANCH  24  25
ATOM     25  C   UNL     1      47.369 -37.742  -0.870  1.00  0.00    -0.003 C 
ATOM     26  C   UNL     1      48.466 -37.656  -1.926  1.00  0.00     0.004 C 
ENDBRANCH  24  25
ENDBRANCH  23  24
ENDBRANCH  22  23
ENDBRANCH  21  22
ENDBRANCH  20  21
ENDBRANCH  19  20
ENDBRANCH  18  19
ENDBRANCH  17  18
ENDBRANCH  16  17
ENDBRANCH  15  16
ENDBRANCH   1  15
TORSDOF 22
ENDMDL
