MODEL 1
REMARK VINA RESULT:    -4.752      0.000      0.000
REMARK INTER + INTRA:          -4.890
REMARK INTER:                  -4.890
REMARK INTRA:                   0.000
REMARK UNBOUND:                 0.000
REMARK SMILES Nc1ncnc2nc[nH]c12
REMARK SMILES IDX 8 1 7 2 6 3 5 4 4 5 3 6 2 7 10 8 9 9 1 11
REMARK H PARENT 9 10 1 12 1 13
REMARK Flexibility Score: inf
ROOT
ATOM      1  C   UNL     1      19.052  11.244  22.160  1.00  0.00     0.199 A 
ATOM      2  N   UNL     1      19.770  12.370  22.424  1.00  0.00    -0.217 NA
ATOM      3  C   UNL     1      19.998  12.261  23.743  1.00  0.00     0.182 A 
ATOM      4  N   UNL     1      20.682  13.133  24.520  1.00  0.00    -0.215 NA
ATOM      5  C   UNL     1      20.811  12.849  25.851  1.00  0.00     0.226 A 
ATOM      6  N   UNL     1      20.259  11.708  26.376  1.00  0.00    -0.217 NA
ATOM      7  C   UNL     1      19.568  10.827  25.594  1.00  0.00     0.152 A 
ATOM      8  C   UNL     1      19.446  11.130  24.241  1.00  0.00     0.127 A 
ATOM      9  N   UNL     1      18.837  10.466  23.250  1.00  0.00    -0.340 N 
ATOM     10  H   UNL     1      18.316   9.562  23.294  1.00  0.00     0.168 HD
ENDROOT
BRANCH   7  11
ATOM     11  N   UNL     1      19.001   9.645  26.161  1.00  0.00    -0.382 N 
ATOM     12  H   UNL     1      17.967   9.499  26.137  1.00  0.00     0.158 HD
ATOM     13  H   UNL     1      19.598   8.915  26.607  1.00  0.00     0.158 HD
ENDBRANCH   7  11
TORSDOF 1
ENDMDL
MODEL 2
REMARK VINA RESULT:    -4.716      0.913      2.933
REMARK INTER + INTRA:          -4.854
REMARK INTER:                  -4.854
REMARK INTRA:                   0.000
REMARK UNBOUND:                 0.000
REMARK SMILES Nc1ncnc2nc[nH]c12
REMARK SMILES IDX 8 1 7 2 6 3 5 4 4 5 3 6 2 7 10 8 9 9 1 11
REMARK H PARENT 9 10 1 12 1 13
REMARK Flexibility Score: inf
ROOT
ATOM      1  C   UNL     1      21.362  13.353  26.474  1.00  0.00     0.199 A 
ATOM      2  N   UNL     1      21.333  13.741  25.170  1.00  0.00    -0.217 NA
ATOM      3  C   UNL     1      20.539  12.810  24.614  1.00  0.00     0.182 A 
ATOM      4  N   UNL     1      20.177  12.732  23.312  1.00  0.00    -0.215 NA
ATOM      5  C   UNL     1      19.356  11.706  22.930  1.00  0.00     0.226 A 
ATOM      6  N   UNL     1      18.917  10.787  23.850  1.00  0.00    -0.217 NA
ATOM      7  C   UNL     1      19.282  10.865  25.164  1.00  0.00     0.152 A 
ATOM      8  C   UNL     1      20.117  11.915  25.536  1.00  0.00     0.127 A 
ATOM      9  N   UNL     1      20.629  12.239  26.730  1.00  0.00    -0.340 N 
ATOM     10  H   UNL     1      20.502  11.759  27.648  1.00  0.00     0.168 HD
ENDROOT
BRANCH   7  11
ATOM     11  N   UNL     1      18.813   9.897  26.104  1.00  0.00    -0.382 N 
ATOM     12  H   UNL     1      18.607  10.183  27.088  1.00  0.00     0.158 HD
ATOM     13  H   UNL     1      18.670   8.900  25.834  1.00  0.00     0.158 HD
ENDBRANCH   7  11
TORSDOF 1
ENDMDL
MODEL 3
REMARK VINA RESULT:    -4.658      0.967      3.637
REMARK INTER + INTRA:          -4.794
REMARK INTER:                  -4.794
REMARK INTRA:                   0.000
REMARK UNBOUND:                 0.000
REMARK SMILES Nc1ncnc2nc[nH]c12
REMARK SMILES IDX 8 1 7 2 6 3 5 4 4 5 3 6 2 7 10 8 9 9 1 11
REMARK H PARENT 9 10 1 12 1 13
REMARK Flexibility Score: inf
ROOT
ATOM      1  C   UNL     1      18.936  10.747  27.217  1.00  0.00     0.199 A 
ATOM      2  N   UNL     1      18.374  10.106  26.156  1.00  0.00    -0.217 NA
ATOM      3  C   UNL     1      18.859  10.801  25.113  1.00  0.00     0.182 A 
ATOM      4  N   UNL     1      18.607  10.573  23.803  1.00  0.00    -0.215 NA
ATOM      5  C   UNL     1      19.197  11.392  22.880  1.00  0.00     0.226 A 
ATOM      6  N   UNL     1      20.020  12.414  23.281  1.00  0.00    -0.217 NA
ATOM      7  C   UNL     1      20.275  12.646  24.603  1.00  0.00     0.152 A 
ATOM      8  C   UNL     1      19.667  11.803  25.530  1.00  0.00     0.127 A 
ATOM      9  N   UNL     1      19.731  11.789  26.867  1.00  0.00    -0.340 N 
ATOM     10  H   UNL     1      20.264  12.424  27.502  1.00  0.00     0.168 HD
ENDROOT
BRANCH   7  11
ATOM     11  N   UNL     1      21.135  13.715  24.998  1.00  0.00    -0.382 N 
ATOM     12  H   UNL     1      22.167  13.563  25.051  1.00  0.00     0.158 HD
ATOM     13  H   UNL     1      20.757  14.657  25.240  1.00  0.00     0.158 HD
ENDBRANCH   7  11
TORSDOF 1
ENDMDL
MODEL 4
REMARK VINA RESULT:    -4.647      0.728      2.445
REMARK INTER + INTRA:          -4.782
REMARK INTER:                  -4.782
REMARK INTRA:                   0.000
REMARK UNBOUND:                 0.000
REMARK SMILES Nc1ncnc2nc[nH]c12
REMARK SMILES IDX 8 1 7 2 6 3 5 4 4 5 3 6 2 7 10 8 9 9 1 11
REMARK H PARENT 9 10 1 12 1 13
REMARK Flexibility Score: inf
ROOT
ATOM      1  C   UNL     1      19.116  11.493  22.237  1.00  0.00     0.199 A 
ATOM      2  N   UNL     1      18.505  10.606  23.069  1.00  0.00    -0.217 NA
ATOM      3  C   UNL     1      18.954  10.991  24.276  1.00  0.00     0.182 A 
ATOM      4  N   UNL     1      18.646  10.431  25.469  1.00  0.00    -0.215 NA
ATOM      5  C   UNL     1      19.204  10.965  26.597  1.00  0.00     0.226 A 
ATOM      6  N   UNL     1      20.052  12.041  26.512  1.00  0.00    -0.217 NA
ATOM      7  C   UNL     1      20.364  12.607  25.308  1.00  0.00     0.152 A 
ATOM      8  C   UNL     1      19.788  12.051  24.170  1.00  0.00     0.127 A 
ATOM      9  N   UNL     1      19.907  12.390  22.879  1.00  0.00    -0.340 N 
ATOM     10  H   UNL     1      20.471  13.159  22.455  1.00  0.00     0.168 HD
ENDROOT
BRANCH   7  11
ATOM     11  N   UNL     1      21.249  13.727  25.243  1.00  0.00    -0.382 N 
ATOM     12  H   UNL     1      22.175  13.688  25.725  1.00  0.00     0.158 HD
ATOM     13  H   UNL     1      20.993  14.593  24.722  1.00  0.00     0.158 HD
ENDBRANCH   7  11
TORSDOF 1
ENDMDL
MODEL 5
REMARK VINA RESULT:    -4.483      1.228      3.276
REMARK INTER + INTRA:          -4.614
REMARK INTER:                  -4.614
REMARK INTRA:                   0.000
REMARK UNBOUND:                 0.000
REMARK SMILES Nc1ncnc2nc[nH]c12
REMARK SMILES IDX 8 1 7 2 6 3 5 4 4 5 3 6 2 7 10 8 9 9 1 11
REMARK H PARENT 9 10 1 12 1 13
REMARK Flexibility Score: inf
ROOT
ATOM      1  C   UNL     1      21.406  13.693  25.326  1.00  0.00     0.199 A 
ATOM      2  N   UNL     1      21.155  12.966  26.450  1.00  0.00    -0.217 NA
ATOM      3  C   UNL     1      20.216  12.103  26.027  1.00  0.00     0.182 A 
ATOM      4  N   UNL     1      19.611  11.143  26.765  1.00  0.00    -0.215 NA
ATOM      5  C   UNL     1      18.673  10.356  26.156  1.00  0.00     0.226 A 
ATOM      6  N   UNL     1      18.361  10.542  24.833  1.00  0.00    -0.217 NA
ATOM      7  C   UNL     1      18.970  11.511  24.088  1.00  0.00     0.152 A 
ATOM      8  C   UNL     1      19.922  12.304  24.722  1.00  0.00     0.127 A 
ATOM      9  N   UNL     1      20.668  13.312  24.253  1.00  0.00    -0.340 N 
ATOM     10  H   UNL     1      20.687  13.718  23.292  1.00  0.00     0.168 HD
ENDROOT
BRANCH   7  11
ATOM     11  N   UNL     1      18.629  11.687  22.712  1.00  0.00    -0.382 N 
ATOM     12  H   UNL     1      18.848  10.936  22.020  1.00  0.00     0.158 HD
ATOM     13  H   UNL     1      18.163  12.557  22.374  1.00  0.00     0.158 HD
ENDBRANCH   7  11
TORSDOF 1
ENDMDL
MODEL 6
REMARK VINA RESULT:    -4.372      2.722      4.705
REMARK INTER + INTRA:          -4.500
REMARK INTER:                  -4.500
REMARK INTRA:                   0.000
REMARK UNBOUND:                 0.000
REMARK SMILES Nc1ncnc2nc[nH]c12
REMARK SMILES IDX 8 1 7 2 6 3 5 4 4 5 3 6 2 7 10 8 9 9 1 11
REMARK H PARENT 9 10 1 12 1 13
REMARK Flexibility Score: inf
ROOT
ATOM      1  C   UNL     1      17.973   8.023  28.234  1.00  0.00     0.199 A 
ATOM      2  N   UNL     1      17.020   8.933  28.578  1.00  0.00    -0.217 NA
ATOM      3  C   UNL     1      17.226   9.913  27.682  1.00  0.00     0.182 A 
ATOM      4  N   UNL     1      16.534  11.073  27.581  1.00  0.00    -0.215 NA
ATOM      5  C   UNL     1      16.892  11.954  26.599  1.00  0.00     0.226 A 
ATOM      6  N   UNL     1      17.924  11.662  25.743  1.00  0.00    -0.217 NA
ATOM      7  C   UNL     1      18.622  10.492  25.843  1.00  0.00     0.152 A 
ATOM      8  C   UNL     1      18.246   9.606  26.849  1.00  0.00     0.127 A 
ATOM      9  N   UNL     1      18.739   8.406  27.181  1.00  0.00    -0.340 N 
ATOM     10  H   UNL     1      19.526   7.878  26.742  1.00  0.00     0.168 HD
ENDROOT
BRANCH   7  11
ATOM     11  N   UNL     1      19.693  10.209  24.941  1.00  0.00    -0.382 N 
ATOM     12  H   UNL     1      19.752   9.273  24.480  1.00  0.00     0.158 HD
ATOM     13  H   UNL     1      20.428  10.917  24.729  1.00  0.00     0.158 HD
ENDBRANCH   7  11
TORSDOF 1
ENDMDL
MODEL 7
REMARK VINA RESULT:    -4.313      1.068      3.030
REMARK INTER + INTRA:          -4.439
REMARK INTER:                  -4.439
REMARK INTRA:                   0.000
REMARK UNBOUND:                 0.000
REMARK SMILES Nc1ncnc2nc[nH]c12
REMARK SMILES IDX 8 1 7 2 6 3 5 4 4 5 3 6 2 7 10 8 9 9 1 11
REMARK H PARENT 9 10 1 12 1 13
REMARK Flexibility Score: inf
ROOT
ATOM      1  C   UNL     1      18.810  10.125  26.977  1.00  0.00     0.199 A 
ATOM      2  N   UNL     1      19.669  11.164  27.169  1.00  0.00    -0.217 NA
ATOM      3  C   UNL     1      19.825  11.638  25.921  1.00  0.00     0.182 A 
ATOM      4  N   UNL     1      20.592  12.689  25.547  1.00  0.00    -0.215 NA
ATOM      5  C   UNL     1      20.624  13.024  24.221  1.00  0.00     0.226 A 
ATOM      6  N   UNL     1      19.896  12.310  23.304  1.00  0.00    -0.217 NA
ATOM      7  C   UNL     1      19.122  11.249  23.680  1.00  0.00     0.152 A 
ATOM      8  C   UNL     1      19.099  10.920  25.033  1.00  0.00     0.127 A 
ATOM      9  N   UNL     1      18.444   9.950  25.683  1.00  0.00    -0.340 N 
ATOM     10  H   UNL     1      17.801   9.224  25.296  1.00  0.00     0.168 HD
ENDROOT
BRANCH   7  11
ATOM     11  N   UNL     1      18.372  10.519  22.708  1.00  0.00    -0.382 N 
ATOM     12  H   UNL     1      18.244   9.488  22.815  1.00  0.00     0.158 HD
ATOM     13  H   UNL     1      17.943  10.992  21.884  1.00  0.00     0.158 HD
ENDBRANCH   7  11
TORSDOF 1
ENDMDL
MODEL 8
REMARK VINA RESULT:    -4.244      2.479      3.616
REMARK INTER + INTRA:          -4.368
REMARK INTER:                  -4.368
REMARK INTRA:                   0.000
REMARK UNBOUND:                 0.000
REMARK SMILES Nc1ncnc2nc[nH]c12
REMARK SMILES IDX 8 1 7 2 6 3 5 4 4 5 3 6 2 7 10 8 9 9 1 11
REMARK H PARENT 9 10 1 12 1 13
REMARK Flexibility Score: inf
ROOT
ATOM      1  C   UNL     1      19.419  11.025  24.879  1.00  0.00     0.199 A 
ATOM      2  N   UNL     1      18.369  11.838  25.181  1.00  0.00    -0.217 NA
ATOM      3  C   UNL     1      17.777  11.175  26.189  1.00  0.00     0.182 A 
ATOM      4  N   UNL     1      16.668  11.557  26.865  1.00  0.00    -0.215 NA
ATOM      5  C   UNL     1      16.210  10.745  27.866  1.00  0.00     0.226 A 
ATOM      6  N   UNL     1      16.865   9.579  28.171  1.00  0.00    -0.217 NA
ATOM      7  C   UNL     1      17.984   9.192  27.489  1.00  0.00     0.152 A 
ATOM      8  C   UNL     1      18.436  10.029  26.473  1.00  0.00     0.127 A 
ATOM      9  N   UNL     1      19.487   9.911  25.651  1.00  0.00    -0.340 N 
ATOM     10  H   UNL     1      20.198   9.148  25.605  1.00  0.00     0.168 HD
ENDROOT
BRANCH   7  11
ATOM     11  N   UNL     1      18.650   7.973  27.823  1.00  0.00    -0.382 N 
ATOM     12  H   UNL     1      18.107   7.083  27.884  1.00  0.00     0.158 HD
ATOM     13  H   UNL     1      19.675   7.947  28.011  1.00  0.00     0.158 HD
ENDBRANCH   7  11
TORSDOF 1
ENDMDL
MODEL 9
REMARK VINA RESULT:    -4.169     12.596     14.520
REMARK INTER + INTRA:          -4.291
REMARK INTER:                  -4.291
REMARK INTRA:                   0.000
REMARK UNBOUND:                 0.000
REMARK SMILES Nc1ncnc2nc[nH]c12
REMARK SMILES IDX 8 1 7 2 6 3 5 4 4 5 3 6 2 7 10 8 9 9 1 11
REMARK H PARENT 9 10 1 12 1 13
REMARK Flexibility Score: inf
ROOT
ATOM      1  C   UNL     1      18.861   9.113  12.172  1.00  0.00     0.199 A 
ATOM      2  N   UNL     1      19.100   8.866  10.855  1.00  0.00    -0.217 NA
ATOM      3  C   UNL     1      17.885   8.507  10.408  1.00  0.00     0.182 A 
ATOM      4  N   UNL     1      17.563   8.154   9.141  1.00  0.00    -0.215 NA
ATOM      5  C   UNL     1      16.264   7.817   8.875  1.00  0.00     0.226 A 
ATOM      6  N   UNL     1      15.321   7.841   9.871  1.00  0.00    -0.217 NA
ATOM      7  C   UNL     1      15.645   8.197  11.150  1.00  0.00     0.152 A 
ATOM      8  C   UNL     1      16.970   8.536  11.404  1.00  0.00     0.127 A 
ATOM      9  N   UNL     1      17.569   8.920  12.539  1.00  0.00    -0.340 N 
ATOM     10  H   UNL     1      17.152   9.044  13.488  1.00  0.00     0.168 HD
ENDROOT
BRANCH   7  11
ATOM     11  N   UNL     1      14.646   8.215  12.171  1.00  0.00    -0.382 N 
ATOM     12  H   UNL     1      13.638   8.298  11.913  1.00  0.00     0.158 HD
ATOM     13  H   UNL     1      14.899   8.148  13.181  1.00  0.00     0.158 HD
ENDBRANCH   7  11
TORSDOF 1
ENDMDL
