MODEL 1
REMARK VINA RESULT:    -4.147      0.000      0.000
REMARK INTER + INTRA:          -6.689
REMARK INTER:                  -6.330
REMARK INTRA:                  -0.359
REMARK UNBOUND:                -0.359
REMARK SMILES CC1=CCC[C@@H](C)C(=O)C[C@@H](C(C)C)C(=O)C1
REMARK SMILES IDX 8 1 9 2 6 3 7 4 5 5 4 6 3 7 2 8 1 9 10 11 11 12 15 13 16 14
REMARK SMILES IDX 17 15 12 17 13 18 14 19
REMARK H PARENT
REMARK Flexibility Score: 70.00
ROOT
ATOM      1  C   UNL     1       1.672 -18.993  -4.798  1.00  0.00     0.136 C 
ATOM      2  O   UNL     1       1.413 -17.800  -4.718  1.00  0.00    -0.299 OA
ENDROOT
BRANCH   1   3
ATOM      3  C   UNL     1       1.374 -19.872  -3.588  1.00  0.00     0.053 C 
ATOM      4  C   UNL     1      -0.054 -19.594  -3.104  1.00  0.00     0.016 C 
BRANCH   3   5
ATOM      5  C   UNL     1       2.385 -19.628  -2.442  1.00  0.00     0.015 C 
BRANCH   5   6
ATOM      6  C   UNL     1       3.678 -20.452  -2.564  1.00  0.00     0.028 C 
BRANCH   6   7
ATOM      7  C   UNL     1       4.769 -19.673  -3.257  1.00  0.00    -0.028 C 
ATOM      8  C   UNL     1       5.361 -20.013  -4.425  1.00  0.00    -0.070 CG0
ATOM      9  C   UNL     1       6.425 -19.088  -4.964  1.00  0.00     0.039 C 
ATOM     10  G   UNL     1       5.088 -21.317  -5.155  1.00  0.00     0.000 G0
ENDBRANCH   6   7
ENDBRANCH   5   6
ENDBRANCH   3   5
ENDBRANCH   1   3
BRANCH   1  11
ATOM     11  C   UNL     1       2.247 -19.488  -6.115  1.00  0.00     0.087 C 
BRANCH  11  12
ATOM     12  C   UNL     1       2.627 -20.986  -6.209  1.00  0.00     0.066 C 
BRANCH  12  13
ATOM     13  C   UNL     1       4.128 -21.265  -6.326  1.00  0.00     0.140 C 
ATOM     14  O   UNL     1       4.593 -21.356  -7.454  1.00  0.00    -0.299 OA
BRANCH  13  15
ATOM     15  C   UNL     1       5.108 -21.331  -5.166  1.00  0.00     0.106 CG0
ATOM     16  G   UNL     1       5.348 -20.027  -4.424  1.00  0.00     0.000 G0
ENDBRANCH  13  15
ENDBRANCH  12  13
BRANCH  12  17
ATOM     17  C   UNL     1       1.771 -21.745  -7.271  1.00  0.00    -0.006 C 
ATOM     18  C   UNL     1       0.487 -22.390  -6.723  1.00  0.00     0.008 C 
ATOM     19  C   UNL     1       1.433 -20.847  -8.472  1.00  0.00     0.008 C 
ENDBRANCH  12  17
ENDBRANCH  11  12
ENDBRANCH   1  11
TORSDOF 1
ENDMDL
MODEL 2
REMARK VINA RESULT:    -4.069      1.871      3.969
REMARK INTER + INTRA:          -6.570
REMARK INTER:                  -6.554
REMARK INTRA:                  -0.016
REMARK UNBOUND:                -0.359
REMARK SMILES CC1=CCC[C@@H](C)C(=O)C[C@@H](C(C)C)C(=O)C1
REMARK SMILES IDX 8 1 9 2 6 3 7 4 5 5 4 6 3 7 2 8 1 9 10 11 11 12 15 13 16 14
REMARK SMILES IDX 17 15 12 17 13 18 14 19
REMARK H PARENT
REMARK Flexibility Score: 70.00
ROOT
ATOM      1  C   UNL     1       1.930 -21.489  -7.239  1.00  0.00     0.136 C 
ATOM      2  O   UNL     1       1.519 -21.548  -8.389  1.00  0.00    -0.299 OA
ENDROOT
BRANCH   1   3
ATOM      3  C   UNL     1       1.065 -22.092  -6.138  1.00  0.00     0.053 C 
ATOM      4  C   UNL     1       0.112 -23.122  -6.754  1.00  0.00     0.016 C 
BRANCH   3   5
ATOM      5  C   UNL     1       0.262 -21.005  -5.383  1.00  0.00     0.015 C 
BRANCH   5   6
ATOM      6  C   UNL     1       0.647 -20.862  -3.900  1.00  0.00     0.028 C 
BRANCH   6   7
ATOM      7  C   UNL     1       0.822 -19.415  -3.510  1.00  0.00    -0.028 C 
ATOM      8  C   UNL     1       2.005 -18.779  -3.351  1.00  0.00    -0.070 CG0
ATOM      9  C   UNL     1       1.968 -17.318  -2.972  1.00  0.00     0.039 C 
ATOM     10  G   UNL     1       3.351 -19.479  -3.428  1.00  0.00     0.000 G0
ENDBRANCH   6   7
ENDBRANCH   5   6
ENDBRANCH   3   5
ENDBRANCH   1   3
BRANCH   1  11
ATOM     11  C   UNL     1       3.287 -20.837  -7.023  1.00  0.00     0.087 C 
BRANCH  11  12
ATOM     12  C   UNL     1       3.918 -20.954  -5.614  1.00  0.00     0.066 C 
BRANCH  12  13
ATOM     13  C   UNL     1       3.941 -19.654  -4.808  1.00  0.00     0.140 C 
ATOM     14  O   UNL     1       4.390 -18.660  -5.363  1.00  0.00    -0.299 OA
BRANCH  13  15
ATOM     15  C   UNL     1       3.356 -19.465  -3.417  1.00  0.00     0.106 CG0
ATOM     16  G   UNL     1       2.003 -18.777  -3.354  1.00  0.00     0.000 G0
ENDBRANCH  13  15
ENDBRANCH  12  13
BRANCH  12  17
ATOM     17  C   UNL     1       5.296 -21.688  -5.646  1.00  0.00    -0.006 C 
ATOM     18  C   UNL     1       5.980 -21.716  -7.023  1.00  0.00     0.008 C 
ATOM     19  C   UNL     1       6.263 -21.123  -4.594  1.00  0.00     0.008 C 
ENDBRANCH  12  17
ENDBRANCH  11  12
ENDBRANCH   1  11
TORSDOF 1
ENDMDL
MODEL 3
REMARK VINA RESULT:    -3.974      1.458      2.334
REMARK INTER + INTRA:          -6.424
REMARK INTER:                  -6.466
REMARK INTRA:                   0.042
REMARK UNBOUND:                -0.359
REMARK SMILES CC1=CCC[C@@H](C)C(=O)C[C@@H](C(C)C)C(=O)C1
REMARK SMILES IDX 8 1 9 2 6 3 7 4 5 5 4 6 3 7 2 8 1 9 10 11 11 12 15 13 16 14
REMARK SMILES IDX 17 15 12 17 13 18 14 19
REMARK H PARENT
REMARK Flexibility Score: 70.00
ROOT
ATOM      1  C   UNL     1       1.336 -19.330  -3.395  1.00  0.00     0.136 C 
ATOM      2  O   UNL     1       0.788 -18.237  -3.444  1.00  0.00    -0.299 OA
ENDROOT
BRANCH   1   3
ATOM      3  C   UNL     1       2.388 -19.554  -2.314  1.00  0.00     0.053 C 
ATOM      4  C   UNL     1       3.066 -18.219  -1.987  1.00  0.00     0.016 C 
BRANCH   3   5
ATOM      5  C   UNL     1       3.444 -20.597  -2.752  1.00  0.00     0.015 C 
BRANCH   5   6
ATOM      6  C   UNL     1       4.736 -19.979  -3.311  1.00  0.00     0.028 C 
BRANCH   6   7
ATOM      7  C   UNL     1       5.128 -20.607  -4.626  1.00  0.00    -0.028 C 
ATOM      8  C   UNL     1       4.810 -20.132  -5.853  1.00  0.00    -0.070 CG0
ATOM      9  C   UNL     1       5.314 -20.899  -7.051  1.00  0.00     0.039 C 
ATOM     10  G   UNL     1       3.893 -18.942  -6.079  1.00  0.00     0.000 G0
ENDBRANCH   6   7
ENDBRANCH   5   6
ENDBRANCH   3   5
ENDBRANCH   1   3
BRANCH   1  11
ATOM     11  C   UNL     1       0.892 -20.372  -4.409  1.00  0.00     0.087 C 
BRANCH  11  12
ATOM     12  C   UNL     1       1.721 -20.497  -5.711  1.00  0.00     0.066 C 
BRANCH  12  13
ATOM     13  C   UNL     1       2.406 -19.207  -6.166  1.00  0.00     0.140 C 
ATOM     14  O   UNL     1       1.684 -18.290  -6.534  1.00  0.00    -0.299 OA
BRANCH  13  15
ATOM     15  C   UNL     1       3.899 -18.927  -6.098  1.00  0.00     0.106 CG0
ATOM     16  G   UNL     1       4.790 -20.132  -5.849  1.00  0.00     0.000 G0
ENDBRANCH  13  15
ENDBRANCH  12  13
BRANCH  12  17
ATOM     17  C   UNL     1       0.924 -21.210  -6.849  1.00  0.00    -0.006 C 
ATOM     18  C   UNL     1       1.704 -21.401  -8.160  1.00  0.00     0.008 C 
ATOM     19  C   UNL     1       0.353 -22.558  -6.381  1.00  0.00     0.008 C 
ENDBRANCH  12  17
ENDBRANCH  11  12
ENDBRANCH   1  11
TORSDOF 1
ENDMDL
MODEL 4
REMARK VINA RESULT:    -3.666      1.857      2.401
REMARK INTER + INTRA:          -5.954
REMARK INTER:                  -5.983
REMARK INTRA:                   0.029
REMARK UNBOUND:                -0.359
REMARK SMILES CC1=CCC[C@@H](C)C(=O)C[C@@H](C(C)C)C(=O)C1
REMARK SMILES IDX 8 1 9 2 6 3 7 4 5 5 4 6 3 7 2 8 1 9 10 11 11 12 15 13 16 14
REMARK SMILES IDX 17 15 12 17 13 18 14 19
REMARK H PARENT
REMARK Flexibility Score: 70.00
ROOT
ATOM      1  C   UNL     1       1.901 -19.441  -3.903  1.00  0.00     0.136 C 
ATOM      2  O   UNL     1       1.506 -20.132  -2.974  1.00  0.00    -0.299 OA
ENDROOT
BRANCH   1   3
ATOM      3  C   UNL     1       2.779 -18.238  -3.576  1.00  0.00     0.053 C 
ATOM      4  C   UNL     1       2.793 -18.022  -2.058  1.00  0.00     0.016 C 
BRANCH   3   5
ATOM      5  C   UNL     1       2.285 -16.958  -4.293  1.00  0.00     0.015 C 
BRANCH   5   6
ATOM      6  C   UNL     1       3.041 -16.641  -5.594  1.00  0.00     0.028 C 
BRANCH   6   7
ATOM      7  C   UNL     1       4.452 -17.173  -5.560  1.00  0.00    -0.028 C 
ATOM      8  C   UNL     1       4.908 -18.245  -6.248  1.00  0.00    -0.070 CG0
ATOM      9  C   UNL     1       6.365 -18.609  -6.090  1.00  0.00     0.039 C 
ATOM     10  G   UNL     1       4.013 -19.153  -7.074  1.00  0.00     0.000 G0
ENDBRANCH   6   7
ENDBRANCH   5   6
ENDBRANCH   3   5
ENDBRANCH   1   3
BRANCH   1  11
ATOM     11  C   UNL     1       1.494 -19.868  -5.304  1.00  0.00     0.087 C 
BRANCH  11  12
ATOM     12  C   UNL     1       2.336 -20.975  -5.984  1.00  0.00     0.066 C 
BRANCH  12  13
ATOM     13  C   UNL     1       3.701 -20.519  -6.506  1.00  0.00     0.140 C 
ATOM     14  O   UNL     1       4.593 -21.355  -6.542  1.00  0.00    -0.299 OA
BRANCH  13  15
ATOM     15  C   UNL     1       4.013 -19.148  -7.084  1.00  0.00     0.106 CG0
ATOM     16  G   UNL     1       4.901 -18.255  -6.234  1.00  0.00     0.000 G0
ENDBRANCH  13  15
ENDBRANCH  12  13
BRANCH  12  17
ATOM     17  C   UNL     1       1.509 -21.782  -7.034  1.00  0.00    -0.006 C 
ATOM     18  C   UNL     1       0.170 -22.332  -6.515  1.00  0.00     0.008 C 
ATOM     19  C   UNL     1       1.278 -20.970  -8.318  1.00  0.00     0.008 C 
ENDBRANCH  12  17
ENDBRANCH  11  12
ENDBRANCH   1  11
TORSDOF 1
ENDMDL
MODEL 5
REMARK VINA RESULT:    -3.639     12.455     14.625
REMARK INTER + INTRA:          -5.912
REMARK INTER:                  -5.781
REMARK INTRA:                  -0.131
REMARK UNBOUND:                -0.359
REMARK SMILES CC1=CCC[C@@H](C)C(=O)C[C@@H](C(C)C)C(=O)C1
REMARK SMILES IDX 8 1 9 2 6 3 7 4 5 5 4 6 3 7 2 8 1 9 10 11 11 12 15 13 16 14
REMARK SMILES IDX 17 15 12 17 13 18 14 19
REMARK H PARENT
REMARK Flexibility Score: 70.00
ROOT
ATOM      1  C   UNL     1      -7.732 -25.515  -2.087  1.00  0.00     0.136 C 
ATOM      2  O   UNL     1      -7.368 -24.359  -1.923  1.00  0.00    -0.299 OA
ENDROOT
BRANCH   1   3
ATOM      3  C   UNL     1      -9.221 -25.777  -2.281  1.00  0.00     0.053 C 
ATOM      4  C   UNL     1      -9.732 -24.931  -3.454  1.00  0.00     0.016 C 
BRANCH   3   5
ATOM      5  C   UNL     1     -10.029 -25.457  -1.000  1.00  0.00     0.015 C 
BRANCH   5   6
ATOM      6  C   UNL     1     -10.631 -26.697  -0.317  1.00  0.00     0.028 C 
BRANCH   6   7
ATOM      7  C   UNL     1     -10.767 -27.849  -1.280  1.00  0.00    -0.028 C 
ATOM      8  C   UNL     1     -10.037 -28.988  -1.257  1.00  0.00    -0.070 CG0
ATOM      9  C   UNL     1     -10.339 -30.034  -2.303  1.00  0.00     0.039 C 
ATOM     10  G   UNL     1      -8.871 -29.217  -0.310  1.00  0.00     0.000 G0
ENDBRANCH   6   7
ENDBRANCH   5   6
ENDBRANCH   3   5
ENDBRANCH   1   3
BRANCH   1  11
ATOM     11  C   UNL     1      -6.649 -26.583  -2.106  1.00  0.00     0.087 C 
BRANCH  11  12
ATOM     12  C   UNL     1      -7.103 -28.060  -1.999  1.00  0.00     0.066 C 
BRANCH  12  13
ATOM     13  C   UNL     1      -7.569 -28.492  -0.606  1.00  0.00     0.140 C 
ATOM     14  O   UNL     1      -6.892 -28.130   0.347  1.00  0.00    -0.299 OA
BRANCH  13  15
ATOM     15  C   UNL     1      -8.856 -29.239  -0.296  1.00  0.00     0.106 CG0
ATOM     16  G   UNL     1     -10.019 -28.977  -1.238  1.00  0.00     0.000 G0
ENDBRANCH  13  15
ENDBRANCH  12  13
BRANCH  12  17
ATOM     17  C   UNL     1      -6.071 -29.041  -2.639  1.00  0.00    -0.006 C 
ATOM     18  C   UNL     1      -6.691 -30.252  -3.356  1.00  0.00     0.008 C 
ATOM     19  C   UNL     1      -5.108 -28.309  -3.587  1.00  0.00     0.008 C 
ENDBRANCH  12  17
ENDBRANCH  11  12
ENDBRANCH   1  11
TORSDOF 1
ENDMDL
MODEL 6
REMARK VINA RESULT:    -3.576      1.561      3.896
REMARK INTER + INTRA:          -5.817
REMARK INTER:                  -5.531
REMARK INTRA:                  -0.286
REMARK UNBOUND:                -0.359
REMARK SMILES CC1=CCC[C@@H](C)C(=O)C[C@@H](C(C)C)C(=O)C1
REMARK SMILES IDX 8 1 9 2 6 3 7 4 5 5 4 6 3 7 2 8 1 9 10 11 11 12 15 13 16 14
REMARK SMILES IDX 17 15 12 17 13 18 14 19
REMARK H PARENT
REMARK Flexibility Score: 70.00
ROOT
ATOM      1  C   UNL     1       5.158 -20.942  -6.552  1.00  0.00     0.136 C 
ATOM      2  O   UNL     1       5.980 -21.829  -6.735  1.00  0.00    -0.299 OA
ENDROOT
BRANCH   1   3
ATOM      3  C   UNL     1       5.632 -19.497  -6.648  1.00  0.00     0.053 C 
ATOM      4  C   UNL     1       6.277 -19.268  -8.020  1.00  0.00     0.016 C 
BRANCH   3   5
ATOM      5  C   UNL     1       6.635 -19.149  -5.521  1.00  0.00     0.015 C 
BRANCH   5   6
ATOM      6  C   UNL     1       6.126 -19.484  -4.109  1.00  0.00     0.028 C 
BRANCH   6   7
ATOM      7  C   UNL     1       5.237 -18.392  -3.566  1.00  0.00    -0.028 C 
ATOM      8  C   UNL     1       3.900 -18.483  -3.379  1.00  0.00    -0.070 CG0
ATOM      9  C   UNL     1       3.191 -17.280  -2.806  1.00  0.00     0.039 C 
ATOM     10  G   UNL     1       3.073 -19.681  -3.813  1.00  0.00     0.000 G0
ENDBRANCH   6   7
ENDBRANCH   5   6
ENDBRANCH   3   5
ENDBRANCH   1   3
BRANCH   1  11
ATOM     11  C   UNL     1       3.727 -21.374  -6.270  1.00  0.00     0.087 C 
BRANCH  11  12
ATOM     12  C   UNL     1       2.619 -20.300  -6.403  1.00  0.00     0.066 C 
BRANCH  12  13
ATOM     13  C   UNL     1       2.310 -19.531  -5.117  1.00  0.00     0.140 C 
ATOM     14  O   UNL     1       1.324 -18.806  -5.123  1.00  0.00    -0.299 OA
BRANCH  13  15
ATOM     15  C   UNL     1       3.057 -19.672  -3.800  1.00  0.00     0.106 CG0
ATOM     16  G   UNL     1       3.887 -18.472  -3.377  1.00  0.00     0.000 G0
ENDBRANCH  13  15
ENDBRANCH  12  13
BRANCH  12  17
ATOM     17  C   UNL     1       1.345 -20.855  -7.116  1.00  0.00    -0.006 C 
ATOM     18  C   UNL     1       1.493 -21.059  -8.633  1.00  0.00     0.008 C 
ATOM     19  C   UNL     1       0.850 -22.153  -6.460  1.00  0.00     0.008 C 
ENDBRANCH  12  17
ENDBRANCH  11  12
ENDBRANCH   1  11
TORSDOF 1
ENDMDL
MODEL 7
REMARK VINA RESULT:    -3.532     12.270     14.657
REMARK INTER + INTRA:          -5.750
REMARK INTER:                  -6.261
REMARK INTRA:                   0.511
REMARK UNBOUND:                -0.359
REMARK SMILES CC1=CCC[C@@H](C)C(=O)C[C@@H](C(C)C)C(=O)C1
REMARK SMILES IDX 8 1 9 2 6 3 7 4 5 5 4 6 3 7 2 8 1 9 10 11 11 12 15 13 16 14
REMARK SMILES IDX 17 15 12 17 13 18 14 19
REMARK H PARENT
REMARK Flexibility Score: 70.00
ROOT
ATOM      1  C   UNL     1      -6.394 -27.723  -1.471  1.00  0.00     0.136 C 
ATOM      2  O   UNL     1      -6.641 -28.370  -0.463  1.00  0.00    -0.299 OA
ENDROOT
BRANCH   1   3
ATOM      3  C   UNL     1      -5.525 -28.371  -2.542  1.00  0.00     0.053 C 
ATOM      4  C   UNL     1      -5.285 -27.364  -3.673  1.00  0.00     0.016 C 
BRANCH   3   5
ATOM      5  C   UNL     1      -6.174 -29.659  -3.103  1.00  0.00     0.015 C 
BRANCH   5   6
ATOM      6  C   UNL     1      -7.601 -29.455  -3.642  1.00  0.00     0.028 C 
BRANCH   6   7
ATOM      7  C   UNL     1      -8.639 -29.937  -2.659  1.00  0.00    -0.028 C 
ATOM      8  C   UNL     1      -9.817 -29.327  -2.393  1.00  0.00    -0.070 CG0
ATOM      9  C   UNL     1     -10.731 -29.981  -1.385  1.00  0.00     0.039 C 
ATOM     10  G   UNL     1     -10.211 -27.978  -2.969  1.00  0.00     0.000 G0
ENDBRANCH   6   7
ENDBRANCH   5   6
ENDBRANCH   3   5
ENDBRANCH   1   3
BRANCH   1  11
ATOM     11  C   UNL     1      -7.005 -26.334  -1.566  1.00  0.00     0.087 C 
BRANCH  11  12
ATOM     12  C   UNL     1      -8.545 -26.240  -1.703  1.00  0.00     0.066 C 
BRANCH  12  13
ATOM     13  C   UNL     1      -9.121 -26.898  -2.959  1.00  0.00     0.140 C 
ATOM     14  O   UNL     1      -8.609 -26.601  -4.030  1.00  0.00    -0.299 OA
BRANCH  13  15
ATOM     15  C   UNL     1     -10.202 -27.967  -2.981  1.00  0.00     0.106 CG0
ATOM     16  G   UNL     1      -9.816 -29.313  -2.391  1.00  0.00     0.000 G0
ENDBRANCH  13  15
ENDBRANCH  12  13
BRANCH  12  17
ATOM     17  C   UNL     1      -9.069 -24.789  -1.467  1.00  0.00    -0.006 C 
ATOM     18  C   UNL     1      -8.342 -23.701  -2.275  1.00  0.00     0.008 C 
ATOM     19  C   UNL     1     -10.584 -24.689  -1.704  1.00  0.00     0.008 C 
ENDBRANCH  12  17
ENDBRANCH  11  12
ENDBRANCH   1  11
TORSDOF 1
ENDMDL
MODEL 8
REMARK VINA RESULT:    -3.516     13.071     15.318
REMARK INTER + INTRA:          -5.725
REMARK INTER:                  -5.545
REMARK INTRA:                  -0.181
REMARK UNBOUND:                -0.359
REMARK SMILES CC1=CCC[C@@H](C)C(=O)C[C@@H](C(C)C)C(=O)C1
REMARK SMILES IDX 8 1 9 2 6 3 7 4 5 5 4 6 3 7 2 8 1 9 10 11 11 12 15 13 16 14
REMARK SMILES IDX 17 15 12 17 13 18 14 19
REMARK H PARENT
REMARK Flexibility Score: 70.00
ROOT
ATOM      1  C   UNL     1      -6.662 -29.636  -2.249  1.00  0.00     0.136 C 
ATOM      2  O   UNL     1      -7.068 -30.146  -3.283  1.00  0.00    -0.299 OA
ENDROOT
BRANCH   1   3
ATOM      3  C   UNL     1      -5.577 -28.570  -2.355  1.00  0.00     0.053 C 
ATOM      4  C   UNL     1      -5.460 -27.836  -1.015  1.00  0.00     0.016 C 
BRANCH   3   5
ATOM      5  C   UNL     1      -5.875 -27.563  -3.492  1.00  0.00     0.015 C 
BRANCH   5   6
ATOM      6  C   UNL     1      -6.833 -26.430  -3.086  1.00  0.00     0.028 C 
BRANCH   6   7
ATOM      7  C   UNL     1      -8.251 -26.725  -3.506  1.00  0.00    -0.028 C 
ATOM      8  C   UNL     1      -9.243 -27.151  -2.690  1.00  0.00    -0.070 CG0
ATOM      9  C   UNL     1     -10.605 -27.374  -3.303  1.00  0.00     0.039 C 
ATOM     10  G   UNL     1      -9.030 -27.517  -1.231  1.00  0.00     0.000 G0
ENDBRANCH   6   7
ENDBRANCH   5   6
ENDBRANCH   3   5
ENDBRANCH   1   3
BRANCH   1  11
ATOM     11  C   UNL     1      -7.302 -30.102  -0.951  1.00  0.00     0.087 C 
BRANCH  11  12
ATOM     12  C   UNL     1      -8.847 -30.200  -0.913  1.00  0.00     0.066 C 
BRANCH  12  13
ATOM     13  C   UNL     1      -9.575 -28.860  -0.778  1.00  0.00     0.140 C 
ATOM     14  O   UNL     1     -10.649 -28.865  -0.192  1.00  0.00    -0.299 OA
BRANCH  13  15
ATOM     15  C   UNL     1      -9.030 -27.510  -1.214  1.00  0.00     0.106 CG0
ATOM     16  G   UNL     1      -9.231 -27.153  -2.677  1.00  0.00     0.000 G0
ENDBRANCH  13  15
ENDBRANCH  12  13
BRANCH  12  17
ATOM     17  C   UNL     1      -9.343 -31.280   0.100  1.00  0.00    -0.006 C 
ATOM     18  C   UNL     1     -10.133 -32.439  -0.530  1.00  0.00     0.008 C 
ATOM     19  C   UNL     1      -8.187 -31.836   0.946  1.00  0.00     0.008 C 
ENDBRANCH  12  17
ENDBRANCH  11  12
ENDBRANCH   1  11
TORSDOF 1
ENDMDL
MODEL 9
REMARK VINA RESULT:    -3.467     10.845     12.630
REMARK INTER + INTRA:          -5.651
REMARK INTER:                  -5.586
REMARK INTRA:                  -0.065
REMARK UNBOUND:                -0.359
REMARK SMILES CC1=CCC[C@@H](C)C(=O)C[C@@H](C(C)C)C(=O)C1
REMARK SMILES IDX 8 1 9 2 6 3 7 4 5 5 4 6 3 7 2 8 1 9 10 11 11 12 15 13 16 14
REMARK SMILES IDX 17 15 12 17 13 18 14 19
REMARK H PARENT
REMARK Flexibility Score: 70.00
ROOT
ATOM      1  C   UNL     1       4.515 -25.636   8.255  1.00  0.00     0.136 C 
ATOM      2  O   UNL     1       4.248 -26.448   9.130  1.00  0.00    -0.299 OA
ENDROOT
BRANCH   1   3
ATOM      3  C   UNL     1       5.782 -24.803   8.415  1.00  0.00     0.053 C 
ATOM      4  C   UNL     1       5.395 -23.348   8.703  1.00  0.00     0.016 C 
BRANCH   3   5
ATOM      5  C   UNL     1       6.678 -24.879   7.155  1.00  0.00     0.015 C 
BRANCH   5   6
ATOM      6  C   UNL     1       6.706 -23.580   6.332  1.00  0.00     0.028 C 
BRANCH   6   7
ATOM      7  C   UNL     1       6.950 -23.856   4.869  1.00  0.00    -0.028 C 
ATOM      8  C   UNL     1       6.015 -24.251   3.974  1.00  0.00    -0.070 CG0
ATOM      9  C   UNL     1       6.458 -24.460   2.546  1.00  0.00     0.039 C 
ATOM     10  G   UNL     1       4.585 -24.596   4.353  1.00  0.00     0.000 G0
ENDBRANCH   6   7
ENDBRANCH   5   6
ENDBRANCH   3   5
ENDBRANCH   1   3
BRANCH   1  11
ATOM     11  C   UNL     1       3.561 -25.554   7.074  1.00  0.00     0.087 C 
BRANCH  11  12
ATOM     12  C   UNL     1       3.731 -26.603   5.947  1.00  0.00     0.066 C 
BRANCH  12  13
ATOM     13  C   UNL     1       4.265 -26.048   4.625  1.00  0.00     0.140 C 
ATOM     14  O   UNL     1       4.375 -26.834   3.693  1.00  0.00    -0.299 OA
BRANCH  13  15
ATOM     15  C   UNL     1       4.568 -24.587   4.337  1.00  0.00     0.106 CG0
ATOM     16  G   UNL     1       6.009 -24.266   3.977  1.00  0.00     0.000 G0
ENDBRANCH  13  15
ENDBRANCH  12  13
BRANCH  12  17
ATOM     17  C   UNL     1       2.460 -27.495   5.778  1.00  0.00    -0.006 C 
ATOM     18  C   UNL     1       2.713 -29.007   5.903  1.00  0.00     0.008 C 
ATOM     19  C   UNL     1       1.339 -27.071   6.739  1.00  0.00     0.008 C 
ENDBRANCH  12  17
ENDBRANCH  11  12
ENDBRANCH   1  11
TORSDOF 1
ENDMDL
