MODEL 1
REMARK VINA RESULT:     0.591      0.000      0.000
REMARK INTER + INTRA:           0.408
REMARK INTER:                   0.660
REMARK INTRA:                  -0.252
REMARK UNBOUND:                -0.252
REMARK SMILES CC=C(C)C=CC=C(C)C
REMARK SMILES IDX 5 1 6 2 3 3 1 4 2 5 4 6 7 7 8 8 9 9 10 10
REMARK H PARENT
REMARK Flexibility Score: inf
ROOT
ATOM      1  C   UNL     1      10.775   8.521  -7.325  1.00  0.00     0.003 C 
ATOM      2  C   UNL     1       9.538   8.147  -6.975  1.00  0.00     0.000 C 
ENDROOT
BRANCH   1   3
ATOM      3  C   UNL     1      11.939   7.587  -7.343  1.00  0.00    -0.055 C 
ATOM      4  C   UNL     1      12.550   8.273  -9.686  1.00  0.00     0.036 C 
ATOM      5  C   UNL     1      12.739   7.487  -8.423  1.00  0.00    -0.027 C 
ATOM      6  C   UNL     1      12.255   6.749  -6.128  1.00  0.00     0.044 C 
ENDBRANCH   1   3
BRANCH   2   7
ATOM      7  C   UNL     1       8.425   9.122  -6.978  1.00  0.00    -0.001 C 
ATOM      8  C   UNL     1       7.199   8.864  -6.486  1.00  0.00    -0.076 C 
ATOM      9  C   UNL     1       6.848   7.531  -5.875  1.00  0.00     0.039 C 
ATOM     10  C   UNL     1       6.156   9.946  -6.553  1.00  0.00     0.039 C 
ENDBRANCH   2   7
TORSDOF 2
ENDMDL
MODEL 2
REMARK VINA RESULT:     0.758      9.429     12.037
REMARK INTER + INTRA:           0.595
REMARK INTER:                   0.833
REMARK INTRA:                  -0.238
REMARK UNBOUND:                -0.252
REMARK SMILES CC=C(C)C=CC=C(C)C
REMARK SMILES IDX 5 1 6 2 3 3 1 4 2 5 4 6 7 7 8 8 9 9 10 10
REMARK H PARENT
REMARK Flexibility Score: inf
ROOT
ATOM      1  C   UNL     1      -0.793   6.005  -9.629  1.00  0.00     0.003 C 
ATOM      2  C   UNL     1      -0.832   5.718 -10.937  1.00  0.00     0.000 C 
ENDROOT
BRANCH   1   3
ATOM      3  C   UNL     1       0.470   6.032  -8.834  1.00  0.00    -0.055 C 
ATOM      4  C   UNL     1      -0.542   7.593  -7.139  1.00  0.00     0.036 C 
ATOM      5  C   UNL     1       0.568   6.757  -7.702  1.00  0.00    -0.027 C 
ATOM      6  C   UNL     1       1.661   5.219  -9.278  1.00  0.00     0.044 C 
ENDBRANCH   1   3
BRANCH   2   7
ATOM      7  C   UNL     1      -2.117   5.709 -11.670  1.00  0.00    -0.001 C 
ATOM      8  C   UNL     1      -2.244   5.344 -12.959  1.00  0.00    -0.076 C 
ATOM      9  C   UNL     1      -1.061   4.904 -13.784  1.00  0.00     0.039 C 
ATOM     10  C   UNL     1      -3.612   5.380 -13.584  1.00  0.00     0.039 C 
ENDBRANCH   2   7
TORSDOF 2
ENDMDL
MODEL 3
REMARK VINA RESULT:     1.068      9.883     12.561
REMARK INTER + INTRA:           0.941
REMARK INTER:                   1.201
REMARK INTRA:                  -0.259
REMARK UNBOUND:                -0.252
REMARK SMILES CC=C(C)C=CC=C(C)C
REMARK SMILES IDX 5 1 6 2 3 3 1 4 2 5 4 6 7 7 8 8 9 9 10 10
REMARK H PARENT
REMARK Flexibility Score: inf
ROOT
ATOM      1  C   UNL     1      -1.581   5.573 -11.697  1.00  0.00     0.003 C 
ATOM      2  C   UNL     1      -0.420   5.937 -11.138  1.00  0.00     0.000 C 
ENDROOT
BRANCH   1   3
ATOM      3  C   UNL     1      -1.702   5.128 -13.116  1.00  0.00    -0.055 C 
ATOM      4  C   UNL     1      -4.117   4.496 -12.791  1.00  0.00     0.036 C 
ATOM      5  C   UNL     1      -2.863   4.643 -13.601  1.00  0.00    -0.027 C 
ATOM      6  C   UNL     1      -0.521   5.239 -14.048  1.00  0.00     0.044 C 
ENDBRANCH   1   3
BRANCH   2   7
ATOM      7  C   UNL     1      -0.365   6.368  -9.723  1.00  0.00    -0.001 C 
ATOM      8  C   UNL     1       0.533   5.908  -8.833  1.00  0.00    -0.076 C 
ATOM      9  C   UNL     1       1.583   4.892  -9.208  1.00  0.00     0.039 C 
ATOM     10  C   UNL     1       0.478   6.430  -7.423  1.00  0.00     0.039 C 
ENDBRANCH   2   7
TORSDOF 2
ENDMDL
MODEL 4
REMARK VINA RESULT:     1.314      9.441     11.864
REMARK INTER + INTRA:           1.215
REMARK INTER:                   1.066
REMARK INTRA:                   0.150
REMARK UNBOUND:                -0.252
REMARK SMILES CC=C(C)C=CC=C(C)C
REMARK SMILES IDX 5 1 6 2 3 3 1 4 2 5 4 6 7 7 8 8 9 9 10 10
REMARK H PARENT
REMARK Flexibility Score: inf
ROOT
ATOM      1  C   UNL     1      -1.091   6.034  -9.272  1.00  0.00     0.003 C 
ATOM      2  C   UNL     1      -0.946   6.002 -10.603  1.00  0.00     0.000 C 
ENDROOT
BRANCH   1   3
ATOM      3  C   UNL     1       0.013   6.401  -8.337  1.00  0.00    -0.055 C 
ATOM      4  C   UNL     1       1.562   4.715  -9.384  1.00  0.00     0.036 C 
ATOM      5  C   UNL     1       1.215   5.794  -8.401  1.00  0.00    -0.027 C 
ATOM      6  C   UNL     1      -0.195   7.486  -7.309  1.00  0.00     0.044 C 
ENDBRANCH   1   3
BRANCH   2   7
ATOM      7  C   UNL     1      -2.080   5.631 -11.478  1.00  0.00    -0.001 C 
ATOM      8  C   UNL     1      -1.951   5.306 -12.778  1.00  0.00    -0.076 C 
ATOM      9  C   UNL     1      -0.611   5.293 -13.468  1.00  0.00     0.039 C 
ATOM     10  C   UNL     1      -3.189   4.949 -13.555  1.00  0.00     0.039 C 
ENDBRANCH   2   7
TORSDOF 2
ENDMDL
MODEL 5
REMARK VINA RESULT:     1.620      1.373      5.393
REMARK INTER + INTRA:           1.557
REMARK INTER:                   1.806
REMARK INTRA:                  -0.249
REMARK UNBOUND:                -0.252
REMARK SMILES CC=C(C)C=CC=C(C)C
REMARK SMILES IDX 5 1 6 2 3 3 1 4 2 5 4 6 7 7 8 8 9 9 10 10
REMARK H PARENT
REMARK Flexibility Score: inf
ROOT
ATOM      1  C   UNL     1      11.189   8.323  -7.599  1.00  0.00     0.003 C 
ATOM      2  C   UNL     1      12.006   7.942  -8.589  1.00  0.00     0.000 C 
ENDROOT
BRANCH   1   3
ATOM      3  C   UNL     1      10.760   7.415  -6.495  1.00  0.00    -0.055 C 
ATOM      4  C   UNL     1       8.403   8.296  -6.584  1.00  0.00     0.036 C 
ATOM      5  C   UNL     1       9.489   7.412  -6.046  1.00  0.00    -0.027 C 
ATOM      6  C   UNL     1      11.749   6.459  -5.875  1.00  0.00     0.044 C 
ENDBRANCH   1   3
BRANCH   2   7
ATOM      7  C   UNL     1      12.395   8.891  -9.655  1.00  0.00    -0.001 C 
ATOM      8  C   UNL     1      13.440   8.704 -10.482  1.00  0.00    -0.076 C 
ATOM      9  C   UNL     1      14.323   7.486 -10.391  1.00  0.00     0.039 C 
ATOM     10  C   UNL     1      13.727   9.751 -11.525  1.00  0.00     0.039 C 
ENDBRANCH   2   7
TORSDOF 2
ENDMDL
MODEL 6
REMARK VINA RESULT:     2.197      9.841     12.060
REMARK INTER + INTRA:           2.201
REMARK INTER:                   1.995
REMARK INTRA:                   0.206
REMARK UNBOUND:                -0.252
REMARK SMILES CC=C(C)C=CC=C(C)C
REMARK SMILES IDX 5 1 6 2 3 3 1 4 2 5 4 6 7 7 8 8 9 9 10 10
REMARK H PARENT
REMARK Flexibility Score: inf
ROOT
ATOM      1  C   UNL     1      -1.086   5.909 -11.496  1.00  0.00     0.003 C 
ATOM      2  C   UNL     1      -0.136   5.308 -10.767  1.00  0.00     0.000 C 
ENDROOT
BRANCH   1   3
ATOM      3  C   UNL     1      -1.724   5.281 -12.690  1.00  0.00    -0.055 C 
ATOM      4  C   UNL     1       0.312   5.722 -14.103  1.00  0.00     0.036 C 
ATOM      5  C   UNL     1      -1.074   5.200 -13.868  1.00  0.00    -0.027 C 
ATOM      6  C   UNL     1      -3.111   4.697 -12.587  1.00  0.00     0.044 C 
ENDBRANCH   1   3
BRANCH   2   7
ATOM      7  C   UNL     1       0.456   5.984  -9.593  1.00  0.00    -0.001 C 
ATOM      8  C   UNL     1      -0.262   6.468  -8.563  1.00  0.00    -0.076 C 
ATOM      9  C   UNL     1      -1.766   6.360  -8.518  1.00  0.00     0.039 C 
ATOM     10  C   UNL     1       0.467   7.135  -7.428  1.00  0.00     0.039 C 
ENDBRANCH   2   7
TORSDOF 2
ENDMDL
MODEL 7
REMARK VINA RESULT:     2.899      0.789      5.257
REMARK INTER + INTRA:           2.986
REMARK INTER:                   3.239
REMARK INTRA:                  -0.253
REMARK UNBOUND:                -0.252
REMARK SMILES CC=C(C)C=CC=C(C)C
REMARK SMILES IDX 5 1 6 2 3 3 1 4 2 5 4 6 7 7 8 8 9 9 10 10
REMARK H PARENT
REMARK Flexibility Score: inf
ROOT
ATOM      1  C   UNL     1       8.488   8.425  -7.298  1.00  0.00     0.003 C 
ATOM      2  C   UNL     1       9.760   8.050  -7.111  1.00  0.00     0.000 C 
ENDROOT
BRANCH   1   3
ATOM      3  C   UNL     1       7.390   8.107  -6.338  1.00  0.00    -0.055 C 
ATOM      4  C   UNL     1       6.648  10.512  -6.274  1.00  0.00     0.036 C 
ATOM      5  C   UNL     1       6.559   9.066  -5.883  1.00  0.00    -0.027 C 
ATOM      6  C   UNL     1       7.176   6.687  -5.877  1.00  0.00     0.044 C 
ENDBRANCH   1   3
BRANCH   2   7
ATOM      7  C   UNL     1      10.804   8.397  -8.100  1.00  0.00    -0.001 C 
ATOM      8  C   UNL     1      12.045   7.876  -8.097  1.00  0.00    -0.076 C 
ATOM      9  C   UNL     1      12.487   6.873  -7.062  1.00  0.00     0.039 C 
ATOM     10  C   UNL     1      13.011   8.317  -9.162  1.00  0.00     0.039 C 
ENDBRANCH   2   7
TORSDOF 2
ENDMDL
