MODEL 1
REMARK VINA RESULT:    -5.785      0.000      0.000
REMARK INTER + INTRA:          -7.118
REMARK INTER:                  -6.800
REMARK INTRA:                  -0.318
REMARK UNBOUND:                -0.318
REMARK SMILES O=c1cc(-c2ccc(O)c(O)c2)oc2cc(O)cc(O)c12
REMARK SMILES IDX 4 1 3 2 2 3 1 4 21 5 19 6 18 7 16 8 15 9 14 10 13 11 5 12
REMARK SMILES IDX 6 13 7 14 8 15 12 16 10 17 9 18 11 20 20 22 17 24
REMARK H PARENT 9 19 11 21 20 23 17 25
REMARK Flexibility Score: inf
ROOT
ATOM      1  C   UNL     1       7.751   4.199 -14.763  1.00  0.00     0.138 A 
ATOM      2  C   UNL     1       6.648   4.814 -15.379  1.00  0.00     0.100 A 
ATOM      3  C   UNL     1       5.690   5.453 -14.592  1.00  0.00     0.197 A 
ATOM      4  O   UNL     1       4.703   6.001 -15.154  1.00  0.00    -0.289 OA
ATOM      5  C   UNL     1       5.841   5.470 -13.191  1.00  0.00     0.107 A 
ATOM      6  C   UNL     1       4.917   6.096 -12.320  1.00  0.00     0.134 A 
ATOM      7  C   UNL     1       5.136   6.065 -10.936  1.00  0.00     0.093 A 
ATOM      8  C   UNL     1       6.256   5.420 -10.406  1.00  0.00     0.123 A 
ATOM      9  C   UNL     1       7.172   4.799 -11.261  1.00  0.00     0.094 A 
ATOM     10  C   UNL     1       6.973   4.821 -12.644  1.00  0.00     0.146 A 
ATOM     11  O   UNL     1       7.859   4.225 -13.437  1.00  0.00    -0.456 OA
ENDROOT
BRANCH   1  12
ATOM     12  C   UNL     1       8.801   3.503 -15.551  1.00  0.00     0.021 A 
ATOM     13  C   UNL     1       8.676   3.424 -16.949  1.00  0.00     0.016 A 
ATOM     14  C   UNL     1       9.645   2.769 -17.712  1.00  0.00     0.051 A 
ATOM     15  C   UNL     1      10.750   2.175 -17.093  1.00  0.00     0.157 A 
ATOM     16  C   UNL     1       9.908   2.892 -14.932  1.00  0.00     0.062 A 
ATOM     17  C   UNL     1      10.880   2.233 -15.696  1.00  0.00     0.158 A 
BRANCH  15  18
ATOM     18  O   UNL     1      11.717   1.523 -17.858  1.00  0.00    -0.504 OA
ATOM     19  H   UNL     1      12.188   1.988 -18.626  1.00  0.00     0.293 HD
ENDBRANCH  15  18
BRANCH  17  20
ATOM     20  O   UNL     1      11.963   1.640 -15.048  1.00  0.00    -0.504 OA
ATOM     21  H   UNL     1      12.892   2.043 -15.073  1.00  0.00     0.293 HD
ENDBRANCH  17  20
ENDBRANCH   1  12
BRANCH   6  22
ATOM     22  O   UNL     1       3.788   6.749 -12.820  1.00  0.00    -0.507 OA
ATOM     23  H   UNL     1       3.848   7.402 -13.591  1.00  0.00     0.293 HD
ENDBRANCH   6  22
BRANCH   8  24
ATOM     24  O   UNL     1       6.450   5.403  -9.026  1.00  0.00    -0.508 OA
ATOM     25  H   UNL     1       7.146   4.806  -8.596  1.00  0.00     0.293 HD
ENDBRANCH   8  24
TORSDOF 5
ENDMDL
MODEL 2
REMARK VINA RESULT:    -5.591      6.234      9.304
REMARK INTER + INTRA:          -6.890
REMARK INTER:                  -6.617
REMARK INTRA:                  -0.274
REMARK UNBOUND:                -0.318
REMARK SMILES O=c1cc(-c2ccc(O)c(O)c2)oc2cc(O)cc(O)c12
REMARK SMILES IDX 4 1 3 2 2 3 1 4 21 5 19 6 18 7 16 8 15 9 14 10 13 11 5 12
REMARK SMILES IDX 6 13 7 14 8 15 12 16 10 17 9 18 11 20 20 22 17 24
REMARK H PARENT 9 19 11 21 20 23 17 25
REMARK Flexibility Score: inf
ROOT
ATOM      1  C   UNL     1       9.252   2.440  -7.619  1.00  0.00     0.138 A 
ATOM      2  C   UNL     1      10.140   2.948  -6.656  1.00  0.00     0.100 A 
ATOM      3  C   UNL     1      10.745   2.076  -5.751  1.00  0.00     0.197 A 
ATOM      4  O   UNL     1      11.539   2.542  -4.889  1.00  0.00    -0.289 OA
ATOM      5  C   UNL     1      10.455   0.698  -5.814  1.00  0.00     0.107 A 
ATOM      6  C   UNL     1      11.026  -0.254  -4.935  1.00  0.00     0.134 A 
ATOM      7  C   UNL     1      10.683  -1.607  -5.060  1.00  0.00     0.093 A 
ATOM      8  C   UNL     1       9.781  -2.027  -6.041  1.00  0.00     0.123 A 
ATOM      9  C   UNL     1       9.214  -1.090  -6.912  1.00  0.00     0.094 A 
ATOM     10  C   UNL     1       9.544   0.263  -6.805  1.00  0.00     0.146 A 
ATOM     11  O   UNL     1       8.993   1.135  -7.645  1.00  0.00    -0.456 OA
ENDROOT
BRANCH   1  12
ATOM     12  C   UNL     1       8.579   3.321  -8.606  1.00  0.00     0.021 A 
ATOM     13  C   UNL     1       8.643   3.002  -9.974  1.00  0.00     0.016 A 
ATOM     14  C   UNL     1       8.025   3.817 -10.924  1.00  0.00     0.051 A 
ATOM     15  C   UNL     1       7.339   4.971 -10.526  1.00  0.00     0.157 A 
ATOM     16  C   UNL     1       7.899   4.490  -8.214  1.00  0.00     0.062 A 
ATOM     17  C   UNL     1       7.280   5.310  -9.165  1.00  0.00     0.158 A 
BRANCH  15  18
ATOM     18  O   UNL     1       6.722   5.783 -11.477  1.00  0.00    -0.504 OA
ATOM     19  H   UNL     1       7.005   6.746 -11.617  1.00  0.00     0.293 HD
ENDBRANCH  15  18
BRANCH  17  20
ATOM     20  O   UNL     1       6.615   6.459  -8.738  1.00  0.00    -0.504 OA
ATOM     21  H   UNL     1       6.651   7.328  -9.258  1.00  0.00     0.293 HD
ENDBRANCH  17  20
ENDBRANCH   1  12
BRANCH   6  22
ATOM     22  O   UNL     1      11.930   0.134  -3.945  1.00  0.00    -0.507 OA
ATOM     23  H   UNL     1      12.815   0.573  -4.172  1.00  0.00     0.293 HD
ENDBRANCH   6  22
BRANCH   8  24
ATOM     24  O   UNL     1       9.456  -3.378  -6.143  1.00  0.00    -0.508 OA
ATOM     25  H   UNL     1       8.507  -3.682  -6.325  1.00  0.00     0.293 HD
ENDBRANCH   8  24
TORSDOF 5
ENDMDL
MODEL 3
REMARK VINA RESULT:    -5.572      3.206      5.461
REMARK INTER + INTRA:          -6.868
REMARK INTER:                  -6.550
REMARK INTRA:                  -0.318
REMARK UNBOUND:                -0.318
REMARK SMILES O=c1cc(-c2ccc(O)c(O)c2)oc2cc(O)cc(O)c12
REMARK SMILES IDX 4 1 3 2 2 3 1 4 21 5 19 6 18 7 16 8 15 9 14 10 13 11 5 12
REMARK SMILES IDX 6 13 7 14 8 15 12 16 10 17 9 18 11 20 20 22 17 24
REMARK H PARENT 9 19 11 21 20 23 17 25
REMARK Flexibility Score: inf
ROOT
ATOM      1  C   UNL     1      11.080   1.582 -18.212  1.00  0.00     0.138 A 
ATOM      2  C   UNL     1      10.266   2.453 -18.954  1.00  0.00     0.100 A 
ATOM      3  C   UNL     1       9.235   3.143 -18.314  1.00  0.00     0.197 A 
ATOM      4  O   UNL     1       8.508   3.921 -18.989  1.00  0.00    -0.289 OA
ATOM      5  C   UNL     1       9.025   2.954 -16.933  1.00  0.00     0.107 A 
ATOM      6  C   UNL     1       8.005   3.614 -16.208  1.00  0.00     0.134 A 
ATOM      7  C   UNL     1       7.858   3.368 -14.836  1.00  0.00     0.093 A 
ATOM      8  C   UNL     1       8.707   2.476 -14.176  1.00  0.00     0.123 A 
ATOM      9  C   UNL     1       9.717   1.820 -14.889  1.00  0.00     0.094 A 
ATOM     10  C   UNL     1       9.881   2.053 -16.256  1.00  0.00     0.146 A 
ATOM     11  O   UNL     1      10.850   1.419 -16.911  1.00  0.00    -0.456 OA
ENDROOT
BRANCH   1  12
ATOM     12  C   UNL     1      12.191   0.822 -18.840  1.00  0.00     0.021 A 
ATOM     13  C   UNL     1      12.355   0.867 -20.235  1.00  0.00     0.016 A 
ATOM     14  C   UNL     1      13.387   0.156 -20.852  1.00  0.00     0.051 A 
ATOM     15  C   UNL     1      14.266  -0.621 -20.089  1.00  0.00     0.157 A 
ATOM     16  C   UNL     1      13.070   0.028 -18.078  1.00  0.00     0.062 A 
ATOM     17  C   UNL     1      14.103  -0.687 -18.695  1.00  0.00     0.158 A 
BRANCH  15  18
ATOM     18  O   UNL     1      15.295  -1.328 -20.707  1.00  0.00    -0.504 OA
ATOM     19  H   UNL     1      15.138  -2.241 -21.120  1.00  0.00     0.293 HD
ENDBRANCH  15  18
BRANCH  17  20
ATOM     20  O   UNL     1      14.954  -1.462 -17.908  1.00  0.00    -0.504 OA
ATOM     21  H   UNL     1      14.657  -2.336 -17.491  1.00  0.00     0.293 HD
ENDBRANCH  17  20
ENDBRANCH   1  12
BRANCH   6  22
ATOM     22  O   UNL     1       7.141   4.511 -16.838  1.00  0.00    -0.507 OA
ATOM     23  H   UNL     1       7.255   4.766 -17.812  1.00  0.00     0.293 HD
ENDBRANCH   6  22
BRANCH   8  24
ATOM     24  O   UNL     1       8.539   2.248 -12.812  1.00  0.00    -0.508 OA
ATOM     25  H   UNL     1       9.278   2.443 -12.147  1.00  0.00     0.293 HD
ENDBRANCH   8  24
TORSDOF 5
ENDMDL
MODEL 4
REMARK VINA RESULT:    -5.512      1.391      6.744
REMARK INTER + INTRA:          -6.797
REMARK INTER:                  -6.481
REMARK INTRA:                  -0.316
REMARK UNBOUND:                -0.318
REMARK SMILES O=c1cc(-c2ccc(O)c(O)c2)oc2cc(O)cc(O)c12
REMARK SMILES IDX 4 1 3 2 2 3 1 4 21 5 19 6 18 7 16 8 15 9 14 10 13 11 5 12
REMARK SMILES IDX 6 13 7 14 8 15 12 16 10 17 9 18 11 20 20 22 17 24
REMARK H PARENT 9 19 11 21 20 23 17 25
REMARK Flexibility Score: inf
ROOT
ATOM      1  C   UNL     1       7.168   4.477 -14.262  1.00  0.00     0.138 A 
ATOM      2  C   UNL     1       6.723   4.463 -15.595  1.00  0.00     0.100 A 
ATOM      3  C   UNL     1       7.493   3.827 -16.569  1.00  0.00     0.197 A 
ATOM      4  O   UNL     1       7.086   3.821 -17.763  1.00  0.00    -0.289 OA
ATOM      5  C   UNL     1       8.706   3.211 -16.203  1.00  0.00     0.107 A 
ATOM      6  C   UNL     1       9.546   2.545 -17.128  1.00  0.00     0.134 A 
ATOM      7  C   UNL     1      10.741   1.961 -16.685  1.00  0.00     0.093 A 
ATOM      8  C   UNL     1      11.113   2.031 -15.340  1.00  0.00     0.123 A 
ATOM      9  C   UNL     1      10.288   2.689 -14.422  1.00  0.00     0.094 A 
ATOM     10  C   UNL     1       9.092   3.276 -14.843  1.00  0.00     0.146 A 
ATOM     11  O   UNL     1       8.322   3.894 -13.952  1.00  0.00    -0.456 OA
ENDROOT
BRANCH   1  12
ATOM     12  C   UNL     1       6.390   5.139 -13.184  1.00  0.00     0.021 A 
ATOM     13  C   UNL     1       5.339   6.009 -13.525  1.00  0.00     0.016 A 
ATOM     14  C   UNL     1       4.597   6.650 -12.531  1.00  0.00     0.051 A 
ATOM     15  C   UNL     1       4.896   6.441 -11.179  1.00  0.00     0.157 A 
ATOM     16  C   UNL     1       6.695   4.944 -11.823  1.00  0.00     0.062 A 
ATOM     17  C   UNL     1       5.953   5.587 -10.825  1.00  0.00     0.158 A 
BRANCH  15  18
ATOM     18  O   UNL     1       4.152   7.081 -10.189  1.00  0.00    -0.504 OA
ATOM     19  H   UNL     1       3.547   6.564  -9.562  1.00  0.00     0.293 HD
ENDBRANCH  15  18
BRANCH  17  20
ATOM     20  O   UNL     1       6.284   5.368  -9.488  1.00  0.00    -0.504 OA
ATOM     21  H   UNL     1       6.958   4.666  -9.208  1.00  0.00     0.293 HD
ENDBRANCH  17  20
ENDBRANCH   1  12
BRANCH   6  22
ATOM     22  O   UNL     1       9.201   2.458 -18.477  1.00  0.00    -0.507 OA
ATOM     23  H   UNL     1       9.718   2.955 -19.193  1.00  0.00     0.293 HD
ENDBRANCH   6  22
BRANCH   8  24
ATOM     24  O   UNL     1      12.307   1.443 -14.926  1.00  0.00    -0.508 OA
ATOM     25  H   UNL     1      12.868   1.846 -14.185  1.00  0.00     0.293 HD
ENDBRANCH   8  24
TORSDOF 5
ENDMDL
MODEL 5
REMARK VINA RESULT:    -5.496      4.700      7.516
REMARK INTER + INTRA:          -6.778
REMARK INTER:                  -6.500
REMARK INTRA:                  -0.278
REMARK UNBOUND:                -0.318
REMARK SMILES O=c1cc(-c2ccc(O)c(O)c2)oc2cc(O)cc(O)c12
REMARK SMILES IDX 4 1 3 2 2 3 1 4 21 5 19 6 18 7 16 8 15 9 14 10 13 11 5 12
REMARK SMILES IDX 6 13 7 14 8 15 12 16 10 17 9 18 11 20 20 22 17 24
REMARK H PARENT 9 19 11 21 20 23 17 25
REMARK Flexibility Score: inf
ROOT
ATOM      1  C   UNL     1       8.762   2.978  -8.511  1.00  0.00     0.138 A 
ATOM      2  C   UNL     1       8.088   4.158  -8.155  1.00  0.00     0.100 A 
ATOM      3  C   UNL     1       7.487   4.932  -9.148  1.00  0.00     0.197 A 
ATOM      4  O   UNL     1       6.886   5.990  -8.819  1.00  0.00    -0.289 OA
ATOM      5  C   UNL     1       7.568   4.520 -10.494  1.00  0.00     0.107 A 
ATOM      6  C   UNL     1       6.986   5.245 -11.561  1.00  0.00     0.134 A 
ATOM      7  C   UNL     1       7.115   4.771 -12.874  1.00  0.00     0.093 A 
ATOM      8  C   UNL     1       7.813   3.591 -13.141  1.00  0.00     0.123 A 
ATOM      9  C   UNL     1       8.390   2.871 -12.090  1.00  0.00     0.094 A 
ATOM     10  C   UNL     1       8.272   3.326 -10.774  1.00  0.00     0.146 A 
ATOM     11  O   UNL     1       8.827   2.622  -9.791  1.00  0.00    -0.456 OA
ENDROOT
BRANCH   1  12
ATOM     12  C   UNL     1       9.421   2.116  -7.496  1.00  0.00     0.021 A 
ATOM     13  C   UNL     1       9.242   0.723  -7.553  1.00  0.00     0.016 A 
ATOM     14  C   UNL     1       9.844  -0.110  -6.607  1.00  0.00     0.051 A 
ATOM     15  C   UNL     1      10.627   0.435  -5.583  1.00  0.00     0.157 A 
ATOM     16  C   UNL     1      10.199   2.659  -6.455  1.00  0.00     0.062 A 
ATOM     17  C   UNL     1      10.802   1.826  -5.505  1.00  0.00     0.158 A 
BRANCH  15  18
ATOM     18  O   UNL     1      11.228  -0.399  -4.641  1.00  0.00    -0.504 OA
ATOM     19  H   UNL     1      11.370  -0.102  -3.682  1.00  0.00     0.293 HD
ENDBRANCH  15  18
BRANCH  17  20
ATOM     20  O   UNL     1      11.566   2.400  -4.489  1.00  0.00    -0.504 OA
ATOM     21  H   UNL     1      12.555   2.206  -4.384  1.00  0.00     0.293 HD
ENDBRANCH  17  20
ENDBRANCH   1  12
BRANCH   6  22
ATOM     22  O   UNL     1       6.282   6.428 -11.327  1.00  0.00    -0.507 OA
ATOM     23  H   UNL     1       5.665   6.532 -10.530  1.00  0.00     0.293 HD
ENDBRANCH   6  22
BRANCH   8  24
ATOM     24  O   UNL     1       7.927   3.142 -14.455  1.00  0.00    -0.508 OA
ATOM     25  H   UNL     1       8.735   3.365 -15.023  1.00  0.00     0.293 HD
ENDBRANCH   8  24
TORSDOF 5
ENDMDL
MODEL 6
REMARK VINA RESULT:    -5.386      1.698      7.189
REMARK INTER + INTRA:          -6.649
REMARK INTER:                  -6.359
REMARK INTRA:                  -0.291
REMARK UNBOUND:                -0.318
REMARK SMILES O=c1cc(-c2ccc(O)c(O)c2)oc2cc(O)cc(O)c12
REMARK SMILES IDX 4 1 3 2 2 3 1 4 21 5 19 6 18 7 16 8 15 9 14 10 13 11 5 12
REMARK SMILES IDX 6 13 7 14 8 15 12 16 10 17 9 18 11 20 20 22 17 24
REMARK H PARENT 9 19 11 21 20 23 17 25
REMARK Flexibility Score: inf
ROOT
ATOM      1  C   UNL     1       7.439   4.473 -14.063  1.00  0.00     0.138 A 
ATOM      2  C   UNL     1       8.247   3.361 -13.774  1.00  0.00     0.100 A 
ATOM      3  C   UNL     1       9.075   2.837 -14.767  1.00  0.00     0.197 A 
ATOM      4  O   UNL     1       9.796   1.838 -14.498  1.00  0.00    -0.289 OA
ATOM      5  C   UNL     1       9.087   3.429 -16.046  1.00  0.00     0.107 A 
ATOM      6  C   UNL     1       9.898   2.961 -17.108  1.00  0.00     0.134 A 
ATOM      7  C   UNL     1       9.848   3.603 -18.353  1.00  0.00     0.093 A 
ATOM      8  C   UNL     1       9.006   4.698 -18.558  1.00  0.00     0.123 A 
ATOM      9  C   UNL     1       8.203   5.164 -17.512  1.00  0.00     0.094 A 
ATOM     10  C   UNL     1       8.238   4.540 -16.263  1.00  0.00     0.146 A 
ATOM     11  O   UNL     1       7.467   5.002 -15.283  1.00  0.00    -0.456 OA
ENDROOT
BRANCH   1  12
ATOM     12  C   UNL     1       6.537   5.071 -13.045  1.00  0.00     0.021 A 
ATOM     13  C   UNL     1       5.411   5.801 -13.465  1.00  0.00     0.016 A 
ATOM     14  C   UNL     1       4.551   6.380 -12.529  1.00  0.00     0.051 A 
ATOM     15  C   UNL     1       4.806   6.249 -11.159  1.00  0.00     0.157 A 
ATOM     16  C   UNL     1       6.796   4.954 -11.666  1.00  0.00     0.062 A 
ATOM     17  C   UNL     1       5.936   5.536 -10.726  1.00  0.00     0.158 A 
BRANCH  15  18
ATOM     18  O   UNL     1       3.945   6.827 -10.227  1.00  0.00    -0.504 OA
ATOM     19  H   UNL     1       3.988   6.586  -9.243  1.00  0.00     0.293 HD
ENDBRANCH  15  18
BRANCH  17  20
ATOM     20  O   UNL     1       6.224   5.399  -9.369  1.00  0.00    -0.504 OA
ATOM     21  H   UNL     1       6.170   6.178  -8.725  1.00  0.00     0.293 HD
ENDBRANCH  17  20
ENDBRANCH   1  12
BRANCH   6  22
ATOM     22  O   UNL     1      10.749   1.869 -16.934  1.00  0.00    -0.507 OA
ATOM     23  H   UNL     1      11.100   1.336 -17.721  1.00  0.00     0.293 HD
ENDBRANCH   6  22
BRANCH   8  24
ATOM     24  O   UNL     1       8.975   5.317 -19.806  1.00  0.00    -0.508 OA
ATOM     25  H   UNL     1       8.389   6.124 -19.983  1.00  0.00     0.293 HD
ENDBRANCH   8  24
TORSDOF 5
ENDMDL
MODEL 7
REMARK VINA RESULT:    -5.248      3.480      6.003
REMARK INTER + INTRA:          -6.487
REMARK INTER:                  -6.193
REMARK INTRA:                  -0.294
REMARK UNBOUND:                -0.318
REMARK SMILES O=c1cc(-c2ccc(O)c(O)c2)oc2cc(O)cc(O)c12
REMARK SMILES IDX 4 1 3 2 2 3 1 4 21 5 19 6 18 7 16 8 15 9 14 10 13 11 5 12
REMARK SMILES IDX 6 13 7 14 8 15 12 16 10 17 9 18 11 20 20 22 17 24
REMARK H PARENT 9 19 11 21 20 23 17 25
REMARK Flexibility Score: inf
ROOT
ATOM      1  C   UNL     1      11.080   1.435 -17.685  1.00  0.00     0.138 A 
ATOM      2  C   UNL     1      11.179   1.639 -16.299  1.00  0.00     0.100 A 
ATOM      3  C   UNL     1      10.141   2.282 -15.624  1.00  0.00     0.197 A 
ATOM      4  O   UNL     1      10.239   2.462 -14.379  1.00  0.00    -0.289 OA
ATOM      5  C   UNL     1       9.010   2.719 -16.342  1.00  0.00     0.107 A 
ATOM      6  C   UNL     1       7.914   3.377 -15.735  1.00  0.00     0.134 A 
ATOM      7  C   UNL     1       6.827   3.786 -16.521  1.00  0.00     0.093 A 
ATOM      8  C   UNL     1       6.815   3.551 -17.898  1.00  0.00     0.123 A 
ATOM      9  C   UNL     1       7.896   2.901 -18.503  1.00  0.00     0.094 A 
ATOM     10  C   UNL     1       8.988   2.485 -17.737  1.00  0.00     0.146 A 
ATOM     11  O   UNL     1      10.003   1.867 -18.335  1.00  0.00    -0.456 OA
ENDROOT
BRANCH   1  12
ATOM     12  C   UNL     1      12.155   0.757 -18.455  1.00  0.00     0.021 A 
ATOM     13  C   UNL     1      12.201   0.906 -19.852  1.00  0.00     0.016 A 
ATOM     14  C   UNL     1      13.197   0.275 -20.601  1.00  0.00     0.051 A 
ATOM     15  C   UNL     1      14.157  -0.525 -19.969  1.00  0.00     0.157 A 
ATOM     16  C   UNL     1      13.115  -0.059 -17.827  1.00  0.00     0.062 A 
ATOM     17  C   UNL     1      14.112  -0.695 -18.576  1.00  0.00     0.158 A 
BRANCH  15  18
ATOM     18  O   UNL     1      15.150  -1.153 -20.719  1.00  0.00    -0.504 OA
ATOM     19  H   UNL     1      14.977  -1.476 -21.665  1.00  0.00     0.293 HD
ENDBRANCH  15  18
BRANCH  17  20
ATOM     20  O   UNL     1      15.047  -1.494 -17.919  1.00  0.00    -0.504 OA
ATOM     21  H   UNL     1      15.233  -1.402 -16.927  1.00  0.00     0.293 HD
ENDBRANCH  17  20
ENDBRANCH   1  12
BRANCH   6  22
ATOM     22  O   UNL     1       7.896   3.626 -14.362  1.00  0.00    -0.507 OA
ATOM     23  H   UNL     1       8.347   3.004 -13.701  1.00  0.00     0.293 HD
ENDBRANCH   6  22
BRANCH   8  24
ATOM     24  O   UNL     1       5.723   3.968 -18.657  1.00  0.00    -0.508 OA
ATOM     25  H   UNL     1       5.349   3.397 -19.406  1.00  0.00     0.293 HD
ENDBRANCH   8  24
TORSDOF 5
ENDMDL
MODEL 8
REMARK VINA RESULT:    -5.091      1.579      3.217
REMARK INTER + INTRA:          -6.302
REMARK INTER:                  -5.998
REMARK INTRA:                  -0.304
REMARK UNBOUND:                -0.318
REMARK SMILES O=c1cc(-c2ccc(O)c(O)c2)oc2cc(O)cc(O)c12
REMARK SMILES IDX 4 1 3 2 2 3 1 4 21 5 19 6 18 7 16 8 15 9 14 10 13 11 5 12
REMARK SMILES IDX 6 13 7 14 8 15 12 16 10 17 9 18 11 20 20 22 17 24
REMARK H PARENT 9 19 11 21 20 23 17 25
REMARK Flexibility Score: inf
ROOT
ATOM      1  C   UNL     1       7.289   4.541 -13.787  1.00  0.00     0.138 A 
ATOM      2  C   UNL     1       7.518   4.676 -12.408  1.00  0.00     0.100 A 
ATOM      3  C   UNL     1       6.641   5.439 -11.637  1.00  0.00     0.197 A 
ATOM      4  O   UNL     1       6.856   5.556 -10.400  1.00  0.00    -0.289 OA
ATOM      5  C   UNL     1       5.539   6.066 -12.253  1.00  0.00     0.107 A 
ATOM      6  C   UNL     1       4.602   6.855 -11.545  1.00  0.00     0.134 A 
ATOM      7  C   UNL     1       3.534   7.449 -12.233  1.00  0.00     0.093 A 
ATOM      8  C   UNL     1       3.387   7.272 -13.611  1.00  0.00     0.123 A 
ATOM      9  C   UNL     1       4.310   6.492 -14.315  1.00  0.00     0.094 A 
ATOM     10  C   UNL     1       5.380   5.890 -13.648  1.00  0.00     0.146 A 
ATOM     11  O   UNL     1       6.244   5.153 -14.340  1.00  0.00    -0.456 OA
ENDROOT
BRANCH   1  12
ATOM     12  C   UNL     1       8.189   3.742 -14.657  1.00  0.00     0.021 A 
ATOM     13  C   UNL     1       8.828   2.605 -14.130  1.00  0.00     0.016 A 
ATOM     14  C   UNL     1       9.685   1.840 -14.924  1.00  0.00     0.051 A 
ATOM     15  C   UNL     1       9.928   2.202 -16.255  1.00  0.00     0.157 A 
ATOM     16  C   UNL     1       8.448   4.108 -15.992  1.00  0.00     0.062 A 
ATOM     17  C   UNL     1       9.309   3.344 -16.789  1.00  0.00     0.158 A 
BRANCH  15  18
ATOM     18  O   UNL     1      10.783   1.436 -17.045  1.00  0.00    -0.504 OA
ATOM     19  H   UNL     1      11.751   1.281 -16.784  1.00  0.00     0.293 HD
ENDBRANCH  15  18
BRANCH  17  20
ATOM     20  O   UNL     1       9.539   3.737 -18.106  1.00  0.00    -0.504 OA
ATOM     21  H   UNL     1      10.008   3.137 -18.774  1.00  0.00     0.293 HD
ENDBRANCH  17  20
ENDBRANCH   1  12
BRANCH   6  22
ATOM     22  O   UNL     1       4.723   7.052 -10.169  1.00  0.00    -0.507 OA
ATOM     23  H   UNL     1       5.602   6.912  -9.685  1.00  0.00     0.293 HD
ENDBRANCH   6  22
BRANCH   8  24
ATOM     24  O   UNL     1       2.317   7.874 -14.270  1.00  0.00    -0.508 OA
ATOM     25  H   UNL     1       2.101   8.855 -14.144  1.00  0.00     0.293 HD
ENDBRANCH   8  24
TORSDOF 5
ENDMDL
MODEL 9
REMARK VINA RESULT:    -4.993      2.801      8.657
REMARK INTER + INTRA:          -6.187
REMARK INTER:                  -5.896
REMARK INTRA:                  -0.291
REMARK UNBOUND:                -0.318
REMARK SMILES O=c1cc(-c2ccc(O)c(O)c2)oc2cc(O)cc(O)c12
REMARK SMILES IDX 4 1 3 2 2 3 1 4 21 5 19 6 18 7 16 8 15 9 14 10 13 11 5 12
REMARK SMILES IDX 6 13 7 14 8 15 12 16 10 17 9 18 11 20 20 22 17 24
REMARK H PARENT 9 19 11 21 20 23 17 25
REMARK Flexibility Score: inf
ROOT
ATOM      1  C   UNL     1      10.612   1.946 -17.116  1.00  0.00     0.138 A 
ATOM      2  C   UNL     1      10.495   2.209 -18.491  1.00  0.00     0.100 A 
ATOM      3  C   UNL     1      11.359   1.579 -19.387  1.00  0.00     0.197 A 
ATOM      4  O   UNL     1      11.248   1.822 -20.619  1.00  0.00    -0.289 OA
ATOM      5  C   UNL     1      12.339   0.690 -18.899  1.00  0.00     0.107 A 
ATOM      6  C   UNL     1      13.253   0.009 -19.739  1.00  0.00     0.134 A 
ATOM      7  C   UNL     1      14.201  -0.856 -19.175  1.00  0.00     0.093 A 
ATOM      8  C   UNL     1      14.255  -1.052 -17.793  1.00  0.00     0.123 A 
ATOM      9  C   UNL     1      13.354  -0.382 -16.959  1.00  0.00     0.094 A 
ATOM     10  C   UNL     1      12.400   0.483 -17.501  1.00  0.00     0.146 A 
ATOM     11  O   UNL     1      11.553   1.108 -16.688  1.00  0.00    -0.456 OA
ENDROOT
BRANCH   1  12
ATOM     12  C   UNL     1       9.721   2.588 -16.117  1.00  0.00     0.021 A 
ATOM     13  C   UNL     1       9.511   1.963 -14.875  1.00  0.00     0.016 A 
ATOM     14  C   UNL     1       8.672   2.542 -13.921  1.00  0.00     0.051 A 
ATOM     15  C   UNL     1       8.020   3.751 -14.193  1.00  0.00     0.157 A 
ATOM     16  C   UNL     1       9.051   3.797 -16.390  1.00  0.00     0.062 A 
ATOM     17  C   UNL     1       8.208   4.378 -15.435  1.00  0.00     0.158 A 
BRANCH  15  18
ATOM     18  O   UNL     1       7.184   4.327 -13.238  1.00  0.00    -0.504 OA
ATOM     19  H   UNL     1       6.177   4.208 -13.272  1.00  0.00     0.293 HD
ENDBRANCH  15  18
BRANCH  17  20
ATOM     20  O   UNL     1       7.563   5.576 -15.741  1.00  0.00    -0.504 OA
ATOM     21  H   UNL     1       6.618   5.602 -16.104  1.00  0.00     0.293 HD
ENDBRANCH  17  20
ENDBRANCH   1  12
BRANCH   6  22
ATOM     22  O   UNL     1      13.224   0.184 -21.123  1.00  0.00    -0.507 OA
ATOM     23  H   UNL     1      12.903  -0.547 -21.747  1.00  0.00     0.293 HD
ENDBRANCH   6  22
BRANCH   8  24
ATOM     24  O   UNL     1      15.208  -1.917 -17.258  1.00  0.00    -0.508 OA
ATOM     25  H   UNL     1      15.495  -1.855 -16.289  1.00  0.00     0.293 HD
ENDBRANCH   8  24
TORSDOF 5
ENDMDL
