MODEL 1
REMARK VINA RESULT:    -4.521      0.000      0.000
REMARK INTER + INTRA:          -6.031
REMARK INTER:                  -6.371
REMARK INTRA:                   0.340
REMARK UNBOUND:                 0.340
REMARK SMILES CC1=CCC(=C(C)C)C(=O)CC(C)=CCC1
REMARK SMILES IDX 12 1 14 2 13 3 15 4 16 5 2 6 1 7 3 8 11 10 9 11 10 12 5 13
REMARK SMILES IDX 6 14 7 15 8 16 4 17
REMARK H PARENT
REMARK Flexibility Score: 60.00
ROOT
ATOM      1  C   UNL     1      -3.964  -2.796  -2.087  1.00  0.00    -0.070 C 
ATOM      2  C   UNL     1      -2.631  -2.972  -2.251  1.00  0.00    -0.027 C 
ATOM      3  C   UNL     1      -4.873  -3.919  -2.526  1.00  0.00     0.039 C 
ENDROOT
BRANCH   2   4
ATOM      4  C   UNL     1      -1.543  -2.033  -1.790  1.00  0.00     0.032 C 
BRANCH   4   5
ATOM      5  C   UNL     1      -1.299  -2.109  -0.271  1.00  0.00     0.034 C 
BRANCH   5   6
ATOM      6  C   UNL     1      -1.279  -0.739   0.376  1.00  0.00    -0.077 C 
ATOM      7  C   UNL     1      -0.188   0.224  -0.022  1.00  0.00     0.039 C 
ATOM      8  C   UNL     1      -2.168  -0.336   1.311  1.00  0.00    -0.023 CG0
ATOM      9  G   UNL     1      -3.304  -1.164   1.862  1.00  0.00     0.000 G0
ENDBRANCH   5   6
ENDBRANCH   4   5
ENDBRANCH   2   4
BRANCH   1  10
ATOM     10  C   UNL     1      -4.581  -1.572  -1.433  1.00  0.00     0.111 C 
BRANCH  10  11
ATOM     11  C   UNL     1      -4.938  -1.834   0.010  1.00  0.00     0.163 C 
ATOM     12  O   UNL     1      -5.588  -2.880   0.280  1.00  0.00    -0.294 OA
BRANCH  11  13
ATOM     13  C   UNL     1      -4.588  -0.870   1.100  1.00  0.00    -0.002 C 
ATOM     14  C   UNL     1      -5.405   0.178   1.422  1.00  0.00    -0.069 C 
ATOM     15  C   UNL     1      -5.026   1.171   2.499  1.00  0.00     0.039 C 
ATOM     16  C   UNL     1      -6.742   0.377   0.745  1.00  0.00     0.039 C 
BRANCH  13  17
ATOM     17  C   UNL     1      -3.319  -1.148   1.886  1.00  0.00     0.066 CG0
ATOM     18  G   UNL     1      -2.178  -0.341   1.318  1.00  0.00     0.000 G0
ENDBRANCH  13  17
ENDBRANCH  11  13
ENDBRANCH  10  11
ENDBRANCH   1  10
TORSDOF 0
ENDMDL
MODEL 2
REMARK VINA RESULT:    -4.268      1.686      4.057
REMARK INTER + INTRA:          -5.675
REMARK INTER:                  -6.023
REMARK INTRA:                   0.348
REMARK UNBOUND:                 0.340
REMARK SMILES CC1=CCC(=C(C)C)C(=O)CC(C)=CCC1
REMARK SMILES IDX 12 1 14 2 13 3 15 4 16 5 2 6 1 7 3 8 11 10 9 11 10 12 5 13
REMARK SMILES IDX 6 14 7 15 8 16 4 17
REMARK H PARENT
REMARK Flexibility Score: 60.00
ROOT
ATOM      1  C   UNL     1      -3.917   0.480   1.959  1.00  0.00    -0.070 C 
ATOM      2  C   UNL     1      -2.599   0.715   2.167  1.00  0.00    -0.027 C 
ATOM      3  C   UNL     1      -4.884   1.586   2.308  1.00  0.00     0.039 C 
ENDROOT
BRANCH   2   4
ATOM      4  C   UNL     1      -1.459  -0.201   1.795  1.00  0.00     0.032 C 
BRANCH   4   5
ATOM      5  C   UNL     1      -1.107  -0.131   0.297  1.00  0.00     0.034 C 
BRANCH   5   6
ATOM      6  C   UNL     1      -1.010  -1.506  -0.334  1.00  0.00    -0.077 C 
ATOM      7  C   UNL     1       0.113  -2.415   0.100  1.00  0.00     0.039 C 
ATOM      8  C   UNL     1      -1.859  -1.957  -1.285  1.00  0.00    -0.023 CG0
ATOM      9  G   UNL     1      -3.016  -1.186  -1.871  1.00  0.00     0.000 G0
ENDBRANCH   5   6
ENDBRANCH   4   5
ENDBRANCH   2   4
BRANCH   1  10
ATOM     10  C   UNL     1      -4.461  -0.796   1.340  1.00  0.00     0.111 C 
BRANCH  10  11
ATOM     11  C   UNL     1      -4.793  -0.607  -0.120  1.00  0.00     0.163 C 
ATOM     12  O   UNL     1      -5.533   0.361  -0.439  1.00  0.00    -0.294 OA
BRANCH  11  13
ATOM     13  C   UNL     1      -4.313  -1.558  -1.171  1.00  0.00    -0.002 C 
ATOM     14  C   UNL     1      -5.036  -2.664  -1.524  1.00  0.00    -0.069 C 
ATOM     15  C   UNL     1      -4.526  -3.642  -2.560  1.00  0.00     0.039 C 
ATOM     16  C   UNL     1      -6.395  -2.947  -0.923  1.00  0.00     0.039 C 
BRANCH  13  17
ATOM     17  C   UNL     1      -3.021  -1.203  -1.886  1.00  0.00     0.066 CG0
ATOM     18  G   UNL     1      -1.872  -1.966  -1.274  1.00  0.00     0.000 G0
ENDBRANCH  13  17
ENDBRANCH  11  13
ENDBRANCH  10  11
ENDBRANCH   1  10
TORSDOF 0
ENDMDL
MODEL 3
REMARK VINA RESULT:    -4.138      2.025      4.777
REMARK INTER + INTRA:          -5.492
REMARK INTER:                  -6.070
REMARK INTRA:                   0.578
REMARK UNBOUND:                 0.340
REMARK SMILES CC1=CCC(=C(C)C)C(=O)CC(C)=CCC1
REMARK SMILES IDX 12 1 14 2 13 3 15 4 16 5 2 6 1 7 3 8 11 10 9 11 10 12 5 13
REMARK SMILES IDX 6 14 7 15 8 16 4 17
REMARK H PARENT
REMARK Flexibility Score: 60.00
ROOT
ATOM      1  C   UNL     1      -4.678   0.334   1.579  1.00  0.00    -0.070 C 
ATOM      2  C   UNL     1      -5.397   0.481   0.441  1.00  0.00    -0.027 C 
ATOM      3  C   UNL     1      -4.939   1.313   2.698  1.00  0.00     0.039 C 
ENDROOT
BRANCH   2   4
ATOM      4  C   UNL     1      -5.375  -0.440  -0.754  1.00  0.00     0.032 C 
BRANCH   4   5
ATOM      5  C   UNL     1      -4.005  -0.467  -1.456  1.00  0.00     0.034 C 
BRANCH   5   6
ATOM      6  C   UNL     1      -3.430  -1.868  -1.537  1.00  0.00    -0.077 C 
ATOM      7  C   UNL     1      -4.313  -2.975  -2.057  1.00  0.00     0.039 C 
ATOM      8  C   UNL     1      -2.177  -2.189  -1.144  1.00  0.00    -0.023 CG0
ATOM      9  G   UNL     1      -1.161  -1.233  -0.567  1.00  0.00     0.000 G0
ENDBRANCH   5   6
ENDBRANCH   4   5
ENDBRANCH   2   4
BRANCH   1  10
ATOM     10  C   UNL     1      -3.683  -0.790   1.811  1.00  0.00     0.111 C 
BRANCH  10  11
ATOM     11  C   UNL     1      -2.264  -0.334   1.576  1.00  0.00     0.163 C 
ATOM     12  O   UNL     1      -1.965   0.853   1.878  1.00  0.00    -0.294 OA
BRANCH  11  13
ATOM     13  C   UNL     1      -1.237  -1.227   0.954  1.00  0.00    -0.002 C 
ATOM     14  C   UNL     1      -0.451  -2.053   1.709  1.00  0.00    -0.069 C 
ATOM     15  C   UNL     1       0.611  -2.925   1.077  1.00  0.00     0.039 C 
ATOM     16  C   UNL     1      -0.627  -2.162   3.207  1.00  0.00     0.039 C 
BRANCH  13  17
ATOM     17  C   UNL     1      -1.156  -1.235  -0.562  1.00  0.00     0.066 CG0
ATOM     18  G   UNL     1      -2.184  -2.186  -1.125  1.00  0.00     0.000 G0
ENDBRANCH  13  17
ENDBRANCH  11  13
ENDBRANCH  10  11
ENDBRANCH   1  10
TORSDOF 0
ENDMDL
MODEL 4
REMARK VINA RESULT:    -4.062      1.520      3.752
REMARK INTER + INTRA:          -5.385
REMARK INTER:                  -5.930
REMARK INTRA:                   0.545
REMARK UNBOUND:                 0.340
REMARK SMILES CC1=CCC(=C(C)C)C(=O)CC(C)=CCC1
REMARK SMILES IDX 12 1 14 2 13 3 15 4 16 5 2 6 1 7 3 8 11 10 9 11 10 12 5 13
REMARK SMILES IDX 6 14 7 15 8 16 4 17
REMARK H PARENT
REMARK Flexibility Score: 60.00
ROOT
ATOM      1  C   UNL     1      -4.830  -2.884  -2.144  1.00  0.00    -0.070 C 
ATOM      2  C   UNL     1      -5.991  -2.867  -1.447  1.00  0.00    -0.027 C 
ATOM      3  C   UNL     1      -4.542  -4.102  -2.988  1.00  0.00     0.039 C 
ENDROOT
BRANCH   2   4
ATOM      4  C   UNL     1      -6.526  -1.716  -0.630  1.00  0.00     0.032 C 
BRANCH   4   5
ATOM      5  C   UNL     1      -6.016  -1.734   0.823  1.00  0.00     0.034 C 
BRANCH   5   6
ATOM      6  C   UNL     1      -5.200  -0.502   1.159  1.00  0.00    -0.077 C 
ATOM      7  C   UNL     1      -5.930   0.796   1.400  1.00  0.00     0.039 C 
ATOM      8  C   UNL     1      -3.850  -0.492   1.230  1.00  0.00    -0.023 CG0
ATOM      9  G   UNL     1      -2.945  -1.675   0.988  1.00  0.00     0.000 G0
ENDBRANCH   5   6
ENDBRANCH   4   5
ENDBRANCH   2   4
BRANCH   1  10
ATOM     10  C   UNL     1      -3.845  -1.727  -2.174  1.00  0.00     0.111 C 
BRANCH  10  11
ATOM     11  C   UNL     1      -2.539  -2.093  -1.512  1.00  0.00     0.163 C 
ATOM     12  O   UNL     1      -1.842  -3.003  -2.037  1.00  0.00    -0.294 OA
BRANCH  11  13
ATOM     13  C   UNL     1      -2.087  -1.446  -0.240  1.00  0.00    -0.002 C 
ATOM     14  C   UNL     1      -0.994  -0.625  -0.201  1.00  0.00    -0.069 C 
ATOM     15  C   UNL     1      -0.521  -0.005   1.096  1.00  0.00     0.039 C 
ATOM     16  C   UNL     1      -0.226  -0.267  -1.453  1.00  0.00     0.039 C 
BRANCH  13  17
ATOM     17  C   UNL     1      -2.939  -1.681   0.994  1.00  0.00     0.066 CG0
ATOM     18  G   UNL     1      -3.839  -0.491   1.228  1.00  0.00     0.000 G0
ENDBRANCH  13  17
ENDBRANCH  11  13
ENDBRANCH  10  11
ENDBRANCH   1  10
TORSDOF 0
ENDMDL
MODEL 5
REMARK VINA RESULT:    -4.061      1.879      3.791
REMARK INTER + INTRA:          -5.384
REMARK INTER:                  -6.155
REMARK INTRA:                   0.772
REMARK UNBOUND:                 0.340
REMARK SMILES CC1=CCC(=C(C)C)C(=O)CC(C)=CCC1
REMARK SMILES IDX 12 1 14 2 13 3 15 4 16 5 2 6 1 7 3 8 11 10 9 11 10 12 5 13
REMARK SMILES IDX 6 14 7 15 8 16 4 17
REMARK H PARENT
REMARK Flexibility Score: 60.00
ROOT
ATOM      1  C   UNL     1      -2.466  -0.951  -1.540  1.00  0.00    -0.070 C 
ATOM      2  C   UNL     1      -2.746  -2.125  -2.156  1.00  0.00    -0.027 C 
ATOM      3  C   UNL     1      -1.019  -0.656  -1.229  1.00  0.00     0.039 C 
ENDROOT
BRANCH   2   4
ATOM      4  C   UNL     1      -4.099  -2.574  -2.651  1.00  0.00     0.032 C 
BRANCH   4   5
ATOM      5  C   UNL     1      -4.814  -3.506  -1.655  1.00  0.00     0.034 C 
BRANCH   5   6
ATOM      6  C   UNL     1      -5.794  -2.759  -0.773  1.00  0.00    -0.077 C 
ATOM      7  C   UNL     1      -7.182  -2.502  -1.303  1.00  0.00     0.039 C 
ATOM      8  C   UNL     1      -5.487  -2.285   0.456  1.00  0.00    -0.023 CG0
ATOM      9  G   UNL     1      -4.148  -2.411   1.141  1.00  0.00     0.000 G0
ENDBRANCH   5   6
ENDBRANCH   4   5
ENDBRANCH   2   4
BRANCH   1  10
ATOM     10  C   UNL     1      -3.512   0.099  -1.208  1.00  0.00     0.111 C 
BRANCH  10  11
ATOM     11  C   UNL     1      -3.965  -0.002   0.229  1.00  0.00     0.163 C 
ATOM     12  O   UNL     1      -4.775   0.863   0.657  1.00  0.00    -0.294 OA
BRANCH  11  13
ATOM     13  C   UNL     1      -3.441  -1.057   1.152  1.00  0.00    -0.002 C 
ATOM     14  C   UNL     1      -2.417  -0.806   2.022  1.00  0.00    -0.069 C 
ATOM     15  C   UNL     1      -1.867  -1.888   2.925  1.00  0.00     0.039 C 
ATOM     16  C   UNL     1      -1.807   0.572   2.152  1.00  0.00     0.039 C 
BRANCH  13  17
ATOM     17  C   UNL     1      -4.147  -2.401   1.135  1.00  0.00     0.066 CG0
ATOM     18  G   UNL     1      -5.477  -2.272   0.432  1.00  0.00     0.000 G0
ENDBRANCH  13  17
ENDBRANCH  11  13
ENDBRANCH  10  11
ENDBRANCH   1  10
TORSDOF 0
ENDMDL
MODEL 6
REMARK VINA RESULT:    -4.021      1.720      3.630
REMARK INTER + INTRA:          -5.327
REMARK INTER:                  -5.712
REMARK INTRA:                   0.385
REMARK UNBOUND:                 0.340
REMARK SMILES CC1=CCC(=C(C)C)C(=O)CC(C)=CCC1
REMARK SMILES IDX 12 1 14 2 13 3 15 4 16 5 2 6 1 7 3 8 11 10 9 11 10 12 5 13
REMARK SMILES IDX 6 14 7 15 8 16 4 17
REMARK H PARENT
REMARK Flexibility Score: 60.00
ROOT
ATOM      1  C   UNL     1      -5.040  -1.505   0.045  1.00  0.00    -0.070 C 
ATOM      2  C   UNL     1      -4.918  -1.845  -1.260  1.00  0.00    -0.027 C 
ATOM      3  C   UNL     1      -6.327  -0.843   0.474  1.00  0.00     0.039 C 
ENDROOT
BRANCH   2   4
ATOM      4  C   UNL     1      -3.771  -2.604  -1.882  1.00  0.00     0.032 C 
BRANCH   4   5
ATOM      5  C   UNL     1      -2.594  -1.688  -2.268  1.00  0.00     0.034 C 
BRANCH   5   6
ATOM      6  C   UNL     1      -1.290  -2.137  -1.641  1.00  0.00    -0.077 C 
ATOM      7  C   UNL     1      -0.655  -3.410  -2.142  1.00  0.00     0.039 C 
ATOM      8  C   UNL     1      -0.672  -1.475  -0.636  1.00  0.00    -0.023 CG0
ATOM      9  G   UNL     1      -1.167  -0.209   0.020  1.00  0.00     0.000 G0
ENDBRANCH   5   6
ENDBRANCH   4   5
ENDBRANCH   2   4
BRANCH   1  10
ATOM     10  C   UNL     1      -3.990  -1.810   1.100  1.00  0.00     0.111 C 
BRANCH  10  11
ATOM     11  C   UNL     1      -3.230  -0.569   1.503  1.00  0.00     0.163 C 
ATOM     12  O   UNL     1      -3.891   0.426   1.904  1.00  0.00    -0.294 OA
BRANCH  11  13
ATOM     13  C   UNL     1      -1.741  -0.480   1.389  1.00  0.00    -0.002 C 
ATOM     14  C   UNL     1      -0.924  -0.703   2.462  1.00  0.00    -0.069 C 
ATOM     15  C   UNL     1       0.580  -0.573   2.348  1.00  0.00     0.039 C 
ATOM     16  C   UNL     1      -1.476  -1.124   3.805  1.00  0.00     0.039 C 
BRANCH  13  17
ATOM     17  C   UNL     1      -1.170  -0.205   0.010  1.00  0.00     0.066 CG0
ATOM     18  G   UNL     1      -0.675  -1.491  -0.606  1.00  0.00     0.000 G0
ENDBRANCH  13  17
ENDBRANCH  11  13
ENDBRANCH  10  11
ENDBRANCH   1  10
TORSDOF 0
ENDMDL
MODEL 7
REMARK VINA RESULT:    -3.998      1.480      3.969
REMARK INTER + INTRA:          -5.294
REMARK INTER:                  -5.660
REMARK INTRA:                   0.366
REMARK UNBOUND:                 0.340
REMARK SMILES CC1=CCC(=C(C)C)C(=O)CC(C)=CCC1
REMARK SMILES IDX 12 1 14 2 13 3 15 4 16 5 2 6 1 7 3 8 11 10 9 11 10 12 5 13
REMARK SMILES IDX 6 14 7 15 8 16 4 17
REMARK H PARENT
REMARK Flexibility Score: 60.00
ROOT
ATOM      1  C   UNL     1      -5.309   0.271   0.802  1.00  0.00    -0.070 C 
ATOM      2  C   UNL     1      -4.850   0.641   2.021  1.00  0.00    -0.027 C 
ATOM      3  C   UNL     1      -6.797   0.057   0.655  1.00  0.00     0.039 C 
ENDROOT
BRANCH   2   4
ATOM      4  C   UNL     1      -3.427   1.008   2.365  1.00  0.00     0.032 C 
BRANCH   4   5
ATOM      5  C   UNL     1      -2.521  -0.227   2.536  1.00  0.00     0.034 C 
BRANCH   5   6
ATOM      6  C   UNL     1      -1.249  -0.122   1.719  1.00  0.00    -0.077 C 
ATOM      7  C   UNL     1      -0.292   1.003   2.025  1.00  0.00     0.039 C 
ATOM      8  C   UNL     1      -0.933  -0.964   0.710  1.00  0.00    -0.023 CG0
ATOM      9  G   UNL     1      -1.774  -2.123   0.232  1.00  0.00     0.000 G0
ENDBRANCH   5   6
ENDBRANCH   4   5
ENDBRANCH   2   4
BRANCH   1  10
ATOM     10  C   UNL     1      -4.427   0.126  -0.426  1.00  0.00     0.111 C 
BRANCH  10  11
ATOM     11  C   UNL     1      -4.036  -1.313  -0.662  1.00  0.00     0.163 C 
ATOM     12  O   UNL     1      -4.932  -2.194  -0.566  1.00  0.00    -0.294 OA
BRANCH  11  13
ATOM     13  C   UNL     1      -2.623  -1.712  -0.952  1.00  0.00    -0.002 C 
ATOM     14  C   UNL     1      -2.098  -1.634  -2.212  1.00  0.00    -0.069 C 
ATOM     15  C   UNL     1      -0.681  -2.076  -2.504  1.00  0.00     0.039 C 
ATOM     16  C   UNL     1      -2.893  -1.070  -3.368  1.00  0.00     0.039 C 
BRANCH  13  17
ATOM     17  C   UNL     1      -1.771  -2.138   0.230  1.00  0.00     0.066 CG0
ATOM     18  G   UNL     1      -0.938  -0.973   0.707  1.00  0.00     0.000 G0
ENDBRANCH  13  17
ENDBRANCH  11  13
ENDBRANCH  10  11
ENDBRANCH   1  10
TORSDOF 0
ENDMDL
MODEL 8
REMARK VINA RESULT:    -3.662      1.697      4.203
REMARK INTER + INTRA:          -4.821
REMARK INTER:                  -5.272
REMARK INTRA:                   0.451
REMARK UNBOUND:                 0.340
REMARK SMILES CC1=CCC(=C(C)C)C(=O)CC(C)=CCC1
REMARK SMILES IDX 12 1 14 2 13 3 15 4 16 5 2 6 1 7 3 8 11 10 9 11 10 12 5 13
REMARK SMILES IDX 6 14 7 15 8 16 4 17
REMARK H PARENT
REMARK Flexibility Score: 60.00
ROOT
ATOM      1  C   UNL     1      -4.712  -0.184   1.706  1.00  0.00    -0.070 C 
ATOM      2  C   UNL     1      -3.795  -0.044   2.693  1.00  0.00    -0.027 C 
ATOM      3  C   UNL     1      -5.845   0.813   1.662  1.00  0.00     0.039 C 
ENDROOT
BRANCH   2   4
ATOM      4  C   UNL     1      -2.534  -0.855   2.863  1.00  0.00     0.032 C 
BRANCH   4   5
ATOM      5  C   UNL     1      -1.326  -0.232   2.138  1.00  0.00     0.034 C 
BRANCH   5   6
ATOM      6  C   UNL     1      -0.462  -1.277   1.461  1.00  0.00    -0.077 C 
ATOM      7  C   UNL     1       0.471  -2.097   2.317  1.00  0.00     0.039 C 
ATOM      8  C   UNL     1      -0.459  -1.500   0.128  1.00  0.00    -0.023 CG0
ATOM      9  G   UNL     1      -1.291  -0.760  -0.892  1.00  0.00     0.000 G0
ENDBRANCH   5   6
ENDBRANCH   4   5
ENDBRANCH   2   4
BRANCH   1  10
ATOM     10  C   UNL     1      -4.625  -1.238   0.615  1.00  0.00     0.111 C 
BRANCH  10  11
ATOM     11  C   UNL     1      -3.854  -0.737  -0.582  1.00  0.00     0.163 C 
ATOM     12  O   UNL     1      -4.286   0.286  -1.179  1.00  0.00    -0.294 OA
BRANCH  11  13
ATOM     13  C   UNL     1      -2.641  -1.446  -1.096  1.00  0.00    -0.002 C 
ATOM     14  C   UNL     1      -2.735  -2.630  -1.774  1.00  0.00    -0.069 C 
ATOM     15  C   UNL     1      -1.501  -3.360  -2.258  1.00  0.00     0.039 C 
ATOM     16  C   UNL     1      -4.074  -3.250  -2.106  1.00  0.00     0.039 C 
BRANCH  13  17
ATOM     17  C   UNL     1      -1.304  -0.757  -0.898  1.00  0.00     0.066 CG0
ATOM     18  G   UNL     1      -0.489  -1.506   0.128  1.00  0.00     0.000 G0
ENDBRANCH  13  17
ENDBRANCH  11  13
ENDBRANCH  10  11
ENDBRANCH   1  10
TORSDOF 0
ENDMDL
MODEL 9
REMARK VINA RESULT:    -3.601      1.893      3.912
REMARK INTER + INTRA:          -4.735
REMARK INTER:                  -5.495
REMARK INTRA:                   0.760
REMARK UNBOUND:                 0.340
REMARK SMILES CC1=CCC(=C(C)C)C(=O)CC(C)=CCC1
REMARK SMILES IDX 12 1 14 2 13 3 15 4 16 5 2 6 1 7 3 8 11 10 9 11 10 12 5 13
REMARK SMILES IDX 6 14 7 15 8 16 4 17
REMARK H PARENT
REMARK Flexibility Score: 60.00
ROOT
ATOM      1  C   UNL     1      -2.755  -1.803  -1.595  1.00  0.00    -0.070 C 
ATOM      2  C   UNL     1      -4.045  -2.180  -1.421  1.00  0.00    -0.027 C 
ATOM      3  C   UNL     1      -2.411  -1.070  -2.870  1.00  0.00     0.039 C 
ENDROOT
BRANCH   2   4
ATOM      4  C   UNL     1      -4.627  -2.824  -0.187  1.00  0.00     0.032 C 
BRANCH   4   5
ATOM      5  C   UNL     1      -5.689  -1.942   0.497  1.00  0.00     0.034 C 
BRANCH   5   6
ATOM      6  C   UNL     1      -5.203  -0.523   0.713  1.00  0.00    -0.077 C 
ATOM      7  C   UNL     1      -5.879   0.590  -0.049  1.00  0.00     0.039 C 
ATOM      8  C   UNL     1      -4.177  -0.197   1.531  1.00  0.00    -0.023 CG0
ATOM      9  G   UNL     1      -3.357  -1.168   2.346  1.00  0.00     0.000 G0
ENDBRANCH   5   6
ENDBRANCH   4   5
ENDBRANCH   2   4
BRANCH   1  10
ATOM     10  C   UNL     1      -1.664  -2.017  -0.560  1.00  0.00     0.111 C 
BRANCH  10  11
ATOM     11  C   UNL     1      -1.642  -0.905   0.461  1.00  0.00     0.163 C 
ATOM     12  O   UNL     1      -1.349   0.256   0.067  1.00  0.00    -0.294 OA
BRANCH  11  13
ATOM     13  C   UNL     1      -1.903  -1.158   1.913  1.00  0.00    -0.002 C 
ATOM     14  C   UNL     1      -0.884  -1.300   2.812  1.00  0.00    -0.069 C 
ATOM     15  C   UNL     1      -1.155  -1.593   4.272  1.00  0.00     0.039 C 
ATOM     16  C   UNL     1       0.563  -1.135   2.403  1.00  0.00     0.039 C 
BRANCH  13  17
ATOM     17  C   UNL     1      -3.354  -1.176   2.359  1.00  0.00     0.066 CG0
ATOM     18  G   UNL     1      -4.156  -0.198   1.535  1.00  0.00     0.000 G0
ENDBRANCH  13  17
ENDBRANCH  11  13
ENDBRANCH  10  11
ENDBRANCH   1  10
TORSDOF 0
ENDMDL
