MODEL 1
REMARK VINA RESULT:    -4.862      0.000      0.000
REMARK INTER + INTRA:          -5.533
REMARK INTER:                  -5.289
REMARK INTRA:                  -0.245
REMARK UNBOUND:                -0.245
REMARK SMILES O=C([O-])c1ccccc1O
REMARK SMILES IDX 4 1 9 2 5 3 8 4 6 5 7 6 2 7 1 8 3 9 10 10
REMARK H PARENT 10 11
REMARK Flexibility Score: inf
ROOT
ATOM      1  C   UNL     1     135.426   3.232  94.462  1.00  0.00     0.039 A 
ATOM      2  C   UNL     1     134.617   4.182  93.787  1.00  0.00     0.124 A 
ATOM      3  C   UNL     1     136.313   3.680  95.458  1.00  0.00     0.014 A 
ATOM      4  C   UNL     1     134.670   5.530  94.165  1.00  0.00     0.047 A 
ATOM      5  C   UNL     1     136.369   5.031  95.808  1.00  0.00     0.001 A 
ATOM      6  C   UNL     1     135.541   5.953  95.170  1.00  0.00     0.004 A 
ENDROOT
BRANCH   1   7
ATOM      7  C   UNL     1     135.345   1.781  94.185  1.00  0.00     0.075 C 
ATOM      8  O   UNL     1     134.249   1.262  93.849  1.00  0.00    -0.545 OA
ATOM      9  O   UNL     1     136.484   0.986  94.223  1.00  0.00    -0.545 OA
ENDBRANCH   1   7
BRANCH   2  10
ATOM     10  O   UNL     1     133.782   3.837  92.722  1.00  0.00    -0.507 OA
ATOM     11  H   UNL     1     132.784   3.710  92.815  1.00  0.00     0.293 HD
ENDBRANCH   2  10
TORSDOF 2
ENDMDL
MODEL 2
REMARK VINA RESULT:    -4.825      2.057      3.607
REMARK INTER + INTRA:          -5.493
REMARK INTER:                  -5.251
REMARK INTRA:                  -0.242
REMARK UNBOUND:                -0.245
REMARK SMILES O=C([O-])c1ccccc1O
REMARK SMILES IDX 4 1 9 2 5 3 8 4 6 5 7 6 2 7 1 8 3 9 10 10
REMARK H PARENT 10 11
REMARK Flexibility Score: inf
ROOT
ATOM      1  C   UNL     1     135.501   3.752  95.199  1.00  0.00     0.039 A 
ATOM      2  C   UNL     1     134.552   2.833  94.680  1.00  0.00     0.124 A 
ATOM      3  C   UNL     1     136.827   3.323  95.391  1.00  0.00     0.014 A 
ATOM      4  C   UNL     1     134.963   1.545  94.313  1.00  0.00     0.047 A 
ATOM      5  C   UNL     1     137.216   2.028  95.039  1.00  0.00     0.001 A 
ATOM      6  C   UNL     1     136.288   1.144  94.492  1.00  0.00     0.004 A 
ENDROOT
BRANCH   1   7
ATOM      7  C   UNL     1     135.157   5.156  95.510  1.00  0.00     0.075 C 
ATOM      8  O   UNL     1     136.007   6.069  95.334  1.00  0.00    -0.545 OA
ATOM      9  O   UNL     1     133.879   5.499  95.932  1.00  0.00    -0.545 OA
ENDBRANCH   1   7
BRANCH   2  10
ATOM     10  O   UNL     1     133.197   3.145  94.550  1.00  0.00    -0.507 OA
ATOM     11  H   UNL     1     132.648   3.561  95.290  1.00  0.00     0.293 HD
ENDBRANCH   2  10
TORSDOF 2
ENDMDL
MODEL 3
REMARK VINA RESULT:    -4.807      2.069      2.747
REMARK INTER + INTRA:          -5.473
REMARK INTER:                  -5.241
REMARK INTRA:                  -0.231
REMARK UNBOUND:                -0.245
REMARK SMILES O=C([O-])c1ccccc1O
REMARK SMILES IDX 4 1 9 2 5 3 8 4 6 5 7 6 2 7 1 8 3 9 10 10
REMARK H PARENT 10 11
REMARK Flexibility Score: inf
ROOT
ATOM      1  C   UNL     1     134.971   1.052  94.710  1.00  0.00     0.039 A 
ATOM      2  C   UNL     1     134.363   2.297  95.017  1.00  0.00     0.124 A 
ATOM      3  C   UNL     1     136.376   0.967  94.695  1.00  0.00     0.014 A 
ATOM      4  C   UNL     1     135.165   3.394  95.357  1.00  0.00     0.047 A 
ATOM      5  C   UNL     1     137.161   2.076  95.017  1.00  0.00     0.001 A 
ATOM      6  C   UNL     1     136.557   3.285  95.357  1.00  0.00     0.004 A 
ENDROOT
BRANCH   1   7
ATOM      7  C   UNL     1     134.183  -0.171  94.443  1.00  0.00     0.075 C 
ATOM      8  O   UNL     1     134.316  -1.182  95.180  1.00  0.00    -0.545 OA
ATOM      9  O   UNL     1     133.240  -0.200  93.423  1.00  0.00    -0.545 OA
ENDBRANCH   1   7
BRANCH   2  10
ATOM     10  O   UNL     1     132.982   2.494  94.958  1.00  0.00    -0.507 OA
ATOM     11  H   UNL     1     132.506   2.865  94.148  1.00  0.00     0.293 HD
ENDBRANCH   2  10
TORSDOF 2
ENDMDL
MODEL 4
REMARK VINA RESULT:    -4.793      1.891      2.454
REMARK INTER + INTRA:          -5.457
REMARK INTER:                  -5.208
REMARK INTRA:                  -0.249
REMARK UNBOUND:                -0.245
REMARK SMILES O=C([O-])c1ccccc1O
REMARK SMILES IDX 4 1 9 2 5 3 8 4 6 5 7 6 2 7 1 8 3 9 10 10
REMARK H PARENT 10 11
REMARK Flexibility Score: inf
ROOT
ATOM      1  C   UNL     1     134.767   1.762  94.274  1.00  0.00     0.039 A 
ATOM      2  C   UNL     1     134.519   3.024  94.872  1.00  0.00     0.124 A 
ATOM      3  C   UNL     1     136.083   1.263  94.258  1.00  0.00     0.014 A 
ATOM      4  C   UNL     1     135.570   3.717  95.487  1.00  0.00     0.047 A 
ATOM      5  C   UNL     1     137.123   1.977  94.858  1.00  0.00     0.001 A 
ATOM      6  C   UNL     1     136.865   3.197  95.480  1.00  0.00     0.004 A 
ENDROOT
BRANCH   1   7
ATOM      7  C   UNL     1     133.686   0.930  93.698  1.00  0.00     0.075 C 
ATOM      8  O   UNL     1     132.835   1.446  92.928  1.00  0.00    -0.545 OA
ATOM      9  O   UNL     1     133.635  -0.437  93.942  1.00  0.00    -0.545 OA
ENDBRANCH   1   7
BRANCH   2  10
ATOM     10  O   UNL     1     133.264   3.635  94.844  1.00  0.00    -0.507 OA
ATOM     11  H   UNL     1     133.009   4.354  94.181  1.00  0.00     0.293 HD
ENDBRANCH   2  10
TORSDOF 2
ENDMDL
MODEL 5
REMARK VINA RESULT:    -4.595      2.154      3.886
REMARK INTER + INTRA:          -5.242
REMARK INTER:                  -4.994
REMARK INTRA:                  -0.248
REMARK UNBOUND:                -0.245
REMARK SMILES O=C([O-])c1ccccc1O
REMARK SMILES IDX 4 1 9 2 5 3 8 4 6 5 7 6 2 7 1 8 3 9 10 10
REMARK H PARENT 10 11
REMARK Flexibility Score: inf
ROOT
ATOM      1  C   UNL     1     135.368   1.701  94.836  1.00  0.00     0.039 A 
ATOM      2  C   UNL     1     134.347   1.918  93.875  1.00  0.00     0.124 A 
ATOM      3  C   UNL     1     135.430   0.457  95.493  1.00  0.00     0.014 A 
ATOM      4  C   UNL     1     133.464   0.879  93.555  1.00  0.00     0.047 A 
ATOM      5  C   UNL     1     134.528  -0.562  95.176  1.00  0.00     0.001 A 
ATOM      6  C   UNL     1     133.553  -0.355  94.202  1.00  0.00     0.004 A 
ENDROOT
BRANCH   1   7
ATOM      7  C   UNL     1     136.395   2.718  95.147  1.00  0.00     0.075 C 
ATOM      8  O   UNL     1     137.589   2.372  95.346  1.00  0.00    -0.545 OA
ATOM      9  O   UNL     1     136.076   4.071  95.156  1.00  0.00    -0.545 OA
ENDBRANCH   1   7
BRANCH   2  10
ATOM     10  O   UNL     1     134.154   3.152  93.250  1.00  0.00    -0.507 OA
ATOM     11  H   UNL     1     133.744   3.253  92.332  1.00  0.00     0.293 HD
ENDBRANCH   2  10
TORSDOF 2
ENDMDL
MODEL 6
REMARK VINA RESULT:    -4.588      1.533      3.234
REMARK INTER + INTRA:          -5.235
REMARK INTER:                  -4.986
REMARK INTRA:                  -0.249
REMARK UNBOUND:                -0.245
REMARK SMILES O=C([O-])c1ccccc1O
REMARK SMILES IDX 4 1 9 2 5 3 8 4 6 5 7 6 2 7 1 8 3 9 10 10
REMARK H PARENT 10 11
REMARK Flexibility Score: inf
ROOT
ATOM      1  C   UNL     1     134.854   3.305  94.310  1.00  0.00     0.039 A 
ATOM      2  C   UNL     1     134.832   1.934  93.950  1.00  0.00     0.124 A 
ATOM      3  C   UNL     1     135.947   3.797  95.048  1.00  0.00     0.014 A 
ATOM      4  C   UNL     1     135.919   1.113  94.279  1.00  0.00     0.047 A 
ATOM      5  C   UNL     1     137.014   2.960  95.385  1.00  0.00     0.001 A 
ATOM      6  C   UNL     1     137.004   1.623  94.993  1.00  0.00     0.004 A 
ENDROOT
BRANCH   1   7
ATOM      7  C   UNL     1     133.789   4.249  93.906  1.00  0.00     0.075 C 
ATOM      8  O   UNL     1     132.578   3.922  94.019  1.00  0.00    -0.545 OA
ATOM      9  O   UNL     1     134.103   5.529  93.464  1.00  0.00    -0.545 OA
ENDBRANCH   1   7
BRANCH   2  10
ATOM     10  O   UNL     1     133.743   1.343  93.305  1.00  0.00    -0.507 OA
ATOM     11  H   UNL     1     133.662   1.273  92.300  1.00  0.00     0.293 HD
ENDBRANCH   2  10
TORSDOF 2
ENDMDL
MODEL 7
REMARK VINA RESULT:    -4.566      2.006      3.175
REMARK INTER + INTRA:          -5.211
REMARK INTER:                  -4.963
REMARK INTRA:                  -0.248
REMARK UNBOUND:                -0.245
REMARK SMILES O=C([O-])c1ccccc1O
REMARK SMILES IDX 4 1 9 2 5 3 8 4 6 5 7 6 2 7 1 8 3 9 10 10
REMARK H PARENT 10 11
REMARK Flexibility Score: inf
ROOT
ATOM      1  C   UNL     1     134.659   2.981  94.319  1.00  0.00     0.039 A 
ATOM      2  C   UNL     1     135.489   3.909  94.998  1.00  0.00     0.124 A 
ATOM      3  C   UNL     1     135.155   1.690  94.057  1.00  0.00     0.014 A 
ATOM      4  C   UNL     1     136.754   3.508  95.447  1.00  0.00     0.047 A 
ATOM      5  C   UNL     1     136.427   1.312  94.494  1.00  0.00     0.001 A 
ATOM      6  C   UNL     1     137.221   2.217  95.197  1.00  0.00     0.004 A 
ENDROOT
BRANCH   1   7
ATOM      7  C   UNL     1     133.275   3.305  93.909  1.00  0.00     0.075 C 
ATOM      8  O   UNL     1     133.036   4.367  93.276  1.00  0.00    -0.545 OA
ATOM      9  O   UNL     1     132.235   2.417  94.153  1.00  0.00    -0.545 OA
ENDBRANCH   1   7
BRANCH   2  10
ATOM     10  O   UNL     1     135.113   5.237  95.212  1.00  0.00    -0.507 OA
ATOM     11  H   UNL     1     135.282   5.977  94.545  1.00  0.00     0.293 HD
ENDBRANCH   2  10
TORSDOF 2
ENDMDL
MODEL 8
REMARK VINA RESULT:    -4.247      1.922      2.928
REMARK INTER + INTRA:          -4.864
REMARK INTER:                  -4.649
REMARK INTRA:                  -0.215
REMARK UNBOUND:                -0.245
REMARK SMILES O=C([O-])c1ccccc1O
REMARK SMILES IDX 4 1 9 2 5 3 8 4 6 5 7 6 2 7 1 8 3 9 10 10
REMARK H PARENT 10 11
REMARK Flexibility Score: inf
ROOT
ATOM      1  C   UNL     1     135.178   2.320  94.297  1.00  0.00     0.039 A 
ATOM      2  C   UNL     1     134.909   3.713  94.309  1.00  0.00     0.124 A 
ATOM      3  C   UNL     1     134.154   1.433  93.914  1.00  0.00     0.014 A 
ATOM      4  C   UNL     1     133.659   4.181  93.883  1.00  0.00     0.047 A 
ATOM      5  C   UNL     1     132.906   1.916  93.511  1.00  0.00     0.001 A 
ATOM      6  C   UNL     1     132.662   3.288  93.487  1.00  0.00     0.004 A 
ENDROOT
BRANCH   1   7
ATOM      7  C   UNL     1     136.506   1.766  94.636  1.00  0.00     0.075 C 
ATOM      8  O   UNL     1     137.322   2.446  95.313  1.00  0.00    -0.545 OA
ATOM      9  O   UNL     1     136.848   0.468  94.274  1.00  0.00    -0.545 OA
ENDBRANCH   1   7
BRANCH   2  10
ATOM     10  O   UNL     1     135.834   4.653  94.768  1.00  0.00    -0.507 OA
ATOM     11  H   UNL     1     136.470   4.480  95.534  1.00  0.00     0.293 HD
ENDBRANCH   2  10
TORSDOF 2
ENDMDL
MODEL 9
REMARK VINA RESULT:    -4.152      1.297      2.374
REMARK INTER + INTRA:          -4.761
REMARK INTER:                  -4.508
REMARK INTRA:                  -0.253
REMARK UNBOUND:                -0.245
REMARK SMILES O=C([O-])c1ccccc1O
REMARK SMILES IDX 4 1 9 2 5 3 8 4 6 5 7 6 2 7 1 8 3 9 10 10
REMARK H PARENT 10 11
REMARK Flexibility Score: inf
ROOT
ATOM      1  C   UNL     1     134.419   3.604  94.228  1.00  0.00     0.039 A 
ATOM      2  C   UNL     1     135.121   3.355  95.435  1.00  0.00     0.124 A 
ATOM      3  C   UNL     1     134.492   4.885  93.650  1.00  0.00     0.014 A 
ATOM      4  C   UNL     1     135.920   4.362  95.992  1.00  0.00     0.047 A 
ATOM      5  C   UNL     1     135.277   5.885  94.231  1.00  0.00     0.001 A 
ATOM      6  C   UNL     1     135.997   5.621  95.394  1.00  0.00     0.004 A 
ENDROOT
BRANCH   1   7
ATOM      7  C   UNL     1     133.641   2.556  93.532  1.00  0.00     0.075 C 
ATOM      8  O   UNL     1     132.595   2.859  92.899  1.00  0.00    -0.545 OA
ATOM      9  O   UNL     1     134.085   1.239  93.507  1.00  0.00    -0.545 OA
ENDBRANCH   1   7
BRANCH   2  10
ATOM     10  O   UNL     1     135.024   2.144  96.125  1.00  0.00    -0.507 OA
ATOM     11  H   UNL     1     135.022   2.077  97.133  1.00  0.00     0.293 HD
ENDBRANCH   2  10
TORSDOF 2
ENDMDL
