MODEL 1
REMARK VINA RESULT:    -4.056      0.000      0.000
REMARK INTER + INTRA:          -6.523
REMARK INTER:                  -6.190
REMARK INTRA:                  -0.333
REMARK UNBOUND:                -0.333
REMARK SMILES CC1=CCC[C@@H](C)C(=O)C[C@@H](C(C)C)C(=O)C1
REMARK SMILES IDX 8 1 9 2 6 3 7 4 5 5 4 6 3 7 2 8 1 9 10 11 11 12 15 13 16 14
REMARK SMILES IDX 17 15 12 17 13 18 14 19
REMARK H PARENT
REMARK Flexibility Score: 70.00
ROOT
ATOM      1  C   UNL     1       8.190 -17.259  23.551  1.00  0.00     0.136 C 
ATOM      2  O   UNL     1       7.145 -16.626  23.477  1.00  0.00    -0.299 OA
ENDROOT
BRANCH   1   3
ATOM      3  C   UNL     1       9.260 -16.773  24.509  1.00  0.00     0.053 C 
ATOM      4  C   UNL     1       8.597 -16.274  25.797  1.00  0.00     0.016 C 
BRANCH   3   5
ATOM      5  C   UNL     1      10.196 -15.683  23.932  1.00  0.00     0.015 C 
BRANCH   5   6
ATOM      6  C   UNL     1      11.450 -16.237  23.226  1.00  0.00     0.028 C 
BRANCH   6   7
ATOM      7  C   UNL     1      12.105 -17.353  24.013  1.00  0.00    -0.028 C 
ATOM      8  C   UNL     1      12.162 -18.662  23.671  1.00  0.00    -0.070 CG0
ATOM      9  C   UNL     1      12.797 -19.617  24.649  1.00  0.00     0.039 C 
ATOM     10  G   UNL     1      11.531 -19.235  22.417  1.00  0.00     0.000 G0
ENDBRANCH   6   7
ENDBRANCH   5   6
ENDBRANCH   3   5
ENDBRANCH   1   3
BRANCH   1  11
ATOM     11  C   UNL     1       8.449 -18.374  22.562  1.00  0.00     0.087 C 
BRANCH  11  12
ATOM     12  C   UNL     1       8.977 -19.693  23.194  1.00  0.00     0.066 C 
BRANCH  12  13
ATOM     13  C   UNL     1      10.347 -20.140  22.667  1.00  0.00     0.140 C 
ATOM     14  O   UNL     1      10.537 -21.339  22.527  1.00  0.00    -0.299 OA
BRANCH  13  15
ATOM     15  C   UNL     1      11.527 -19.222  22.412  1.00  0.00     0.106 CG0
ATOM     16  G   UNL     1      12.142 -18.652  23.675  1.00  0.00     0.000 G0
ENDBRANCH  13  15
ENDBRANCH  12  13
BRANCH  12  17
ATOM     17  C   UNL     1       7.915 -20.841  23.082  1.00  0.00    -0.006 C 
ATOM     18  C   UNL     1       7.241 -20.870  21.696  1.00  0.00     0.008 C 
ATOM     19  C   UNL     1       6.821 -20.740  24.161  1.00  0.00     0.008 C 
ENDBRANCH  12  17
ENDBRANCH  11  12
ENDBRANCH   1  11
TORSDOF 1
ENDMDL
MODEL 2
REMARK VINA RESULT:    -3.965      1.254      1.653
REMARK INTER + INTRA:          -6.385
REMARK INTER:                  -5.871
REMARK INTRA:                  -0.514
REMARK UNBOUND:                -0.333
REMARK SMILES CC1=CCC[C@@H](C)C(=O)C[C@@H](C(C)C)C(=O)C1
REMARK SMILES IDX 8 1 9 2 6 3 7 4 5 5 4 6 3 7 2 8 1 9 10 11 11 12 15 13 16 14
REMARK SMILES IDX 17 15 12 17 13 18 14 19
REMARK H PARENT
REMARK Flexibility Score: 70.00
ROOT
ATOM      1  C   UNL     1       8.298 -17.166  21.614  1.00  0.00     0.136 C 
ATOM      2  O   UNL     1       8.381 -16.502  20.590  1.00  0.00    -0.299 OA
ENDROOT
BRANCH   1   3
ATOM      3  C   UNL     1       8.031 -16.447  22.921  1.00  0.00     0.053 C 
ATOM      4  C   UNL     1       6.752 -15.613  22.787  1.00  0.00     0.016 C 
BRANCH   3   5
ATOM      5  C   UNL     1       9.198 -15.561  23.421  1.00  0.00     0.015 C 
BRANCH   5   6
ATOM      6  C   UNL     1      10.180 -16.283  24.365  1.00  0.00     0.028 C 
BRANCH   6   7
ATOM      7  C   UNL     1      11.482 -16.634  23.678  1.00  0.00    -0.028 C 
ATOM      8  C   UNL     1      12.018 -17.871  23.537  1.00  0.00    -0.070 CG0
ATOM      9  C   UNL     1      13.372 -17.979  22.885  1.00  0.00     0.039 C 
ATOM     10  G   UNL     1      11.386 -19.132  24.091  1.00  0.00     0.000 G0
ENDBRANCH   6   7
ENDBRANCH   5   6
ENDBRANCH   3   5
ENDBRANCH   1   3
BRANCH   1  11
ATOM     11  C   UNL     1       8.650 -18.637  21.569  1.00  0.00     0.087 C 
BRANCH  11  12
ATOM     12  C   UNL     1       8.916 -19.285  22.957  1.00  0.00     0.066 C 
BRANCH  12  13
ATOM     13  C   UNL     1      10.355 -19.781  23.155  1.00  0.00     0.140 C 
ATOM     14  O   UNL     1      10.678 -20.818  22.593  1.00  0.00    -0.299 OA
BRANCH  13  15
ATOM     15  C   UNL     1      11.376 -19.153  24.082  1.00  0.00     0.106 CG0
ATOM     16  G   UNL     1      12.017 -17.897  23.527  1.00  0.00     0.000 G0
ENDBRANCH  13  15
ENDBRANCH  12  13
BRANCH  12  17
ATOM     17  C   UNL     1       7.871 -20.411  23.269  1.00  0.00    -0.006 C 
ATOM     18  C   UNL     1       7.238 -20.981  21.984  1.00  0.00     0.008 C 
ATOM     19  C   UNL     1       6.745 -19.929  24.202  1.00  0.00     0.008 C 
ENDBRANCH  12  17
ENDBRANCH  11  12
ENDBRANCH   1  11
TORSDOF 1
ENDMDL
MODEL 3
REMARK VINA RESULT:    -3.780      2.143      4.800
REMARK INTER + INTRA:          -6.102
REMARK INTER:                  -5.555
REMARK INTRA:                  -0.547
REMARK UNBOUND:                -0.333
REMARK SMILES CC1=CCC[C@@H](C)C(=O)C[C@@H](C(C)C)C(=O)C1
REMARK SMILES IDX 8 1 9 2 6 3 7 4 5 5 4 6 3 7 2 8 1 9 10 11 11 12 15 13 16 14
REMARK SMILES IDX 17 15 12 17 13 18 14 19
REMARK H PARENT
REMARK Flexibility Score: 70.00
ROOT
ATOM      1  C   UNL     1       8.490 -20.493  20.979  1.00  0.00     0.136 C 
ATOM      2  O   UNL     1       7.653 -20.011  20.229  1.00  0.00    -0.299 OA
ENDROOT
BRANCH   1   3
ATOM      3  C   UNL     1       8.031 -21.484  22.031  1.00  0.00     0.053 C 
ATOM      4  C   UNL     1       7.745 -22.834  21.364  1.00  0.00     0.016 C 
BRANCH   3   5
ATOM      5  C   UNL     1       6.805 -21.026  22.858  1.00  0.00     0.015 C 
BRANCH   5   6
ATOM      6  C   UNL     1       7.159 -20.156  24.081  1.00  0.00     0.028 C 
BRANCH   6   7
ATOM      7  C   UNL     1       7.000 -18.677  23.798  1.00  0.00    -0.028 C 
ATOM      8  C   UNL     1       7.976 -17.738  23.814  1.00  0.00    -0.070 CG0
ATOM      9  C   UNL     1       7.575 -16.304  23.579  1.00  0.00     0.039 C 
ATOM     10  G   UNL     1       9.423 -18.031  24.158  1.00  0.00     0.000 G0
ENDBRANCH   6   7
ENDBRANCH   5   6
ENDBRANCH   3   5
ENDBRANCH   1   3
BRANCH   1  11
ATOM     11  C   UNL     1       9.902 -19.949  20.957  1.00  0.00     0.087 C 
BRANCH  11  12
ATOM     12  C   UNL     1      10.539 -19.740  22.360  1.00  0.00     0.066 C 
BRANCH  12  13
ATOM     13  C   UNL     1      10.308 -18.344  22.955  1.00  0.00     0.140 C 
ATOM     14  O   UNL     1      10.946 -17.414  22.483  1.00  0.00    -0.299 OA
BRANCH  13  15
ATOM     15  C   UNL     1       9.438 -18.041  24.159  1.00  0.00     0.106 CG0
ATOM     16  G   UNL     1       7.994 -17.740  23.809  1.00  0.00     0.000 G0
ENDBRANCH  13  15
ENDBRANCH  12  13
BRANCH  12  17
ATOM     17  C   UNL     1      12.061 -20.117  22.354  1.00  0.00    -0.006 C 
ATOM     18  C   UNL     1      12.326 -21.433  21.596  1.00  0.00     0.008 C 
ATOM     19  C   UNL     1      12.644 -20.240  23.774  1.00  0.00     0.008 C 
ENDBRANCH  12  17
ENDBRANCH  11  12
ENDBRANCH   1  11
TORSDOF 1
ENDMDL
MODEL 4
REMARK VINA RESULT:    -3.766      1.455      1.691
REMARK INTER + INTRA:          -6.080
REMARK INTER:                  -5.649
REMARK INTRA:                  -0.431
REMARK UNBOUND:                -0.333
REMARK SMILES CC1=CCC[C@@H](C)C(=O)C[C@@H](C(C)C)C(=O)C1
REMARK SMILES IDX 8 1 9 2 6 3 7 4 5 5 4 6 3 7 2 8 1 9 10 11 11 12 15 13 16 14
REMARK SMILES IDX 17 15 12 17 13 18 14 19
REMARK H PARENT
REMARK Flexibility Score: 70.00
ROOT
ATOM      1  C   UNL     1       7.623 -17.218  23.417  1.00  0.00     0.136 C 
ATOM      2  O   UNL     1       6.453 -16.893  23.569  1.00  0.00    -0.299 OA
ENDROOT
BRANCH   1   3
ATOM      3  C   UNL     1       8.582 -17.019  24.574  1.00  0.00     0.053 C 
ATOM      4  C   UNL     1       7.911 -17.479  25.873  1.00  0.00     0.016 C 
BRANCH   3   5
ATOM      5  C   UNL     1       9.115 -15.574  24.731  1.00  0.00     0.015 C 
BRANCH   5   6
ATOM      6  C   UNL     1      10.331 -15.249  23.839  1.00  0.00     0.028 C 
BRANCH   6   7
ATOM      7  C   UNL     1      11.432 -16.279  23.975  1.00  0.00    -0.028 C 
ATOM      8  C   UNL     1      11.865 -17.136  23.020  1.00  0.00    -0.070 CG0
ATOM      9  C   UNL     1      12.925 -18.137  23.401  1.00  0.00     0.039 C 
ATOM     10  G   UNL     1      11.270 -17.218  21.628  1.00  0.00     0.000 G0
ENDBRANCH   6   7
ENDBRANCH   5   6
ENDBRANCH   3   5
ENDBRANCH   1   3
BRANCH   1  11
ATOM     11  C   UNL     1       8.104 -17.622  22.041  1.00  0.00     0.087 C 
BRANCH  11  12
ATOM     12  C   UNL     1       9.116 -18.803  22.028  1.00  0.00     0.066 C 
BRANCH  12  13
ATOM     13  C   UNL     1      10.461 -18.472  21.369  1.00  0.00     0.140 C 
ATOM     14  O   UNL     1      10.967 -19.324  20.652  1.00  0.00    -0.299 OA
BRANCH  13  15
ATOM     15  C   UNL     1      11.274 -17.217  21.625  1.00  0.00     0.106 CG0
ATOM     16  G   UNL     1      11.864 -17.144  23.019  1.00  0.00     0.000 G0
ENDBRANCH  13  15
ENDBRANCH  12  13
BRANCH  12  17
ATOM     17  C   UNL     1       8.475 -20.093  21.408  1.00  0.00    -0.006 C 
ATOM     18  C   UNL     1       7.375 -19.755  20.383  1.00  0.00     0.008 C 
ATOM     19  C   UNL     1       7.880 -21.028  22.478  1.00  0.00     0.008 C 
ENDBRANCH  12  17
ENDBRANCH  11  12
ENDBRANCH   1  11
TORSDOF 1
ENDMDL
MODEL 5
REMARK VINA RESULT:    -3.743      2.132      3.542
REMARK INTER + INTRA:          -6.046
REMARK INTER:                  -5.718
REMARK INTRA:                  -0.327
REMARK UNBOUND:                -0.333
REMARK SMILES CC1=CCC[C@@H](C)C(=O)C[C@@H](C(C)C)C(=O)C1
REMARK SMILES IDX 8 1 9 2 6 3 7 4 5 5 4 6 3 7 2 8 1 9 10 11 11 12 15 13 16 14
REMARK SMILES IDX 17 15 12 17 13 18 14 19
REMARK H PARENT
REMARK Flexibility Score: 70.00
ROOT
ATOM      1  C   UNL     1       8.173 -16.134  22.898  1.00  0.00     0.136 C 
ATOM      2  O   UNL     1       7.071 -15.757  22.525  1.00  0.00    -0.299 OA
ENDROOT
BRANCH   1   3
ATOM      3  C   UNL     1       8.728 -15.573  24.193  1.00  0.00     0.053 C 
ATOM      4  C   UNL     1      10.257 -15.511  24.103  1.00  0.00     0.016 C 
BRANCH   3   5
ATOM      5  C   UNL     1       8.297 -16.341  25.466  1.00  0.00     0.015 C 
BRANCH   5   6
ATOM      6  C   UNL     1       8.880 -17.765  25.572  1.00  0.00     0.028 C 
BRANCH   6   7
ATOM      7  C   UNL     1       7.856 -18.829  25.240  1.00  0.00    -0.028 C 
ATOM      8  C   UNL     1       7.946 -19.767  24.267  1.00  0.00    -0.070 CG0
ATOM      9  C   UNL     1       6.765 -20.680  24.060  1.00  0.00     0.039 C 
ATOM     10  G   UNL     1       9.115 -19.879  23.308  1.00  0.00     0.000 G0
ENDBRANCH   6   7
ENDBRANCH   5   6
ENDBRANCH   3   5
ENDBRANCH   1   3
BRANCH   1  11
ATOM     11  C   UNL     1       9.013 -16.987  21.973  1.00  0.00     0.087 C 
BRANCH  11  12
ATOM     12  C   UNL     1       8.263 -18.197  21.346  1.00  0.00     0.066 C 
BRANCH  12  13
ATOM     13  C   UNL     1       8.741 -19.564  21.850  1.00  0.00     0.140 C 
ATOM     14  O   UNL     1       8.738 -20.494  21.056  1.00  0.00    -0.299 OA
BRANCH  13  15
ATOM     15  C   UNL     1       9.111 -19.887  23.285  1.00  0.00     0.106 CG0
ATOM     16  G   UNL     1       7.953 -19.771  24.256  1.00  0.00     0.000 G0
ENDBRANCH  13  15
ENDBRANCH  12  13
BRANCH  12  17
ATOM     17  C   UNL     1       8.278 -18.124  19.780  1.00  0.00    -0.006 C 
ATOM     18  C   UNL     1       9.123 -16.943  19.265  1.00  0.00     0.008 C 
ATOM     19  C   UNL     1       6.863 -18.015  19.181  1.00  0.00     0.008 C 
ENDBRANCH  12  17
ENDBRANCH  11  12
ENDBRANCH   1  11
TORSDOF 1
ENDMDL
MODEL 6
REMARK VINA RESULT:    -3.660      9.864     12.227
REMARK INTER + INTRA:          -5.919
REMARK INTER:                  -5.416
REMARK INTRA:                  -0.503
REMARK UNBOUND:                -0.333
REMARK SMILES CC1=CCC[C@@H](C)C(=O)C[C@@H](C(C)C)C(=O)C1
REMARK SMILES IDX 8 1 9 2 6 3 7 4 5 5 4 6 3 7 2 8 1 9 10 11 11 12 15 13 16 14
REMARK SMILES IDX 17 15 12 17 13 18 14 19
REMARK H PARENT
REMARK Flexibility Score: 70.00
ROOT
ATOM      1  C   UNL     1      18.417 -25.179  22.898  1.00  0.00     0.136 C 
ATOM      2  O   UNL     1      18.856 -24.901  21.790  1.00  0.00    -0.299 OA
ENDROOT
BRANCH   1   3
ATOM      3  C   UNL     1      18.339 -24.080  23.939  1.00  0.00     0.053 C 
ATOM      4  C   UNL     1      17.142 -23.174  23.630  1.00  0.00     0.016 C 
BRANCH   3   5
ATOM      5  C   UNL     1      19.627 -23.233  24.082  1.00  0.00     0.015 C 
BRANCH   5   6
ATOM      6  C   UNL     1      20.586 -23.724  25.186  1.00  0.00     0.028 C 
BRANCH   6   7
ATOM      7  C   UNL     1      21.605 -24.714  24.661  1.00  0.00    -0.028 C 
ATOM      8  C   UNL     1      21.670 -26.037  24.942  1.00  0.00    -0.070 CG0
ATOM      9  C   UNL     1      22.824 -26.821  24.370  1.00  0.00     0.039 C 
ATOM     10  G   UNL     1      20.717 -26.749  25.881  1.00  0.00     0.000 G0
ENDBRANCH   6   7
ENDBRANCH   5   6
ENDBRANCH   3   5
ENDBRANCH   1   3
BRANCH   1  11
ATOM     11  C   UNL     1      18.151 -26.628  23.244  1.00  0.00     0.087 C 
BRANCH  11  12
ATOM     12  C   UNL     1      18.260 -26.965  24.758  1.00  0.00     0.066 C 
BRANCH  12  13
ATOM     13  C   UNL     1      19.619 -27.541  25.179  1.00  0.00     0.140 C 
ATOM     14  O   UNL     1      19.802 -28.738  25.014  1.00  0.00    -0.299 OA
BRANCH  13  15
ATOM     15  C   UNL     1      20.713 -26.768  25.888  1.00  0.00     0.106 CG0
ATOM     16  G   UNL     1      21.651 -26.034  24.950  1.00  0.00     0.000 G0
ENDBRANCH  13  15
ENDBRANCH  12  13
BRANCH  12  17
ATOM     17  C   UNL     1      17.078 -27.884  25.222  1.00  0.00    -0.006 C 
ATOM     18  C   UNL     1      16.583 -28.803  24.088  1.00  0.00     0.008 C 
ATOM     19  C   UNL     1      15.881 -27.078  25.760  1.00  0.00     0.008 C 
ENDBRANCH  12  17
ENDBRANCH  11  12
ENDBRANCH   1  11
TORSDOF 1
ENDMDL
MODEL 7
REMARK VINA RESULT:    -3.644      1.799      3.914
REMARK INTER + INTRA:          -5.894
REMARK INTER:                  -5.423
REMARK INTRA:                  -0.470
REMARK UNBOUND:                -0.333
REMARK SMILES CC1=CCC[C@@H](C)C(=O)C[C@@H](C(C)C)C(=O)C1
REMARK SMILES IDX 8 1 9 2 6 3 7 4 5 5 4 6 3 7 2 8 1 9 10 11 11 12 15 13 16 14
REMARK SMILES IDX 17 15 12 17 13 18 14 19
REMARK H PARENT
REMARK Flexibility Score: 70.00
ROOT
ATOM      1  C   UNL     1       7.543 -19.573  22.948  1.00  0.00     0.136 C 
ATOM      2  O   UNL     1       6.921 -20.285  23.725  1.00  0.00    -0.299 OA
ENDROOT
BRANCH   1   3
ATOM      3  C   UNL     1       8.192 -20.220  21.740  1.00  0.00     0.053 C 
ATOM      4  C   UNL     1       7.166 -21.108  21.029  1.00  0.00     0.016 C 
BRANCH   3   5
ATOM      5  C   UNL     1       9.475 -21.029  22.051  1.00  0.00     0.015 C 
BRANCH   5   6
ATOM      6  C   UNL     1      10.784 -20.304  21.681  1.00  0.00     0.028 C 
BRANCH   6   7
ATOM      7  C   UNL     1      11.564 -19.869  22.904  1.00  0.00    -0.028 C 
ATOM      8  C   UNL     1      11.838 -18.598  23.283  1.00  0.00    -0.070 CG0
ATOM      9  C   UNL     1      12.705 -18.398  24.499  1.00  0.00     0.039 C 
ATOM     10  G   UNL     1      11.415 -17.373  22.496  1.00  0.00     0.000 G0
ENDBRANCH   6   7
ENDBRANCH   5   6
ENDBRANCH   3   5
ENDBRANCH   1   3
BRANCH   1  11
ATOM     11  C   UNL     1       7.800 -18.128  23.316  1.00  0.00     0.087 C 
BRANCH  11  12
ATOM     12  C   UNL     1       8.698 -17.352  22.311  1.00  0.00     0.066 C 
BRANCH  12  13
ATOM     13  C   UNL     1      10.029 -16.867  22.902  1.00  0.00     0.140 C 
ATOM     14  O   UNL     1       9.991 -15.935  23.693  1.00  0.00    -0.299 OA
BRANCH  13  15
ATOM     15  C   UNL     1      11.400 -17.372  22.498  1.00  0.00     0.106 CG0
ATOM     16  G   UNL     1      11.853 -18.596  23.269  1.00  0.00     0.000 G0
ENDBRANCH  13  15
ENDBRANCH  12  13
BRANCH  12  17
ATOM     17  C   UNL     1       7.909 -16.180  21.632  1.00  0.00    -0.006 C 
ATOM     18  C   UNL     1       6.716 -15.715  22.490  1.00  0.00     0.008 C 
ATOM     19  C   UNL     1       7.393 -16.552  20.229  1.00  0.00     0.008 C 
ENDBRANCH  12  17
ENDBRANCH  11  12
ENDBRANCH   1  11
TORSDOF 1
ENDMDL
MODEL 8
REMARK VINA RESULT:    -3.600      2.508      4.948
REMARK INTER + INTRA:          -5.826
REMARK INTER:                  -5.675
REMARK INTRA:                  -0.151
REMARK UNBOUND:                -0.333
REMARK SMILES CC1=CCC[C@@H](C)C(=O)C[C@@H](C(C)C)C(=O)C1
REMARK SMILES IDX 8 1 9 2 6 3 7 4 5 5 4 6 3 7 2 8 1 9 10 11 11 12 15 13 16 14
REMARK SMILES IDX 17 15 12 17 13 18 14 19
REMARK H PARENT
REMARK Flexibility Score: 70.00
ROOT
ATOM      1  C   UNL     1       7.361 -16.204  20.454  1.00  0.00     0.136 C 
ATOM      2  O   UNL     1       6.340 -15.728  19.976  1.00  0.00    -0.299 OA
ENDROOT
BRANCH   1   3
ATOM      3  C   UNL     1       8.263 -17.026  19.555  1.00  0.00     0.053 C 
ATOM      4  C   UNL     1       8.670 -16.184  18.341  1.00  0.00     0.016 C 
BRANCH   3   5
ATOM      5  C   UNL     1       7.659 -18.374  19.092  1.00  0.00     0.015 C 
BRANCH   5   6
ATOM      6  C   UNL     1       8.584 -19.589  19.311  1.00  0.00     0.028 C 
BRANCH   6   7
ATOM      7  C   UNL     1       7.985 -20.600  20.265  1.00  0.00    -0.028 C 
ATOM      8  C   UNL     1       8.160 -20.654  21.607  1.00  0.00    -0.070 CG0
ATOM      9  C   UNL     1       7.530 -21.802  22.352  1.00  0.00     0.039 C 
ATOM     10  G   UNL     1       9.036 -19.690  22.382  1.00  0.00     0.000 G0
ENDBRANCH   6   7
ENDBRANCH   5   6
ENDBRANCH   3   5
ENDBRANCH   1   3
BRANCH   1  11
ATOM     11  C   UNL     1       7.585 -16.119  21.948  1.00  0.00     0.087 C 
BRANCH  11  12
ATOM     12  C   UNL     1       8.743 -17.009  22.483  1.00  0.00     0.066 C 
BRANCH  12  13
ATOM     13  C   UNL     1       8.321 -18.438  22.846  1.00  0.00     0.140 C 
ATOM     14  O   UNL     1       7.396 -18.574  23.634  1.00  0.00    -0.299 OA
BRANCH  13  15
ATOM     15  C   UNL     1       9.032 -19.700  22.397  1.00  0.00     0.106 CG0
ATOM     16  G   UNL     1       8.154 -20.648  21.603  1.00  0.00     0.000 G0
ENDBRANCH  13  15
ENDBRANCH  12  13
BRANCH  12  17
ATOM     17  C   UNL     1       9.492 -16.311  23.670  1.00  0.00    -0.006 C 
ATOM     18  C   UNL     1       8.660 -15.171  24.288  1.00  0.00     0.008 C 
ATOM     19  C   UNL     1      10.864 -15.749  23.252  1.00  0.00     0.008 C 
ENDBRANCH  12  17
ENDBRANCH  11  12
ENDBRANCH   1  11
TORSDOF 1
ENDMDL
MODEL 9
REMARK VINA RESULT:    -3.596      1.611      2.330
REMARK INTER + INTRA:          -5.821
REMARK INTER:                  -5.436
REMARK INTRA:                  -0.385
REMARK UNBOUND:                -0.333
REMARK SMILES CC1=CCC[C@@H](C)C(=O)C[C@@H](C(C)C)C(=O)C1
REMARK SMILES IDX 8 1 9 2 6 3 7 4 5 5 4 6 3 7 2 8 1 9 10 11 11 12 15 13 16 14
REMARK SMILES IDX 17 15 12 17 13 18 14 19
REMARK H PARENT
REMARK Flexibility Score: 70.00
ROOT
ATOM      1  C   UNL     1       8.165 -19.084  22.325  1.00  0.00     0.136 C 
ATOM      2  O   UNL     1       7.509 -18.105  21.994  1.00  0.00    -0.299 OA
ENDROOT
BRANCH   1   3
ATOM      3  C   UNL     1       8.183 -19.478  23.789  1.00  0.00     0.053 C 
ATOM      4  C   UNL     1       6.747 -19.734  24.261  1.00  0.00     0.016 C 
BRANCH   3   5
ATOM      5  C   UNL     1       8.880 -18.461  24.724  1.00  0.00     0.015 C 
BRANCH   5   6
ATOM      6  C   UNL     1      10.200 -17.891  24.165  1.00  0.00     0.028 C 
BRANCH   6   7
ATOM      7  C   UNL     1      11.405 -18.683  24.624  1.00  0.00    -0.028 C 
ATOM      8  C   UNL     1      12.194 -19.476  23.860  1.00  0.00    -0.070 CG0
ATOM      9  C   UNL     1      13.298 -20.239  24.546  1.00  0.00     0.039 C 
ATOM     10  G   UNL     1      11.964 -19.723  22.382  1.00  0.00     0.000 G0
ENDBRANCH   6   7
ENDBRANCH   5   6
ENDBRANCH   3   5
ENDBRANCH   1   3
BRANCH   1  11
ATOM     11  C   UNL     1       9.074 -19.741  21.310  1.00  0.00     0.087 C 
BRANCH  11  12
ATOM     12  C   UNL     1       9.715 -21.077  21.780  1.00  0.00     0.066 C 
BRANCH  12  13
ATOM     13  C   UNL     1      11.224 -20.992  22.047  1.00  0.00     0.140 C 
ATOM     14  O   UNL     1      11.851 -22.040  22.093  1.00  0.00    -0.299 OA
BRANCH  13  15
ATOM     15  C   UNL     1      11.984 -19.721  22.371  1.00  0.00     0.106 CG0
ATOM     16  G   UNL     1      12.194 -19.495  23.855  1.00  0.00     0.000 G0
ENDBRANCH  13  15
ENDBRANCH  12  13
BRANCH  12  17
ATOM     17  C   UNL     1       9.370 -22.249  20.798  1.00  0.00    -0.006 C 
ATOM     18  C   UNL     1       8.614 -21.753  19.550  1.00  0.00     0.008 C 
ATOM     19  C   UNL     1       8.537 -23.356  21.471  1.00  0.00     0.008 C 
ENDBRANCH  12  17
ENDBRANCH  11  12
ENDBRANCH   1  11
TORSDOF 1
ENDMDL
