MODEL 1
REMARK VINA RESULT:    -4.537      0.000      0.000
REMARK INTER + INTRA:          -4.669
REMARK INTER:                  -4.669
REMARK INTRA:                   0.000
REMARK UNBOUND:                 0.000
REMARK SMILES Nc1ncnc2nc[nH]c12
REMARK SMILES IDX 8 1 7 2 6 3 5 4 4 5 3 6 2 7 10 8 9 9 1 11
REMARK H PARENT 9 10 1 12 1 13
REMARK Flexibility Score: inf
ROOT
ATOM      1  C   UNL     1     111.592 108.726 107.081  1.00  0.00     0.199 A 
ATOM      2  N   UNL     1     112.529 109.589 107.560  1.00  0.00    -0.217 NA
ATOM      3  C   UNL     1     112.319 109.530 108.887  1.00  0.00     0.182 A 
ATOM      4  N   UNL     1     112.994 110.210 109.843  1.00  0.00    -0.215 NA
ATOM      5  C   UNL     1     112.635 110.017 111.148  1.00  0.00     0.226 A 
ATOM      6  N   UNL     1     111.616 109.157 111.470  1.00  0.00    -0.217 NA
ATOM      7  C   UNL     1     110.933 108.469 110.506  1.00  0.00     0.152 A 
ATOM      8  C   UNL     1     111.311 108.677 109.182  1.00  0.00     0.127 A 
ATOM      9  N   UNL     1     110.832 108.152 108.047  1.00  0.00    -0.340 N 
ATOM     10  H   UNL     1     110.058 107.464 107.922  1.00  0.00     0.168 HD
ENDROOT
BRANCH   7  11
ATOM     11  N   UNL     1     109.876 107.580 110.864  1.00  0.00    -0.382 N 
ATOM     12  H   UNL     1     110.048 106.551 110.900  1.00  0.00     0.158 HD
ATOM     13  H   UNL     1     108.921 107.934 111.093  1.00  0.00     0.158 HD
ENDBRANCH   7  11
TORSDOF 1
ENDMDL
MODEL 2
REMARK VINA RESULT:    -4.470      1.126      3.193
REMARK INTER + INTRA:          -4.600
REMARK INTER:                  -4.600
REMARK INTRA:                   0.000
REMARK UNBOUND:                 0.000
REMARK SMILES Nc1ncnc2nc[nH]c12
REMARK SMILES IDX 8 1 7 2 6 3 5 4 4 5 3 6 2 7 10 8 9 9 1 11
REMARK H PARENT 9 10 1 12 1 13
REMARK Flexibility Score: inf
ROOT
ATOM      1  C   UNL     1     109.780 107.865 112.255  1.00  0.00     0.199 A 
ATOM      2  N   UNL     1     110.702 108.764 112.694  1.00  0.00    -0.217 NA
ATOM      3  C   UNL     1     111.347 109.089 111.559  1.00  0.00     0.182 A 
ATOM      4  N   UNL     1     112.374 109.961 111.435  1.00  0.00    -0.215 NA
ATOM      5  C   UNL     1     112.903 110.162 110.190  1.00  0.00     0.226 A 
ATOM      6  N   UNL     1     112.399 109.493 109.103  1.00  0.00    -0.217 NA
ATOM      7  C   UNL     1     111.362 108.612 109.227  1.00  0.00     0.152 A 
ATOM      8  C   UNL     1     110.835 108.419 110.501  1.00  0.00     0.127 A 
ATOM      9  N   UNL     1     109.835 107.633 110.919  1.00  0.00    -0.340 N 
ATOM     10  H   UNL     1     109.233 106.989 110.361  1.00  0.00     0.168 HD
ENDROOT
BRANCH   7  11
ATOM     11  N   UNL     1     110.854 107.927 108.082  1.00  0.00    -0.382 N 
ATOM     12  H   UNL     1     110.476 106.959 108.177  1.00  0.00     0.158 HD
ATOM     13  H   UNL     1     110.851 108.373 107.138  1.00  0.00     0.158 HD
ENDBRANCH   7  11
TORSDOF 1
ENDMDL
MODEL 3
REMARK VINA RESULT:    -4.449      1.079      3.053
REMARK INTER + INTRA:          -4.580
REMARK INTER:                  -4.580
REMARK INTRA:                   0.000
REMARK UNBOUND:                 0.000
REMARK SMILES Nc1ncnc2nc[nH]c12
REMARK SMILES IDX 8 1 7 2 6 3 5 4 4 5 3 6 2 7 10 8 9 9 1 11
REMARK H PARENT 9 10 1 12 1 13
REMARK Flexibility Score: inf
ROOT
ATOM      1  C   UNL     1     110.863 108.706 111.045  1.00  0.00     0.199 A 
ATOM      2  N   UNL     1     111.742 109.713 110.793  1.00  0.00    -0.217 NA
ATOM      3  C   UNL     1     111.934 109.599 109.468  1.00  0.00     0.182 A 
ATOM      4  N   UNL     1     112.733 110.374 108.697  1.00  0.00    -0.215 NA
ATOM      5  C   UNL     1     112.799 110.103 107.358  1.00  0.00     0.226 A 
ATOM      6  N   UNL     1     112.070 109.072 106.820  1.00  0.00    -0.217 NA
ATOM      7  C   UNL     1     111.262 108.290 107.596  1.00  0.00     0.152 A 
ATOM      8  C   UNL     1     111.207 108.579 108.957  1.00  0.00     0.127 A 
ATOM      9  N   UNL     1     110.516 107.994 109.944  1.00  0.00    -0.340 N 
ATOM     10  H   UNL     1     109.862 107.182 109.891  1.00  0.00     0.168 HD
ENDROOT
BRANCH   7  11
ATOM     11  N   UNL     1     110.513 107.223 107.014  1.00  0.00    -0.382 N 
ATOM     12  H   UNL     1     110.037 106.524 107.626  1.00  0.00     0.158 HD
ATOM     13  H   UNL     1     110.428 107.120 105.979  1.00  0.00     0.158 HD
ENDBRANCH   7  11
TORSDOF 1
ENDMDL
MODEL 4
REMARK VINA RESULT:    -4.202      1.986      2.817
REMARK INTER + INTRA:          -4.324
REMARK INTER:                  -4.324
REMARK INTRA:                   0.000
REMARK UNBOUND:                 0.000
REMARK SMILES Nc1ncnc2nc[nH]c12
REMARK SMILES IDX 8 1 7 2 6 3 5 4 4 5 3 6 2 7 10 8 9 9 1 11
REMARK H PARENT 9 10 1 12 1 13
REMARK Flexibility Score: inf
ROOT
ATOM      1  C   UNL     1     110.618 108.365 109.702  1.00  0.00     0.199 A 
ATOM      2  N   UNL     1     111.596 109.178 110.187  1.00  0.00    -0.217 NA
ATOM      3  C   UNL     1     111.410 109.087 111.515  1.00  0.00     0.182 A 
ATOM      4  N   UNL     1     112.130 109.711 112.476  1.00  0.00    -0.215 NA
ATOM      5  C   UNL     1     111.789 109.493 113.783  1.00  0.00     0.226 A 
ATOM      6  N   UNL     1     110.745 108.662 114.100  1.00  0.00    -0.217 NA
ATOM      7  C   UNL     1     110.017 108.030 113.131  1.00  0.00     0.152 A 
ATOM      8  C   UNL     1     110.377 108.263 111.807  1.00  0.00     0.127 A 
ATOM      9  N   UNL     1     109.856 107.792 110.667  1.00  0.00    -0.340 N 
ATOM     10  H   UNL     1     109.054 107.137 110.538  1.00  0.00     0.168 HD
ENDROOT
BRANCH   7  11
ATOM     11  N   UNL     1     108.934 107.171 113.485  1.00  0.00    -0.382 N 
ATOM     12  H   UNL     1     108.390 106.682 112.740  1.00  0.00     0.158 HD
ATOM     13  H   UNL     1     108.666 107.016 114.482  1.00  0.00     0.158 HD
ENDBRANCH   7  11
TORSDOF 1
ENDMDL
MODEL 5
REMARK VINA RESULT:    -4.126      1.022      3.108
REMARK INTER + INTRA:          -4.247
REMARK INTER:                  -4.247
REMARK INTRA:                   0.000
REMARK UNBOUND:                 0.000
REMARK SMILES Nc1ncnc2nc[nH]c12
REMARK SMILES IDX 8 1 7 2 6 3 5 4 4 5 3 6 2 7 10 8 9 9 1 11
REMARK H PARENT 9 10 1 12 1 13
REMARK Flexibility Score: inf
ROOT
ATOM      1  C   UNL     1     112.543 110.389 112.622  1.00  0.00     0.199 A 
ATOM      2  N   UNL     1     113.113 110.757 111.442  1.00  0.00    -0.217 NA
ATOM      3  C   UNL     1     112.443 110.002 110.554  1.00  0.00     0.182 A 
ATOM      4  N   UNL     1     112.622 109.981 109.213  1.00  0.00    -0.215 NA
ATOM      5  C   UNL     1     111.839 109.141 108.470  1.00  0.00     0.226 A 
ATOM      6  N   UNL     1     110.900 108.346 109.076  1.00  0.00    -0.217 NA
ATOM      7  C   UNL     1     110.717 108.366 110.430  1.00  0.00     0.152 A 
ATOM      8  C   UNL     1     111.522 109.226 111.172  1.00  0.00     0.127 A 
ATOM      9  N   UNL     1     111.568 109.455 112.491  1.00  0.00    -0.340 N 
ATOM     10  H   UNL     1     110.994 109.024 113.249  1.00  0.00     0.168 HD
ENDROOT
BRANCH   7  11
ATOM     11  N   UNL     1     109.734 107.529 111.040  1.00  0.00    -0.382 N 
ATOM     12  H   UNL     1     109.056 107.002 110.447  1.00  0.00     0.158 HD
ATOM     13  H   UNL     1     109.673 107.428 112.077  1.00  0.00     0.158 HD
ENDBRANCH   7  11
TORSDOF 1
ENDMDL
MODEL 6
REMARK VINA RESULT:    -4.122      1.773      2.215
REMARK INTER + INTRA:          -4.242
REMARK INTER:                  -4.242
REMARK INTRA:                   0.000
REMARK UNBOUND:                 0.000
REMARK SMILES Nc1ncnc2nc[nH]c12
REMARK SMILES IDX 8 1 7 2 6 3 5 4 4 5 3 6 2 7 10 8 9 9 1 11
REMARK H PARENT 9 10 1 12 1 13
REMARK Flexibility Score: inf
ROOT
ATOM      1  C   UNL     1     112.672 109.649 106.955  1.00  0.00     0.199 A 
ATOM      2  N   UNL     1     113.108 109.211 108.167  1.00  0.00    -0.217 NA
ATOM      3  C   UNL     1     112.024 109.387 108.941  1.00  0.00     0.182 A 
ATOM      4  N   UNL     1     111.918 109.104 110.261  1.00  0.00    -0.215 NA
ATOM      5  C   UNL     1     110.725 109.353 110.881  1.00  0.00     0.226 A 
ATOM      6  N   UNL     1     109.669 109.875 110.177  1.00  0.00    -0.217 NA
ATOM      7  C   UNL     1     109.774 110.160 108.844  1.00  0.00     0.152 A 
ATOM      8  C   UNL     1     110.995 109.902 108.228  1.00  0.00     0.127 A 
ATOM      9  N   UNL     1     111.385 110.078 106.959  1.00  0.00    -0.340 N 
ATOM     10  H   UNL     1     110.837 110.454 106.154  1.00  0.00     0.168 HD
ENDROOT
BRANCH   7  11
ATOM     11  N   UNL     1     108.663 110.703 108.132  1.00  0.00    -0.382 N 
ATOM     12  H   UNL     1     108.653 110.688 107.088  1.00  0.00     0.158 HD
ATOM     13  H   UNL     1     107.848 111.123 108.632  1.00  0.00     0.158 HD
ENDBRANCH   7  11
TORSDOF 1
ENDMDL
MODEL 7
REMARK VINA RESULT:    -4.010      2.574      4.037
REMARK INTER + INTRA:          -4.128
REMARK INTER:                  -4.128
REMARK INTRA:                   0.000
REMARK UNBOUND:                 0.000
REMARK SMILES Nc1ncnc2nc[nH]c12
REMARK SMILES IDX 8 1 7 2 6 3 5 4 4 5 3 6 2 7 10 8 9 9 1 11
REMARK H PARENT 9 10 1 12 1 13
REMARK Flexibility Score: inf
ROOT
ATOM      1  C   UNL     1     112.779 111.102 112.228  1.00  0.00     0.199 A 
ATOM      2  N   UNL     1     112.380 110.281 113.237  1.00  0.00    -0.217 NA
ATOM      3  C   UNL     1     111.272 109.718 112.725  1.00  0.00     0.182 A 
ATOM      4  N   UNL     1     110.474 108.807 113.331  1.00  0.00    -0.215 NA
ATOM      5  C   UNL     1     109.384 108.346 112.645  1.00  0.00     0.226 A 
ATOM      6  N   UNL     1     109.115 108.800 111.379  1.00  0.00    -0.217 NA
ATOM      7  C   UNL     1     109.920 109.719 110.765  1.00  0.00     0.152 A 
ATOM      8  C   UNL     1     111.025 110.178 111.477  1.00  0.00     0.127 A 
ATOM      9  N   UNL     1     111.972 111.062 111.139  1.00  0.00    -0.340 N 
ATOM     10  H   UNL     1     112.076 111.599 110.250  1.00  0.00     0.168 HD
ENDROOT
BRANCH   7  11
ATOM     11  N   UNL     1     109.620 110.177 109.447  1.00  0.00    -0.382 N 
ATOM     12  H   UNL     1     110.063 111.049 109.083  1.00  0.00     0.158 HD
ATOM     13  H   UNL     1     108.959 109.658 108.828  1.00  0.00     0.158 HD
ENDBRANCH   7  11
TORSDOF 1
ENDMDL
MODEL 8
REMARK VINA RESULT:    -3.945      1.190      2.570
REMARK INTER + INTRA:          -4.060
REMARK INTER:                  -4.060
REMARK INTRA:                   0.000
REMARK UNBOUND:                 0.000
REMARK SMILES Nc1ncnc2nc[nH]c12
REMARK SMILES IDX 8 1 7 2 6 3 5 4 4 5 3 6 2 7 10 8 9 9 1 11
REMARK H PARENT 9 10 1 12 1 13
REMARK Flexibility Score: inf
ROOT
ATOM      1  C   UNL     1     111.687 109.379 107.776  1.00  0.00     0.199 A 
ATOM      2  N   UNL     1     110.904 108.387 108.281  1.00  0.00    -0.217 NA
ATOM      3  C   UNL     1     110.861 108.696 109.589  1.00  0.00     0.182 A 
ATOM      4  N   UNL     1     110.203 108.017 110.558  1.00  0.00    -0.215 NA
ATOM      5  C   UNL     1     110.276 108.488 111.839  1.00  0.00     0.226 A 
ATOM      6  N   UNL     1     110.998 109.619 112.125  1.00  0.00    -0.217 NA
ATOM      7  C   UNL     1     111.663 110.306 111.148  1.00  0.00     0.152 A 
ATOM      8  C   UNL     1     111.578 109.813 109.849  1.00  0.00     0.127 A 
ATOM      9  N   UNL     1     112.115 110.266 108.709  1.00  0.00    -0.340 N 
ATOM     10  H   UNL     1     112.720 111.104 108.560  1.00  0.00     0.168 HD
ENDROOT
BRANCH   7  11
ATOM     11  N   UNL     1     112.409 111.480 111.469  1.00  0.00    -0.382 N 
ATOM     12  H   UNL     1     112.988 111.510 112.337  1.00  0.00     0.158 HD
ATOM     13  H   UNL     1     112.390 112.322 110.852  1.00  0.00     0.158 HD
ENDBRANCH   7  11
TORSDOF 1
ENDMDL
MODEL 9
REMARK VINA RESULT:    -3.822      2.706      4.228
REMARK INTER + INTRA:          -3.934
REMARK INTER:                  -3.934
REMARK INTRA:                   0.000
REMARK UNBOUND:                 0.000
REMARK SMILES Nc1ncnc2nc[nH]c12
REMARK SMILES IDX 8 1 7 2 6 3 5 4 4 5 3 6 2 7 10 8 9 9 1 11
REMARK H PARENT 9 10 1 12 1 13
REMARK Flexibility Score: inf
ROOT
ATOM      1  C   UNL     1     109.327 107.678 113.482  1.00  0.00     0.199 A 
ATOM      2  N   UNL     1     110.450 108.101 114.125  1.00  0.00    -0.217 NA
ATOM      3  C   UNL     1     110.943 109.012 113.268  1.00  0.00     0.182 A 
ATOM      4  N   UNL     1     112.070 109.745 113.428  1.00  0.00    -0.215 NA
ATOM      5  C   UNL     1     112.412 110.627 112.440  1.00  0.00     0.226 A 
ATOM      6  N   UNL     1     111.628 110.758 111.322  1.00  0.00    -0.217 NA
ATOM      7  C   UNL     1     110.490 110.019 111.159  1.00  0.00     0.152 A 
ATOM      8  C   UNL     1     110.156 109.126 112.173  1.00  0.00     0.127 A 
ATOM      9  N   UNL     1     109.120 108.286 112.287  1.00  0.00    -0.340 N 
ATOM     10  H   UNL     1     108.332 108.126 111.621  1.00  0.00     0.168 HD
ENDROOT
BRANCH   7  11
ATOM     11  N   UNL     1     109.690 110.172 109.986  1.00  0.00    -0.382 N 
ATOM     12  H   UNL     1     108.767 109.690 109.917  1.00  0.00     0.158 HD
ATOM     13  H   UNL     1     110.007 110.760 109.184  1.00  0.00     0.158 HD
ENDBRANCH   7  11
TORSDOF 1
ENDMDL
