MODEL 1
REMARK VINA RESULT:    -4.011      0.000      0.000
REMARK INTER + INTRA:          -4.128
REMARK INTER:                  -4.128
REMARK INTRA:                   0.000
REMARK UNBOUND:                 0.000
REMARK SMILES Oc1ccc2[nH]ccc2c1
REMARK SMILES IDX 3 1 4 2 5 3 9 4 8 5 7 6 6 7 10 8 2 9 1 11
REMARK H PARENT 6 10 1 12
REMARK Flexibility Score: inf
ROOT
ATOM      1  C   UNL     1     100.811  91.299 105.656  1.00  0.00     0.048 A 
ATOM      2  C   UNL     1     100.115  91.850 104.564  1.00  0.00     0.030 A 
ATOM      3  C   UNL     1     100.847  92.185 103.427  1.00  0.00     0.046 A 
ATOM      4  C   UNL     1     102.202  91.992 103.360  1.00  0.00     0.003 A 
ATOM      5  C   UNL     1     102.619  92.421 102.120  1.00  0.00     0.028 A 
ATOM      6  C   UNL     1     101.465  92.865 101.481  1.00  0.00     0.083 A 
ATOM      7  N   UNL     1     100.385  92.718 102.284  1.00  0.00    -0.361 N 
ATOM      8  C   UNL     1     102.921  91.449 104.423  1.00  0.00     0.056 A 
ATOM      9  C   UNL     1     102.210  91.098 105.589  1.00  0.00     0.116 A 
ATOM     10  H   UNL     1      99.398  92.970 102.058  1.00  0.00     0.166 HD
ENDROOT
BRANCH   9  11
ATOM     11  O   UNL     1     102.874  90.551 106.684  1.00  0.00    -0.508 OA
ATOM     12  H   UNL     1     103.335  89.650 106.626  1.00  0.00     0.293 HD
ENDBRANCH   9  11
TORSDOF 1
ENDMDL
MODEL 2
REMARK VINA RESULT:    -3.975     16.076     16.761
REMARK INTER + INTRA:          -4.091
REMARK INTER:                  -4.091
REMARK INTRA:                   0.000
REMARK UNBOUND:                 0.000
REMARK SMILES Oc1ccc2[nH]ccc2c1
REMARK SMILES IDX 3 1 4 2 5 3 9 4 8 5 7 6 6 7 10 8 2 9 1 11
REMARK H PARENT 6 10 1 12
REMARK Flexibility Score: inf
ROOT
ATOM      1  C   UNL     1      99.084 108.636 105.539  1.00  0.00     0.048 A 
ATOM      2  C   UNL     1      99.775 108.061 104.457  1.00  0.00     0.030 A 
ATOM      3  C   UNL     1      99.039 107.711 103.326  1.00  0.00     0.046 A 
ATOM      4  C   UNL     1      97.686 107.914 103.257  1.00  0.00     0.003 A 
ATOM      5  C   UNL     1      97.265 107.467 102.024  1.00  0.00     0.028 A 
ATOM      6  C   UNL     1      98.416 107.003 101.393  1.00  0.00     0.083 A 
ATOM      7  N   UNL     1      99.497 107.155 102.193  1.00  0.00    -0.361 N 
ATOM      8  C   UNL     1      96.972 108.481 104.310  1.00  0.00     0.056 A 
ATOM      9  C   UNL     1      97.687 108.846 105.470  1.00  0.00     0.116 A 
ATOM     10  H   UNL     1     100.482 106.891 101.971  1.00  0.00     0.166 HD
ENDROOT
BRANCH   9  11
ATOM     11  O   UNL     1      97.027 109.418 106.555  1.00  0.00    -0.508 OA
ATOM     12  H   UNL     1      96.161 109.029 106.912  1.00  0.00     0.293 HD
ENDBRANCH   9  11
TORSDOF 1
ENDMDL
MODEL 3
REMARK VINA RESULT:    -3.957     11.103     11.796
REMARK INTER + INTRA:          -4.073
REMARK INTER:                  -4.073
REMARK INTRA:                   0.000
REMARK UNBOUND:                 0.000
REMARK SMILES Oc1ccc2[nH]ccc2c1
REMARK SMILES IDX 3 1 4 2 5 3 9 4 8 5 7 6 6 7 10 8 2 9 1 11
REMARK H PARENT 6 10 1 12
REMARK Flexibility Score: inf
ROOT
ATOM      1  C   UNL     1      91.315  99.231 105.383  1.00  0.00     0.048 A 
ATOM      2  C   UNL     1      91.891  99.905 104.290  1.00  0.00     0.030 A 
ATOM      3  C   UNL     1      92.307  99.142 103.201  1.00  0.00     0.046 A 
ATOM      4  C   UNL     1      92.167  97.780 103.181  1.00  0.00     0.003 A 
ATOM      5  C   UNL     1      92.669  97.332 101.979  1.00  0.00     0.028 A 
ATOM      6  C   UNL     1      93.099  98.477 101.315  1.00  0.00     0.083 A 
ATOM      7  N   UNL     1      92.875  99.580 102.066  1.00  0.00    -0.361 N 
ATOM      8  C   UNL     1      91.602  97.082 104.246  1.00  0.00     0.056 A 
ATOM      9  C   UNL     1      91.170  97.824 105.365  1.00  0.00     0.116 A 
ATOM     10  H   UNL     1      93.100 100.567 101.811  1.00  0.00     0.166 HD
ENDROOT
BRANCH   9  11
ATOM     11  O   UNL     1      90.597  97.182 106.460  1.00  0.00    -0.508 OA
ATOM     12  H   UNL     1      89.591  97.097 106.555  1.00  0.00     0.293 HD
ENDBRANCH   9  11
TORSDOF 1
ENDMDL
MODEL 4
REMARK VINA RESULT:    -3.936     10.989     11.616
REMARK INTER + INTRA:          -4.051
REMARK INTER:                  -4.051
REMARK INTRA:                   0.000
REMARK UNBOUND:                 0.000
REMARK SMILES Oc1ccc2[nH]ccc2c1
REMARK SMILES IDX 3 1 4 2 5 3 9 4 8 5 7 6 6 7 10 8 2 9 1 11
REMARK H PARENT 6 10 1 12
REMARK Flexibility Score: inf
ROOT
ATOM      1  C   UNL     1     108.379 100.633 105.397  1.00  0.00     0.048 A 
ATOM      2  C   UNL     1     107.856  99.987 104.261  1.00  0.00     0.030 A 
ATOM      3  C   UNL     1     107.474 100.778 103.180  1.00  0.00     0.046 A 
ATOM      4  C   UNL     1     107.597 102.143 103.208  1.00  0.00     0.003 A 
ATOM      5  C   UNL     1     107.137 102.622 102.001  1.00  0.00     0.028 A 
ATOM      6  C   UNL     1     106.748 101.493 101.285  1.00  0.00     0.083 A 
ATOM      7  N   UNL     1     106.957 100.369 102.010  1.00  0.00    -0.361 N 
ATOM      8  C   UNL     1     108.110 102.813 104.316  1.00  0.00     0.056 A 
ATOM      9  C   UNL     1     108.507 102.042 105.428  1.00  0.00     0.116 A 
ATOM     10  H   UNL     1     106.755  99.388 101.717  1.00  0.00     0.166 HD
ENDROOT
BRANCH   9  11
ATOM     11  O   UNL     1     109.028 102.656 106.564  1.00  0.00    -0.508 OA
ATOM     12  H   UNL     1     109.653 102.163 107.191  1.00  0.00     0.293 HD
ENDBRANCH   9  11
TORSDOF 1
ENDMDL
MODEL 5
REMARK VINA RESULT:    -3.859     10.915     11.833
REMARK INTER + INTRA:          -3.972
REMARK INTER:                  -3.972
REMARK INTRA:                   0.000
REMARK UNBOUND:                 0.000
REMARK SMILES Oc1ccc2[nH]ccc2c1
REMARK SMILES IDX 3 1 4 2 5 3 9 4 8 5 7 6 6 7 10 8 2 9 1 11
REMARK H PARENT 6 10 1 12
REMARK Flexibility Score: inf
ROOT
ATOM      1  C   UNL     1     106.952 102.061 101.431  1.00  0.00     0.048 A 
ATOM      2  C   UNL     1     107.667 102.836 102.363  1.00  0.00     0.030 A 
ATOM      3  C   UNL     1     107.903 102.287 103.622  1.00  0.00     0.046 A 
ATOM      4  C   UNL     1     107.458 101.035 103.956  1.00  0.00     0.003 A 
ATOM      5  C   UNL     1     107.848 100.793 105.254  1.00  0.00     0.028 A 
ATOM      6  C   UNL     1     108.527 101.941 105.651  1.00  0.00     0.083 A 
ATOM      7  N   UNL     1     108.557 102.851 104.650  1.00  0.00    -0.361 N 
ATOM      8  C   UNL     1     106.748 100.242 103.057  1.00  0.00     0.056 A 
ATOM      9  C   UNL     1     106.492 100.768 101.774  1.00  0.00     0.116 A 
ATOM     10  H   UNL     1     109.000 103.796 104.676  1.00  0.00     0.166 HD
ENDROOT
BRANCH   9  11
ATOM     11  O   UNL     1     105.788 100.021 100.832  1.00  0.00    -0.508 OA
ATOM     12  H   UNL     1     105.433  99.097 101.050  1.00  0.00     0.293 HD
ENDBRANCH   9  11
TORSDOF 1
ENDMDL
MODEL 6
REMARK VINA RESULT:    -3.807     15.609     16.404
REMARK INTER + INTRA:          -3.918
REMARK INTER:                  -3.918
REMARK INTRA:                   0.000
REMARK UNBOUND:                 0.000
REMARK SMILES Oc1ccc2[nH]ccc2c1
REMARK SMILES IDX 3 1 4 2 5 3 9 4 8 5 7 6 6 7 10 8 2 9 1 11
REMARK H PARENT 6 10 1 12
REMARK Flexibility Score: inf
ROOT
ATOM      1  C   UNL     1      97.677 107.241 101.604  1.00  0.00     0.048 A 
ATOM      2  C   UNL     1      97.032 107.931 102.648  1.00  0.00     0.030 A 
ATOM      3  C   UNL     1      97.728 108.101 103.843  1.00  0.00     0.046 A 
ATOM      4  C   UNL     1      98.999 107.618 104.011  1.00  0.00     0.003 A 
ATOM      5  C   UNL     1      99.398 107.947 105.287  1.00  0.00     0.028 A 
ATOM      6  C   UNL     1      98.321 108.631 105.842  1.00  0.00     0.083 A 
ATOM      7  N   UNL     1      97.303 108.723 104.955  1.00  0.00    -0.361 N 
ATOM      8  C   UNL     1      99.665 106.931 102.999  1.00  0.00     0.056 A 
ATOM      9  C   UNL     1      98.989 106.741 101.776  1.00  0.00     0.116 A 
ATOM     10  H   UNL     1      96.378 109.182 105.108  1.00  0.00     0.166 HD
ENDROOT
BRANCH   9  11
ATOM     11  O   UNL     1      99.605 106.063 100.726  1.00  0.00    -0.508 OA
ATOM     12  H   UNL     1      99.477 106.353  99.763  1.00  0.00     0.293 HD
ENDBRANCH   9  11
TORSDOF 1
ENDMDL
MODEL 7
REMARK VINA RESULT:    -3.773      2.650      4.070
REMARK INTER + INTRA:          -3.883
REMARK INTER:                  -3.883
REMARK INTRA:                   0.000
REMARK UNBOUND:                 0.000
REMARK SMILES Oc1ccc2[nH]ccc2c1
REMARK SMILES IDX 3 1 4 2 5 3 9 4 8 5 7 6 6 7 10 8 2 9 1 11
REMARK H PARENT 6 10 1 12
REMARK Flexibility Score: inf
ROOT
ATOM      1  C   UNL     1     102.089  92.551 101.598  1.00  0.00     0.048 A 
ATOM      2  C   UNL     1     103.004  91.856 102.412  1.00  0.00     0.030 A 
ATOM      3  C   UNL     1     102.657  91.641 103.744  1.00  0.00     0.046 A 
ATOM      4  C   UNL     1     101.469  92.088 104.260  1.00  0.00     0.003 A 
ATOM      5  C   UNL     1     101.432  91.720 105.586  1.00  0.00     0.028 A 
ATOM      6  C   UNL     1     102.632  91.052 105.813  1.00  0.00     0.083 A 
ATOM      7  N   UNL     1     103.377  91.007 104.684  1.00  0.00    -0.361 N 
ATOM      8  C   UNL     1     100.542  92.778 103.482  1.00  0.00     0.056 A 
ATOM      9  C   UNL     1     100.862  93.012 102.128  1.00  0.00     0.116 A 
ATOM     10  H   UNL     1     104.318  90.569 104.572  1.00  0.00     0.166 HD
ENDROOT
BRANCH   9  11
ATOM     11  O   UNL     1      99.975  93.697 101.301  1.00  0.00    -0.508 OA
ATOM     12  H   UNL     1     100.193  94.620 100.942  1.00  0.00     0.293 HD
ENDBRANCH   9  11
TORSDOF 1
ENDMDL
MODEL 8
REMARK VINA RESULT:    -3.765     11.434     11.853
REMARK INTER + INTRA:          -3.875
REMARK INTER:                  -3.875
REMARK INTRA:                   0.000
REMARK UNBOUND:                 0.000
REMARK SMILES Oc1ccc2[nH]ccc2c1
REMARK SMILES IDX 3 1 4 2 5 3 9 4 8 5 7 6 6 7 10 8 2 9 1 11
REMARK H PARENT 6 10 1 12
REMARK Flexibility Score: inf
ROOT
ATOM      1  C   UNL     1      93.673  99.983 102.834  1.00  0.00     0.048 A 
ATOM      2  C   UNL     1      92.911  99.594 103.952  1.00  0.00     0.030 A 
ATOM      3  C   UNL     1      92.112  98.459 103.833  1.00  0.00     0.046 A 
ATOM      4  C   UNL     1      92.058  97.736 102.671  1.00  0.00     0.003 A 
ATOM      5  C   UNL     1      91.187  96.689 102.877  1.00  0.00     0.028 A 
ATOM      6  C   UNL     1      90.746  96.836 104.189  1.00  0.00     0.083 A 
ATOM      7  N   UNL     1      91.314  97.919 104.769  1.00  0.00    -0.361 N 
ATOM      8  C   UNL     1      92.799  98.094 101.546  1.00  0.00     0.056 A 
ATOM      9  C   UNL     1      93.619  99.238 101.633  1.00  0.00     0.116 A 
ATOM     10  H   UNL     1      91.161  98.261 105.743  1.00  0.00     0.166 HD
ENDROOT
BRANCH   9  11
ATOM     11  O   UNL     1      94.382  99.644 100.542  1.00  0.00    -0.508 OA
ATOM     12  H   UNL     1      95.134  99.069 100.180  1.00  0.00     0.293 HD
ENDBRANCH   9  11
TORSDOF 1
ENDMDL
MODEL 9
REMARK VINA RESULT:    -3.755     11.001     11.815
REMARK INTER + INTRA:          -3.865
REMARK INTER:                  -3.865
REMARK INTRA:                   0.000
REMARK UNBOUND:                 0.000
REMARK SMILES Oc1ccc2[nH]ccc2c1
REMARK SMILES IDX 3 1 4 2 5 3 9 4 8 5 7 6 6 7 10 8 2 9 1 11
REMARK H PARENT 6 10 1 12
REMARK Flexibility Score: inf
ROOT
ATOM      1  C   UNL     1     106.309  99.975 103.044  1.00  0.00     0.048 A 
ATOM      2  C   UNL     1     107.021 100.493 104.141  1.00  0.00     0.030 A 
ATOM      3  C   UNL     1     107.774 101.649 103.942  1.00  0.00     0.046 A 
ATOM      4  C   UNL     1     107.829 102.271 102.723  1.00  0.00     0.003 A 
ATOM      5  C   UNL     1     108.648 103.369 102.858  1.00  0.00     0.028 A 
ATOM      6  C   UNL     1     109.059 103.356 104.187  1.00  0.00     0.083 A 
ATOM      7  N   UNL     1     108.522 102.303 104.845  1.00  0.00    -0.361 N 
ATOM      8  C   UNL     1     107.136 101.784 101.617  1.00  0.00     0.056 A 
ATOM      9  C   UNL     1     106.363 100.616 101.784  1.00  0.00     0.116 A 
ATOM     10  H   UNL     1     108.663 102.054 105.849  1.00  0.00     0.166 HD
ENDROOT
BRANCH   9  11
ATOM     11  O   UNL     1     105.648 100.082 100.715  1.00  0.00    -0.508 OA
ATOM     12  H   UNL     1     106.049 100.032  99.784  1.00  0.00     0.293 HD
ENDBRANCH   9  11
TORSDOF 1
ENDMDL
