MODEL 1
REMARK VINA RESULT:    -2.970      0.000      0.000
REMARK INTER + INTRA:          -2.970
REMARK INTER:                  -2.970
REMARK INTRA:                   0.000
REMARK UNBOUND:                 0.000
REMARK SMILES CC(=O)[O-]
REMARK SMILES IDX 1 1 2 2 3 3 4 4
REMARK H PARENT
REMARK Flexibility Score: inf
ROOT
ATOM      1  C   UNL     1     -21.847  15.536  11.517  1.00  0.00     0.063 C 
ATOM      2  C   UNL     1     -20.814  15.387  10.452  1.00  0.00     0.038 C 
ATOM      3  O   UNL     1     -20.587  16.335   9.656  1.00  0.00    -0.550 OA
ATOM      4  O   UNL     1     -20.064  14.221  10.369  1.00  0.00    -0.550 OA
ENDROOT
TORSDOF 0
ENDMDL
MODEL 2
REMARK VINA RESULT:    -2.608     14.738     15.191
REMARK INTER + INTRA:          -2.608
REMARK INTER:                  -2.608
REMARK INTRA:                   0.000
REMARK UNBOUND:                 0.000
REMARK SMILES CC(=O)[O-]
REMARK SMILES IDX 1 1 2 2 3 3 4 4
REMARK H PARENT
REMARK Flexibility Score: inf
ROOT
ATOM      1  C   UNL     1     -28.324   1.746  11.111  1.00  0.00     0.063 C 
ATOM      2  C   UNL     1     -29.000   2.682  10.166  1.00  0.00     0.038 C 
ATOM      3  O   UNL     1     -30.026   2.313   9.538  1.00  0.00    -0.550 OA
ATOM      4  O   UNL     1     -28.529   3.980  10.018  1.00  0.00    -0.550 OA
ENDROOT
TORSDOF 0
ENDMDL
MODEL 3
REMARK VINA RESULT:    -2.540     10.974     11.307
REMARK INTER + INTRA:          -2.540
REMARK INTER:                  -2.540
REMARK INTRA:                   0.000
REMARK UNBOUND:                 0.000
REMARK SMILES CC(=O)[O-]
REMARK SMILES IDX 1 1 2 2 3 3 4 4
REMARK H PARENT
REMARK Flexibility Score: inf
ROOT
ATOM      1  C   UNL     1     -31.117  14.906  14.220  1.00  0.00     0.063 C 
ATOM      2  C   UNL     1     -31.656  14.255  12.991  1.00  0.00     0.038 C 
ATOM      3  O   UNL     1     -30.870  13.786  12.129  1.00  0.00    -0.550 OA
ATOM      4  O   UNL     1     -33.028  14.119  12.821  1.00  0.00    -0.550 OA
ENDROOT
TORSDOF 0
ENDMDL
MODEL 4
REMARK VINA RESULT:    -2.525     11.003     11.347
REMARK INTER + INTRA:          -2.525
REMARK INTER:                  -2.525
REMARK INTRA:                   0.000
REMARK UNBOUND:                 0.000
REMARK SMILES CC(=O)[O-]
REMARK SMILES IDX 1 1 2 2 3 3 4 4
REMARK H PARENT
REMARK Flexibility Score: inf
ROOT
ATOM      1  C   UNL     1     -33.107  14.086  13.355  1.00  0.00     0.063 C 
ATOM      2  C   UNL     1     -31.665  14.439  13.216  1.00  0.00     0.038 C 
ATOM      3  O   UNL     1     -31.026  14.088  12.191  1.00  0.00    -0.550 OA
ATOM      4  O   UNL     1     -31.038  15.202  14.193  1.00  0.00    -0.550 OA
ENDROOT
TORSDOF 0
ENDMDL
MODEL 5
REMARK VINA RESULT:    -2.447     18.965     19.375
REMARK INTER + INTRA:          -2.447
REMARK INTER:                  -2.447
REMARK INTRA:                   0.000
REMARK UNBOUND:                 0.000
REMARK SMILES CC(=O)[O-]
REMARK SMILES IDX 1 1 2 2 3 3 4 4
REMARK H PARENT
REMARK Flexibility Score: inf
ROOT
ATOM      1  C   UNL     1     -29.394  13.988  27.257  1.00  0.00     0.063 C 
ATOM      2  C   UNL     1     -30.351  15.131  27.271  1.00  0.00     0.038 C 
ATOM      3  O   UNL     1     -30.133  16.145  26.559  1.00  0.00    -0.550 OA
ATOM      4  O   UNL     1     -31.513  15.057  28.028  1.00  0.00    -0.550 OA
ENDROOT
TORSDOF 0
ENDMDL
MODEL 6
REMARK VINA RESULT:    -2.440     19.674     20.107
REMARK INTER + INTRA:          -2.440
REMARK INTER:                  -2.440
REMARK INTRA:                   0.000
REMARK UNBOUND:                 0.000
REMARK SMILES CC(=O)[O-]
REMARK SMILES IDX 1 1 2 2 3 3 4 4
REMARK H PARENT
REMARK Flexibility Score: inf
ROOT
ATOM      1  C   UNL     1     -30.682  13.496  28.037  1.00  0.00     0.063 C 
ATOM      2  C   UNL     1     -31.175  14.847  27.645  1.00  0.00     0.038 C 
ATOM      3  O   UNL     1     -32.395  15.131  27.755  1.00  0.00    -0.550 OA
ATOM      4  O   UNL     1     -30.278  15.814  27.206  1.00  0.00    -0.550 OA
ENDROOT
TORSDOF 0
ENDMDL
MODEL 7
REMARK VINA RESULT:    -2.408     12.529     12.993
REMARK INTER + INTRA:          -2.408
REMARK INTER:                  -2.408
REMARK INTRA:                   0.000
REMARK UNBOUND:                 0.000
REMARK SMILES CC(=O)[O-]
REMARK SMILES IDX 1 1 2 2 3 3 4 4
REMARK H PARENT
REMARK Flexibility Score: inf
ROOT
ATOM      1  C   UNL     1     -16.737   5.034  15.254  1.00  0.00     0.063 C 
ATOM      2  C   UNL     1     -16.111   3.957  14.435  1.00  0.00     0.038 C 
ATOM      3  O   UNL     1     -15.089   4.202  13.744  1.00  0.00    -0.550 OA
ATOM      4  O   UNL     1     -16.624   2.666  14.474  1.00  0.00    -0.550 OA
ENDROOT
TORSDOF 0
ENDMDL
MODEL 8
REMARK VINA RESULT:    -2.283     10.195     10.462
REMARK INTER + INTRA:          -2.283
REMARK INTER:                  -2.283
REMARK INTRA:                   0.000
REMARK UNBOUND:                 0.000
REMARK SMILES CC(=O)[O-]
REMARK SMILES IDX 1 1 2 2 3 3 4 4
REMARK H PARENT
REMARK Flexibility Score: inf
ROOT
ATOM      1  C   UNL     1     -31.805  11.911  13.078  1.00  0.00     0.063 C 
ATOM      2  C   UNL     1     -30.661  12.778  12.673  1.00  0.00     0.038 C 
ATOM      3  O   UNL     1     -30.874  13.866  12.077  1.00  0.00    -0.550 OA
ATOM      4  O   UNL     1     -29.362  12.412  12.999  1.00  0.00    -0.550 OA
ENDROOT
TORSDOF 0
ENDMDL
MODEL 9
REMARK VINA RESULT:    -2.116     17.945     18.337
REMARK INTER + INTRA:          -2.116
REMARK INTER:                  -2.116
REMARK INTRA:                   0.000
REMARK UNBOUND:                 0.000
REMARK SMILES CC(=O)[O-]
REMARK SMILES IDX 1 1 2 2 3 3 4 4
REMARK H PARENT
REMARK Flexibility Score: inf
ROOT
ATOM      1  C   UNL     1     -30.972  14.083  25.656  1.00  0.00     0.063 C 
ATOM      2  C   UNL     1     -30.618  15.512  25.894  1.00  0.00     0.038 C 
ATOM      3  O   UNL     1     -30.714  16.350  24.962  1.00  0.00    -0.550 OA
ATOM      4  O   UNL     1     -30.233  15.930  27.162  1.00  0.00    -0.550 OA
ENDROOT
TORSDOF 0
ENDMDL
