MODEL 1
REMARK VINA RESULT:    -3.800      0.000      0.000
REMARK INTER + INTRA:          -6.030
REMARK INTER:                  -5.356
REMARK INTRA:                  -0.674
REMARK UNBOUND:                -0.674
REMARK SMILES CCCCCCCCC(=O)[O-]
REMARK SMILES IDX 6 1 7 2 8 3 9 4 10 5 11 6 5 7 4 8 3 9 2 10 1 11
REMARK H PARENT
REMARK Flexibility Score: inf
ROOT
ATOM      1  C   UNL     1     -31.639  12.671  13.355  1.00  0.00     0.000 C 
ENDROOT
BRANCH   1   2
ATOM      2  C   UNL     1     -30.377  12.390  12.519  1.00  0.00     0.006 C 
BRANCH   2   3
ATOM      3  C   UNL     1     -29.185  11.933  13.372  1.00  0.00     0.053 C 
BRANCH   3   4
ATOM      4  C   UNL     1     -28.769  10.549  12.986  1.00  0.00     0.041 C 
ATOM      5  O   UNL     1     -29.382   9.933  12.076  1.00  0.00    -0.550 OA
ATOM      6  O   UNL     1     -27.671   9.958  13.599  1.00  0.00    -0.550 OA
ENDBRANCH   3   4
ENDBRANCH   2   3
ENDBRANCH   1   2
BRANCH   1   7
ATOM      7  C   UNL     1     -32.092  14.142  13.378  1.00  0.00     0.000 C 
BRANCH   7   8
ATOM      8  C   UNL     1     -31.140  15.050  14.170  1.00  0.00    -0.000 C 
BRANCH   8   9
ATOM      9  C   UNL     1     -31.109  14.651  15.654  1.00  0.00    -0.000 C 
BRANCH   9  10
ATOM     10  C   UNL     1     -29.704  14.763  16.265  1.00  0.00    -0.003 C 
ATOM     11  C   UNL     1     -28.620  15.008  15.216  1.00  0.00     0.004 C 
ENDBRANCH   9  10
ENDBRANCH   8   9
ENDBRANCH   7   8
ENDBRANCH   1   7
TORSDOF 7
ENDMDL
MODEL 2
REMARK VINA RESULT:    -3.703      2.857      4.330
REMARK INTER + INTRA:          -5.892
REMARK INTER:                  -5.632
REMARK INTRA:                  -0.260
REMARK UNBOUND:                -0.674
REMARK SMILES CCCCCCCCC(=O)[O-]
REMARK SMILES IDX 6 1 7 2 8 3 9 4 10 5 11 6 5 7 4 8 3 9 2 10 1 11
REMARK H PARENT
REMARK Flexibility Score: inf
ROOT
ATOM      1  C   UNL     1     -29.275  14.757  14.991  1.00  0.00     0.000 C 
ENDROOT
BRANCH   1   2
ATOM      2  C   UNL     1     -30.797  14.804  15.218  1.00  0.00     0.006 C 
BRANCH   2   3
ATOM      3  C   UNL     1     -31.594  14.872  13.909  1.00  0.00     0.053 C 
BRANCH   3   4
ATOM      4  C   UNL     1     -31.467  13.588  13.154  1.00  0.00     0.041 C 
ATOM      5  O   UNL     1     -32.000  12.537  13.595  1.00  0.00    -0.550 OA
ATOM      6  O   UNL     1     -30.801  13.562  11.935  1.00  0.00    -0.550 OA
ENDBRANCH   3   4
ENDBRANCH   2   3
ENDBRANCH   1   2
BRANCH   1   7
ATOM      7  C   UNL     1     -28.421  15.183  16.200  1.00  0.00     0.000 C 
BRANCH   7   8
ATOM      8  C   UNL     1     -29.238  15.893  17.290  1.00  0.00    -0.000 C 
BRANCH   8   9
ATOM      9  C   UNL     1     -28.320  16.446  18.391  1.00  0.00    -0.000 C 
BRANCH   9  10
ATOM     10  C   UNL     1     -28.886  17.713  19.050  1.00  0.00    -0.003 C 
ATOM     11  C   UNL     1     -29.057  17.568  20.562  1.00  0.00     0.004 C 
ENDBRANCH   9  10
ENDBRANCH   8   9
ENDBRANCH   7   8
ENDBRANCH   1   7
TORSDOF 7
ENDMDL
MODEL 3
REMARK VINA RESULT:    -3.617      2.572      3.256
REMARK INTER + INTRA:          -5.771
REMARK INTER:                  -4.952
REMARK INTRA:                  -0.819
REMARK UNBOUND:                -0.674
REMARK SMILES CCCCCCCCC(=O)[O-]
REMARK SMILES IDX 6 1 7 2 8 3 9 4 10 5 11 6 5 7 4 8 3 9 2 10 1 11
REMARK H PARENT
REMARK Flexibility Score: inf
ROOT
ATOM      1  C   UNL     1     -33.500  12.964  14.354  1.00  0.00     0.000 C 
ENDROOT
BRANCH   1   2
ATOM      2  C   UNL     1     -33.182  14.125  13.394  1.00  0.00     0.006 C 
BRANCH   2   3
ATOM      3  C   UNL     1     -31.845  14.809  13.708  1.00  0.00     0.053 C 
BRANCH   3   4
ATOM      4  C   UNL     1     -30.710  14.027  13.126  1.00  0.00     0.041 C 
ATOM      5  O   UNL     1     -30.836  13.465  12.007  1.00  0.00    -0.550 OA
ATOM      6  O   UNL     1     -29.496  13.961  13.798  1.00  0.00    -0.550 OA
ENDBRANCH   3   4
ENDBRANCH   2   3
ENDBRANCH   1   2
BRANCH   1   7
ATOM      7  C   UNL     1     -33.203  13.244  15.839  1.00  0.00     0.000 C 
BRANCH   7   8
ATOM      8  C   UNL     1     -32.199  12.253  16.445  1.00  0.00    -0.000 C 
BRANCH   8   9
ATOM      9  C   UNL     1     -30.922  12.976  16.901  1.00  0.00    -0.000 C 
BRANCH   9  10
ATOM     10  C   UNL     1     -31.179  14.442  17.283  1.00  0.00    -0.003 C 
ATOM     11  C   UNL     1     -29.979  15.346  17.001  1.00  0.00     0.004 C 
ENDBRANCH   9  10
ENDBRANCH   8   9
ENDBRANCH   7   8
ENDBRANCH   1   7
TORSDOF 7
ENDMDL
MODEL 4
REMARK VINA RESULT:    -3.612      1.629      2.452
REMARK INTER + INTRA:          -5.764
REMARK INTER:                  -4.996
REMARK INTRA:                  -0.768
REMARK UNBOUND:                -0.674
REMARK SMILES CCCCCCCCC(=O)[O-]
REMARK SMILES IDX 6 1 7 2 8 3 9 4 10 5 11 6 5 7 4 8 3 9 2 10 1 11
REMARK H PARENT
REMARK Flexibility Score: inf
ROOT
ATOM      1  C   UNL     1     -32.850  10.652  13.545  1.00  0.00     0.000 C 
ENDROOT
BRANCH   1   2
ATOM      2  C   UNL     1     -31.350  10.799  13.859  1.00  0.00     0.006 C 
BRANCH   2   3
ATOM      3  C   UNL     1     -30.535  11.299  12.659  1.00  0.00     0.053 C 
BRANCH   3   4
ATOM      4  C   UNL     1     -29.078  11.327  12.994  1.00  0.00     0.041 C 
ATOM      5  O   UNL     1     -28.380  10.286  12.875  1.00  0.00    -0.550 OA
ATOM      6  O   UNL     1     -28.478  12.516  13.390  1.00  0.00    -0.550 OA
ENDBRANCH   3   4
ENDBRANCH   2   3
ENDBRANCH   1   2
BRANCH   1   7
ATOM      7  C   UNL     1     -33.534  11.927  13.016  1.00  0.00     0.000 C 
BRANCH   7   8
ATOM      8  C   UNL     1     -33.487  13.091  14.015  1.00  0.00    -0.000 C 
BRANCH   8   9
ATOM      9  C   UNL     1     -33.022  14.385  13.329  1.00  0.00    -0.000 C 
BRANCH   9  10
ATOM     10  C   UNL     1     -31.550  14.712  13.621  1.00  0.00    -0.003 C 
ATOM     11  C   UNL     1     -31.151  14.402  15.064  1.00  0.00     0.004 C 
ENDBRANCH   9  10
ENDBRANCH   8   9
ENDBRANCH   7   8
ENDBRANCH   1   7
TORSDOF 7
ENDMDL
MODEL 5
REMARK VINA RESULT:    -3.569      1.488      3.024
REMARK INTER + INTRA:          -5.703
REMARK INTER:                  -5.048
REMARK INTRA:                  -0.655
REMARK UNBOUND:                -0.674
REMARK SMILES CCCCCCCCC(=O)[O-]
REMARK SMILES IDX 6 1 7 2 8 3 9 4 10 5 11 6 5 7 4 8 3 9 2 10 1 11
REMARK H PARENT
REMARK Flexibility Score: inf
ROOT
ATOM      1  C   UNL     1     -30.162  14.027  14.001  1.00  0.00     0.000 C 
ENDROOT
BRANCH   1   2
ATOM      2  C   UNL     1     -29.548  12.635  13.762  1.00  0.00     0.006 C 
BRANCH   2   3
ATOM      3  C   UNL     1     -30.258  11.852  12.650  1.00  0.00     0.053 C 
BRANCH   3   4
ATOM      4  C   UNL     1     -29.463  10.642  12.276  1.00  0.00     0.041 C 
ATOM      5  O   UNL     1     -28.473  10.294  12.970  1.00  0.00    -0.550 OA
ATOM      6  O   UNL     1     -29.847   9.868  11.188  1.00  0.00    -0.550 OA
ENDBRANCH   3   4
ENDBRANCH   2   3
ENDBRANCH   1   2
BRANCH   1   7
ATOM      7  C   UNL     1     -31.315  14.403  13.053  1.00  0.00     0.000 C 
BRANCH   7   8
ATOM      8  C   UNL     1     -32.670  14.505  13.768  1.00  0.00    -0.000 C 
BRANCH   8   9
ATOM      9  C   UNL     1     -33.723  13.622  13.079  1.00  0.00    -0.000 C 
BRANCH   9  10
ATOM     10  C   UNL     1     -34.066  12.367  13.895  1.00  0.00    -0.003 C 
ATOM     11  C   UNL     1     -33.475  12.398  15.304  1.00  0.00     0.004 C 
ENDBRANCH   9  10
ENDBRANCH   8   9
ENDBRANCH   7   8
ENDBRANCH   1   7
TORSDOF 7
ENDMDL
MODEL 6
REMARK VINA RESULT:    -3.555      2.888      4.450
REMARK INTER + INTRA:          -5.684
REMARK INTER:                  -5.051
REMARK INTRA:                  -0.633
REMARK UNBOUND:                -0.674
REMARK SMILES CCCCCCCCC(=O)[O-]
REMARK SMILES IDX 6 1 7 2 8 3 9 4 10 5 11 6 5 7 4 8 3 9 2 10 1 11
REMARK H PARENT
REMARK Flexibility Score: inf
ROOT
ATOM      1  C   UNL     1     -32.418  14.129  14.313  1.00  0.00     0.000 C 
ENDROOT
BRANCH   1   2
ATOM      2  C   UNL     1     -31.167  14.921  13.891  1.00  0.00     0.006 C 
BRANCH   2   3
ATOM      3  C   UNL     1     -29.860  14.167  14.172  1.00  0.00     0.053 C 
BRANCH   3   4
ATOM      4  C   UNL     1     -29.035  14.909  15.175  1.00  0.00     0.041 C 
ATOM      5  O   UNL     1     -29.531  15.242  16.282  1.00  0.00    -0.550 OA
ATOM      6  O   UNL     1     -27.702  15.190  14.905  1.00  0.00    -0.550 OA
ENDBRANCH   3   4
ENDBRANCH   2   3
ENDBRANCH   1   2
BRANCH   1   7
ATOM      7  C   UNL     1     -33.551  14.095  13.270  1.00  0.00     0.000 C 
BRANCH   7   8
ATOM      8  C   UNL     1     -34.034  12.672  12.957  1.00  0.00    -0.000 C 
BRANCH   8   9
ATOM      9  C   UNL     1     -33.311  11.641  13.837  1.00  0.00    -0.000 C 
BRANCH   9  10
ATOM     10  C   UNL     1     -32.582  10.569  13.013  1.00  0.00    -0.003 C 
ATOM     11  C   UNL     1     -31.104  10.893  12.795  1.00  0.00     0.004 C 
ENDBRANCH   9  10
ENDBRANCH   8   9
ENDBRANCH   7   8
ENDBRANCH   1   7
TORSDOF 7
ENDMDL
MODEL 7
REMARK VINA RESULT:    -3.554      0.994      1.686
REMARK INTER + INTRA:          -5.683
REMARK INTER:                  -5.005
REMARK INTRA:                  -0.678
REMARK UNBOUND:                -0.674
REMARK SMILES CCCCCCCCC(=O)[O-]
REMARK SMILES IDX 6 1 7 2 8 3 9 4 10 5 11 6 5 7 4 8 3 9 2 10 1 11
REMARK H PARENT
REMARK Flexibility Score: inf
ROOT
ATOM      1  C   UNL     1     -30.588  12.534  12.466  1.00  0.00     0.000 C 
ENDROOT
BRANCH   1   2
ATOM      2  C   UNL     1     -29.354  11.832  13.060  1.00  0.00     0.006 C 
BRANCH   2   3
ATOM      3  C   UNL     1     -29.705  10.877  14.209  1.00  0.00     0.053 C 
BRANCH   3   4
ATOM      4  C   UNL     1     -28.568   9.942  14.476  1.00  0.00     0.041 C 
ATOM      5  O   UNL     1     -28.604   9.166  15.466  1.00  0.00    -0.550 OA
ATOM      6  O   UNL     1     -27.490   9.891  13.601  1.00  0.00    -0.550 OA
ENDBRANCH   3   4
ENDBRANCH   2   3
ENDBRANCH   1   2
BRANCH   1   7
ATOM      7  C   UNL     1     -31.802  12.628  13.409  1.00  0.00     0.000 C 
BRANCH   7   8
ATOM      8  C   UNL     1     -32.301  14.067  13.601  1.00  0.00    -0.000 C 
BRANCH   8   9
ATOM      9  C   UNL     1     -31.128  15.024  13.862  1.00  0.00    -0.000 C 
BRANCH   9  10
ATOM     10  C   UNL     1     -30.548  14.876  15.276  1.00  0.00    -0.003 C 
ATOM     11  C   UNL     1     -29.019  14.850  15.289  1.00  0.00     0.004 C 
ENDBRANCH   9  10
ENDBRANCH   8   9
ENDBRANCH   7   8
ENDBRANCH   1   7
TORSDOF 7
ENDMDL
MODEL 8
REMARK VINA RESULT:    -3.519      2.648      4.296
REMARK INTER + INTRA:          -5.633
REMARK INTER:                  -4.871
REMARK INTRA:                  -0.762
REMARK UNBOUND:                -0.674
REMARK SMILES CCCCCCCCC(=O)[O-]
REMARK SMILES IDX 6 1 7 2 8 3 9 4 10 5 11 6 5 7 4 8 3 9 2 10 1 11
REMARK H PARENT
REMARK Flexibility Score: inf
ROOT
ATOM      1  C   UNL     1     -33.683  13.003  14.416  1.00  0.00     0.000 C 
ENDROOT
BRANCH   1   2
ATOM      2  C   UNL     1     -33.192  14.023  13.373  1.00  0.00     0.006 C 
BRANCH   2   3
ATOM      3  C   UNL     1     -31.892  14.724  13.789  1.00  0.00     0.053 C 
BRANCH   3   4
ATOM      4  C   UNL     1     -30.715  14.069  13.137  1.00  0.00     0.041 C 
ATOM      5  O   UNL     1     -30.809  13.616  11.967  1.00  0.00    -0.550 OA
ATOM      6  O   UNL     1     -29.499  14.003  13.805  1.00  0.00    -0.550 OA
ENDBRANCH   3   4
ENDBRANCH   2   3
ENDBRANCH   1   2
BRANCH   1   7
ATOM      7  C   UNL     1     -33.253  11.547  14.157  1.00  0.00     0.000 C 
BRANCH   7   8
ATOM      8  C   UNL     1     -32.073  11.106  15.035  1.00  0.00    -0.000 C 
BRANCH   8   9
ATOM      9  C   UNL     1     -30.945  10.510  14.179  1.00  0.00    -0.000 C 
BRANCH   9  10
ATOM     10  C   UNL     1     -31.401  10.180  12.750  1.00  0.00    -0.003 C 
ATOM     11  C   UNL     1     -30.248  10.183  11.746  1.00  0.00     0.004 C 
ENDBRANCH   9  10
ENDBRANCH   8   9
ENDBRANCH   7   8
ENDBRANCH   1   7
TORSDOF 7
ENDMDL
MODEL 9
REMARK VINA RESULT:    -3.512      2.884      4.490
REMARK INTER + INTRA:          -5.624
REMARK INTER:                  -5.015
REMARK INTRA:                  -0.609
REMARK UNBOUND:                -0.674
REMARK SMILES CCCCCCCCC(=O)[O-]
REMARK SMILES IDX 6 1 7 2 8 3 9 4 10 5 11 6 5 7 4 8 3 9 2 10 1 11
REMARK H PARENT
REMARK Flexibility Score: inf
ROOT
ATOM      1  C   UNL     1     -32.273  11.565  13.806  1.00  0.00     0.000 C 
ENDROOT
BRANCH   1   2
ATOM      2  C   UNL     1     -33.120  12.640  13.100  1.00  0.00     0.006 C 
BRANCH   2   3
ATOM      3  C   UNL     1     -32.890  14.048  13.666  1.00  0.00     0.053 C 
BRANCH   3   4
ATOM      4  C   UNL     1     -31.501  14.512  13.362  1.00  0.00     0.041 C 
ATOM      5  O   UNL     1     -31.037  14.403  12.197  1.00  0.00    -0.550 OA
ATOM      6  O   UNL     1     -30.736  15.111  14.354  1.00  0.00    -0.550 OA
ENDBRANCH   3   4
ENDBRANCH   2   3
ENDBRANCH   1   2
BRANCH   1   7
ATOM      7  C   UNL     1     -31.755  10.439  12.893  1.00  0.00     0.000 C 
BRANCH   7   8
ATOM      8  C   UNL     1     -30.420  10.784  12.216  1.00  0.00    -0.000 C 
BRANCH   8   9
ATOM      9  C   UNL     1     -29.453  11.442  13.213  1.00  0.00    -0.000 C 
BRANCH   9  10
ATOM     10  C   UNL     1     -28.286  10.522  13.599  1.00  0.00    -0.003 C 
ATOM     11  C   UNL     1     -28.574   9.693  14.851  1.00  0.00     0.004 C 
ENDBRANCH   9  10
ENDBRANCH   8   9
ENDBRANCH   7   8
ENDBRANCH   1   7
TORSDOF 7
ENDMDL
