MODEL 1
REMARK VINA RESULT:    -4.353      0.000      0.000
REMARK INTER + INTRA:         -15.961
REMARK INTER:                 -10.970
REMARK INTRA:                  -4.991
REMARK UNBOUND:                -4.991
REMARK SMILES CCCCCCCCCCCCCCCCCCCCCCCCCCCC(=O)[O-]
REMARK SMILES IDX 15 1 16 2 17 3 18 4 19 5 20 6 21 7 22 8 23 9 24 10 25 11
REMARK SMILES IDX 26 12 27 13 28 14 29 15 30 16 14 17 13 18 12 19 11 20 10 21
REMARK SMILES IDX 9 22 8 23 7 24 6 25 5 26 4 27 3 28 2 29 1 30
REMARK H PARENT
REMARK Flexibility Score: inf
ROOT
ATOM      1  C   UNL     1      28.868   4.532  10.516  1.00  0.00     0.000 C 
ENDROOT
BRANCH   1   2
ATOM      2  C   UNL     1      28.279   3.122  10.692  1.00  0.00     0.000 C 
BRANCH   2   3
ATOM      3  C   UNL     1      28.023   2.408   9.354  1.00  0.00     0.000 C 
BRANCH   3   4
ATOM      4  C   UNL     1      28.018   3.357   8.136  1.00  0.00     0.000 C 
BRANCH   4   5
ATOM      5  C   UNL     1      26.611   3.552   7.552  1.00  0.00     0.000 C 
BRANCH   5   6
ATOM      6  C   UNL     1      25.591   2.655   8.264  1.00  0.00     0.000 C 
BRANCH   6   7
ATOM      7  C   UNL     1      24.662   1.970   7.252  1.00  0.00     0.000 C 
BRANCH   7   8
ATOM      8  C   UNL     1      25.058   2.247   5.791  1.00  0.00     0.000 C 
BRANCH   8   9
ATOM      9  C   UNL     1      25.217   0.993   4.905  1.00  0.00     0.000 C 
BRANCH   9  10
ATOM     10  C   UNL     1      26.543   0.231   5.084  1.00  0.00     0.000 C 
BRANCH  10  11
ATOM     11  C   UNL     1      26.417  -0.972   6.033  1.00  0.00     0.000 C 
BRANCH  11  12
ATOM     12  C   UNL     1      27.721  -1.262   6.803  1.00  0.00     0.006 C 
BRANCH  12  13
ATOM     13  C   UNL     1      27.726  -0.712   8.240  1.00  0.00     0.053 C 
BRANCH  13  14
ATOM     14  C   UNL     1      27.785  -1.795   9.271  1.00  0.00     0.041 C 
ATOM     15  O   UNL     1      27.615  -1.520  10.488  1.00  0.00    -0.550 OA
ATOM     16  O   UNL     1      28.032  -3.107   8.891  1.00  0.00    -0.550 OA
ENDBRANCH  13  14
ENDBRANCH  12  13
ENDBRANCH  11  12
ENDBRANCH  10  11
ENDBRANCH   9  10
ENDBRANCH   8   9
ENDBRANCH   7   8
ENDBRANCH   6   7
ENDBRANCH   5   6
ENDBRANCH   4   5
ENDBRANCH   3   4
ENDBRANCH   2   3
ENDBRANCH   1   2
BRANCH   1  17
ATOM     17  C   UNL     1      27.942   5.633  11.057  1.00  0.00     0.000 C 
BRANCH  17  18
ATOM     18  C   UNL     1      26.453   5.280  10.899  1.00  0.00     0.000 C 
BRANCH  18  19
ATOM     19  C   UNL     1      25.725   6.210   9.915  1.00  0.00     0.000 C 
BRANCH  19  20
ATOM     20  C   UNL     1      26.688   7.132   9.148  1.00  0.00     0.000 C 
BRANCH  20  21
ATOM     21  C   UNL     1      26.023   7.821   7.943  1.00  0.00     0.000 C 
BRANCH  21  22
ATOM     22  C   UNL     1      26.577   7.417   6.565  1.00  0.00    -0.000 C 
BRANCH  22  23
ATOM     23  C   UNL     1      25.584   6.578   5.745  1.00  0.00    -0.000 C 
BRANCH  23  24
ATOM     24  C   UNL     1      24.128   6.715   6.228  1.00  0.00    -0.000 C 
BRANCH  24  25
ATOM     25  C   UNL     1      23.475   5.420   6.750  1.00  0.00    -0.000 C 
BRANCH  25  26
ATOM     26  C   UNL     1      22.736   5.609   8.085  1.00  0.00    -0.000 C 
BRANCH  26  27
ATOM     27  C   UNL     1      22.262   7.057   8.308  1.00  0.00    -0.000 C 
BRANCH  27  28
ATOM     28  C   UNL     1      22.298   7.546   9.770  1.00  0.00    -0.000 C 
BRANCH  28  29
ATOM     29  C   UNL     1      22.028   6.461  10.826  1.00  0.00    -0.003 C 
ATOM     30  C   UNL     1      20.569   6.417  11.276  1.00  0.00     0.004 C 
ENDBRANCH  28  29
ENDBRANCH  27  28
ENDBRANCH  26  27
ENDBRANCH  25  26
ENDBRANCH  24  25
ENDBRANCH  23  24
ENDBRANCH  22  23
ENDBRANCH  21  22
ENDBRANCH  20  21
ENDBRANCH  19  20
ENDBRANCH  18  19
ENDBRANCH  17  18
ENDBRANCH   1  17
TORSDOF 26
ENDMDL
MODEL 2
REMARK VINA RESULT:    -4.308      3.014      7.335
REMARK INTER + INTRA:         -15.847
REMARK INTER:                 -10.626
REMARK INTRA:                  -5.221
REMARK UNBOUND:                -4.991
REMARK SMILES CCCCCCCCCCCCCCCCCCCCCCCCCCCC(=O)[O-]
REMARK SMILES IDX 15 1 16 2 17 3 18 4 19 5 20 6 21 7 22 8 23 9 24 10 25 11
REMARK SMILES IDX 26 12 27 13 28 14 29 15 30 16 14 17 13 18 12 19 11 20 10 21
REMARK SMILES IDX 9 22 8 23 7 24 6 25 5 26 4 27 3 28 2 29 1 30
REMARK H PARENT
REMARK Flexibility Score: inf
ROOT
ATOM      1  C   UNL     1      27.878   3.629   8.188  1.00  0.00     0.000 C 
ENDROOT
BRANCH   1   2
ATOM      2  C   UNL     1      27.877   3.389   9.707  1.00  0.00     0.000 C 
BRANCH   2   3
ATOM      3  C   UNL     1      27.405   4.616  10.506  1.00  0.00     0.000 C 
BRANCH   3   4
ATOM      4  C   UNL     1      25.911   4.947  10.310  1.00  0.00     0.000 C 
BRANCH   4   5
ATOM      5  C   UNL     1      25.681   6.419   9.938  1.00  0.00     0.000 C 
BRANCH   5   6
ATOM      6  C   UNL     1      26.771   6.921   8.984  1.00  0.00     0.000 C 
BRANCH   6   7
ATOM      7  C   UNL     1      26.181   7.861   7.923  1.00  0.00     0.000 C 
BRANCH   7   8
ATOM      8  C   UNL     1      26.128   7.227   6.522  1.00  0.00     0.000 C 
BRANCH   8   9
ATOM      9  C   UNL     1      24.797   6.531   6.167  1.00  0.00     0.000 C 
BRANCH   9  10
ATOM     10  C   UNL     1      24.716   5.041   6.547  1.00  0.00     0.000 C 
BRANCH  10  11
ATOM     11  C   UNL     1      23.509   4.717   7.444  1.00  0.00     0.000 C 
BRANCH  11  12
ATOM     12  C   UNL     1      22.695   5.972   7.819  1.00  0.00     0.006 C 
BRANCH  12  13
ATOM     13  C   UNL     1      21.194   5.853   7.501  1.00  0.00     0.053 C 
BRANCH  13  14
ATOM     14  C   UNL     1      20.937   5.310   6.130  1.00  0.00     0.041 C 
ATOM     15  O   UNL     1      20.932   6.081   5.134  1.00  0.00    -0.550 OA
ATOM     16  O   UNL     1      20.697   3.954   5.951  1.00  0.00    -0.550 OA
ENDBRANCH  13  14
ENDBRANCH  12  13
ENDBRANCH  11  12
ENDBRANCH  10  11
ENDBRANCH   9  10
ENDBRANCH   8   9
ENDBRANCH   7   8
ENDBRANCH   6   7
ENDBRANCH   5   6
ENDBRANCH   4   5
ENDBRANCH   3   4
ENDBRANCH   2   3
ENDBRANCH   1   2
BRANCH   1  17
ATOM     17  C   UNL     1      27.263   2.460   7.403  1.00  0.00     0.000 C 
BRANCH  17  18
ATOM     18  C   UNL     1      25.967   1.936   8.045  1.00  0.00     0.000 C 
BRANCH  18  19
ATOM     19  C   UNL     1      25.988   0.415   8.267  1.00  0.00     0.000 C 
BRANCH  19  20
ATOM     20  C   UNL     1      27.412  -0.140   8.435  1.00  0.00     0.000 C 
BRANCH  20  21
ATOM     21  C   UNL     1      27.431  -1.607   8.899  1.00  0.00     0.000 C 
BRANCH  21  22
ATOM     22  C   UNL     1      27.925  -2.623   7.853  1.00  0.00    -0.000 C 
BRANCH  22  23
ATOM     23  C   UNL     1      27.911  -2.061   6.422  1.00  0.00    -0.000 C 
BRANCH  23  24
ATOM     24  C   UNL     1      26.658  -2.464   5.623  1.00  0.00    -0.000 C 
BRANCH  24  25
ATOM     25  C   UNL     1      25.763  -1.300   5.156  1.00  0.00    -0.000 C 
BRANCH  25  26
ATOM     26  C   UNL     1      26.561  -0.095   4.629  1.00  0.00    -0.000 C 
BRANCH  26  27
ATOM     27  C   UNL     1      25.685   1.150   4.397  1.00  0.00    -0.000 C 
BRANCH  27  28
ATOM     28  C   UNL     1      24.176   0.875   4.241  1.00  0.00    -0.000 C 
BRANCH  28  29
ATOM     29  C   UNL     1      23.265   1.696   5.169  1.00  0.00    -0.003 C 
ATOM     30  C   UNL     1      22.832   0.924   6.414  1.00  0.00     0.004 C 
ENDBRANCH  28  29
ENDBRANCH  27  28
ENDBRANCH  26  27
ENDBRANCH  25  26
ENDBRANCH  24  25
ENDBRANCH  23  24
ENDBRANCH  22  23
ENDBRANCH  21  22
ENDBRANCH  20  21
ENDBRANCH  19  20
ENDBRANCH  18  19
ENDBRANCH  17  18
ENDBRANCH   1  17
TORSDOF 26
ENDMDL
MODEL 3
REMARK VINA RESULT:    -4.233      3.231      7.273
REMARK INTER + INTRA:         -15.658
REMARK INTER:                 -10.267
REMARK INTRA:                  -5.391
REMARK UNBOUND:                -4.991
REMARK SMILES CCCCCCCCCCCCCCCCCCCCCCCCCCCC(=O)[O-]
REMARK SMILES IDX 15 1 16 2 17 3 18 4 19 5 20 6 21 7 22 8 23 9 24 10 25 11
REMARK SMILES IDX 26 12 27 13 28 14 29 15 30 16 14 17 13 18 12 19 11 20 10 21
REMARK SMILES IDX 9 22 8 23 7 24 6 25 5 26 4 27 3 28 2 29 1 30
REMARK H PARENT
REMARK Flexibility Score: inf
ROOT
ATOM      1  C   UNL     1      27.354   5.043  10.407  1.00  0.00     0.000 C 
ENDROOT
BRANCH   1   2
ATOM      2  C   UNL     1      25.850   4.984  10.091  1.00  0.00     0.000 C 
BRANCH   2   3
ATOM      3  C   UNL     1      25.190   6.373  10.062  1.00  0.00     0.000 C 
BRANCH   3   4
ATOM      4  C   UNL     1      26.116   7.490   9.535  1.00  0.00     0.000 C 
BRANCH   4   5
ATOM      5  C   UNL     1      25.700   7.988   8.143  1.00  0.00     0.000 C 
BRANCH   5   6
ATOM      6  C   UNL     1      26.778   7.671   7.100  1.00  0.00     0.000 C 
BRANCH   6   7
ATOM      7  C   UNL     1      26.239   6.716   6.026  1.00  0.00     0.000 C 
BRANCH   7   8
ATOM      8  C   UNL     1      24.740   6.409   6.194  1.00  0.00     0.000 C 
BRANCH   8   9
ATOM      9  C   UNL     1      24.409   4.953   6.586  1.00  0.00     0.000 C 
BRANCH   9  10
ATOM     10  C   UNL     1      22.916   4.667   6.835  1.00  0.00     0.000 C 
BRANCH  10  11
ATOM     11  C   UNL     1      22.567   4.571   8.329  1.00  0.00     0.000 C 
BRANCH  11  12
ATOM     12  C   UNL     1      21.518   5.614   8.763  1.00  0.00     0.006 C 
BRANCH  12  13
ATOM     13  C   UNL     1      21.959   7.069   8.532  1.00  0.00     0.053 C 
BRANCH  13  14
ATOM     14  C   UNL     1      21.567   7.976   9.656  1.00  0.00     0.041 C 
ATOM     15  O   UNL     1      21.984   7.755  10.823  1.00  0.00    -0.550 OA
ATOM     16  O   UNL     1      20.737   9.063   9.416  1.00  0.00    -0.550 OA
ENDBRANCH  13  14
ENDBRANCH  12  13
ENDBRANCH  11  12
ENDBRANCH  10  11
ENDBRANCH   9  10
ENDBRANCH   8   9
ENDBRANCH   7   8
ENDBRANCH   6   7
ENDBRANCH   5   6
ENDBRANCH   4   5
ENDBRANCH   3   4
ENDBRANCH   2   3
ENDBRANCH   1   2
BRANCH   1  17
ATOM     17  C   UNL     1      28.196   4.193   9.442  1.00  0.00     0.000 C 
BRANCH  17  18
ATOM     18  C   UNL     1      27.464   3.904   8.120  1.00  0.00     0.000 C 
BRANCH  18  19
ATOM     19  C   UNL     1      27.722   2.481   7.598  1.00  0.00     0.000 C 
BRANCH  19  20
ATOM     20  C   UNL     1      27.029   1.403   8.448  1.00  0.00     0.000 C 
BRANCH  20  21
ATOM     21  C   UNL     1      27.912   0.163   8.677  1.00  0.00     0.000 C 
BRANCH  21  22
ATOM     22  C   UNL     1      27.364  -1.152   8.095  1.00  0.00    -0.000 C 
BRANCH  22  23
ATOM     23  C   UNL     1      27.721  -1.344   6.612  1.00  0.00    -0.000 C 
BRANCH  23  24
ATOM     24  C   UNL     1      26.571  -1.946   5.783  1.00  0.00    -0.000 C 
BRANCH  24  25
ATOM     25  C   UNL     1      25.926  -0.999   4.754  1.00  0.00    -0.000 C 
BRANCH  25  26
ATOM     26  C   UNL     1      26.507   0.424   4.792  1.00  0.00    -0.000 C 
BRANCH  26  27
ATOM     27  C   UNL     1      25.421   1.515   4.820  1.00  0.00    -0.000 C 
BRANCH  27  28
ATOM     28  C   UNL     1      24.055   1.072   5.382  1.00  0.00    -0.000 C 
BRANCH  28  29
ATOM     29  C   UNL     1      23.924   1.151   6.912  1.00  0.00    -0.003 C 
ATOM     30  C   UNL     1      23.265  -0.087   7.519  1.00  0.00     0.004 C 
ENDBRANCH  28  29
ENDBRANCH  27  28
ENDBRANCH  26  27
ENDBRANCH  25  26
ENDBRANCH  24  25
ENDBRANCH  23  24
ENDBRANCH  22  23
ENDBRANCH  21  22
ENDBRANCH  20  21
ENDBRANCH  19  20
ENDBRANCH  18  19
ENDBRANCH  17  18
ENDBRANCH   1  17
TORSDOF 26
ENDMDL
MODEL 4
REMARK VINA RESULT:    -4.227      2.350      5.011
REMARK INTER + INTRA:         -15.643
REMARK INTER:                 -10.236
REMARK INTRA:                  -5.406
REMARK UNBOUND:                -4.991
REMARK SMILES CCCCCCCCCCCCCCCCCCCCCCCCCCCC(=O)[O-]
REMARK SMILES IDX 15 1 16 2 17 3 18 4 19 5 20 6 21 7 22 8 23 9 24 10 25 11
REMARK SMILES IDX 26 12 27 13 28 14 29 15 30 16 14 17 13 18 12 19 11 20 10 21
REMARK SMILES IDX 9 22 8 23 7 24 6 25 5 26 4 27 3 28 2 29 1 30
REMARK H PARENT
REMARK Flexibility Score: inf
ROOT
ATOM      1  C   UNL     1      23.554   3.420   6.966  1.00  0.00     0.000 C 
ENDROOT
BRANCH   1   2
ATOM      2  C   UNL     1      23.715   2.013   7.563  1.00  0.00     0.000 C 
BRANCH   2   3
ATOM      3  C   UNL     1      25.178   1.659   7.879  1.00  0.00     0.000 C 
BRANCH   3   4
ATOM      4  C   UNL     1      26.189   2.236   6.864  1.00  0.00     0.000 C 
BRANCH   4   5
ATOM      5  C   UNL     1      27.637   2.153   7.369  1.00  0.00     0.000 C 
BRANCH   5   6
ATOM      6  C   UNL     1      27.686   1.669   8.823  1.00  0.00     0.000 C 
BRANCH   6   7
ATOM      7  C   UNL     1      28.493   0.368   8.941  1.00  0.00     0.000 C 
BRANCH   7   8
ATOM      8  C   UNL     1      27.602  -0.881   9.062  1.00  0.00     0.000 C 
BRANCH   8   9
ATOM      9  C   UNL     1      27.965  -2.041   8.111  1.00  0.00     0.000 C 
BRANCH   9  10
ATOM     10  C   UNL     1      27.929  -1.692   6.612  1.00  0.00     0.000 C 
BRANCH  10  11
ATOM     11  C   UNL     1      26.514  -1.362   6.109  1.00  0.00     0.000 C 
BRANCH  11  12
ATOM     12  C   UNL     1      26.427  -1.312   4.570  1.00  0.00     0.006 C 
BRANCH  12  13
ATOM     13  C   UNL     1      25.997   0.058   4.020  1.00  0.00     0.053 C 
BRANCH  13  14
ATOM     14  C   UNL     1      24.514   0.172   3.850  1.00  0.00     0.041 C 
ATOM     15  O   UNL     1      23.917   1.229   4.187  1.00  0.00    -0.550 OA
ATOM     16  O   UNL     1      23.789  -0.889   3.325  1.00  0.00    -0.550 OA
ENDBRANCH  13  14
ENDBRANCH  12  13
ENDBRANCH  11  12
ENDBRANCH  10  11
ENDBRANCH   9  10
ENDBRANCH   8   9
ENDBRANCH   7   8
ENDBRANCH   6   7
ENDBRANCH   5   6
ENDBRANCH   4   5
ENDBRANCH   3   4
ENDBRANCH   2   3
ENDBRANCH   1   2
BRANCH   1  17
ATOM     17  C   UNL     1      22.483   4.252   7.688  1.00  0.00     0.000 C 
BRANCH  17  18
ATOM     18  C   UNL     1      22.657   5.764   7.457  1.00  0.00     0.000 C 
BRANCH  18  19
ATOM     19  C   UNL     1      22.024   6.610   8.574  1.00  0.00     0.000 C 
BRANCH  19  20
ATOM     20  C   UNL     1      22.865   7.848   8.928  1.00  0.00     0.000 C 
BRANCH  20  21
ATOM     21  C   UNL     1      23.394   7.818  10.373  1.00  0.00     0.000 C 
BRANCH  21  22
ATOM     22  C   UNL     1      23.034   6.559  11.180  1.00  0.00    -0.000 C 
BRANCH  22  23
ATOM     23  C   UNL     1      24.271   5.757  11.619  1.00  0.00    -0.000 C 
BRANCH  23  24
ATOM     24  C   UNL     1      24.535   4.520  10.740  1.00  0.00    -0.000 C 
BRANCH  24  25
ATOM     25  C   UNL     1      25.833   4.558   9.910  1.00  0.00    -0.000 C 
BRANCH  25  26
ATOM     26  C   UNL     1      26.591   5.891  10.031  1.00  0.00    -0.000 C 
BRANCH  26  27
ATOM     27  C   UNL     1      26.556   6.721   8.734  1.00  0.00    -0.000 C 
BRANCH  27  28
ATOM     28  C   UNL     1      26.141   5.947   7.467  1.00  0.00    -0.000 C 
BRANCH  28  29
ATOM     29  C   UNL     1      26.488   6.640   6.138  1.00  0.00    -0.003 C 
ATOM     30  C   UNL     1      25.310   7.410   5.543  1.00  0.00     0.004 C 
ENDBRANCH  28  29
ENDBRANCH  27  28
ENDBRANCH  26  27
ENDBRANCH  25  26
ENDBRANCH  24  25
ENDBRANCH  23  24
ENDBRANCH  22  23
ENDBRANCH  21  22
ENDBRANCH  20  21
ENDBRANCH  19  20
ENDBRANCH  18  19
ENDBRANCH  17  18
ENDBRANCH   1  17
TORSDOF 26
ENDMDL
MODEL 5
REMARK VINA RESULT:    -4.214      3.480      6.092
REMARK INTER + INTRA:         -15.611
REMARK INTER:                  -9.207
REMARK INTRA:                  -6.404
REMARK UNBOUND:                -4.991
REMARK SMILES CCCCCCCCCCCCCCCCCCCCCCCCCCCC(=O)[O-]
REMARK SMILES IDX 15 1 16 2 17 3 18 4 19 5 20 6 21 7 22 8 23 9 24 10 25 11
REMARK SMILES IDX 26 12 27 13 28 14 29 15 30 16 14 17 13 18 12 19 11 20 10 21
REMARK SMILES IDX 9 22 8 23 7 24 6 25 5 26 4 27 3 28 2 29 1 30
REMARK H PARENT
REMARK Flexibility Score: inf
ROOT
ATOM      1  C   UNL     1      26.891   6.128   9.109  1.00  0.00     0.000 C 
ENDROOT
BRANCH   1   2
ATOM      2  C   UNL     1      26.273   7.536   9.097  1.00  0.00     0.000 C 
BRANCH   2   3
ATOM      3  C   UNL     1      26.078   8.092   7.677  1.00  0.00     0.000 C 
BRANCH   3   4
ATOM      4  C   UNL     1      26.330   7.054   6.563  1.00  0.00     0.000 C 
BRANCH   4   5
ATOM      5  C   UNL     1      25.076   6.783   5.719  1.00  0.00     0.000 C 
BRANCH   5   6
ATOM      6  C   UNL     1      23.802   7.097   6.512  1.00  0.00     0.000 C 
BRANCH   6   7
ATOM      7  C   UNL     1      22.573   6.454   5.852  1.00  0.00     0.000 C 
BRANCH   7   8
ATOM      8  C   UNL     1      21.265   6.752   6.605  1.00  0.00     0.000 C 
BRANCH   8   9
ATOM      9  C   UNL     1      20.290   5.561   6.724  1.00  0.00     0.000 C 
BRANCH   9  10
ATOM     10  C   UNL     1      20.921   4.175   6.492  1.00  0.00     0.000 C 
BRANCH  10  11
ATOM     11  C   UNL     1      20.407   3.112   7.477  1.00  0.00     0.000 C 
BRANCH  11  12
ATOM     12  C   UNL     1      19.354   3.670   8.457  1.00  0.00     0.006 C 
BRANCH  12  13
ATOM     13  C   UNL     1      19.853   3.769   9.909  1.00  0.00     0.053 C 
BRANCH  13  14
ATOM     14  C   UNL     1      19.300   4.960  10.628  1.00  0.00     0.041 C 
ATOM     15  O   UNL     1      18.653   4.810  11.697  1.00  0.00    -0.550 OA
ATOM     16  O   UNL     1      19.495   6.236  10.115  1.00  0.00    -0.550 OA
ENDBRANCH  13  14
ENDBRANCH  12  13
ENDBRANCH  11  12
ENDBRANCH  10  11
ENDBRANCH   9  10
ENDBRANCH   8   9
ENDBRANCH   7   8
ENDBRANCH   6   7
ENDBRANCH   5   6
ENDBRANCH   4   5
ENDBRANCH   3   4
ENDBRANCH   2   3
ENDBRANCH   1   2
BRANCH   1  17
ATOM     17  C   UNL     1      26.944   5.515  10.518  1.00  0.00     0.000 C 
BRANCH  17  18
ATOM     18  C   UNL     1      27.364   4.035  10.500  1.00  0.00     0.000 C 
BRANCH  18  19
ATOM     19  C   UNL     1      27.954   3.603   9.148  1.00  0.00     0.000 C 
BRANCH  19  20
ATOM     20  C   UNL     1      27.746   2.106   8.862  1.00  0.00     0.000 C 
BRANCH  20  21
ATOM     21  C   UNL     1      27.652   1.793   7.358  1.00  0.00     0.000 C 
BRANCH  21  22
ATOM     22  C   UNL     1      26.883   2.827   6.516  1.00  0.00    -0.000 C 
BRANCH  22  23
ATOM     23  C   UNL     1      25.620   2.244   5.861  1.00  0.00    -0.000 C 
BRANCH  23  24
ATOM     24  C   UNL     1      24.316   2.862   6.401  1.00  0.00    -0.000 C 
BRANCH  24  25
ATOM     25  C   UNL     1      24.469   3.756   7.646  1.00  0.00    -0.000 C 
BRANCH  25  26
ATOM     26  C   UNL     1      24.126   3.032   8.958  1.00  0.00    -0.000 C 
BRANCH  26  27
ATOM     27  C   UNL     1      23.511   3.967  10.016  1.00  0.00    -0.000 C 
BRANCH  27  28
ATOM     28  C   UNL     1      23.153   5.382   9.518  1.00  0.00    -0.000 C 
BRANCH  28  29
ATOM     29  C   UNL     1      22.968   6.434  10.625  1.00  0.00    -0.003 C 
ATOM     30  C   UNL     1      22.794   7.850  10.078  1.00  0.00     0.004 C 
ENDBRANCH  28  29
ENDBRANCH  27  28
ENDBRANCH  26  27
ENDBRANCH  25  26
ENDBRANCH  24  25
ENDBRANCH  23  24
ENDBRANCH  22  23
ENDBRANCH  21  22
ENDBRANCH  20  21
ENDBRANCH  19  20
ENDBRANCH  18  19
ENDBRANCH  17  18
ENDBRANCH   1  17
TORSDOF 26
ENDMDL
MODEL 6
REMARK VINA RESULT:    -4.201      3.336      5.764
REMARK INTER + INTRA:         -15.578
REMARK INTER:                 -10.830
REMARK INTRA:                  -4.748
REMARK UNBOUND:                -4.991
REMARK SMILES CCCCCCCCCCCCCCCCCCCCCCCCCCCC(=O)[O-]
REMARK SMILES IDX 15 1 16 2 17 3 18 4 19 5 20 6 21 7 22 8 23 9 24 10 25 11
REMARK SMILES IDX 26 12 27 13 28 14 29 15 30 16 14 17 13 18 12 19 11 20 10 21
REMARK SMILES IDX 9 22 8 23 7 24 6 25 5 26 4 27 3 28 2 29 1 30
REMARK H PARENT
REMARK Flexibility Score: inf
ROOT
ATOM      1  C   UNL     1      28.354   0.233   8.887  1.00  0.00     0.000 C 
ENDROOT
BRANCH   1   2
ATOM      2  C   UNL     1      27.647  -1.048   8.414  1.00  0.00     0.000 C 
BRANCH   2   3
ATOM      3  C   UNL     1      26.116  -0.905   8.370  1.00  0.00     0.000 C 
BRANCH   3   4
ATOM      4  C   UNL     1      25.508  -1.162   6.975  1.00  0.00     0.000 C 
BRANCH   4   5
ATOM      5  C   UNL     1      26.579  -1.259   5.879  1.00  0.00     0.000 C 
BRANCH   5   6
ATOM      6  C   UNL     1      26.475  -0.081   4.903  1.00  0.00     0.000 C 
BRANCH   6   7
ATOM      7  C   UNL     1      25.303   0.838   5.276  1.00  0.00     0.000 C 
BRANCH   7   8
ATOM      8  C   UNL     1      25.744   2.284   5.563  1.00  0.00     0.000 C 
BRANCH   8   9
ATOM      9  C   UNL     1      24.846   3.061   6.549  1.00  0.00     0.000 C 
BRANCH   9  10
ATOM     10  C   UNL     1      24.097   2.190   7.575  1.00  0.00     0.000 C 
BRANCH  10  11
ATOM     11  C   UNL     1      22.569   2.262   7.417  1.00  0.00     0.000 C 
BRANCH  11  12
ATOM     12  C   UNL     1      22.016   3.685   7.630  1.00  0.00     0.006 C 
BRANCH  12  13
ATOM     13  C   UNL     1      21.298   4.260   6.397  1.00  0.00     0.053 C 
BRANCH  13  14
ATOM     14  C   UNL     1      20.536   5.511   6.705  1.00  0.00     0.041 C 
ATOM     15  O   UNL     1      21.055   6.638   6.489  1.00  0.00    -0.550 OA
ATOM     16  O   UNL     1      19.255   5.435   7.235  1.00  0.00    -0.550 OA
ENDBRANCH  13  14
ENDBRANCH  12  13
ENDBRANCH  11  12
ENDBRANCH  10  11
ENDBRANCH   9  10
ENDBRANCH   8   9
ENDBRANCH   7   8
ENDBRANCH   6   7
ENDBRANCH   5   6
ENDBRANCH   4   5
ENDBRANCH   3   4
ENDBRANCH   2   3
ENDBRANCH   1   2
BRANCH   1  17
ATOM     17  C   UNL     1      27.962   1.467   8.059  1.00  0.00     0.000 C 
BRANCH  17  18
ATOM     18  C   UNL     1      27.932   2.755   8.901  1.00  0.00     0.000 C 
BRANCH  18  19
ATOM     19  C   UNL     1      28.266   2.504  10.380  1.00  0.00     0.000 C 
BRANCH  19  20
ATOM     20  C   UNL     1      28.407   3.807  11.186  1.00  0.00     0.000 C 
BRANCH  20  21
ATOM     21  C   UNL     1      28.641   5.039  10.293  1.00  0.00     0.000 C 
BRANCH  21  22
ATOM     22  C   UNL     1      27.447   6.002  10.173  1.00  0.00    -0.000 C 
BRANCH  22  23
ATOM     23  C   UNL     1      26.138   5.400  10.709  1.00  0.00    -0.000 C 
BRANCH  23  24
ATOM     24  C   UNL     1      25.073   5.188   9.617  1.00  0.00    -0.000 C 
BRANCH  24  25
ATOM     25  C   UNL     1      23.835   6.100   9.708  1.00  0.00    -0.000 C 
BRANCH  25  26
ATOM     26  C   UNL     1      23.795   7.181   8.615  1.00  0.00    -0.000 C 
BRANCH  26  27
ATOM     27  C   UNL     1      24.903   8.239   8.777  1.00  0.00    -0.000 C 
BRANCH  27  28
ATOM     28  C   UNL     1      25.984   8.237   7.677  1.00  0.00    -0.000 C 
BRANCH  28  29
ATOM     29  C   UNL     1      25.614   7.459   6.403  1.00  0.00    -0.003 C 
ATOM     30  C   UNL     1      26.464   6.205   6.203  1.00  0.00     0.004 C 
ENDBRANCH  28  29
ENDBRANCH  27  28
ENDBRANCH  26  27
ENDBRANCH  25  26
ENDBRANCH  24  25
ENDBRANCH  23  24
ENDBRANCH  22  23
ENDBRANCH  21  22
ENDBRANCH  20  21
ENDBRANCH  19  20
ENDBRANCH  18  19
ENDBRANCH  17  18
ENDBRANCH   1  17
TORSDOF 26
ENDMDL
MODEL 7
REMARK VINA RESULT:    -4.191      2.934      5.096
REMARK INTER + INTRA:         -15.553
REMARK INTER:                 -11.190
REMARK INTRA:                  -4.362
REMARK UNBOUND:                -4.991
REMARK SMILES CCCCCCCCCCCCCCCCCCCCCCCCCCCC(=O)[O-]
REMARK SMILES IDX 15 1 16 2 17 3 18 4 19 5 20 6 21 7 22 8 23 9 24 10 25 11
REMARK SMILES IDX 26 12 27 13 28 14 29 15 30 16 14 17 13 18 12 19 11 20 10 21
REMARK SMILES IDX 9 22 8 23 7 24 6 25 5 26 4 27 3 28 2 29 1 30
REMARK H PARENT
REMARK Flexibility Score: inf
ROOT
ATOM      1  C   UNL     1      27.559   1.111   8.086  1.00  0.00     0.000 C 
ENDROOT
BRANCH   1   2
ATOM      2  C   UNL     1      28.644   0.364   8.879  1.00  0.00     0.000 C 
BRANCH   2   3
ATOM      3  C   UNL     1      28.073  -0.756   9.766  1.00  0.00     0.000 C 
BRANCH   3   4
ATOM      4  C   UNL     1      27.250  -1.805   8.989  1.00  0.00     0.000 C 
BRANCH   4   5
ATOM      5  C   UNL     1      28.106  -2.600   7.992  1.00  0.00     0.000 C 
BRANCH   5   6
ATOM      6  C   UNL     1      27.683  -2.307   6.548  1.00  0.00     0.000 C 
BRANCH   6   7
ATOM      7  C   UNL     1      26.199  -1.921   6.479  1.00  0.00     0.000 C 
BRANCH   7   8
ATOM      8  C   UNL     1      25.805  -1.295   5.130  1.00  0.00     0.000 C 
BRANCH   8   9
ATOM      9  C   UNL     1      26.541   0.014   4.774  1.00  0.00     0.000 C 
BRANCH   9  10
ATOM     10  C   UNL     1      25.692   1.060   4.027  1.00  0.00     0.000 C 
BRANCH  10  11
ATOM     11  C   UNL     1      24.237   0.607   3.815  1.00  0.00     0.000 C 
BRANCH  11  12
ATOM     12  C   UNL     1      23.228   1.458   4.612  1.00  0.00     0.006 C 
BRANCH  12  13
ATOM     13  C   UNL     1      21.981   0.677   5.062  1.00  0.00     0.053 C 
BRANCH  13  14
ATOM     14  C   UNL     1      20.943   1.559   5.683  1.00  0.00     0.041 C 
ATOM     15  O   UNL     1      21.145   2.797   5.791  1.00  0.00    -0.550 OA
ATOM     16  O   UNL     1      19.753   1.014   6.148  1.00  0.00    -0.550 OA
ENDBRANCH  13  14
ENDBRANCH  12  13
ENDBRANCH  11  12
ENDBRANCH  10  11
ENDBRANCH   9  10
ENDBRANCH   8   9
ENDBRANCH   7   8
ENDBRANCH   6   7
ENDBRANCH   5   6
ENDBRANCH   4   5
ENDBRANCH   3   4
ENDBRANCH   2   3
ENDBRANCH   1   2
BRANCH   1  17
ATOM     17  C   UNL     1      27.729   2.637   8.141  1.00  0.00     0.000 C 
BRANCH  17  18
ATOM     18  C   UNL     1      26.842   3.365   7.115  1.00  0.00     0.000 C 
BRANCH  18  19
ATOM     19  C   UNL     1      25.370   2.928   7.188  1.00  0.00     0.000 C 
BRANCH  19  20
ATOM     20  C   UNL     1      24.657   3.456   8.445  1.00  0.00     0.000 C 
BRANCH  20  21
ATOM     21  C   UNL     1      23.923   4.787   8.200  1.00  0.00     0.000 C 
BRANCH  21  22
ATOM     22  C   UNL     1      23.646   5.125   6.725  1.00  0.00    -0.000 C 
BRANCH  22  23
ATOM     23  C   UNL     1      24.063   6.557   6.352  1.00  0.00    -0.000 C 
BRANCH  23  24
ATOM     24  C   UNL     1      25.554   6.681   5.987  1.00  0.00    -0.000 C 
BRANCH  24  25
ATOM     25  C   UNL     1      26.401   7.550   6.936  1.00  0.00    -0.000 C 
BRANCH  25  26
ATOM     26  C   UNL     1      25.647   7.972   8.208  1.00  0.00    -0.000 C 
BRANCH  26  27
ATOM     27  C   UNL     1      26.341   7.504   9.500  1.00  0.00    -0.000 C 
BRANCH  27  28
ATOM     28  C   UNL     1      27.124   6.180   9.386  1.00  0.00    -0.000 C 
BRANCH  28  29
ATOM     29  C   UNL     1      27.109   5.304  10.650  1.00  0.00    -0.003 C 
ATOM     30  C   UNL     1      28.423   5.359  11.428  1.00  0.00     0.004 C 
ENDBRANCH  28  29
ENDBRANCH  27  28
ENDBRANCH  26  27
ENDBRANCH  25  26
ENDBRANCH  24  25
ENDBRANCH  23  24
ENDBRANCH  22  23
ENDBRANCH  21  22
ENDBRANCH  20  21
ENDBRANCH  19  20
ENDBRANCH  18  19
ENDBRANCH  17  18
ENDBRANCH   1  17
TORSDOF 26
ENDMDL
MODEL 8
REMARK VINA RESULT:    -4.184      2.922      6.949
REMARK INTER + INTRA:         -15.535
REMARK INTER:                 -10.543
REMARK INTRA:                  -4.991
REMARK UNBOUND:                -4.991
REMARK SMILES CCCCCCCCCCCCCCCCCCCCCCCCCCCC(=O)[O-]
REMARK SMILES IDX 15 1 16 2 17 3 18 4 19 5 20 6 21 7 22 8 23 9 24 10 25 11
REMARK SMILES IDX 26 12 27 13 28 14 29 15 30 16 14 17 13 18 12 19 11 20 10 21
REMARK SMILES IDX 9 22 8 23 7 24 6 25 5 26 4 27 3 28 2 29 1 30
REMARK H PARENT
REMARK Flexibility Score: inf
ROOT
ATOM      1  C   UNL     1      27.305   1.474   8.416  1.00  0.00     0.000 C 
ENDROOT
BRANCH   1   2
ATOM      2  C   UNL     1      27.830   2.800   7.841  1.00  0.00     0.000 C 
BRANCH   2   3
ATOM      3  C   UNL     1      27.973   3.901   8.907  1.00  0.00     0.000 C 
BRANCH   3   4
ATOM      4  C   UNL     1      26.857   3.880   9.973  1.00  0.00     0.000 C 
BRANCH   4   5
ATOM      5  C   UNL     1      26.408   5.293  10.378  1.00  0.00     0.000 C 
BRANCH   5   6
ATOM      6  C   UNL     1      27.217   6.360   9.633  1.00  0.00     0.000 C 
BRANCH   6   7
ATOM      7  C   UNL     1      26.293   7.434   9.041  1.00  0.00     0.000 C 
BRANCH   7   8
ATOM      8  C   UNL     1      26.747   7.914   7.651  1.00  0.00     0.000 C 
BRANCH   8   9
ATOM      9  C   UNL     1      25.967   7.312   6.462  1.00  0.00     0.000 C 
BRANCH   9  10
ATOM     10  C   UNL     1      26.312   5.849   6.129  1.00  0.00     0.000 C 
BRANCH  10  11
ATOM     11  C   UNL     1      25.220   4.862   6.575  1.00  0.00     0.000 C 
BRANCH  11  12
ATOM     12  C   UNL     1      23.900   5.565   6.950  1.00  0.00     0.006 C 
BRANCH  12  13
ATOM     13  C   UNL     1      23.344   5.147   8.322  1.00  0.00     0.053 C 
BRANCH  13  14
ATOM     14  C   UNL     1      21.881   4.832   8.279  1.00  0.00     0.041 C 
ATOM     15  O   UNL     1      21.242   4.648   9.348  1.00  0.00    -0.550 OA
ATOM     16  O   UNL     1      21.224   4.737   7.060  1.00  0.00    -0.550 OA
ENDBRANCH  13  14
ENDBRANCH  12  13
ENDBRANCH  11  12
ENDBRANCH  10  11
ENDBRANCH   9  10
ENDBRANCH   8   9
ENDBRANCH   7   8
ENDBRANCH   6   7
ENDBRANCH   5   6
ENDBRANCH   4   5
ENDBRANCH   3   4
ENDBRANCH   2   3
ENDBRANCH   1   2
BRANCH   1  17
ATOM     17  C   UNL     1      28.376   0.372   8.437  1.00  0.00     0.000 C 
BRANCH  17  18
ATOM     18  C   UNL     1      27.999  -0.797   9.364  1.00  0.00     0.000 C 
BRANCH  18  19
ATOM     19  C   UNL     1      27.748  -2.105   8.597  1.00  0.00     0.000 C 
BRANCH  19  20
ATOM     20  C   UNL     1      28.429  -2.122   7.217  1.00  0.00     0.000 C 
BRANCH  20  21
ATOM     21  C   UNL     1      27.449  -2.436   6.072  1.00  0.00     0.000 C 
BRANCH  21  22
ATOM     22  C   UNL     1      26.086  -1.727   6.158  1.00  0.00    -0.000 C 
BRANCH  22  23
ATOM     23  C   UNL     1      25.654  -1.099   4.822  1.00  0.00    -0.000 C 
BRANCH  23  24
ATOM     24  C   UNL     1      26.489   0.135   4.433  1.00  0.00    -0.000 C 
BRANCH  24  25
ATOM     25  C   UNL     1      25.972   1.484   4.970  1.00  0.00    -0.000 C 
BRANCH  25  26
ATOM     26  C   UNL     1      24.450   1.505   5.191  1.00  0.00    -0.000 C 
BRANCH  26  27
ATOM     27  C   UNL     1      24.060   1.504   6.680  1.00  0.00    -0.000 C 
BRANCH  27  28
ATOM     28  C   UNL     1      22.546   1.440   6.967  1.00  0.00    -0.000 C 
BRANCH  28  29
ATOM     29  C   UNL     1      22.057   0.124   7.595  1.00  0.00    -0.003 C 
ATOM     30  C   UNL     1      22.253  -1.083   6.678  1.00  0.00     0.004 C 
ENDBRANCH  28  29
ENDBRANCH  27  28
ENDBRANCH  26  27
ENDBRANCH  25  26
ENDBRANCH  24  25
ENDBRANCH  23  24
ENDBRANCH  22  23
ENDBRANCH  21  22
ENDBRANCH  20  21
ENDBRANCH  19  20
ENDBRANCH  18  19
ENDBRANCH  17  18
ENDBRANCH   1  17
TORSDOF 26
ENDMDL
MODEL 9
REMARK VINA RESULT:    -4.172      2.472      5.937
REMARK INTER + INTRA:         -15.503
REMARK INTER:                  -9.778
REMARK INTRA:                  -5.725
REMARK UNBOUND:                -4.991
REMARK SMILES CCCCCCCCCCCCCCCCCCCCCCCCCCCC(=O)[O-]
REMARK SMILES IDX 15 1 16 2 17 3 18 4 19 5 20 6 21 7 22 8 23 9 24 10 25 11
REMARK SMILES IDX 26 12 27 13 28 14 29 15 30 16 14 17 13 18 12 19 11 20 10 21
REMARK SMILES IDX 9 22 8 23 7 24 6 25 5 26 4 27 3 28 2 29 1 30
REMARK H PARENT
REMARK Flexibility Score: inf
ROOT
ATOM      1  C   UNL     1      26.504   7.346   7.735  1.00  0.00     0.000 C 
ENDROOT
BRANCH   1   2
ATOM      2  C   UNL     1      25.982   6.715   6.434  1.00  0.00     0.000 C 
BRANCH   2   3
ATOM      3  C   UNL     1      25.289   5.361   6.661  1.00  0.00     0.000 C 
BRANCH   3   4
ATOM      4  C   UNL     1      23.756   5.465   6.811  1.00  0.00     0.000 C 
BRANCH   4   5
ATOM      5  C   UNL     1      23.178   6.684   6.076  1.00  0.00     0.000 C 
BRANCH   5   6
ATOM      6  C   UNL     1      21.656   6.569   5.934  1.00  0.00     0.000 C 
BRANCH   6   7
ATOM      7  C   UNL     1      21.171   5.173   6.351  1.00  0.00     0.000 C 
BRANCH   7   8
ATOM      8  C   UNL     1      19.937   5.217   7.270  1.00  0.00     0.000 C 
BRANCH   8   9
ATOM      9  C   UNL     1      19.936   4.181   8.416  1.00  0.00     0.000 C 
BRANCH   9  10
ATOM     10  C   UNL     1      21.308   3.926   9.067  1.00  0.00     0.000 C 
BRANCH  10  11
ATOM     11  C   UNL     1      21.742   2.453   8.989  1.00  0.00     0.000 C 
BRANCH  11  12
ATOM     12  C   UNL     1      23.189   2.285   8.486  1.00  0.00     0.006 C 
BRANCH  12  13
ATOM     13  C   UNL     1      23.437   0.959   7.747  1.00  0.00     0.053 C 
BRANCH  13  14
ATOM     14  C   UNL     1      23.484   1.128   6.260  1.00  0.00     0.041 C 
ATOM     15  O   UNL     1      23.181   2.233   5.738  1.00  0.00    -0.550 OA
ATOM     16  O   UNL     1      23.859   0.064   5.449  1.00  0.00    -0.550 OA
ENDBRANCH  13  14
ENDBRANCH  12  13
ENDBRANCH  11  12
ENDBRANCH  10  11
ENDBRANCH   9  10
ENDBRANCH   8   9
ENDBRANCH   7   8
ENDBRANCH   6   7
ENDBRANCH   5   6
ENDBRANCH   4   5
ENDBRANCH   3   4
ENDBRANCH   2   3
ENDBRANCH   1   2
BRANCH   1  17
ATOM     17  C   UNL     1      25.738   8.620   8.125  1.00  0.00     0.000 C 
BRANCH  17  18
ATOM     18  C   UNL     1      25.058   8.499   9.501  1.00  0.00     0.000 C 
BRANCH  18  19
ATOM     19  C   UNL     1      23.534   8.329   9.396  1.00  0.00     0.000 C 
BRANCH  19  20
ATOM     20  C   UNL     1      23.055   6.958   9.903  1.00  0.00     0.000 C 
BRANCH  20  21
ATOM     21  C   UNL     1      23.795   6.498  11.172  1.00  0.00     0.000 C 
BRANCH  21  22
ATOM     22  C   UNL     1      24.169   5.006  11.212  1.00  0.00    -0.000 C 
BRANCH  22  23
ATOM     23  C   UNL     1      25.374   4.667  10.319  1.00  0.00    -0.000 C 
BRANCH  23  24
ATOM     24  C   UNL     1      26.647   5.447  10.697  1.00  0.00    -0.000 C 
BRANCH  24  25
ATOM     25  C   UNL     1      27.960   4.907  10.098  1.00  0.00    -0.000 C 
BRANCH  25  26
ATOM     26  C   UNL     1      28.320   3.497  10.597  1.00  0.00    -0.000 C 
BRANCH  26  27
ATOM     27  C   UNL     1      28.002   2.397   9.567  1.00  0.00    -0.000 C 
BRANCH  27  28
ATOM     28  C   UNL     1      27.798   2.887   8.119  1.00  0.00    -0.000 C 
BRANCH  28  29
ATOM     29  C   UNL     1      27.023   1.920   7.208  1.00  0.00    -0.003 C 
ATOM     30  C   UNL     1      26.916   2.417   5.767  1.00  0.00     0.004 C 
ENDBRANCH  28  29
ENDBRANCH  27  28
ENDBRANCH  26  27
ENDBRANCH  25  26
ENDBRANCH  24  25
ENDBRANCH  23  24
ENDBRANCH  22  23
ENDBRANCH  21  22
ENDBRANCH  20  21
ENDBRANCH  19  20
ENDBRANCH  18  19
ENDBRANCH  17  18
ENDBRANCH   1  17
TORSDOF 26
ENDMDL
