MODEL 1
REMARK VINA RESULT:    10.321      0.000      0.000
REMARK INTER + INTRA:          17.198
REMARK INTER:                  13.942
REMARK INTRA:                   3.256
REMARK UNBOUND:                 3.256
REMARK SMILES CC[C@H](CC[C@@H](C)[C@@H]1CC[C@H]2[C@@H]3CC(=O)C4=CC(=O)CC[C@@]4(C)[C@@H]3CC[C@]21C)C(C)C
REMARK SMILES IDX 4 1 3 2 2 3 1 4 29 5 30 6 31 7 5 8 6 9 7 10 8 11 9 12 27 13
REMARK SMILES IDX 10 14 11 15 26 16 28 17 12 18 25 19 24 20 13 21 22 22 14 23
REMARK SMILES IDX 16 24 21 25 23 26 15 27 17 28 20 29 18 30 19 31
REMARK H PARENT
REMARK Flexibility Score: inf
ROOT
ATOM      1  C   UNL     1      -9.336  29.569  24.737  1.00  0.00     0.004 C 
ENDROOT
BRANCH   1   2
ATOM      2  C   UNL     1     -10.045  29.461  26.122  1.00  0.00    -0.009 C 
BRANCH   2   3
ATOM      3  C   UNL     1     -10.034  28.000  26.655  1.00  0.00     0.000 C 
ATOM      4  C   UNL     1     -10.125  27.876  28.179  1.00  0.00     0.004 C 
ENDBRANCH   2   3
BRANCH   2   5
ATOM      5  C   UNL     1      -9.474  30.515  27.140  1.00  0.00    -0.014 C 
ATOM      6  C   UNL     1      -9.984  31.951  26.891  1.00  0.00     0.007 C 
ATOM      7  C   UNL     1      -7.931  30.547  27.107  1.00  0.00     0.007 C 
ENDBRANCH   2   5
ENDBRANCH   1   2
BRANCH   1   8
ATOM      8  C   UNL     1      -9.880  28.563  23.703  1.00  0.00     0.004 C 
BRANCH   8   9
ATOM      9  C   UNL     1      -8.956  28.272  22.488  1.00  0.00    -0.011 C 
ATOM     10  C   UNL     1      -9.757  27.966  21.205  1.00  0.00     0.008 C 
BRANCH   9  11
ATOM     11  C   UNL     1      -7.783  29.321  22.334  1.00  0.00    -0.002 C 
ATOM     12  C   UNL     1      -6.644  29.130  23.356  1.00  0.00     0.005 C 
ATOM     13  C   UNL     1      -8.146  30.851  22.418  1.00  0.00    -0.026 C 
ATOM     14  C   UNL     1      -6.643  30.345  24.278  1.00  0.00     0.005 C 
ATOM     15  C   UNL     1      -7.842  31.219  23.888  1.00  0.00    -0.001 C 
ATOM     16  C   UNL     1      -7.193  31.634  21.462  1.00  0.00     0.007 C 
ATOM     17  C   UNL     1      -9.617  31.155  22.030  1.00  0.00     0.012 C 
ATOM     18  C   UNL     1      -7.598  32.730  24.210  1.00  0.00     0.004 C 
ATOM     19  C   UNL     1      -7.181  33.144  21.706  1.00  0.00     0.005 C 
ATOM     20  C   UNL     1      -6.754  33.502  23.151  1.00  0.00     0.003 C 
ATOM     21  C   UNL     1      -8.891  33.491  24.548  1.00  0.00     0.085 C 
ATOM     22  C   UNL     1      -6.643  35.081  23.432  1.00  0.00    -0.000 C 
ATOM     23  C   UNL     1      -8.523  34.791  25.188  1.00  0.00     0.159 C 
ATOM     24  C   UNL     1      -7.266  35.465  24.783  1.00  0.00     0.005 C 
ATOM     25  C   UNL     1      -5.128  35.469  23.418  1.00  0.00     0.020 C 
ATOM     26  C   UNL     1      -7.392  35.936  22.370  1.00  0.00     0.017 C 
ATOM     27  O   UNL     1      -9.285  35.296  26.055  1.00  0.00    -0.295 OA
ATOM     28  C   UNL     1      -6.774  36.469  25.533  1.00  0.00     0.055 C 
ATOM     29  C   UNL     1      -4.862  36.913  23.857  1.00  0.00     0.081 C 
ATOM     30  C   UNL     1      -5.564  37.210  25.146  1.00  0.00     0.156 C 
ATOM     31  O   UNL     1      -5.138  38.134  25.889  1.00  0.00    -0.295 OA
ENDBRANCH   9  11
ENDBRANCH   8   9
ENDBRANCH   1   8
TORSDOF 6
ENDMDL
MODEL 2
REMARK VINA RESULT:    13.079     16.344     18.802
REMARK INTER + INTRA:          20.922
REMARK INTER:                  20.022
REMARK INTRA:                   0.900
REMARK UNBOUND:                 3.256
REMARK SMILES CC[C@H](CC[C@@H](C)[C@@H]1CC[C@H]2[C@@H]3CC(=O)C4=CC(=O)CC[C@@]4(C)[C@@H]3CC[C@]21C)C(C)C
REMARK SMILES IDX 4 1 3 2 2 3 1 4 29 5 30 6 31 7 5 8 6 9 7 10 8 11 9 12 27 13
REMARK SMILES IDX 10 14 11 15 26 16 28 17 12 18 25 19 24 20 13 21 22 22 14 23
REMARK SMILES IDX 16 24 21 25 23 26 15 27 17 28 20 29 18 30 19 31
REMARK H PARENT
REMARK Flexibility Score: inf
ROOT
ATOM      1  C   UNL     1      -1.553  46.233  12.218  1.00  0.00     0.004 C 
ENDROOT
BRANCH   1   2
ATOM      2  C   UNL     1      -1.883  46.469  10.712  1.00  0.00    -0.009 C 
BRANCH   2   3
ATOM      3  C   UNL     1      -2.208  45.133   9.985  1.00  0.00     0.000 C 
ATOM      4  C   UNL     1      -2.946  44.102  10.845  1.00  0.00     0.004 C 
ENDBRANCH   2   3
BRANCH   2   5
ATOM      5  C   UNL     1      -2.988  47.575  10.536  1.00  0.00    -0.014 C 
ATOM      6  C   UNL     1      -4.226  47.357  11.432  1.00  0.00     0.007 C 
ATOM      7  C   UNL     1      -3.470  47.658   9.072  1.00  0.00     0.007 C 
ENDBRANCH   2   5
ENDBRANCH   1   2
BRANCH   1   8
ATOM      8  C   UNL     1      -2.358  47.150  13.161  1.00  0.00     0.004 C 
BRANCH   8   9
ATOM      9  C   UNL     1      -2.576  46.615  14.604  1.00  0.00    -0.011 C 
ATOM     10  C   UNL     1      -2.333  45.094  14.707  1.00  0.00     0.008 C 
BRANCH   9  11
ATOM     11  C   UNL     1      -1.873  47.501  15.708  1.00  0.00    -0.002 C 
ATOM     12  C   UNL     1      -0.510  48.072  15.268  1.00  0.00     0.005 C 
ATOM     13  C   UNL     1      -1.601  46.848  17.115  1.00  0.00    -0.026 C 
ATOM     14  C   UNL     1       0.564  47.420  16.135  1.00  0.00     0.005 C 
ATOM     15  C   UNL     1      -0.131  46.380  17.023  1.00  0.00    -0.001 C 
ATOM     16  C   UNL     1      -1.743  47.954  18.205  1.00  0.00     0.007 C 
ATOM     17  C   UNL     1      -2.568  45.681  17.447  1.00  0.00     0.012 C 
ATOM     18  C   UNL     1       0.632  46.151  18.369  1.00  0.00     0.004 C 
ATOM     19  C   UNL     1      -1.159  47.560  19.563  1.00  0.00     0.005 C 
ATOM     20  C   UNL     1       0.348  47.213  19.475  1.00  0.00     0.003 C 
ATOM     21  C   UNL     1       0.473  44.724  18.918  1.00  0.00     0.085 C 
ATOM     22  C   UNL     1       1.028  46.874  20.892  1.00  0.00    -0.000 C 
ATOM     23  C   UNL     1       1.510  44.502  19.971  1.00  0.00     0.159 C 
ATOM     24  C   UNL     1       1.950  45.648  20.803  1.00  0.00     0.005 C 
ATOM     25  C   UNL     1       1.852  48.124  21.344  1.00  0.00     0.020 C 
ATOM     26  C   UNL     1      -0.014  46.531  21.995  1.00  0.00     0.017 C 
ATOM     27  O   UNL     1       1.990  43.349  20.141  1.00  0.00    -0.295 OA
ATOM     28  C   UNL     1       3.067  45.543  21.548  1.00  0.00     0.055 C 
ATOM     29  C   UNL     1       2.706  47.877  22.592  1.00  0.00     0.081 C 
ATOM     30  C   UNL     1       3.517  46.627  22.435  1.00  0.00     0.156 C 
ATOM     31  O   UNL     1       4.575  46.483  23.103  1.00  0.00    -0.295 OA
ENDBRANCH   9  11
ENDBRANCH   8   9
ENDBRANCH   1   8
TORSDOF 6
ENDMDL
