MODEL 1
REMARK VINA RESULT:    -4.066      0.000      0.000
REMARK INTER + INTRA:          -4.713
REMARK INTER:                  -4.660
REMARK INTRA:                  -0.053
REMARK UNBOUND:                -0.053
REMARK SMILES O=C([O-])c1cc(O)c(O)c(O)c1
REMARK SMILES IDX 4 1 5 2 12 3 6 4 10 5 8 6 2 7 1 8 3 9 7 10 11 12 9 14
REMARK H PARENT 7 11 11 13 9 15
REMARK Flexibility Score: inf
ROOT
ATOM      1  C   UNL     1      31.295   8.716  32.060  1.00  0.00     0.005 A 
ATOM      2  C   UNL     1      30.465   9.275  31.075  1.00  0.00     0.060 A 
ATOM      3  C   UNL     1      32.108   9.565  32.831  1.00  0.00     0.060 A 
ATOM      4  C   UNL     1      30.444  10.658  30.860  1.00  0.00     0.162 A 
ATOM      5  C   UNL     1      32.093  10.951  32.622  1.00  0.00     0.162 A 
ATOM      6  C   UNL     1      31.258  11.502  31.634  1.00  0.00     0.200 A 
ENDROOT
BRANCH   1   7
ATOM      7  C   UNL     1      31.311   7.252  32.280  1.00  0.00     0.072 C 
ATOM      8  O   UNL     1      30.573   6.494  31.596  1.00  0.00    -0.545 OA
ATOM      9  O   UNL     1      32.143   6.694  33.244  1.00  0.00    -0.545 OA
ENDBRANCH   1   7
BRANCH   4  10
ATOM     10  O   UNL     1      29.605  11.174  29.873  1.00  0.00    -0.504 OA
ATOM     11  H   UNL     1      29.920  11.870  29.208  1.00  0.00     0.293 HD
ENDBRANCH   4  10
BRANCH   5  12
ATOM     12  O   UNL     1      32.903  11.783  33.393  1.00  0.00    -0.504 OA
ATOM     13  H   UNL     1      33.813  11.481  33.722  1.00  0.00     0.293 HD
ENDBRANCH   5  12
BRANCH   6  14
ATOM     14  O   UNL     1      31.231  12.880  31.413  1.00  0.00    -0.502 OA
ATOM     15  H   UNL     1      30.374  13.417  31.463  1.00  0.00     0.293 HD
ENDBRANCH   6  14
TORSDOF 4
ENDMDL
MODEL 2
REMARK VINA RESULT:    -4.055      0.072      2.430
REMARK INTER + INTRA:          -4.700
REMARK INTER:                  -4.647
REMARK INTRA:                  -0.053
REMARK UNBOUND:                -0.053
REMARK SMILES O=C([O-])c1cc(O)c(O)c(O)c1
REMARK SMILES IDX 4 1 5 2 12 3 6 4 10 5 8 6 2 7 1 8 3 9 7 10 11 12 9 14
REMARK H PARENT 7 11 11 13 9 15
REMARK Flexibility Score: inf
ROOT
ATOM      1  C   UNL     1      31.244   8.720  32.051  1.00  0.00     0.005 A 
ATOM      2  C   UNL     1      32.039   9.573  32.834  1.00  0.00     0.060 A 
ATOM      3  C   UNL     1      30.450   9.274  31.032  1.00  0.00     0.060 A 
ATOM      4  C   UNL     1      32.044  10.954  32.608  1.00  0.00     0.162 A 
ATOM      5  C   UNL     1      30.449  10.656  30.797  1.00  0.00     0.162 A 
ATOM      6  C   UNL     1      31.249  11.500  31.587  1.00  0.00     0.200 A 
ENDROOT
BRANCH   1   7
ATOM      7  C   UNL     1      31.245   7.261  32.299  1.00  0.00     0.072 C 
ATOM      8  O   UNL     1      30.541   6.492  31.594  1.00  0.00    -0.545 OA
ATOM      9  O   UNL     1      32.025   6.721  33.315  1.00  0.00    -0.545 OA
ENDBRANCH   1   7
BRANCH   4  10
ATOM     10  O   UNL     1      32.847  11.766  33.408  1.00  0.00    -0.504 OA
ATOM     11  H   UNL     1      33.836  11.588  33.534  1.00  0.00     0.293 HD
ENDBRANCH   4  10
BRANCH   5  12
ATOM     12  O   UNL     1      29.658  11.193  29.783  1.00  0.00    -0.504 OA
ATOM     13  H   UNL     1      29.827  12.120  29.412  1.00  0.00     0.293 HD
ENDBRANCH   5  12
BRANCH   6  14
ATOM     14  O   UNL     1      31.260  12.879  31.368  1.00  0.00    -0.502 OA
ATOM     15  H   UNL     1      31.313  13.277  30.438  1.00  0.00     0.293 HD
ENDBRANCH   6  14
TORSDOF 4
ENDMDL
MODEL 3
REMARK VINA RESULT:    -3.915      1.330      4.126
REMARK INTER + INTRA:          -4.540
REMARK INTER:                  -4.487
REMARK INTRA:                  -0.053
REMARK UNBOUND:                -0.053
REMARK SMILES O=C([O-])c1cc(O)c(O)c(O)c1
REMARK SMILES IDX 4 1 5 2 12 3 6 4 10 5 8 6 2 7 1 8 3 9 7 10 11 12 9 14
REMARK H PARENT 7 11 11 13 9 15
REMARK Flexibility Score: inf
ROOT
ATOM      1  C   UNL     1      31.698   9.638  32.504  1.00  0.00     0.005 A 
ATOM      2  C   UNL     1      30.981   9.461  31.310  1.00  0.00     0.060 A 
ATOM      3  C   UNL     1      31.875   8.539  33.363  1.00  0.00     0.060 A 
ATOM      4  C   UNL     1      30.445   8.212  30.977  1.00  0.00     0.162 A 
ATOM      5  C   UNL     1      31.342   7.284  33.037  1.00  0.00     0.162 A 
ATOM      6  C   UNL     1      30.625   7.118  31.839  1.00  0.00     0.200 A 
ENDROOT
BRANCH   1   7
ATOM      7  C   UNL     1      32.260  10.963  32.849  1.00  0.00     0.072 C 
ATOM      8  O   UNL     1      32.000  11.972  32.142  1.00  0.00    -0.545 OA
ATOM      9  O   UNL     1      33.083  11.111  33.959  1.00  0.00    -0.545 OA
ENDBRANCH   1   7
BRANCH   4  10
ATOM     10  O   UNL     1      29.739   8.078  29.782  1.00  0.00    -0.504 OA
ATOM     11  H   UNL     1      28.727   8.113  29.747  1.00  0.00     0.293 HD
ENDBRANCH   4  10
BRANCH   5  12
ATOM     12  O   UNL     1      31.523   6.202  33.897  1.00  0.00    -0.504 OA
ATOM     13  H   UNL     1      31.825   5.297  33.556  1.00  0.00     0.293 HD
ENDBRANCH   5  12
BRANCH   6  14
ATOM     14  O   UNL     1      30.088   5.875  31.498  1.00  0.00    -0.502 OA
ATOM     15  H   UNL     1      29.613   5.290  32.174  1.00  0.00     0.293 HD
ENDBRANCH   6  14
TORSDOF 4
ENDMDL
MODEL 4
REMARK VINA RESULT:    -3.856      1.632      2.879
REMARK INTER + INTRA:          -4.473
REMARK INTER:                  -4.420
REMARK INTRA:                  -0.052
REMARK UNBOUND:                -0.053
REMARK SMILES O=C([O-])c1cc(O)c(O)c(O)c1
REMARK SMILES IDX 4 1 5 2 12 3 6 4 10 5 8 6 2 7 1 8 3 9 7 10 11 12 9 14
REMARK H PARENT 7 11 11 13 9 15
REMARK Flexibility Score: inf
ROOT
ATOM      1  C   UNL     1      30.248   9.395  30.154  1.00  0.00     0.005 A 
ATOM      2  C   UNL     1      30.092  10.791  30.184  1.00  0.00     0.060 A 
ATOM      3  C   UNL     1      30.881   8.756  31.233  1.00  0.00     0.060 A 
ATOM      4  C   UNL     1      30.559  11.539  31.270  1.00  0.00     0.162 A 
ATOM      5  C   UNL     1      31.352   9.498  32.326  1.00  0.00     0.162 A 
ATOM      6  C   UNL     1      31.191  10.894  32.347  1.00  0.00     0.200 A 
ENDROOT
BRANCH   1   7
ATOM      7  C   UNL     1      29.751   8.613  29.000  1.00  0.00     0.072 C 
ATOM      8  O   UNL     1      29.440   9.187  27.923  1.00  0.00    -0.545 OA
ATOM      9  O   UNL     1      29.623   7.231  29.089  1.00  0.00    -0.545 OA
ENDBRANCH   1   7
BRANCH   4  10
ATOM     10  O   UNL     1      30.385  12.922  31.261  1.00  0.00    -0.504 OA
ATOM     11  H   UNL     1      29.642  13.375  31.779  1.00  0.00     0.293 HD
ENDBRANCH   4  10
BRANCH   5  12
ATOM     12  O   UNL     1      31.979   8.852  33.391  1.00  0.00    -0.504 OA
ATOM     13  H   UNL     1      32.967   8.976  33.580  1.00  0.00     0.293 HD
ENDBRANCH   5  12
BRANCH   6  14
ATOM     14  O   UNL     1      31.654  11.648  33.426  1.00  0.00    -0.502 OA
ATOM     15  H   UNL     1      31.565  12.656  33.457  1.00  0.00     0.293 HD
ENDBRANCH   6  14
TORSDOF 4
ENDMDL
MODEL 5
REMARK VINA RESULT:    -3.851     12.862     14.231
REMARK INTER + INTRA:          -4.467
REMARK INTER:                  -4.421
REMARK INTRA:                  -0.046
REMARK UNBOUND:                -0.053
REMARK SMILES O=C([O-])c1cc(O)c(O)c(O)c1
REMARK SMILES IDX 4 1 5 2 12 3 6 4 10 5 8 6 2 7 1 8 3 9 7 10 11 12 9 14
REMARK H PARENT 7 11 11 13 9 15
REMARK Flexibility Score: inf
ROOT
ATOM      1  C   UNL     1      18.496   9.745  30.043  1.00  0.00     0.005 A 
ATOM      2  C   UNL     1      17.638   8.717  30.467  1.00  0.00     0.060 A 
ATOM      3  C   UNL     1      17.987  11.049  29.916  1.00  0.00     0.060 A 
ATOM      4  C   UNL     1      16.295   8.982  30.758  1.00  0.00     0.162 A 
ATOM      5  C   UNL     1      16.643  11.323  30.206  1.00  0.00     0.162 A 
ATOM      6  C   UNL     1      15.793  10.288  30.629  1.00  0.00     0.200 A 
ENDROOT
BRANCH   1   7
ATOM      7  C   UNL     1      19.915   9.455  29.737  1.00  0.00     0.072 C 
ATOM      8  O   UNL     1      20.356   9.586  28.565  1.00  0.00    -0.545 OA
ATOM      9  O   UNL     1      20.780   9.035  30.741  1.00  0.00    -0.545 OA
ENDBRANCH   1   7
BRANCH   4  10
ATOM     10  O   UNL     1      15.476   7.933  31.175  1.00  0.00    -0.504 OA
ATOM     11  H   UNL     1      14.627   7.684  30.684  1.00  0.00     0.293 HD
ENDBRANCH   4  10
BRANCH   5  12
ATOM     12  O   UNL     1      16.151  12.621  30.076  1.00  0.00    -0.504 OA
ATOM     13  H   UNL     1      15.296  12.913  30.534  1.00  0.00     0.293 HD
ENDBRANCH   5  12
BRANCH   6  14
ATOM     14  O   UNL     1      14.452  10.542  30.922  1.00  0.00    -0.502 OA
ATOM     15  H   UNL     1      13.712  10.373  30.251  1.00  0.00     0.293 HD
ENDBRANCH   6  14
TORSDOF 4
ENDMDL
MODEL 6
REMARK VINA RESULT:    -3.851      1.652      3.332
REMARK INTER + INTRA:          -4.467
REMARK INTER:                  -4.414
REMARK INTRA:                  -0.053
REMARK UNBOUND:                -0.053
REMARK SMILES O=C([O-])c1cc(O)c(O)c(O)c1
REMARK SMILES IDX 4 1 5 2 12 3 6 4 10 5 8 6 2 7 1 8 3 9 7 10 11 12 9 14
REMARK H PARENT 7 11 11 13 9 15
REMARK Flexibility Score: inf
ROOT
ATOM      1  C   UNL     1      30.221   9.441  30.097  1.00  0.00     0.005 A 
ATOM      2  C   UNL     1      30.864   8.777  31.155  1.00  0.00     0.060 A 
ATOM      3  C   UNL     1      30.049  10.833  30.170  1.00  0.00     0.060 A 
ATOM      4  C   UNL     1      31.327   9.487  32.268  1.00  0.00     0.162 A 
ATOM      5  C   UNL     1      30.510  11.553  31.282  1.00  0.00     0.162 A 
ATOM      6  C   UNL     1      31.152  10.879  32.335  1.00  0.00     0.200 A 
ENDROOT
BRANCH   1   7
ATOM      7  C   UNL     1      29.734   8.681  28.924  1.00  0.00     0.072 C 
ATOM      8  O   UNL     1      29.332   9.282  27.893  1.00  0.00    -0.545 OA
ATOM      9  O   UNL     1      29.715   7.291  28.945  1.00  0.00    -0.545 OA
ENDBRANCH   1   7
BRANCH   4  10
ATOM     10  O   UNL     1      31.960   8.790  33.297  1.00  0.00    -0.504 OA
ATOM     11  H   UNL     1      32.928   8.953  33.542  1.00  0.00     0.293 HD
ENDBRANCH   4  10
BRANCH   5  12
ATOM     12  O   UNL     1      30.333  12.935  31.343  1.00  0.00    -0.504 OA
ATOM     13  H   UNL     1      30.371  13.512  30.511  1.00  0.00     0.293 HD
ENDBRANCH   5  12
BRANCH   6  14
ATOM     14  O   UNL     1      31.617  11.580  33.450  1.00  0.00    -0.502 OA
ATOM     15  H   UNL     1      31.808  12.573  33.421  1.00  0.00     0.293 HD
ENDBRANCH   6  14
TORSDOF 4
ENDMDL
MODEL 7
REMARK VINA RESULT:    -3.837     12.809     14.230
REMARK INTER + INTRA:          -4.451
REMARK INTER:                  -4.406
REMARK INTRA:                  -0.045
REMARK UNBOUND:                -0.053
REMARK SMILES O=C([O-])c1cc(O)c(O)c(O)c1
REMARK SMILES IDX 4 1 5 2 12 3 6 4 10 5 8 6 2 7 1 8 3 9 7 10 11 12 9 14
REMARK H PARENT 7 11 11 13 9 15
REMARK Flexibility Score: inf
ROOT
ATOM      1  C   UNL     1      18.553   9.750  29.991  1.00  0.00     0.005 A 
ATOM      2  C   UNL     1      18.012  11.044  29.904  1.00  0.00     0.060 A 
ATOM      3  C   UNL     1      17.726   8.691  30.402  1.00  0.00     0.060 A 
ATOM      4  C   UNL     1      16.670  11.279  30.222  1.00  0.00     0.162 A 
ATOM      5  C   UNL     1      16.380   8.919  30.722  1.00  0.00     0.162 A 
ATOM      6  C   UNL     1      15.848  10.216  30.632  1.00  0.00     0.200 A 
ENDROOT
BRANCH   1   7
ATOM      7  C   UNL     1      19.974   9.510  29.652  1.00  0.00     0.072 C 
ATOM      8  O   UNL     1      20.813   9.259  30.556  1.00  0.00    -0.545 OA
ATOM      9  O   UNL     1      20.400   9.559  28.330  1.00  0.00    -0.545 OA
ENDBRANCH   1   7
BRANCH   4  10
ATOM     10  O   UNL     1      16.172  12.578  30.123  1.00  0.00    -0.504 OA
ATOM     11  H   UNL     1      15.204  12.801  30.323  1.00  0.00     0.293 HD
ENDBRANCH   4  10
BRANCH   5  12
ATOM     12  O   UNL     1      15.569   7.860  31.129  1.00  0.00    -0.504 OA
ATOM     13  H   UNL     1      15.634   7.470  32.062  1.00  0.00     0.293 HD
ENDBRANCH   5  12
BRANCH   6  14
ATOM     14  O   UNL     1      14.510  10.461  30.948  1.00  0.00    -0.502 OA
ATOM     15  H   UNL     1      13.820  10.677  30.239  1.00  0.00     0.293 HD
ENDBRANCH   6  14
TORSDOF 4
ENDMDL
MODEL 8
REMARK VINA RESULT:    -3.764      1.505      4.614
REMARK INTER + INTRA:          -4.367
REMARK INTER:                  -4.318
REMARK INTRA:                  -0.049
REMARK UNBOUND:                -0.053
REMARK SMILES O=C([O-])c1cc(O)c(O)c(O)c1
REMARK SMILES IDX 4 1 5 2 12 3 6 4 10 5 8 6 2 7 1 8 3 9 7 10 11 12 9 14
REMARK H PARENT 7 11 11 13 9 15
REMARK Flexibility Score: inf
ROOT
ATOM      1  C   UNL     1      30.496   9.454  30.842  1.00  0.00     0.005 A 
ATOM      2  C   UNL     1      30.806   9.745  32.181  1.00  0.00     0.060 A 
ATOM      3  C   UNL     1      30.722   8.154  30.357  1.00  0.00     0.060 A 
ATOM      4  C   UNL     1      31.332   8.759  33.023  1.00  0.00     0.162 A 
ATOM      5  C   UNL     1      31.249   7.160  31.194  1.00  0.00     0.162 A 
ATOM      6  C   UNL     1      31.555   7.462  32.532  1.00  0.00     0.200 A 
ENDROOT
BRANCH   1   7
ATOM      7  C   UNL     1      29.940  10.503  29.959  1.00  0.00     0.072 C 
ATOM      8  O   UNL     1      29.015  10.234  29.149  1.00  0.00    -0.545 OA
ATOM      9  O   UNL     1      30.433  11.802  30.014  1.00  0.00    -0.545 OA
ENDBRANCH   1   7
BRANCH   4  10
ATOM     10  O   UNL     1      31.626   9.088  34.346  1.00  0.00    -0.504 OA
ATOM     11  H   UNL     1      32.364   8.628  34.865  1.00  0.00     0.293 HD
ENDBRANCH   4  10
BRANCH   5  12
ATOM     12  O   UNL     1      31.468   5.875  30.700  1.00  0.00    -0.504 OA
ATOM     13  H   UNL     1      30.856   5.103  30.938  1.00  0.00     0.293 HD
ENDBRANCH   5  12
BRANCH   6  14
ATOM     14  O   UNL     1      32.080   6.484  33.379  1.00  0.00    -0.502 OA
ATOM     15  H   UNL     1      32.650   6.718  34.183  1.00  0.00     0.293 HD
ENDBRANCH   6  14
TORSDOF 4
ENDMDL
MODEL 9
REMARK VINA RESULT:    -3.735      6.332      7.653
REMARK INTER + INTRA:          -4.334
REMARK INTER:                  -4.281
REMARK INTRA:                  -0.053
REMARK UNBOUND:                -0.053
REMARK SMILES O=C([O-])c1cc(O)c(O)c(O)c1
REMARK SMILES IDX 4 1 5 2 12 3 6 4 10 5 8 6 2 7 1 8 3 9 7 10 11 12 9 14
REMARK H PARENT 7 11 11 13 9 15
REMARK Flexibility Score: inf
ROOT
ATOM      1  C   UNL     1      29.038  10.840  26.252  1.00  0.00     0.005 A 
ATOM      2  C   UNL     1      30.249  11.479  25.936  1.00  0.00     0.060 A 
ATOM      3  C   UNL     1      28.758   9.588  25.680  1.00  0.00     0.060 A 
ATOM      4  C   UNL     1      31.166  10.880  25.064  1.00  0.00     0.162 A 
ATOM      5  C   UNL     1      29.671   8.981  24.806  1.00  0.00     0.162 A 
ATOM      6  C   UNL     1      30.880   9.627  24.497  1.00  0.00     0.200 A 
ENDROOT
BRANCH   1   7
ATOM      7  C   UNL     1      28.075  11.481  27.175  1.00  0.00     0.072 C 
ATOM      8  O   UNL     1      26.953  10.954  27.396  1.00  0.00    -0.545 OA
ATOM      9  O   UNL     1      28.397  12.675  27.810  1.00  0.00    -0.545 OA
ENDBRANCH   1   7
BRANCH   4  10
ATOM     10  O   UNL     1      32.356  11.547  24.776  1.00  0.00    -0.504 OA
ATOM     11  H   UNL     1      32.980  11.874  25.503  1.00  0.00     0.293 HD
ENDBRANCH   4  10
BRANCH   5  12
ATOM     12  O   UNL     1      29.382   7.738  24.245  1.00  0.00    -0.504 OA
ATOM     13  H   UNL     1      30.034   7.268  23.629  1.00  0.00     0.293 HD
ENDBRANCH   5  12
BRANCH   6  14
ATOM     14  O   UNL     1      31.800   9.038  23.628  1.00  0.00    -0.502 OA
ATOM     15  H   UNL     1      31.615   8.158  23.163  1.00  0.00     0.293 HD
ENDBRANCH   6  14
TORSDOF 4
ENDMDL
