MODEL 1
REMARK VINA RESULT:    -7.776      0.000      0.000
REMARK INTER + INTRA:         -11.702
REMARK INTER:                 -10.503
REMARK INTRA:                  -1.199
REMARK UNBOUND:                -1.199
REMARK SMILES CC[C@@H](CC[C@H](C)[C@@H]1CC[C@@H]2[C@@H]3CC(=O)C4=CC(=O)CC[C@@]4(C)[C@@H]3CC[C@]21C)C(C)C
REMARK SMILES IDX 4 1 3 2 2 3 1 4 29 5 30 6 31 7 5 8 6 9 7 10 8 11 9 12 27 13
REMARK SMILES IDX 10 14 11 15 26 16 28 17 12 18 25 19 24 20 13 21 22 22 14 23
REMARK SMILES IDX 16 24 21 25 23 26 15 27 17 28 20 29 18 30 19 31
REMARK H PARENT
REMARK Flexibility Score: inf
ROOT
ATOM      1  C   UNL     1       0.832  30.369  31.249  1.00  0.00     0.004 C 
ENDROOT
BRANCH   1   2
ATOM      2  C   UNL     1       0.752  30.180  32.798  1.00  0.00    -0.009 C 
BRANCH   2   3
ATOM      3  C   UNL     1       2.054  30.700  33.469  1.00  0.00     0.000 C 
ATOM      4  C   UNL     1       2.926  29.601  34.085  1.00  0.00     0.004 C 
ENDBRANCH   2   3
BRANCH   2   5
ATOM      5  C   UNL     1       0.394  28.708  33.203  1.00  0.00    -0.014 C 
ATOM      6  C   UNL     1      -0.618  28.076  32.232  1.00  0.00     0.007 C 
ATOM      7  C   UNL     1      -0.177  28.616  34.631  1.00  0.00     0.007 C 
ENDBRANCH   2   5
ENDBRANCH   1   2
BRANCH   1   8
ATOM      8  C   UNL     1       2.224  30.815  30.738  1.00  0.00     0.004 C 
BRANCH   8   9
ATOM      9  C   UNL     1       2.684  30.083  29.450  1.00  0.00    -0.011 C 
ATOM     10  C   UNL     1       1.963  30.645  28.203  1.00  0.00     0.008 C 
BRANCH   9  11
ATOM     11  C   UNL     1       2.676  28.523  29.631  1.00  0.00    -0.002 C 
ATOM     12  C   UNL     1       3.385  28.028  30.925  1.00  0.00     0.005 C 
ATOM     13  C   UNL     1       3.161  27.552  28.503  1.00  0.00    -0.026 C 
ATOM     14  C   UNL     1       3.942  26.628  30.620  1.00  0.00     0.005 C 
ATOM     15  C   UNL     1       3.255  26.251  29.318  1.00  0.00    -0.001 C 
ATOM     16  C   UNL     1       2.140  27.291  27.365  1.00  0.00     0.007 C 
ATOM     17  C   UNL     1       4.517  28.022  27.914  1.00  0.00     0.012 C 
ATOM     18  C   UNL     1       3.653  24.951  28.575  1.00  0.00     0.004 C 
ATOM     19  C   UNL     1       2.577  26.099  26.481  1.00  0.00     0.005 C 
ATOM     20  C   UNL     1       2.809  24.766  27.270  1.00  0.00     0.003 C 
ATOM     21  C   UNL     1       5.150  24.664  28.368  1.00  0.00     0.085 C 
ATOM     22  C   UNL     1       3.279  23.536  26.358  1.00  0.00    -0.000 C 
ATOM     23  C   UNL     1       5.291  23.228  27.971  1.00  0.00     0.159 C 
ATOM     24  C   UNL     1       4.253  22.611  27.108  1.00  0.00     0.005 C 
ATOM     25  C   UNL     1       2.005  22.736  25.933  1.00  0.00     0.020 C 
ATOM     26  C   UNL     1       4.032  24.002  25.081  1.00  0.00     0.017 C 
ATOM     27  O   UNL     1       6.293  22.570  28.362  1.00  0.00    -0.295 OA
ATOM     28  C   UNL     1       4.267  21.281  26.897  1.00  0.00     0.055 C 
ATOM     29  C   UNL     1       2.328  21.431  25.200  1.00  0.00     0.081 C 
ATOM     30  C   UNL     1       3.314  20.624  25.987  1.00  0.00     0.156 C 
ATOM     31  O   UNL     1       3.368  19.375  25.825  1.00  0.00    -0.295 OA
ENDBRANCH   9  11
ENDBRANCH   8   9
ENDBRANCH   1   8
TORSDOF 6
ENDMDL
MODEL 2
REMARK VINA RESULT:    -7.725      2.689      4.168
REMARK INTER + INTRA:         -11.634
REMARK INTER:                 -10.267
REMARK INTRA:                  -1.367
REMARK UNBOUND:                -1.199
REMARK SMILES CC[C@@H](CC[C@H](C)[C@@H]1CC[C@@H]2[C@@H]3CC(=O)C4=CC(=O)CC[C@@]4(C)[C@@H]3CC[C@]21C)C(C)C
REMARK SMILES IDX 4 1 3 2 2 3 1 4 29 5 30 6 31 7 5 8 6 9 7 10 8 11 9 12 27 13
REMARK SMILES IDX 10 14 11 15 26 16 28 17 12 18 25 19 24 20 13 21 22 22 14 23
REMARK SMILES IDX 16 24 21 25 23 26 15 27 17 28 20 29 18 30 19 31
REMARK H PARENT
REMARK Flexibility Score: inf
ROOT
ATOM      1  C   UNL     1       0.024  29.076  31.184  1.00  0.00     0.004 C 
ENDROOT
BRANCH   1   2
ATOM      2  C   UNL     1       0.908  28.842  32.450  1.00  0.00    -0.009 C 
BRANCH   2   3
ATOM      3  C   UNL     1       0.049  28.981  33.737  1.00  0.00     0.000 C 
ATOM      4  C   UNL     1       0.529  28.121  34.911  1.00  0.00     0.004 C 
ENDBRANCH   2   3
BRANCH   2   5
ATOM      5  C   UNL     1       2.188  29.749  32.462  1.00  0.00    -0.014 C 
ATOM      6  C   UNL     1       3.417  28.999  33.004  1.00  0.00     0.007 C 
ATOM      7  C   UNL     1       1.990  31.028  33.296  1.00  0.00     0.007 C 
ENDBRANCH   2   5
ENDBRANCH   1   2
BRANCH   1   8
ATOM      8  C   UNL     1       0.830  29.374  29.895  1.00  0.00     0.004 C 
BRANCH   8   9
ATOM      9  C   UNL     1       1.363  28.104  29.181  1.00  0.00    -0.011 C 
ATOM     10  C   UNL     1       0.426  26.898  29.417  1.00  0.00     0.008 C 
BRANCH   9  11
ATOM     11  C   UNL     1       2.893  27.879  29.457  1.00  0.00    -0.002 C 
ATOM     12  C   UNL     1       3.802  29.056  29.002  1.00  0.00     0.005 C 
ATOM     13  C   UNL     1       3.639  26.583  28.994  1.00  0.00    -0.026 C 
ATOM     14  C   UNL     1       5.167  28.450  28.638  1.00  0.00     0.005 C 
ATOM     15  C   UNL     1       5.091  27.044  29.208  1.00  0.00    -0.001 C 
ATOM     16  C   UNL     1       3.431  25.337  29.894  1.00  0.00     0.007 C 
ATOM     17  C   UNL     1       3.300  26.247  27.519  1.00  0.00     0.012 C 
ATOM     18  C   UNL     1       6.228  26.028  28.930  1.00  0.00     0.004 C 
ATOM     19  C   UNL     1       4.437  24.217  29.543  1.00  0.00     0.005 C 
ATOM     20  C   UNL     1       5.939  24.655  29.623  1.00  0.00     0.003 C 
ATOM     21  C   UNL     1       6.727  25.877  27.483  1.00  0.00     0.085 C 
ATOM     22  C   UNL     1       6.981  23.499  29.243  1.00  0.00    -0.000 C 
ATOM     23  C   UNL     1       8.028  25.139  27.521  1.00  0.00     0.159 C 
ATOM     24  C   UNL     1       8.222  24.065  28.527  1.00  0.00     0.005 C 
ATOM     25  C   UNL     1       7.410  22.782  30.563  1.00  0.00     0.020 C 
ATOM     26  C   UNL     1       6.372  22.450  28.272  1.00  0.00     0.017 C 
ATOM     27  O   UNL     1       8.932  25.429  26.691  1.00  0.00    -0.295 OA
ATOM     28  C   UNL     1       9.442  23.522  28.697  1.00  0.00     0.055 C 
ATOM     29  C   UNL     1       8.540  21.768  30.361  1.00  0.00     0.081 C 
ATOM     30  C   UNL     1       9.678  22.400  29.620  1.00  0.00     0.156 C 
ATOM     31  O   UNL     1      10.840  21.930  29.744  1.00  0.00    -0.295 OA
ENDBRANCH   9  11
ENDBRANCH   8   9
ENDBRANCH   1   8
TORSDOF 6
ENDMDL
MODEL 3
REMARK VINA RESULT:    -7.559      2.371      3.750
REMARK INTER + INTRA:         -11.409
REMARK INTER:                  -9.848
REMARK INTRA:                  -1.561
REMARK UNBOUND:                -1.199
REMARK SMILES CC[C@@H](CC[C@H](C)[C@@H]1CC[C@@H]2[C@@H]3CC(=O)C4=CC(=O)CC[C@@]4(C)[C@@H]3CC[C@]21C)C(C)C
REMARK SMILES IDX 4 1 3 2 2 3 1 4 29 5 30 6 31 7 5 8 6 9 7 10 8 11 9 12 27 13
REMARK SMILES IDX 10 14 11 15 26 16 28 17 12 18 25 19 24 20 13 21 22 22 14 23
REMARK SMILES IDX 16 24 21 25 23 26 15 27 17 28 20 29 18 30 19 31
REMARK H PARENT
REMARK Flexibility Score: inf
ROOT
ATOM      1  C   UNL     1       0.014  30.039  31.624  1.00  0.00     0.004 C 
ENDROOT
BRANCH   1   2
ATOM      2  C   UNL     1       0.803  29.030  32.518  1.00  0.00    -0.009 C 
BRANCH   2   3
ATOM      3  C   UNL     1      -0.182  28.199  33.385  1.00  0.00     0.000 C 
ATOM      4  C   UNL     1       0.120  28.231  34.887  1.00  0.00     0.004 C 
ENDBRANCH   2   3
BRANCH   2   5
ATOM      5  C   UNL     1       1.927  29.729  33.359  1.00  0.00    -0.014 C 
ATOM      6  C   UNL     1       2.011  31.236  33.064  1.00  0.00     0.007 C 
ATOM      7  C   UNL     1       3.315  29.106  33.114  1.00  0.00     0.007 C 
ENDBRANCH   2   5
ENDBRANCH   1   2
BRANCH   1   8
ATOM      8  C   UNL     1       0.137  29.769  30.104  1.00  0.00     0.004 C 
BRANCH   8   9
ATOM      9  C   UNL     1       1.150  30.696  29.382  1.00  0.00    -0.011 C 
ATOM     10  C   UNL     1       0.641  31.090  27.978  1.00  0.00     0.008 C 
BRANCH   9  11
ATOM     11  C   UNL     1       2.617  30.141  29.476  1.00  0.00    -0.002 C 
ATOM     12  C   UNL     1       3.695  31.085  28.868  1.00  0.00     0.005 C 
ATOM     13  C   UNL     1       2.999  28.709  28.975  1.00  0.00    -0.026 C 
ATOM     14  C   UNL     1       4.837  30.189  28.363  1.00  0.00     0.005 C 
ATOM     15  C   UNL     1       4.531  28.840  28.990  1.00  0.00    -0.001 C 
ATOM     16  C   UNL     1       2.642  27.548  29.939  1.00  0.00     0.007 C 
ATOM     17  C   UNL     1       2.408  28.441  27.566  1.00  0.00     0.012 C 
ATOM     18  C   UNL     1       5.375  27.596  28.613  1.00  0.00     0.004 C 
ATOM     19  C   UNL     1       3.327  26.230  29.510  1.00  0.00     0.005 C 
ATOM     20  C   UNL     1       4.885  26.327  29.389  1.00  0.00     0.003 C 
ATOM     21  C   UNL     1       5.639  27.324  27.123  1.00  0.00     0.085 C 
ATOM     22  C   UNL     1       5.594  24.967  28.927  1.00  0.00    -0.000 C 
ATOM     23  C   UNL     1       6.742  26.318  27.029  1.00  0.00     0.159 C 
ATOM     24  C   UNL     1       6.826  25.238  28.044  1.00  0.00     0.005 C 
ATOM     25  C   UNL     1       6.023  24.186  30.211  1.00  0.00     0.020 C 
ATOM     26  C   UNL     1       4.652  24.068  28.079  1.00  0.00     0.017 C 
ATOM     27  O   UNL     1       7.574  26.393  26.084  1.00  0.00    -0.295 OA
ATOM     28  C   UNL     1       7.911  24.441  28.083  1.00  0.00     0.055 C 
ATOM     29  C   UNL     1       6.870  22.946  29.910  1.00  0.00     0.081 C 
ATOM     30  C   UNL     1       8.013  23.304  29.012  1.00  0.00     0.156 C 
ATOM     31  O   UNL     1       9.052  22.590  29.009  1.00  0.00    -0.295 OA
ENDBRANCH   9  11
ENDBRANCH   8   9
ENDBRANCH   1   8
TORSDOF 6
ENDMDL
MODEL 4
REMARK VINA RESULT:    -7.170      4.917      6.804
REMARK INTER + INTRA:         -10.883
REMARK INTER:                  -9.840
REMARK INTRA:                  -1.044
REMARK UNBOUND:                -1.199
REMARK SMILES CC[C@@H](CC[C@H](C)[C@@H]1CC[C@@H]2[C@@H]3CC(=O)C4=CC(=O)CC[C@@]4(C)[C@@H]3CC[C@]21C)C(C)C
REMARK SMILES IDX 4 1 3 2 2 3 1 4 29 5 30 6 31 7 5 8 6 9 7 10 8 11 9 12 27 13
REMARK SMILES IDX 10 14 11 15 26 16 28 17 12 18 25 19 24 20 13 21 22 22 14 23
REMARK SMILES IDX 16 24 21 25 23 26 15 27 17 28 20 29 18 30 19 31
REMARK H PARENT
REMARK Flexibility Score: inf
ROOT
ATOM      1  C   UNL     1       1.051  30.384  31.913  1.00  0.00     0.004 C 
ENDROOT
BRANCH   1   2
ATOM      2  C   UNL     1       1.621  29.122  32.636  1.00  0.00    -0.009 C 
BRANCH   2   3
ATOM      3  C   UNL     1       1.396  29.236  34.169  1.00  0.00     0.000 C 
ATOM      4  C   UNL     1       0.110  28.569  34.668  1.00  0.00     0.004 C 
ENDBRANCH   2   3
BRANCH   2   5
ATOM      5  C   UNL     1       3.114  28.836  32.251  1.00  0.00    -0.014 C 
ATOM      6  C   UNL     1       3.226  28.051  30.933  1.00  0.00     0.007 C 
ATOM      7  C   UNL     1       3.862  28.055  33.348  1.00  0.00     0.007 C 
ENDBRANCH   2   5
ENDBRANCH   1   2
BRANCH   1   8
ATOM      8  C   UNL     1      -0.167  30.095  31.002  1.00  0.00     0.004 C 
BRANCH   8   9
ATOM      9  C   UNL     1       0.212  29.532  29.607  1.00  0.00    -0.011 C 
ATOM     10  C   UNL     1      -0.377  30.405  28.476  1.00  0.00     0.008 C 
BRANCH   9  11
ATOM     11  C   UNL     1      -0.041  27.984  29.514  1.00  0.00    -0.002 C 
ATOM     12  C   UNL     1       0.556  27.317  28.242  1.00  0.00     0.005 C 
ATOM     13  C   UNL     1      -1.469  27.363  29.670  1.00  0.00    -0.026 C 
ATOM     14  C   UNL     1      -0.336  26.109  27.913  1.00  0.00     0.005 C 
ATOM     15  C   UNL     1      -1.177  25.940  29.166  1.00  0.00    -0.001 C 
ATOM     16  C   UNL     1      -1.980  27.224  31.128  1.00  0.00     0.007 C 
ATOM     17  C   UNL     1      -2.503  28.133  28.807  1.00  0.00     0.012 C 
ATOM     18  C   UNL     1      -2.329  24.903  29.198  1.00  0.00     0.004 C 
ATOM     19  C   UNL     1      -3.239  26.329  31.199  1.00  0.00     0.005 C 
ATOM     20  C   UNL     1      -3.045  24.899  30.590  1.00  0.00     0.003 C 
ATOM     21  C   UNL     1      -3.312  24.877  28.016  1.00  0.00     0.085 C 
ATOM     22  C   UNL     1      -4.354  23.978  30.647  1.00  0.00    -0.000 C 
ATOM     23  C   UNL     1      -4.085  23.598  28.092  1.00  0.00     0.159 C 
ATOM     24  C   UNL     1      -4.452  23.051  29.422  1.00  0.00     0.005 C 
ATOM     25  C   UNL     1      -4.288  23.126  31.955  1.00  0.00     0.020 C 
ATOM     26  C   UNL     1      -5.664  24.814  30.653  1.00  0.00     0.017 C 
ATOM     27  O   UNL     1      -4.425  23.013  27.027  1.00  0.00    -0.295 OA
ATOM     28  C   UNL     1      -4.981  21.816  29.513  1.00  0.00     0.055 C 
ATOM     29  C   UNL     1      -5.396  22.072  32.047  1.00  0.00     0.081 C 
ATOM     30  C   UNL     1      -5.438  21.253  30.794  1.00  0.00     0.156 C 
ATOM     31  O   UNL     1      -5.924  20.091  30.825  1.00  0.00    -0.295 OA
ENDBRANCH   9  11
ENDBRANCH   8   9
ENDBRANCH   1   8
TORSDOF 6
ENDMDL
MODEL 5
REMARK VINA RESULT:    -7.130      1.964      3.820
REMARK INTER + INTRA:         -10.830
REMARK INTER:                  -9.369
REMARK INTRA:                  -1.461
REMARK UNBOUND:                -1.199
REMARK SMILES CC[C@@H](CC[C@H](C)[C@@H]1CC[C@@H]2[C@@H]3CC(=O)C4=CC(=O)CC[C@@]4(C)[C@@H]3CC[C@]21C)C(C)C
REMARK SMILES IDX 4 1 3 2 2 3 1 4 29 5 30 6 31 7 5 8 6 9 7 10 8 11 9 12 27 13
REMARK SMILES IDX 10 14 11 15 26 16 28 17 12 18 25 19 24 20 13 21 22 22 14 23
REMARK SMILES IDX 16 24 21 25 23 26 15 27 17 28 20 29 18 30 19 31
REMARK H PARENT
REMARK Flexibility Score: inf
ROOT
ATOM      1  C   UNL     1      -0.017  30.053  31.629  1.00  0.00     0.004 C 
ENDROOT
BRANCH   1   2
ATOM      2  C   UNL     1       0.466  28.823  32.462  1.00  0.00    -0.009 C 
BRANCH   2   3
ATOM      3  C   UNL     1      -0.686  27.792  32.613  1.00  0.00     0.000 C 
ATOM      4  C   UNL     1      -1.441  27.498  31.312  1.00  0.00     0.004 C 
ENDBRANCH   2   3
BRANCH   2   5
ATOM      5  C   UNL     1       1.101  29.243  33.833  1.00  0.00    -0.014 C 
ATOM      6  C   UNL     1       2.624  29.435  33.725  1.00  0.00     0.007 C 
ATOM      7  C   UNL     1       0.818  28.217  34.947  1.00  0.00     0.007 C 
ENDBRANCH   2   5
ENDBRANCH   1   2
BRANCH   1   8
ATOM      8  C   UNL     1       1.107  30.759  30.832  1.00  0.00     0.004 C 
BRANCH   8   9
ATOM      9  C   UNL     1       0.904  30.724  29.295  1.00  0.00    -0.011 C 
ATOM     10  C   UNL     1      -0.526  30.262  28.933  1.00  0.00     0.008 C 
BRANCH   9  11
ATOM     11  C   UNL     1       2.091  29.999  28.565  1.00  0.00    -0.002 C 
ATOM     12  C   UNL     1       1.976  29.992  27.013  1.00  0.00     0.005 C 
ATOM     13  C   UNL     1       2.542  28.550  28.948  1.00  0.00    -0.026 C 
ATOM     14  C   UNL     1       2.686  28.722  26.520  1.00  0.00     0.005 C 
ATOM     15  C   UNL     1       3.450  28.246  27.744  1.00  0.00    -0.001 C 
ATOM     16  C   UNL     1       3.430  28.441  30.214  1.00  0.00     0.007 C 
ATOM     17  C   UNL     1       1.319  27.603  29.064  1.00  0.00     0.012 C 
ATOM     18  C   UNL     1       4.198  26.889  27.717  1.00  0.00     0.004 C 
ATOM     19  C   UNL     1       4.074  27.040  30.330  1.00  0.00     0.005 C 
ATOM     20  C   UNL     1       4.918  26.616  29.081  1.00  0.00     0.003 C 
ATOM     21  C   UNL     1       3.450  25.660  27.176  1.00  0.00     0.085 C 
ATOM     22  C   UNL     1       5.570  25.157  29.193  1.00  0.00    -0.000 C 
ATOM     23  C   UNL     1       4.459  24.587  26.915  1.00  0.00     0.159 C 
ATOM     24  C   UNL     1       5.623  24.451  27.826  1.00  0.00     0.005 C 
ATOM     25  C   UNL     1       7.015  25.317  29.766  1.00  0.00     0.020 C 
ATOM     26  C   UNL     1       4.757  24.217  30.126  1.00  0.00     0.017 C 
ATOM     27  O   UNL     1       4.300  23.807  25.936  1.00  0.00    -0.295 OA
ATOM     28  C   UNL     1       6.631  23.619  27.501  1.00  0.00     0.055 C 
ATOM     29  C   UNL     1       7.816  24.012  29.760  1.00  0.00     0.081 C 
ATOM     30  C   UNL     1       7.771  23.382  28.402  1.00  0.00     0.156 C 
ATOM     31  O   UNL     1       8.689  22.594  28.050  1.00  0.00    -0.295 OA
ENDBRANCH   9  11
ENDBRANCH   8   9
ENDBRANCH   1   8
TORSDOF 6
ENDMDL
MODEL 6
REMARK VINA RESULT:    -7.094      1.557      2.033
REMARK INTER + INTRA:         -10.781
REMARK INTER:                  -9.105
REMARK INTRA:                  -1.676
REMARK UNBOUND:                -1.199
REMARK SMILES CC[C@@H](CC[C@H](C)[C@@H]1CC[C@@H]2[C@@H]3CC(=O)C4=CC(=O)CC[C@@]4(C)[C@@H]3CC[C@]21C)C(C)C
REMARK SMILES IDX 4 1 3 2 2 3 1 4 29 5 30 6 31 7 5 8 6 9 7 10 8 11 9 12 27 13
REMARK SMILES IDX 10 14 11 15 26 16 28 17 12 18 25 19 24 20 13 21 22 22 14 23
REMARK SMILES IDX 16 24 21 25 23 26 15 27 17 28 20 29 18 30 19 31
REMARK H PARENT
REMARK Flexibility Score: inf
ROOT
ATOM      1  C   UNL     1       0.312  30.405  31.338  1.00  0.00     0.004 C 
ENDROOT
BRANCH   1   2
ATOM      2  C   UNL     1       0.828  30.058  32.771  1.00  0.00    -0.009 C 
BRANCH   2   3
ATOM      3  C   UNL     1       2.354  30.332  32.872  1.00  0.00     0.000 C 
ATOM      4  C   UNL     1       3.180  29.129  33.339  1.00  0.00     0.004 C 
ENDBRANCH   2   3
BRANCH   2   5
ATOM      5  C   UNL     1       0.432  28.606  33.213  1.00  0.00    -0.014 C 
ATOM      6  C   UNL     1      -0.691  28.026  32.336  1.00  0.00     0.007 C 
ATOM      7  C   UNL     1      -0.019  28.545  34.685  1.00  0.00     0.007 C 
ENDBRANCH   2   5
ENDBRANCH   1   2
BRANCH   1   8
ATOM      8  C   UNL     1       1.386  30.271  30.230  1.00  0.00     0.004 C 
BRANCH   8   9
ATOM      9  C   UNL     1       0.873  29.578  28.941  1.00  0.00    -0.011 C 
ATOM     10  C   UNL     1      -0.548  30.063  28.575  1.00  0.00     0.008 C 
BRANCH   9  11
ATOM     11  C   UNL     1       1.104  28.024  28.982  1.00  0.00    -0.002 C 
ATOM     12  C   UNL     1       2.274  27.579  29.906  1.00  0.00     0.005 C 
ATOM     13  C   UNL     1       1.264  27.172  27.680  1.00  0.00    -0.026 C 
ATOM     14  C   UNL     1       2.840  26.279  29.312  1.00  0.00     0.005 C 
ATOM     15  C   UNL     1       1.785  25.864  28.302  1.00  0.00    -0.001 C 
ATOM     16  C   UNL     1      -0.056  26.820  26.947  1.00  0.00     0.007 C 
ATOM     17  C   UNL     1       2.264  27.841  26.701  1.00  0.00     0.012 C 
ATOM     18  C   UNL     1       2.038  24.659  27.361  1.00  0.00     0.004 C 
ATOM     19  C   UNL     1       0.170  25.734  25.870  1.00  0.00     0.005 C 
ATOM     20  C   UNL     1       0.813  24.414  26.417  1.00  0.00     0.003 C 
ATOM     21  C   UNL     1       3.387  24.583  26.627  1.00  0.00     0.085 C 
ATOM     22  C   UNL     1       1.065  23.294  25.299  1.00  0.00    -0.000 C 
ATOM     23  C   UNL     1       3.538  23.196  26.088  1.00  0.00     0.159 C 
ATOM     24  C   UNL     1       2.339  22.479  25.588  1.00  0.00     0.005 C 
ATOM     25  C   UNL     1      -0.178  22.348  25.275  1.00  0.00     0.020 C 
ATOM     26  C   UNL     1       1.263  23.906  23.885  1.00  0.00     0.017 C 
ATOM     27  O   UNL     1       4.681  22.663  26.053  1.00  0.00    -0.295 OA
ATOM     28  C   UNL     1       2.425  21.172  25.274  1.00  0.00     0.055 C 
ATOM     29  C   UNL     1       0.008  21.127  24.370  1.00  0.00     0.081 C 
ATOM     30  C   UNL     1       1.291  20.429  24.698  1.00  0.00     0.156 C 
ATOM     31  O   UNL     1       1.424  19.206  24.424  1.00  0.00    -0.295 OA
ENDBRANCH   9  11
ENDBRANCH   8   9
ENDBRANCH   1   8
TORSDOF 6
ENDMDL
MODEL 7
REMARK VINA RESULT:    -6.888      8.722     13.317
REMARK INTER + INTRA:         -10.502
REMARK INTER:                  -9.122
REMARK INTRA:                  -1.380
REMARK UNBOUND:                -1.199
REMARK SMILES CC[C@@H](CC[C@H](C)[C@@H]1CC[C@@H]2[C@@H]3CC(=O)C4=CC(=O)CC[C@@]4(C)[C@@H]3CC[C@]21C)C(C)C
REMARK SMILES IDX 4 1 3 2 2 3 1 4 29 5 30 6 31 7 5 8 6 9 7 10 8 11 9 12 27 13
REMARK SMILES IDX 10 14 11 15 26 16 28 17 12 18 25 19 24 20 13 21 22 22 14 23
REMARK SMILES IDX 16 24 21 25 23 26 15 27 17 28 20 29 18 30 19 31
REMARK H PARENT
REMARK Flexibility Score: inf
ROOT
ATOM      1  C   UNL     1      -3.232  16.531  24.200  1.00  0.00     0.004 C 
ENDROOT
BRANCH   1   2
ATOM      2  C   UNL     1      -4.706  16.377  23.706  1.00  0.00    -0.009 C 
BRANCH   2   3
ATOM      3  C   UNL     1      -5.582  17.531  24.267  1.00  0.00     0.000 C 
ATOM      4  C   UNL     1      -5.251  18.911  23.690  1.00  0.00     0.004 C 
ENDBRANCH   2   3
BRANCH   2   5
ATOM      5  C   UNL     1      -5.292  14.954  24.010  1.00  0.00    -0.014 C 
ATOM      6  C   UNL     1      -5.769  14.245  22.730  1.00  0.00     0.007 C 
ATOM      7  C   UNL     1      -6.466  15.005  25.005  1.00  0.00     0.007 C 
ENDBRANCH   2   5
ENDBRANCH   1   2
BRANCH   1   8
ATOM      8  C   UNL     1      -3.093  16.694  25.734  1.00  0.00     0.004 C 
BRANCH   8   9
ATOM      9  C   UNL     1      -2.473  18.048  26.167  1.00  0.00    -0.011 C 
ATOM     10  C   UNL     1      -1.026  18.192  25.643  1.00  0.00     0.008 C 
BRANCH   9  11
ATOM     11  C   UNL     1      -2.706  18.335  27.694  1.00  0.00    -0.002 C 
ATOM     12  C   UNL     1      -2.999  17.064  28.543  1.00  0.00     0.005 C 
ATOM     13  C   UNL     1      -3.733  19.405  28.193  1.00  0.00    -0.026 C 
ATOM     14  C   UNL     1      -3.888  17.508  29.716  1.00  0.00     0.005 C 
ATOM     15  C   UNL     1      -3.787  19.023  29.682  1.00  0.00    -0.001 C 
ATOM     16  C   UNL     1      -3.247  20.876  28.128  1.00  0.00     0.007 C 
ATOM     17  C   UNL     1      -5.090  19.253  27.457  1.00  0.00     0.012 C 
ATOM     18  C   UNL     1      -4.665  19.884  30.625  1.00  0.00     0.004 C 
ATOM     19  C   UNL     1      -4.188  21.814  28.919  1.00  0.00     0.005 C 
ATOM     20  C   UNL     1      -4.384  21.411  30.419  1.00  0.00     0.003 C 
ATOM     21  C   UNL     1      -6.165  19.557  30.719  1.00  0.00     0.085 C 
ATOM     22  C   UNL     1      -5.372  22.372  31.235  1.00  0.00    -0.000 C 
ATOM     23  C   UNL     1      -6.712  20.255  31.923  1.00  0.00     0.159 C 
ATOM     24  C   UNL     1      -6.183  21.593  32.287  1.00  0.00     0.005 C 
ATOM     25  C   UNL     1      -4.510  23.471  31.934  1.00  0.00     0.020 C 
ATOM     26  C   UNL     1      -6.419  23.059  30.315  1.00  0.00     0.017 C 
ATOM     27  O   UNL     1      -7.622  19.705  32.602  1.00  0.00    -0.295 OA
ATOM     28  C   UNL     1      -6.528  22.150  33.464  1.00  0.00     0.055 C 
ATOM     29  C   UNL     1      -5.315  24.355  32.891  1.00  0.00     0.081 C 
ATOM     30  C   UNL     1      -6.100  23.507  33.843  1.00  0.00     0.156 C 
ATOM     31  O   UNL     1      -6.449  23.980  34.958  1.00  0.00    -0.295 OA
ENDBRANCH   9  11
ENDBRANCH   8   9
ENDBRANCH   1   8
TORSDOF 6
ENDMDL
MODEL 8
REMARK VINA RESULT:    -6.878      1.861      3.214
REMARK INTER + INTRA:         -10.489
REMARK INTER:                  -8.537
REMARK INTRA:                  -1.952
REMARK UNBOUND:                -1.199
REMARK SMILES CC[C@@H](CC[C@H](C)[C@@H]1CC[C@@H]2[C@@H]3CC(=O)C4=CC(=O)CC[C@@]4(C)[C@@H]3CC[C@]21C)C(C)C
REMARK SMILES IDX 4 1 3 2 2 3 1 4 29 5 30 6 31 7 5 8 6 9 7 10 8 11 9 12 27 13
REMARK SMILES IDX 10 14 11 15 26 16 28 17 12 18 25 19 24 20 13 21 22 22 14 23
REMARK SMILES IDX 16 24 21 25 23 26 15 27 17 28 20 29 18 30 19 31
REMARK H PARENT
REMARK Flexibility Score: inf
ROOT
ATOM      1  C   UNL     1      -0.232  30.132  31.340  1.00  0.00     0.004 C 
ENDROOT
BRANCH   1   2
ATOM      2  C   UNL     1       0.358  28.839  31.989  1.00  0.00    -0.009 C 
BRANCH   2   3
ATOM      3  C   UNL     1      -0.743  27.750  32.109  1.00  0.00     0.000 C 
ATOM      4  C   UNL     1      -1.566  27.543  30.833  1.00  0.00     0.004 C 
ENDBRANCH   2   3
BRANCH   2   5
ATOM      5  C   UNL     1       1.087  29.131  33.346  1.00  0.00    -0.014 C 
ATOM      6  C   UNL     1       0.207  28.778  34.558  1.00  0.00     0.007 C 
ATOM      7  C   UNL     1       1.521  30.604  33.473  1.00  0.00     0.007 C 
ENDBRANCH   2   5
ENDBRANCH   1   2
BRANCH   1   8
ATOM      8  C   UNL     1       0.299  30.422  29.914  1.00  0.00     0.004 C 
BRANCH   8   9
ATOM      9  C   UNL     1       1.670  29.765  29.608  1.00  0.00    -0.011 C 
ATOM     10  C   UNL     1       2.822  30.784  29.761  1.00  0.00     0.008 C 
BRANCH   9  11
ATOM     11  C   UNL     1       1.634  28.928  28.279  1.00  0.00    -0.002 C 
ATOM     12  C   UNL     1       0.209  28.747  27.680  1.00  0.00     0.005 C 
ATOM     13  C   UNL     1       2.308  27.521  28.163  1.00  0.00    -0.026 C 
ATOM     14  C   UNL     1       0.212  27.409  26.923  1.00  0.00     0.005 C 
ATOM     15  C   UNL     1       1.687  27.057  26.834  1.00  0.00    -0.001 C 
ATOM     16  C   UNL     1       3.845  27.534  27.955  1.00  0.00     0.007 C 
ATOM     17  C   UNL     1       1.935  26.628  29.375  1.00  0.00     0.012 C 
ATOM     18  C   UNL     1       2.128  25.686  26.262  1.00  0.00     0.004 C 
ATOM     19  C   UNL     1       4.368  26.139  27.543  1.00  0.00     0.005 C 
ATOM     20  C   UNL     1       3.688  25.551  26.260  1.00  0.00     0.003 C 
ATOM     21  C   UNL     1       1.416  24.423  26.776  1.00  0.00     0.085 C 
ATOM     22  C   UNL     1       4.216  24.098  25.843  1.00  0.00    -0.000 C 
ATOM     23  C   UNL     1       1.744  23.300  25.843  1.00  0.00     0.159 C 
ATOM     24  C   UNL     1       3.095  23.238  25.231  1.00  0.00     0.005 C 
ATOM     25  C   UNL     1       5.370  24.283  24.806  1.00  0.00     0.020 C 
ATOM     26  C   UNL     1       4.753  23.293  27.059  1.00  0.00     0.017 C 
ATOM     27  O   UNL     1       0.876  22.418  25.602  1.00  0.00    -0.295 OA
ATOM     28  C   UNL     1       3.344  22.347  24.253  1.00  0.00     0.055 C 
ATOM     29  C   UNL     1       5.849  22.964  24.192  1.00  0.00     0.081 C 
ATOM     30  C   UNL     1       4.685  22.184  23.666  1.00  0.00     0.156 C 
ATOM     31  O   UNL     1       4.864  21.336  22.751  1.00  0.00    -0.295 OA
ENDBRANCH   9  11
ENDBRANCH   8   9
ENDBRANCH   1   8
TORSDOF 6
ENDMDL
MODEL 9
REMARK VINA RESULT:    -6.838      2.506      3.697
REMARK INTER + INTRA:         -10.436
REMARK INTER:                  -8.738
REMARK INTRA:                  -1.697
REMARK UNBOUND:                -1.199
REMARK SMILES CC[C@@H](CC[C@H](C)[C@@H]1CC[C@@H]2[C@@H]3CC(=O)C4=CC(=O)CC[C@@]4(C)[C@@H]3CC[C@]21C)C(C)C
REMARK SMILES IDX 4 1 3 2 2 3 1 4 29 5 30 6 31 7 5 8 6 9 7 10 8 11 9 12 27 13
REMARK SMILES IDX 10 14 11 15 26 16 28 17 12 18 25 19 24 20 13 21 22 22 14 23
REMARK SMILES IDX 16 24 21 25 23 26 15 27 17 28 20 29 18 30 19 31
REMARK H PARENT
REMARK Flexibility Score: inf
ROOT
ATOM      1  C   UNL     1      -0.147  30.119  31.352  1.00  0.00     0.004 C 
ENDROOT
BRANCH   1   2
ATOM      2  C   UNL     1       0.261  28.795  32.075  1.00  0.00    -0.009 C 
BRANCH   2   3
ATOM      3  C   UNL     1      -1.003  27.955  32.406  1.00  0.00     0.000 C 
ATOM      4  C   UNL     1      -1.434  27.000  31.287  1.00  0.00     0.004 C 
ENDBRANCH   2   3
BRANCH   2   5
ATOM      5  C   UNL     1       1.174  29.054  33.324  1.00  0.00    -0.014 C 
ATOM      6  C   UNL     1       0.519  28.557  34.625  1.00  0.00     0.007 C 
ATOM      7  C   UNL     1       1.525  30.543  33.494  1.00  0.00     0.007 C 
ENDBRANCH   2   5
ENDBRANCH   1   2
BRANCH   1   8
ATOM      8  C   UNL     1      -0.257  29.991  29.813  1.00  0.00     0.004 C 
BRANCH   8   9
ATOM      9  C   UNL     1       1.078  30.243  29.065  1.00  0.00    -0.011 C 
ATOM     10  C   UNL     1       0.985  31.495  28.165  1.00  0.00     0.008 C 
BRANCH   9  11
ATOM     11  C   UNL     1       1.632  28.931  28.401  1.00  0.00    -0.002 C 
ATOM     12  C   UNL     1       0.675  27.709  28.510  1.00  0.00     0.005 C 
ATOM     13  C   UNL     1       3.054  28.367  28.732  1.00  0.00    -0.026 C 
ATOM     14  C   UNL     1       1.560  26.452  28.531  1.00  0.00     0.005 C 
ATOM     15  C   UNL     1       2.921  26.971  28.101  1.00  0.00    -0.001 C 
ATOM     16  C   UNL     1       4.234  29.070  28.011  1.00  0.00     0.007 C 
ATOM     17  C   UNL     1       3.296  28.342  30.264  1.00  0.00     0.012 C 
ATOM     18  C   UNL     1       4.156  26.036  28.130  1.00  0.00     0.004 C 
ATOM     19  C   UNL     1       5.542  28.259  28.152  1.00  0.00     0.005 C 
ATOM     20  C   UNL     1       5.441  26.783  27.637  1.00  0.00     0.003 C 
ATOM     21  C   UNL     1       4.399  25.194  29.394  1.00  0.00     0.085 C 
ATOM     22  C   UNL     1       6.791  25.936  27.799  1.00  0.00    -0.000 C 
ATOM     23  C   UNL     1       5.402  24.137  29.055  1.00  0.00     0.159 C 
ATOM     24  C   UNL     1       6.501  24.457  28.111  1.00  0.00     0.005 C 
ATOM     25  C   UNL     1       7.595  26.051  26.464  1.00  0.00     0.020 C 
ATOM     26  C   UNL     1       7.674  26.452  28.968  1.00  0.00     0.017 C 
ATOM     27  O   UNL     1       5.307  22.997  29.587  1.00  0.00    -0.295 OA
ATOM     28  C   UNL     1       7.297  23.471  27.654  1.00  0.00     0.055 C 
ATOM     29  C   UNL     1       8.828  25.143  26.422  1.00  0.00     0.081 C 
ATOM     30  C   UNL     1       8.451  23.739  26.781  1.00  0.00     0.156 C 
ATOM     31  O   UNL     1       9.163  22.780  26.379  1.00  0.00    -0.295 OA
ENDBRANCH   9  11
ENDBRANCH   8   9
ENDBRANCH   1   8
TORSDOF 6
ENDMDL
