MODEL 1
REMARK VINA RESULT:    18.863      0.000      0.000
REMARK INTER + INTRA:          27.742
REMARK INTER:                  26.582
REMARK INTRA:                   1.161
REMARK UNBOUND:                 1.161
REMARK SMILES C=C(CC[C@@H](C(=O)[O-])[C@@H]1[C@H](O)C[C@@]2(C)C3=C(CC[C@@]12C)[C@]1(C)CC[C@H](O)C(C)(C)[C@H]1CC3)C(C)C
REMARK SMILES IDX 4 1 5 2 6 3 7 4 8 5 9 6 10 7 19 8 12 9 13 10 18 11 20 12
REMARK SMILES IDX 14 13 15 14 17 15 16 16 32 17 21 18 31 19 30 20 23 21 22 22
REMARK SMILES IDX 27 23 24 24 25 25 28 26 29 27 11 28 26 30 3 32 2 33 1 34
REMARK SMILES IDX 33 35 34 36 35 37
REMARK H PARENT 11 29 26 31
REMARK Flexibility Score: inf
ROOT
ATOM      1  C   UNL     1      72.533  32.672  57.518  1.00  0.00     0.014 C 
ENDROOT
BRANCH   1   2
ATOM      2  C   UNL     1      72.326  33.270  56.103  1.00  0.00     0.042 C 
BRANCH   2   3
ATOM      3  C   UNL     1      71.190  34.275  56.125  1.00  0.00     0.045 C 
ATOM      4  O   UNL     1      71.214  35.227  56.952  1.00  0.00    -0.550 OA
ATOM      5  O   UNL     1      70.185  34.248  55.166  1.00  0.00    -0.550 OA
ENDBRANCH   2   3
BRANCH   2   6
ATOM      6  C   UNL     1      73.681  33.756  55.468  1.00  0.00     0.033 C 
ATOM      7  C   UNL     1      74.186  35.158  55.853  1.00  0.00     0.119 C 
ATOM      8  C   UNL     1      73.937  33.558  53.917  1.00  0.00    -0.017 C 
ATOM      9  C   UNL     1      75.214  35.509  54.787  1.00  0.00     0.043 C 
ATOM     10  C   UNL     1      74.727  34.868  53.466  1.00  0.00    -0.003 C 
ATOM     11  C   UNL     1      74.794  32.267  53.694  1.00  0.00     0.012 C 
ATOM     12  C   UNL     1      72.640  33.320  53.092  1.00  0.00     0.013 C 
ATOM     13  C   UNL     1      73.793  35.912  52.773  1.00  0.00     0.017 C 
ATOM     14  C   UNL     1      75.976  34.571  52.588  1.00  0.00    -0.064 C 
ATOM     15  C   UNL     1      76.282  32.499  53.916  1.00  0.00     0.032 C 
ATOM     16  C   UNL     1      76.794  33.512  52.908  1.00  0.00    -0.064 C 
ATOM     17  C   UNL     1      76.365  35.581  51.505  1.00  0.00     0.032 C 
ATOM     18  C   UNL     1      78.121  33.242  52.164  1.00  0.00    -0.008 C 
ATOM     19  C   UNL     1      77.637  35.273  50.720  1.00  0.00     0.009 C 
ATOM     20  C   UNL     1      78.677  34.612  51.636  1.00  0.00     0.007 C 
ATOM     21  C   UNL     1      79.174  32.635  53.142  1.00  0.00     0.014 C 
ATOM     22  C   UNL     1      77.780  32.209  51.055  1.00  0.00     0.016 C 
ATOM     23  C   UNL     1      80.162  34.645  51.092  1.00  0.00    -0.006 C 
ATOM     24  C   UNL     1      80.587  32.563  52.551  1.00  0.00     0.033 C 
ATOM     25  C   UNL     1      81.104  33.945  52.125  1.00  0.00     0.120 C 
ATOM     26  C   UNL     1      80.633  36.122  50.950  1.00  0.00     0.014 C 
ATOM     27  C   UNL     1      80.333  33.996  49.690  1.00  0.00     0.014 C 
BRANCH   7  28
ATOM     28  O   UNL     1      73.170  36.123  55.836  1.00  0.00    -0.393 OA
ATOM     29  H   UNL     1      73.076  36.435  54.896  1.00  0.00     0.210 HD
ENDBRANCH   7  28
BRANCH  25  30
ATOM     30  O   UNL     1      81.247  34.749  53.274  1.00  0.00    -0.393 OA
ATOM     31  H   UNL     1      81.902  34.294  53.862  1.00  0.00     0.210 HD
ENDBRANCH  25  30
ENDBRANCH   2   6
ENDBRANCH   1   2
BRANCH   1  32
ATOM     32  C   UNL     1      72.589  33.772  58.597  1.00  0.00     0.031 C 
BRANCH  32  33
ATOM     33  C   UNL     1      73.182  33.277  59.898  1.00  0.00    -0.075 C 
ATOM     34  C   UNL     1      74.144  32.338  59.861  1.00  0.00     0.008 C 
BRANCH  33  35
ATOM     35  C   UNL     1      72.799  33.999  61.186  1.00  0.00     0.008 C 
ATOM     36  C   UNL     1      72.544  33.065  62.382  1.00  0.00     0.012 C 
ATOM     37  C   UNL     1      73.862  35.052  61.536  1.00  0.00     0.012 C 
ENDBRANCH  33  35
ENDBRANCH  32  33
ENDBRANCH   1  32
TORSDOF 8
ENDMDL
