MODEL 1
REMARK VINA RESULT:    -5.800      0.000      0.000
REMARK INTER + INTRA:         -12.751
REMARK INTER:                 -10.548
REMARK INTRA:                  -2.203
REMARK UNBOUND:                -2.203
REMARK SMILES CCCCCCCCCCCCCCCC(=O)[O-]
REMARK SMILES IDX 9 1 10 2 11 3 12 4 13 5 14 6 15 7 16 8 17 9 18 10 8 11 7 12
REMARK SMILES IDX 6 13 5 14 4 15 3 16 2 17 1 18
REMARK H PARENT
REMARK Flexibility Score: inf
ROOT
ATOM      1  C   UNL     1      28.944  34.392  26.550  1.00  0.00     0.000 C 
ENDROOT
BRANCH   1   2
ATOM      2  C   UNL     1      30.366  34.895  26.853  1.00  0.00     0.000 C 
BRANCH   2   3
ATOM      3  C   UNL     1      30.399  36.205  27.668  1.00  0.00     0.000 C 
BRANCH   3   4
ATOM      4  C   UNL     1      31.764  36.909  27.573  1.00  0.00     0.000 C 
BRANCH   4   5
ATOM      5  C   UNL     1      31.885  37.796  26.322  1.00  0.00     0.000 C 
BRANCH   5   6
ATOM      6  C   UNL     1      30.598  38.593  26.041  1.00  0.00     0.006 C 
BRANCH   6   7
ATOM      7  C   UNL     1      30.061  38.344  24.626  1.00  0.00     0.053 C 
BRANCH   7   8
ATOM      8  C   UNL     1      29.316  39.531  24.096  1.00  0.00     0.041 C 
ATOM      9  O   UNL     1      28.056  39.545  24.109  1.00  0.00    -0.550 OA
ATOM     10  O   UNL     1      30.012  40.633  23.615  1.00  0.00    -0.550 OA
ENDBRANCH   7   8
ENDBRANCH   6   7
ENDBRANCH   5   6
ENDBRANCH   4   5
ENDBRANCH   3   4
ENDBRANCH   2   3
ENDBRANCH   1   2
BRANCH   1  11
ATOM     11  C   UNL     1      27.855  35.394  26.966  1.00  0.00     0.000 C 
BRANCH  11  12
ATOM     12  C   UNL     1      27.367  36.256  25.789  1.00  0.00    -0.000 C 
BRANCH  12  13
ATOM     13  C   UNL     1      26.464  37.416  26.245  1.00  0.00    -0.000 C 
BRANCH  13  14
ATOM     14  C   UNL     1      26.601  37.717  27.746  1.00  0.00    -0.000 C 
BRANCH  14  15
ATOM     15  C   UNL     1      27.616  38.833  28.038  1.00  0.00    -0.000 C 
BRANCH  15  16
ATOM     16  C   UNL     1      28.235  38.660  29.433  1.00  0.00    -0.000 C 
BRANCH  16  17
ATOM     17  C   UNL     1      29.693  39.144  29.497  1.00  0.00    -0.003 C 
ATOM     18  C   UNL     1      30.263  39.119  30.915  1.00  0.00     0.004 C 
ENDBRANCH  16  17
ENDBRANCH  15  16
ENDBRANCH  14  15
ENDBRANCH  13  14
ENDBRANCH  12  13
ENDBRANCH  11  12
ENDBRANCH   1  11
TORSDOF 14
ENDMDL
MODEL 2
REMARK VINA RESULT:    -5.763      2.359      4.477
REMARK INTER + INTRA:         -12.683
REMARK INTER:                 -10.397
REMARK INTRA:                  -2.286
REMARK UNBOUND:                -2.203
REMARK SMILES CCCCCCCCCCCCCCCC(=O)[O-]
REMARK SMILES IDX 9 1 10 2 11 3 12 4 13 5 14 6 15 7 16 8 17 9 18 10 8 11 7 12
REMARK SMILES IDX 6 13 5 14 4 15 3 16 2 17 1 18
REMARK H PARENT
REMARK Flexibility Score: inf
ROOT
ATOM      1  C   UNL     1      29.189  38.762  30.051  1.00  0.00     0.000 C 
ENDROOT
BRANCH   1   2
ATOM      2  C   UNL     1      30.463  39.220  29.319  1.00  0.00     0.000 C 
BRANCH   2   3
ATOM      3  C   UNL     1      30.335  39.197  27.781  1.00  0.00     0.000 C 
BRANCH   3   4
ATOM      4  C   UNL     1      31.653  38.791  27.098  1.00  0.00     0.000 C 
BRANCH   4   5
ATOM      5  C   UNL     1      31.886  37.271  27.125  1.00  0.00     0.000 C 
BRANCH   5   6
ATOM      6  C   UNL     1      30.753  36.491  26.434  1.00  0.00     0.006 C 
BRANCH   6   7
ATOM      7  C   UNL     1      30.178  35.389  27.332  1.00  0.00     0.053 C 
BRANCH   7   8
ATOM      8  C   UNL     1      29.325  34.429  26.561  1.00  0.00     0.041 C 
ATOM      9  O   UNL     1      29.856  33.487  25.916  1.00  0.00    -0.550 OA
ATOM     10  O   UNL     1      27.941  34.557  26.579  1.00  0.00    -0.550 OA
ENDBRANCH   7   8
ENDBRANCH   6   7
ENDBRANCH   5   6
ENDBRANCH   4   5
ENDBRANCH   3   4
ENDBRANCH   2   3
ENDBRANCH   1   2
BRANCH   1  11
ATOM     11  C   UNL     1      27.948  38.757  29.144  1.00  0.00     0.000 C 
BRANCH  11  12
ATOM     12  C   UNL     1      27.451  37.336  28.833  1.00  0.00    -0.000 C 
BRANCH  12  13
ATOM     13  C   UNL     1      26.481  37.300  27.640  1.00  0.00    -0.000 C 
BRANCH  13  14
ATOM     14  C   UNL     1      26.699  38.468  26.665  1.00  0.00    -0.000 C 
BRANCH  14  15
ATOM     15  C   UNL     1      27.660  38.116  25.520  1.00  0.00    -0.000 C 
BRANCH  15  16
ATOM     16  C   UNL     1      28.092  39.377  24.758  1.00  0.00    -0.000 C 
BRANCH  16  17
ATOM     17  C   UNL     1      29.432  39.196  24.027  1.00  0.00    -0.003 C 
ATOM     18  C   UNL     1      30.060  40.524  23.605  1.00  0.00     0.004 C 
ENDBRANCH  16  17
ENDBRANCH  15  16
ENDBRANCH  14  15
ENDBRANCH  13  14
ENDBRANCH  12  13
ENDBRANCH  11  12
ENDBRANCH   1  11
TORSDOF 14
ENDMDL
MODEL 3
REMARK VINA RESULT:    -5.709      2.158      4.941
REMARK INTER + INTRA:         -12.584
REMARK INTER:                 -10.462
REMARK INTRA:                  -2.122
REMARK UNBOUND:                -2.203
REMARK SMILES CCCCCCCCCCCCCCCC(=O)[O-]
REMARK SMILES IDX 9 1 10 2 11 3 12 4 13 5 14 6 15 7 16 8 17 9 18 10 8 11 7 12
REMARK SMILES IDX 6 13 5 14 4 15 3 16 2 17 1 18
REMARK H PARENT
REMARK Flexibility Score: inf
ROOT
ATOM      1  C   UNL     1      28.888  34.538  26.259  1.00  0.00     0.000 C 
ENDROOT
BRANCH   1   2
ATOM      2  C   UNL     1      27.712  35.402  26.748  1.00  0.00     0.000 C 
BRANCH   2   3
ATOM      3  C   UNL     1      27.211  36.418  25.700  1.00  0.00     0.000 C 
BRANCH   3   4
ATOM      4  C   UNL     1      26.436  37.579  26.346  1.00  0.00     0.000 C 
BRANCH   4   5
ATOM      5  C   UNL     1      26.689  37.687  27.859  1.00  0.00     0.000 C 
BRANCH   5   6
ATOM      6  C   UNL     1      27.782  38.715  28.200  1.00  0.00     0.006 C 
BRANCH   6   7
ATOM      7  C   UNL     1      28.242  38.609  29.660  1.00  0.00     0.053 C 
BRANCH   7   8
ATOM      8  C   UNL     1      29.623  39.157  29.852  1.00  0.00     0.041 C 
ATOM      9  O   UNL     1      30.231  39.691  28.888  1.00  0.00    -0.550 OA
ATOM     10  O   UNL     1      30.225  39.105  31.103  1.00  0.00    -0.550 OA
ENDBRANCH   7   8
ENDBRANCH   6   7
ENDBRANCH   5   6
ENDBRANCH   4   5
ENDBRANCH   3   4
ENDBRANCH   2   3
ENDBRANCH   1   2
BRANCH   1  11
ATOM     11  C   UNL     1      30.156  34.718  27.109  1.00  0.00     0.000 C 
BRANCH  11  12
ATOM     12  C   UNL     1      30.269  36.130  27.708  1.00  0.00    -0.000 C 
BRANCH  12  13
ATOM     13  C   UNL     1      31.690  36.707  27.589  1.00  0.00    -0.000 C 
BRANCH  13  14
ATOM     14  C   UNL     1      31.846  37.650  26.385  1.00  0.00    -0.000 C 
BRANCH  14  15
ATOM     15  C   UNL     1      30.543  38.382  26.029  1.00  0.00    -0.000 C 
BRANCH  15  16
ATOM     16  C   UNL     1      30.239  38.263  24.529  1.00  0.00    -0.000 C 
BRANCH  16  17
ATOM     17  C   UNL     1      29.625  39.547  23.947  1.00  0.00    -0.003 C 
ATOM     18  C   UNL     1      28.146  39.707  24.298  1.00  0.00     0.004 C 
ENDBRANCH  16  17
ENDBRANCH  15  16
ENDBRANCH  14  15
ENDBRANCH  13  14
ENDBRANCH  12  13
ENDBRANCH  11  12
ENDBRANCH   1  11
TORSDOF 14
ENDMDL
MODEL 4
REMARK VINA RESULT:    -5.691      1.163      4.538
REMARK INTER + INTRA:         -12.551
REMARK INTER:                 -10.512
REMARK INTRA:                  -2.039
REMARK UNBOUND:                -2.203
REMARK SMILES CCCCCCCCCCCCCCCC(=O)[O-]
REMARK SMILES IDX 9 1 10 2 11 3 12 4 13 5 14 6 15 7 16 8 17 9 18 10 8 11 7 12
REMARK SMILES IDX 6 13 5 14 4 15 3 16 2 17 1 18
REMARK H PARENT
REMARK Flexibility Score: inf
ROOT
ATOM      1  C   UNL     1      29.293  38.754  29.991  1.00  0.00     0.000 C 
ENDROOT
BRANCH   1   2
ATOM      2  C   UNL     1      27.949  38.750  29.243  1.00  0.00     0.000 C 
BRANCH   2   3
ATOM      3  C   UNL     1      27.494  37.344  28.795  1.00  0.00     0.000 C 
BRANCH   3   4
ATOM      4  C   UNL     1      26.623  37.396  27.528  1.00  0.00     0.000 C 
BRANCH   4   5
ATOM      5  C   UNL     1      26.921  38.628  26.657  1.00  0.00     0.000 C 
BRANCH   5   6
ATOM      6  C   UNL     1      27.754  38.279  25.411  1.00  0.00     0.006 C 
BRANCH   6   7
ATOM      7  C   UNL     1      28.032  39.510  24.538  1.00  0.00     0.053 C 
BRANCH   7   8
ATOM      8  C   UNL     1      29.445  39.534  24.042  1.00  0.00     0.041 C 
ATOM      9  O   UNL     1      29.955  40.612  23.635  1.00  0.00    -0.550 OA
ATOM     10  O   UNL     1      30.209  38.374  24.057  1.00  0.00    -0.550 OA
ENDBRANCH   7   8
ENDBRANCH   6   7
ENDBRANCH   5   6
ENDBRANCH   4   5
ENDBRANCH   3   4
ENDBRANCH   2   3
ENDBRANCH   1   2
BRANCH   1  11
ATOM     11  C   UNL     1      30.396  39.511  29.232  1.00  0.00     0.000 C 
BRANCH  11  12
ATOM     12  C   UNL     1      30.460  39.125  27.745  1.00  0.00    -0.000 C 
BRANCH  12  13
ATOM     13  C   UNL     1      31.873  38.702  27.307  1.00  0.00    -0.000 C 
BRANCH  13  14
ATOM     14  C   UNL     1      31.980  37.194  27.033  1.00  0.00    -0.000 C 
BRANCH  14  15
ATOM     15  C   UNL     1      30.653  36.578  26.562  1.00  0.00    -0.000 C 
BRANCH  15  16
ATOM     16  C   UNL     1      30.268  35.374  27.432  1.00  0.00    -0.000 C 
BRANCH  16  17
ATOM     17  C   UNL     1      29.567  34.265  26.629  1.00  0.00    -0.003 C 
ATOM     18  C   UNL     1      28.118  34.610  26.285  1.00  0.00     0.004 C 
ENDBRANCH  16  17
ENDBRANCH  15  16
ENDBRANCH  14  15
ENDBRANCH  13  14
ENDBRANCH  12  13
ENDBRANCH  11  12
ENDBRANCH   1  11
TORSDOF 14
ENDMDL
MODEL 5
REMARK VINA RESULT:    -5.612      2.390      4.473
REMARK INTER + INTRA:         -12.408
REMARK INTER:                 -10.235
REMARK INTRA:                  -2.173
REMARK UNBOUND:                -2.203
REMARK SMILES CCCCCCCCCCCCCCCC(=O)[O-]
REMARK SMILES IDX 9 1 10 2 11 3 12 4 13 5 14 6 15 7 16 8 17 9 18 10 8 11 7 12
REMARK SMILES IDX 6 13 5 14 4 15 3 16 2 17 1 18
REMARK H PARENT
REMARK Flexibility Score: inf
ROOT
ATOM      1  C   UNL     1      28.815  39.868  24.363  1.00  0.00     0.000 C 
ENDROOT
BRANCH   1   2
ATOM      2  C   UNL     1      30.217  39.270  24.571  1.00  0.00     0.000 C 
BRANCH   2   3
ATOM      3  C   UNL     1      30.200  37.806  25.058  1.00  0.00     0.000 C 
BRANCH   3   4
ATOM      4  C   UNL     1      31.577  37.353  25.574  1.00  0.00     0.000 C 
BRANCH   4   5
ATOM      5  C   UNL     1      31.985  38.069  26.872  1.00  0.00     0.000 C 
BRANCH   5   6
ATOM      6  C   UNL     1      30.940  37.899  27.990  1.00  0.00     0.006 C 
BRANCH   6   7
ATOM      7  C   UNL     1      30.413  39.247  28.499  1.00  0.00     0.053 C 
BRANCH   7   8
ATOM      8  C   UNL     1      29.599  39.092  29.747  1.00  0.00     0.041 C 
ATOM      9  O   UNL     1      28.369  38.833  29.673  1.00  0.00    -0.550 OA
ATOM     10  O   UNL     1      30.206  39.203  30.992  1.00  0.00    -0.550 OA
ENDBRANCH   7   8
ENDBRANCH   6   7
ENDBRANCH   5   6
ENDBRANCH   4   5
ENDBRANCH   3   4
ENDBRANCH   2   3
ENDBRANCH   1   2
BRANCH   1  11
ATOM     11  C   UNL     1      27.695  38.974  24.920  1.00  0.00     0.000 C 
BRANCH  11  12
ATOM     12  C   UNL     1      27.263  39.384  26.338  1.00  0.00    -0.000 C 
BRANCH  12  13
ATOM     13  C   UNL     1      26.306  38.365  26.979  1.00  0.00    -0.000 C 
BRANCH  13  14
ATOM     14  C   UNL     1      26.576  36.926  26.513  1.00  0.00    -0.000 C 
BRANCH  14  15
ATOM     15  C   UNL     1      27.761  36.276  27.243  1.00  0.00    -0.000 C 
BRANCH  15  16
ATOM     16  C   UNL     1      28.096  34.907  26.635  1.00  0.00    -0.000 C 
BRANCH  16  17
ATOM     17  C   UNL     1      29.567  34.511  26.844  1.00  0.00    -0.003 C 
ATOM     18  C   UNL     1      30.016  33.387  25.911  1.00  0.00     0.004 C 
ENDBRANCH  16  17
ENDBRANCH  15  16
ENDBRANCH  14  15
ENDBRANCH  13  14
ENDBRANCH  12  13
ENDBRANCH  11  12
ENDBRANCH   1  11
TORSDOF 14
ENDMDL
MODEL 6
REMARK VINA RESULT:    -5.568      2.508      4.711
REMARK INTER + INTRA:         -12.329
REMARK INTER:                 -10.202
REMARK INTRA:                  -2.127
REMARK UNBOUND:                -2.203
REMARK SMILES CCCCCCCCCCCCCCCC(=O)[O-]
REMARK SMILES IDX 9 1 10 2 11 3 12 4 13 5 14 6 15 7 16 8 17 9 18 10 8 11 7 12
REMARK SMILES IDX 6 13 5 14 4 15 3 16 2 17 1 18
REMARK H PARENT
REMARK Flexibility Score: inf
ROOT
ATOM      1  C   UNL     1      28.849  38.304  24.738  1.00  0.00     0.000 C 
ENDROOT
BRANCH   1   2
ATOM      2  C   UNL     1      27.873  39.451  25.052  1.00  0.00     0.000 C 
BRANCH   2   3
ATOM      3  C   UNL     1      26.970  39.178  26.273  1.00  0.00     0.000 C 
BRANCH   3   4
ATOM      4  C   UNL     1      26.435  37.735  26.285  1.00  0.00     0.000 C 
BRANCH   4   5
ATOM      5  C   UNL     1      26.768  36.994  27.591  1.00  0.00     0.000 C 
BRANCH   5   6
ATOM      6  C   UNL     1      28.151  36.320  27.547  1.00  0.00     0.006 C 
BRANCH   6   7
ATOM      7  C   UNL     1      28.154  35.060  26.672  1.00  0.00     0.053 C 
BRANCH   7   8
ATOM      8  C   UNL     1      29.491  34.386  26.669  1.00  0.00     0.041 C 
ATOM      9  O   UNL     1      29.770  33.537  25.781  1.00  0.00    -0.550 OA
ATOM     10  O   UNL     1      30.441  34.717  27.628  1.00  0.00    -0.550 OA
ENDBRANCH   7   8
ENDBRANCH   6   7
ENDBRANCH   5   6
ENDBRANCH   4   5
ENDBRANCH   3   4
ENDBRANCH   2   3
ENDBRANCH   1   2
BRANCH   1  11
ATOM     11  C   UNL     1      30.322  38.707  24.918  1.00  0.00     0.000 C 
BRANCH  11  12
ATOM     12  C   UNL     1      31.177  37.569  25.501  1.00  0.00    -0.000 C 
BRANCH  12  13
ATOM     13  C   UNL     1      31.582  37.827  26.962  1.00  0.00    -0.000 C 
BRANCH  13  14
ATOM     14  C   UNL     1      31.805  39.319  27.259  1.00  0.00    -0.000 C 
BRANCH  14  15
ATOM     15  C   UNL     1      31.027  39.803  28.492  1.00  0.00    -0.000 C 
BRANCH  15  16
ATOM     16  C   UNL     1      29.606  39.222  28.507  1.00  0.00    -0.000 C 
BRANCH  16  17
ATOM     17  C   UNL     1      29.103  38.929  29.931  1.00  0.00    -0.003 C 
ATOM     18  C   UNL     1      30.196  39.083  30.988  1.00  0.00     0.004 C 
ENDBRANCH  16  17
ENDBRANCH  15  16
ENDBRANCH  14  15
ENDBRANCH  13  14
ENDBRANCH  12  13
ENDBRANCH  11  12
ENDBRANCH   1  11
TORSDOF 14
ENDMDL
MODEL 7
REMARK VINA RESULT:    -5.388      0.914      3.440
REMARK INTER + INTRA:         -12.002
REMARK INTER:                  -9.866
REMARK INTRA:                  -2.136
REMARK UNBOUND:                -2.203
REMARK SMILES CCCCCCCCCCCCCCCC(=O)[O-]
REMARK SMILES IDX 9 1 10 2 11 3 12 4 13 5 14 6 15 7 16 8 17 9 18 10 8 11 7 12
REMARK SMILES IDX 6 13 5 14 4 15 3 16 2 17 1 18
REMARK H PARENT
REMARK Flexibility Score: inf
ROOT
ATOM      1  C   UNL     1      29.699  38.353  28.983  1.00  0.00     0.000 C 
ENDROOT
BRANCH   1   2
ATOM      2  C   UNL     1      30.477  39.633  28.633  1.00  0.00     0.000 C 
BRANCH   2   3
ATOM      3  C   UNL     1      31.629  39.403  27.632  1.00  0.00     0.000 C 
BRANCH   3   4
ATOM      4  C   UNL     1      31.867  37.908  27.358  1.00  0.00     0.000 C 
BRANCH   4   5
ATOM      5  C   UNL     1      31.669  37.541  25.878  1.00  0.00     0.000 C 
BRANCH   5   6
ATOM      6  C   UNL     1      30.255  37.880  25.373  1.00  0.00     0.006 C 
BRANCH   6   7
ATOM      7  C   UNL     1      30.277  38.527  23.981  1.00  0.00     0.053 C 
BRANCH   7   8
ATOM      8  C   UNL     1      29.453  39.777  23.934  1.00  0.00     0.041 C 
ATOM      9  O   UNL     1      29.912  40.817  23.392  1.00  0.00    -0.550 OA
ATOM     10  O   UNL     1      28.167  39.784  24.459  1.00  0.00    -0.550 OA
ENDBRANCH   7   8
ENDBRANCH   6   7
ENDBRANCH   5   6
ENDBRANCH   4   5
ENDBRANCH   3   4
ENDBRANCH   2   3
ENDBRANCH   1   2
BRANCH   1  11
ATOM     11  C   UNL     1      28.184  38.587  29.097  1.00  0.00     0.000 C 
BRANCH  11  12
ATOM     12  C   UNL     1      27.499  38.695  27.724  1.00  0.00    -0.000 C 
BRANCH  12  13
ATOM     13  C   UNL     1      26.631  37.467  27.402  1.00  0.00    -0.000 C 
BRANCH  13  14
ATOM     14  C   UNL     1      26.870  36.930  25.981  1.00  0.00    -0.000 C 
BRANCH  14  15
ATOM     15  C   UNL     1      27.553  35.554  25.973  1.00  0.00    -0.000 C 
BRANCH  15  16
ATOM     16  C   UNL     1      28.309  35.308  27.286  1.00  0.00    -0.000 C 
BRANCH  16  17
ATOM     17  C   UNL     1      29.726  34.757  27.057  1.00  0.00    -0.003 C 
ATOM     18  C   UNL     1      29.772  33.668  25.986  1.00  0.00     0.004 C 
ENDBRANCH  16  17
ENDBRANCH  15  16
ENDBRANCH  14  15
ENDBRANCH  13  14
ENDBRANCH  12  13
ENDBRANCH  11  12
ENDBRANCH   1  11
TORSDOF 14
ENDMDL
MODEL 8
REMARK VINA RESULT:    -5.376      1.158      3.324
REMARK INTER + INTRA:         -11.978
REMARK INTER:                  -9.753
REMARK INTRA:                  -2.225
REMARK UNBOUND:                -2.203
REMARK SMILES CCCCCCCCCCCCCCCC(=O)[O-]
REMARK SMILES IDX 9 1 10 2 11 3 12 4 13 5 14 6 15 7 16 8 17 9 18 10 8 11 7 12
REMARK SMILES IDX 6 13 5 14 4 15 3 16 2 17 1 18
REMARK H PARENT
REMARK Flexibility Score: inf
ROOT
ATOM      1  C   UNL     1      28.612  35.372  27.414  1.00  0.00     0.000 C 
ENDROOT
BRANCH   1   2
ATOM      2  C   UNL     1      27.864  35.044  26.110  1.00  0.00     0.000 C 
BRANCH   2   3
ATOM      3  C   UNL     1      27.075  36.238  25.532  1.00  0.00     0.000 C 
BRANCH   3   4
ATOM      4  C   UNL     1      26.414  37.082  26.636  1.00  0.00     0.000 C 
BRANCH   4   5
ATOM      5  C   UNL     1      26.605  38.592  26.418  1.00  0.00     0.000 C 
BRANCH   5   6
ATOM      6  C   UNL     1      28.035  38.944  25.972  1.00  0.00     0.006 C 
BRANCH   6   7
ATOM      7  C   UNL     1      28.078  39.479  24.534  1.00  0.00     0.053 C 
BRANCH   7   8
ATOM      8  C   UNL     1      29.480  39.563  24.012  1.00  0.00     0.041 C 
ATOM      9  O   UNL     1      29.943  40.665  23.616  1.00  0.00    -0.550 OA
ATOM     10  O   UNL     1      30.284  38.430  23.990  1.00  0.00    -0.550 OA
ENDBRANCH   7   8
ENDBRANCH   6   7
ENDBRANCH   5   6
ENDBRANCH   4   5
ENDBRANCH   3   4
ENDBRANCH   2   3
ENDBRANCH   1   2
BRANCH   1  11
ATOM     11  C   UNL     1      30.140  35.291  27.263  1.00  0.00     0.000 C 
BRANCH  11  12
ATOM     12  C   UNL     1      30.744  36.580  26.682  1.00  0.00    -0.000 C 
BRANCH  12  13
ATOM     13  C   UNL     1      31.461  37.426  27.748  1.00  0.00    -0.000 C 
BRANCH  13  14
ATOM     14  C   UNL     1      31.473  38.924  27.405  1.00  0.00    -0.000 C 
BRANCH  14  15
ATOM     15  C   UNL     1      30.730  39.779  28.443  1.00  0.00    -0.000 C 
BRANCH  15  16
ATOM     16  C   UNL     1      30.031  38.893  29.484  1.00  0.00    -0.000 C 
BRANCH  16  17
ATOM     17  C   UNL     1      28.500  39.015  29.431  1.00  0.00    -0.003 C 
ATOM     18  C   UNL     1      27.788  37.770  29.960  1.00  0.00     0.004 C 
ENDBRANCH  16  17
ENDBRANCH  15  16
ENDBRANCH  14  15
ENDBRANCH  13  14
ENDBRANCH  12  13
ENDBRANCH  11  12
ENDBRANCH   1  11
TORSDOF 14
ENDMDL
MODEL 9
REMARK VINA RESULT:    -5.343      2.332      5.339
REMARK INTER + INTRA:         -11.919
REMARK INTER:                  -9.666
REMARK INTRA:                  -2.253
REMARK UNBOUND:                -2.203
REMARK SMILES CCCCCCCCCCCCCCCC(=O)[O-]
REMARK SMILES IDX 9 1 10 2 11 3 12 4 13 5 14 6 15 7 16 8 17 9 18 10 8 11 7 12
REMARK SMILES IDX 6 13 5 14 4 15 3 16 2 17 1 18
REMARK H PARENT
REMARK Flexibility Score: inf
ROOT
ATOM      1  C   UNL     1      28.661  38.332  24.531  1.00  0.00     0.000 C 
ENDROOT
BRANCH   1   2
ATOM      2  C   UNL     1      27.755  39.540  24.828  1.00  0.00     0.000 C 
BRANCH   2   3
ATOM      3  C   UNL     1      27.204  39.562  26.269  1.00  0.00     0.000 C 
BRANCH   3   4
ATOM      4  C   UNL     1      26.342  38.325  26.577  1.00  0.00     0.000 C 
BRANCH   4   5
ATOM      5  C   UNL     1      26.723  37.657  27.908  1.00  0.00     0.000 C 
BRANCH   5   6
ATOM      6  C   UNL     1      28.177  37.955  28.320  1.00  0.00     0.006 C 
BRANCH   6   7
ATOM      7  C   UNL     1      28.261  38.648  29.686  1.00  0.00     0.053 C 
BRANCH   7   8
ATOM      8  C   UNL     1      29.641  39.158  29.969  1.00  0.00     0.041 C 
ATOM      9  O   UNL     1      30.135  39.040  31.121  1.00  0.00    -0.550 OA
ATOM     10  O   UNL     1      30.393  39.734  28.952  1.00  0.00    -0.550 OA
ENDBRANCH   7   8
ENDBRANCH   6   7
ENDBRANCH   5   6
ENDBRANCH   4   5
ENDBRANCH   3   4
ENDBRANCH   2   3
ENDBRANCH   1   2
BRANCH   1  11
ATOM     11  C   UNL     1      30.154  38.699  24.497  1.00  0.00     0.000 C 
BRANCH  11  12
ATOM     12  C   UNL     1      30.823  38.576  25.876  1.00  0.00    -0.000 C 
BRANCH  12  13
ATOM     13  C   UNL     1      31.508  37.213  26.077  1.00  0.00    -0.000 C 
BRANCH  13  14
ATOM     14  C   UNL     1      31.462  36.738  27.538  1.00  0.00    -0.000 C 
BRANCH  14  15
ATOM     15  C   UNL     1      30.589  35.489  27.730  1.00  0.00    -0.000 C 
BRANCH  15  16
ATOM     16  C   UNL     1      29.859  35.125  26.430  1.00  0.00    -0.000 C 
BRANCH  16  17
ATOM     17  C   UNL     1      28.400  34.702  26.670  1.00  0.00    -0.003 C 
ATOM     18  C   UNL     1      27.491  35.012  25.480  1.00  0.00     0.004 C 
ENDBRANCH  16  17
ENDBRANCH  15  16
ENDBRANCH  14  15
ENDBRANCH  13  14
ENDBRANCH  12  13
ENDBRANCH  11  12
ENDBRANCH   1  11
TORSDOF 14
ENDMDL
