MODEL 1
REMARK VINA RESULT:    -4.073      0.000      0.000
REMARK INTER + INTRA:          -8.050
REMARK INTER:                  -6.931
REMARK INTRA:                  -1.119
REMARK UNBOUND:                -1.119
REMARK SMILES CCCCCCCCCCCCCC(=O)[O-]
REMARK SMILES IDX 8 1 9 2 10 3 11 4 12 5 13 6 14 7 15 8 16 9 7 10 6 11 5 12
REMARK SMILES IDX 4 13 3 14 2 15 1 16
REMARK H PARENT
REMARK Flexibility Score: inf
ROOT
ATOM      1  C   UNL     1     -34.195 -52.094  24.905  1.00  0.00     0.000 C 
ENDROOT
BRANCH   1   2
ATOM      2  C   UNL     1     -33.157 -51.709  25.975  1.00  0.00     0.000 C 
BRANCH   2   3
ATOM      3  C   UNL     1     -33.605 -52.121  27.394  1.00  0.00     0.000 C 
BRANCH   3   4
ATOM      4  C   UNL     1     -34.877 -52.987  27.412  1.00  0.00     0.000 C 
BRANCH   4   5
ATOM      5  C   UNL     1     -35.652 -52.883  28.736  1.00  0.00     0.006 C 
BRANCH   5   6
ATOM      6  C   UNL     1     -36.189 -54.243  29.202  1.00  0.00     0.053 C 
BRANCH   6   7
ATOM      7  C   UNL     1     -35.097 -55.260  29.329  1.00  0.00     0.041 C 
ATOM      8  O   UNL     1     -35.157 -56.338  28.680  1.00  0.00    -0.550 OA
ATOM      9  O   UNL     1     -33.999 -55.006  30.141  1.00  0.00    -0.550 OA
ENDBRANCH   6   7
ENDBRANCH   5   6
ENDBRANCH   4   5
ENDBRANCH   3   4
ENDBRANCH   2   3
ENDBRANCH   1   2
BRANCH   1  10
ATOM     10  C   UNL     1     -34.836 -50.871  24.230  1.00  0.00     0.000 C 
BRANCH  10  11
ATOM     11  C   UNL     1     -33.904 -49.648  24.217  1.00  0.00    -0.000 C 
BRANCH  11  12
ATOM     12  C   UNL     1     -33.729 -49.055  22.810  1.00  0.00    -0.000 C 
BRANCH  12  13
ATOM     13  C   UNL     1     -32.270 -49.097  22.324  1.00  0.00    -0.000 C 
BRANCH  13  14
ATOM     14  C   UNL     1     -31.373 -49.989  23.201  1.00  0.00    -0.000 C 
BRANCH  14  15
ATOM     15  C   UNL     1     -31.064 -51.375  22.606  1.00  0.00    -0.003 C 
ATOM     16  C   UNL     1     -29.591 -51.763  22.728  1.00  0.00     0.004 C 
ENDBRANCH  14  15
ENDBRANCH  13  14
ENDBRANCH  12  13
ENDBRANCH  11  12
ENDBRANCH  10  11
ENDBRANCH   1  10
TORSDOF 12
ENDMDL
MODEL 2
REMARK VINA RESULT:    -4.021      8.055      9.631
REMARK INTER + INTRA:          -7.960
REMARK INTER:                  -6.582
REMARK INTRA:                  -1.378
REMARK UNBOUND:                -1.119
REMARK SMILES CCCCCCCCCCCCCC(=O)[O-]
REMARK SMILES IDX 8 1 9 2 10 3 11 4 12 5 13 6 14 7 15 8 16 9 7 10 6 11 5 12
REMARK SMILES IDX 4 13 3 14 2 15 1 16
REMARK H PARENT
REMARK Flexibility Score: inf
ROOT
ATOM      1  C   UNL     1     -24.718 -53.206  28.293  1.00  0.00     0.000 C 
ENDROOT
BRANCH   1   2
ATOM      2  C   UNL     1     -25.432 -54.340  29.052  1.00  0.00     0.000 C 
BRANCH   2   3
ATOM      3  C   UNL     1     -25.751 -53.950  30.512  1.00  0.00     0.000 C 
BRANCH   3   4
ATOM      4  C   UNL     1     -25.126 -52.611  30.944  1.00  0.00     0.000 C 
BRANCH   4   5
ATOM      5  C   UNL     1     -25.545 -52.186  32.360  1.00  0.00     0.006 C 
BRANCH   5   6
ATOM      6  C   UNL     1     -24.886 -50.868  32.789  1.00  0.00     0.053 C 
BRANCH   6   7
ATOM      7  C   UNL     1     -24.869 -50.711  34.278  1.00  0.00     0.041 C 
ATOM      8  O   UNL     1     -23.831 -50.994  34.933  1.00  0.00    -0.550 OA
ATOM      9  O   UNL     1     -25.989 -50.224  34.940  1.00  0.00    -0.550 OA
ENDBRANCH   6   7
ENDBRANCH   5   6
ENDBRANCH   4   5
ENDBRANCH   3   4
ENDBRANCH   2   3
ENDBRANCH   1   2
BRANCH   1  10
ATOM     10  C   UNL     1     -24.827 -53.352  26.767  1.00  0.00     0.000 C 
BRANCH  10  11
ATOM     11  C   UNL     1     -25.589 -52.186  26.115  1.00  0.00    -0.000 C 
BRANCH  11  12
ATOM     12  C   UNL     1     -26.545 -51.487  27.095  1.00  0.00    -0.000 C 
BRANCH  12  13
ATOM     13  C   UNL     1     -28.024 -51.798  26.808  1.00  0.00    -0.000 C 
BRANCH  13  14
ATOM     14  C   UNL     1     -28.572 -52.947  27.674  1.00  0.00    -0.000 C 
BRANCH  14  15
ATOM     15  C   UNL     1     -28.528 -54.334  27.007  1.00  0.00    -0.003 C 
ATOM     16  C   UNL     1     -28.474 -54.260  25.481  1.00  0.00     0.004 C 
ENDBRANCH  14  15
ENDBRANCH  13  14
ENDBRANCH  12  13
ENDBRANCH  11  12
ENDBRANCH  10  11
ENDBRANCH   1  10
TORSDOF 12
ENDMDL
MODEL 3
REMARK VINA RESULT:    -3.970      5.782      8.840
REMARK INTER + INTRA:          -7.874
REMARK INTER:                  -6.757
REMARK INTRA:                  -1.117
REMARK UNBOUND:                -1.119
REMARK SMILES CCCCCCCCCCCCCC(=O)[O-]
REMARK SMILES IDX 8 1 9 2 10 3 11 4 12 5 13 6 14 7 15 8 16 9 7 10 6 11 5 12
REMARK SMILES IDX 4 13 3 14 2 15 1 16
REMARK H PARENT
REMARK Flexibility Score: inf
ROOT
ATOM      1  C   UNL     1     -31.885 -53.504  33.716  1.00  0.00     0.000 C 
ENDROOT
BRANCH   1   2
ATOM      2  C   UNL     1     -33.116 -53.503  32.791  1.00  0.00     0.000 C 
BRANCH   2   3
ATOM      3  C   UNL     1     -32.911 -52.604  31.553  1.00  0.00     0.000 C 
BRANCH   3   4
ATOM      4  C   UNL     1     -33.655 -53.101  30.300  1.00  0.00     0.000 C 
BRANCH   4   5
ATOM      5  C   UNL     1     -33.484 -54.611  30.064  1.00  0.00     0.006 C 
BRANCH   5   6
ATOM      6  C   UNL     1     -34.819 -55.364  30.143  1.00  0.00     0.053 C 
BRANCH   6   7
ATOM      7  C   UNL     1     -35.787 -54.895  29.100  1.00  0.00     0.041 C 
ATOM      8  O   UNL     1     -35.415 -54.766  27.904  1.00  0.00    -0.550 OA
ATOM      9  O   UNL     1     -37.106 -54.627  29.444  1.00  0.00    -0.550 OA
ENDBRANCH   6   7
ENDBRANCH   5   6
ENDBRANCH   4   5
ENDBRANCH   3   4
ENDBRANCH   2   3
ENDBRANCH   1   2
BRANCH   1  10
ATOM     10  C   UNL     1     -30.694 -52.736  33.121  1.00  0.00     0.000 C 
BRANCH  10  11
ATOM     11  C   UNL     1     -29.922 -51.932  34.182  1.00  0.00    -0.000 C 
BRANCH  11  12
ATOM     12  C   UNL     1     -30.827 -51.440  35.322  1.00  0.00    -0.000 C 
BRANCH  12  13
ATOM     13  C   UNL     1     -31.350 -50.011  35.091  1.00  0.00    -0.000 C 
BRANCH  13  14
ATOM     14  C   UNL     1     -32.766 -49.794  35.656  1.00  0.00    -0.000 C 
BRANCH  14  15
ATOM     15  C   UNL     1     -33.902 -49.990  34.637  1.00  0.00    -0.003 C 
ATOM     16  C   UNL     1     -35.290 -49.788  35.244  1.00  0.00     0.004 C 
ENDBRANCH  14  15
ENDBRANCH  13  14
ENDBRANCH  12  13
ENDBRANCH  11  12
ENDBRANCH  10  11
ENDBRANCH   1  10
TORSDOF 12
ENDMDL
MODEL 4
REMARK VINA RESULT:    -3.940      9.414     11.850
REMARK INTER + INTRA:          -7.824
REMARK INTER:                  -6.312
REMARK INTRA:                  -1.511
REMARK UNBOUND:                -1.119
REMARK SMILES CCCCCCCCCCCCCC(=O)[O-]
REMARK SMILES IDX 8 1 9 2 10 3 11 4 12 5 13 6 14 7 15 8 16 9 7 10 6 11 5 12
REMARK SMILES IDX 4 13 3 14 2 15 1 16
REMARK H PARENT
REMARK Flexibility Score: inf
ROOT
ATOM      1  C   UNL     1     -27.202 -51.067  32.651  1.00  0.00     0.000 C 
ENDROOT
BRANCH   1   2
ATOM      2  C   UNL     1     -25.862 -50.318  32.535  1.00  0.00     0.000 C 
BRANCH   2   3
ATOM      3  C   UNL     1     -24.779 -50.920  33.456  1.00  0.00     0.000 C 
BRANCH   3   4
ATOM      4  C   UNL     1     -24.994 -50.606  34.947  1.00  0.00     0.000 C 
BRANCH   4   5
ATOM      5  C   UNL     1     -25.439 -49.155  35.194  1.00  0.00     0.006 C 
BRANCH   5   6
ATOM      6  C   UNL     1     -26.814 -49.078  35.872  1.00  0.00     0.053 C 
BRANCH   6   7
ATOM      7  C   UNL     1     -27.735 -48.134  35.162  1.00  0.00     0.041 C 
ATOM      8  O   UNL     1     -27.339 -47.513  34.139  1.00  0.00    -0.550 OA
ATOM      9  O   UNL     1     -29.037 -47.960  35.611  1.00  0.00    -0.550 OA
ENDBRANCH   6   7
ENDBRANCH   5   6
ENDBRANCH   4   5
ENDBRANCH   3   4
ENDBRANCH   2   3
ENDBRANCH   1   2
BRANCH   1  10
ATOM     10  C   UNL     1     -27.033 -52.595  32.637  1.00  0.00     0.000 C 
BRANCH  10  11
ATOM     11  C   UNL     1     -27.775 -53.282  33.797  1.00  0.00    -0.000 C 
BRANCH  11  12
ATOM     12  C   UNL     1     -28.379 -52.274  34.788  1.00  0.00    -0.000 C 
BRANCH  12  13
ATOM     13  C   UNL     1     -29.884 -52.497  35.021  1.00  0.00    -0.000 C 
BRANCH  13  14
ATOM     14  C   UNL     1     -30.413 -53.767  34.331  1.00  0.00    -0.000 C 
BRANCH  14  15
ATOM     15  C   UNL     1     -31.769 -53.597  33.622  1.00  0.00    -0.003 C 
ATOM     16  C   UNL     1     -32.304 -52.167  33.692  1.00  0.00     0.004 C 
ENDBRANCH  14  15
ENDBRANCH  13  14
ENDBRANCH  12  13
ENDBRANCH  11  12
ENDBRANCH  10  11
ENDBRANCH   1  10
TORSDOF 12
ENDMDL
MODEL 5
REMARK VINA RESULT:    -3.940      5.771      7.406
REMARK INTER + INTRA:          -7.823
REMARK INTER:                  -6.221
REMARK INTRA:                  -1.602
REMARK UNBOUND:                -1.119
REMARK SMILES CCCCCCCCCCCCCC(=O)[O-]
REMARK SMILES IDX 8 1 9 2 10 3 11 4 12 5 13 6 14 7 15 8 16 9 7 10 6 11 5 12
REMARK SMILES IDX 4 13 3 14 2 15 1 16
REMARK H PARENT
REMARK Flexibility Score: inf
ROOT
ATOM      1  C   UNL     1     -26.949 -50.783  24.066  1.00  0.00     0.000 C 
ENDROOT
BRANCH   1   2
ATOM      2  C   UNL     1     -27.778 -50.801  25.363  1.00  0.00     0.000 C 
BRANCH   2   3
ATOM      3  C   UNL     1     -27.056 -51.551  26.503  1.00  0.00     0.000 C 
BRANCH   3   4
ATOM      4  C   UNL     1     -25.643 -52.032  26.127  1.00  0.00     0.000 C 
BRANCH   4   5
ATOM      5  C   UNL     1     -25.295 -53.399  26.738  1.00  0.00     0.006 C 
BRANCH   5   6
ATOM      6  C   UNL     1     -24.751 -53.273  28.168  1.00  0.00     0.053 C 
BRANCH   6   7
ATOM      7  C   UNL     1     -25.465 -54.184  29.119  1.00  0.00     0.041 C 
ATOM      8  O   UNL     1     -26.089 -55.189  28.685  1.00  0.00    -0.550 OA
ATOM      9  O   UNL     1     -25.418 -53.940  30.486  1.00  0.00    -0.550 OA
ENDBRANCH   6   7
ENDBRANCH   5   6
ENDBRANCH   4   5
ENDBRANCH   3   4
ENDBRANCH   2   3
ENDBRANCH   1   2
BRANCH   1  10
ATOM     10  C   UNL     1     -27.814 -50.587  22.810  1.00  0.00     0.000 C 
BRANCH  10  11
ATOM     11  C   UNL     1     -29.310 -50.447  23.139  1.00  0.00    -0.000 C 
BRANCH  11  12
ATOM     12  C   UNL     1     -30.165 -51.532  22.466  1.00  0.00    -0.000 C 
BRANCH  12  13
ATOM     13  C   UNL     1     -30.204 -52.843  23.270  1.00  0.00    -0.000 C 
BRANCH  13  14
ATOM     14  C   UNL     1     -29.481 -54.002  22.558  1.00  0.00    -0.000 C 
BRANCH  14  15
ATOM     15  C   UNL     1     -28.051 -54.273  23.059  1.00  0.00    -0.003 C 
ATOM     16  C   UNL     1     -27.987 -54.555  24.560  1.00  0.00     0.004 C 
ENDBRANCH  14  15
ENDBRANCH  13  14
ENDBRANCH  12  13
ENDBRANCH  11  12
ENDBRANCH  10  11
ENDBRANCH   1  10
TORSDOF 12
ENDMDL
MODEL 6
REMARK VINA RESULT:    -3.939      8.660     10.988
REMARK INTER + INTRA:          -7.821
REMARK INTER:                  -6.238
REMARK INTRA:                  -1.583
REMARK UNBOUND:                -1.119
REMARK SMILES CCCCCCCCCCCCCC(=O)[O-]
REMARK SMILES IDX 8 1 9 2 10 3 11 4 12 5 13 6 14 7 15 8 16 9 7 10 6 11 5 12
REMARK SMILES IDX 4 13 3 14 2 15 1 16
REMARK H PARENT
REMARK Flexibility Score: inf
ROOT
ATOM      1  C   UNL     1     -24.842 -51.550  30.516  1.00  0.00     0.000 C 
ENDROOT
BRANCH   1   2
ATOM      2  C   UNL     1     -25.166 -52.982  30.981  1.00  0.00     0.000 C 
BRANCH   2   3
ATOM      3  C   UNL     1     -26.311 -53.614  30.160  1.00  0.00     0.000 C 
BRANCH   3   4
ATOM      4  C   UNL     1     -25.832 -54.649  29.127  1.00  0.00     0.000 C 
BRANCH   4   5
ATOM      5  C   UNL     1     -26.237 -54.288  27.689  1.00  0.00     0.006 C 
BRANCH   5   6
ATOM      6  C   UNL     1     -25.144 -53.491  26.962  1.00  0.00     0.053 C 
BRANCH   6   7
ATOM      7  C   UNL     1     -25.633 -52.143  26.527  1.00  0.00     0.041 C 
ATOM      8  O   UNL     1     -26.345 -51.448  27.299  1.00  0.00    -0.550 OA
ATOM      9  O   UNL     1     -25.277 -51.642  25.281  1.00  0.00    -0.550 OA
ENDBRANCH   6   7
ENDBRANCH   5   6
ENDBRANCH   4   5
ENDBRANCH   3   4
ENDBRANCH   2   3
ENDBRANCH   1   2
BRANCH   1  10
ATOM     10  C   UNL     1     -24.643 -50.575  31.687  1.00  0.00     0.000 C 
BRANCH  10  11
ATOM     11  C   UNL     1     -24.984 -51.208  33.047  1.00  0.00    -0.000 C 
BRANCH  11  12
ATOM     12  C   UNL     1     -25.810 -50.271  33.942  1.00  0.00    -0.000 C 
BRANCH  12  13
ATOM     13  C   UNL     1     -27.237 -50.790  34.191  1.00  0.00    -0.000 C 
BRANCH  13  14
ATOM     14  C   UNL     1     -27.941 -51.246  32.899  1.00  0.00    -0.000 C 
BRANCH  14  15
ATOM     15  C   UNL     1     -28.509 -52.676  32.946  1.00  0.00    -0.003 C 
ATOM     16  C   UNL     1     -27.732 -53.596  33.888  1.00  0.00     0.004 C 
ENDBRANCH  14  15
ENDBRANCH  13  14
ENDBRANCH  12  13
ENDBRANCH  11  12
ENDBRANCH  10  11
ENDBRANCH   1  10
TORSDOF 12
ENDMDL
MODEL 7
REMARK VINA RESULT:    -3.919      7.367      8.426
REMARK INTER + INTRA:          -7.787
REMARK INTER:                  -6.482
REMARK INTRA:                  -1.305
REMARK UNBOUND:                -1.119
REMARK SMILES CCCCCCCCCCCCCC(=O)[O-]
REMARK SMILES IDX 8 1 9 2 10 3 11 4 12 5 13 6 14 7 15 8 16 9 7 10 6 11 5 12
REMARK SMILES IDX 4 13 3 14 2 15 1 16
REMARK H PARENT
REMARK Flexibility Score: inf
ROOT
ATOM      1  C   UNL     1     -33.702 -44.974  28.177  1.00  0.00     0.000 C 
ENDROOT
BRANCH   1   2
ATOM      2  C   UNL     1     -34.534 -43.716  28.487  1.00  0.00     0.000 C 
BRANCH   2   3
ATOM      3  C   UNL     1     -35.670 -44.005  29.493  1.00  0.00     0.000 C 
BRANCH   3   4
ATOM      4  C   UNL     1     -35.272 -43.763  30.959  1.00  0.00     0.000 C 
BRANCH   4   5
ATOM      5  C   UNL     1     -34.932 -45.063  31.708  1.00  0.00     0.006 C 
BRANCH   5   6
ATOM      6  C   UNL     1     -33.468 -45.100  32.169  1.00  0.00     0.053 C 
BRANCH   6   7
ATOM      7  C   UNL     1     -33.325 -44.695  33.604  1.00  0.00     0.041 C 
ATOM      8  O   UNL     1     -32.794 -43.591  33.901  1.00  0.00    -0.550 OA
ATOM      9  O   UNL     1     -33.803 -45.522  34.613  1.00  0.00    -0.550 OA
ENDBRANCH   6   7
ENDBRANCH   5   6
ENDBRANCH   4   5
ENDBRANCH   3   4
ENDBRANCH   2   3
ENDBRANCH   1   2
BRANCH   1  10
ATOM     10  C   UNL     1     -34.538 -46.099  27.544  1.00  0.00     0.000 C 
BRANCH  10  11
ATOM     11  C   UNL     1     -35.252 -45.651  26.257  1.00  0.00    -0.000 C 
BRANCH  11  12
ATOM     12  C   UNL     1     -34.969 -46.586  25.071  1.00  0.00    -0.000 C 
BRANCH  12  13
ATOM     13  C   UNL     1     -34.071 -45.938  24.003  1.00  0.00    -0.000 C 
BRANCH  13  14
ATOM     14  C   UNL     1     -33.524 -44.565  24.436  1.00  0.00    -0.000 C 
BRANCH  14  15
ATOM     15  C   UNL     1     -31.988 -44.463  24.464  1.00  0.00    -0.003 C 
ATOM     16  C   UNL     1     -31.337 -45.519  25.358  1.00  0.00     0.004 C 
ENDBRANCH  14  15
ENDBRANCH  13  14
ENDBRANCH  12  13
ENDBRANCH  11  12
ENDBRANCH  10  11
ENDBRANCH   1  10
TORSDOF 12
ENDMDL
MODEL 8
REMARK VINA RESULT:    -3.916      8.410     10.484
REMARK INTER + INTRA:          -7.782
REMARK INTER:                  -6.078
REMARK INTRA:                  -1.704
REMARK UNBOUND:                -1.119
REMARK SMILES CCCCCCCCCCCCCC(=O)[O-]
REMARK SMILES IDX 8 1 9 2 10 3 11 4 12 5 13 6 14 7 15 8 16 9 7 10 6 11 5 12
REMARK SMILES IDX 4 13 3 14 2 15 1 16
REMARK H PARENT
REMARK Flexibility Score: inf
ROOT
ATOM      1  C   UNL     1     -24.793 -50.449  30.899  1.00  0.00     0.000 C 
ENDROOT
BRANCH   1   2
ATOM      2  C   UNL     1     -24.449 -51.941  30.734  1.00  0.00     0.000 C 
BRANCH   2   3
ATOM      3  C   UNL     1     -25.072 -52.542  29.455  1.00  0.00     0.000 C 
BRANCH   3   4
ATOM      4  C   UNL     1     -25.289 -54.064  29.532  1.00  0.00     0.000 C 
BRANCH   4   5
ATOM      5  C   UNL     1     -26.286 -54.579  28.482  1.00  0.00     0.006 C 
BRANCH   5   6
ATOM      6  C   UNL     1     -27.344 -53.526  28.123  1.00  0.00     0.053 C 
BRANCH   6   7
ATOM      7  C   UNL     1     -28.441 -54.102  27.281  1.00  0.00     0.041 C 
ATOM      8  O   UNL     1     -29.646 -53.854  27.554  1.00  0.00    -0.550 OA
ATOM      9  O   UNL     1     -28.133 -54.889  26.178  1.00  0.00    -0.550 OA
ENDBRANCH   6   7
ENDBRANCH   5   6
ENDBRANCH   4   5
ENDBRANCH   3   4
ENDBRANCH   2   3
ENDBRANCH   1   2
BRANCH   1  10
ATOM     10  C   UNL     1     -25.363 -50.121  32.288  1.00  0.00     0.000 C 
BRANCH  10  11
ATOM     11  C   UNL     1     -24.641 -50.877  33.417  1.00  0.00    -0.000 C 
BRANCH  11  12
ATOM     12  C   UNL     1     -25.567 -51.187  34.603  1.00  0.00    -0.000 C 
BRANCH  12  13
ATOM     13  C   UNL     1     -27.013 -51.484  34.168  1.00  0.00    -0.000 C 
BRANCH  13  14
ATOM     14  C   UNL     1     -27.279 -52.987  33.966  1.00  0.00    -0.000 C 
BRANCH  14  15
ATOM     15  C   UNL     1     -27.423 -53.424  32.497  1.00  0.00    -0.003 C 
ATOM     16  C   UNL     1     -28.117 -52.375  31.628  1.00  0.00     0.004 C 
ENDBRANCH  14  15
ENDBRANCH  13  14
ENDBRANCH  12  13
ENDBRANCH  11  12
ENDBRANCH  10  11
ENDBRANCH   1  10
TORSDOF 12
ENDMDL
MODEL 9
REMARK VINA RESULT:    -3.897      8.945     10.882
REMARK INTER + INTRA:          -7.750
REMARK INTER:                  -5.879
REMARK INTRA:                  -1.871
REMARK UNBOUND:                -1.119
REMARK SMILES CCCCCCCCCCCCCC(=O)[O-]
REMARK SMILES IDX 8 1 9 2 10 3 11 4 12 5 13 6 14 7 15 8 16 9 7 10 6 11 5 12
REMARK SMILES IDX 4 13 3 14 2 15 1 16
REMARK H PARENT
REMARK Flexibility Score: inf
ROOT
ATOM      1  C   UNL     1     -32.977 -49.197  34.218  1.00  0.00     0.000 C 
ENDROOT
BRANCH   1   2
ATOM      2  C   UNL     1     -34.166 -49.931  34.864  1.00  0.00     0.000 C 
BRANCH   2   3
ATOM      3  C   UNL     1     -35.309 -48.963  35.243  1.00  0.00     0.000 C 
BRANCH   3   4
ATOM      4  C   UNL     1     -35.137 -47.549  34.661  1.00  0.00     0.000 C 
BRANCH   4   5
ATOM      5  C   UNL     1     -36.211 -47.198  33.619  1.00  0.00     0.006 C 
BRANCH   5   6
ATOM      6  C   UNL     1     -35.730 -47.448  32.183  1.00  0.00     0.053 C 
BRANCH   6   7
ATOM      7  C   UNL     1     -35.844 -46.219  31.334  1.00  0.00     0.041 C 
ATOM      8  O   UNL     1     -35.468 -45.103  31.782  1.00  0.00    -0.550 OA
ATOM      9  O   UNL     1     -36.338 -46.310  30.039  1.00  0.00    -0.550 OA
ENDBRANCH   6   7
ENDBRANCH   5   6
ENDBRANCH   4   5
ENDBRANCH   3   4
ENDBRANCH   2   3
ENDBRANCH   1   2
BRANCH   1  10
ATOM     10  C   UNL     1     -31.708 -49.242  35.085  1.00  0.00     0.000 C 
BRANCH  10  11
ATOM     11  C   UNL     1     -31.925 -48.632  36.480  1.00  0.00    -0.000 C 
BRANCH  11  12
ATOM     12  C   UNL     1     -31.840 -47.097  36.471  1.00  0.00    -0.000 C 
BRANCH  12  13
ATOM     13  C   UNL     1     -30.575 -46.575  35.768  1.00  0.00    -0.000 C 
BRANCH  13  14
ATOM     14  C   UNL     1     -30.848 -45.347  34.880  1.00  0.00    -0.000 C 
BRANCH  14  15
ATOM     15  C   UNL     1     -32.234 -45.333  34.210  1.00  0.00    -0.003 C 
ATOM     16  C   UNL     1     -32.207 -45.850  32.772  1.00  0.00     0.004 C 
ENDBRANCH  14  15
ENDBRANCH  13  14
ENDBRANCH  12  13
ENDBRANCH  11  12
ENDBRANCH  10  11
ENDBRANCH   1  10
TORSDOF 12
ENDMDL
