MODEL 1
REMARK VINA RESULT:    -4.517      0.000      0.000
REMARK INTER + INTRA:         -10.357
REMARK INTER:                  -7.949
REMARK INTRA:                  -2.408
REMARK UNBOUND:                -2.408
REMARK SMILES CCCCCCC=CCCCCCCCC(=O)[O-]
REMARK SMILES IDX 10 1 11 2 12 3 13 4 14 5 15 6 16 7 17 8 18 9 9 10 8 11 7 12
REMARK SMILES IDX 6 13 5 14 4 15 3 16 2 17 1 18
REMARK H PARENT
REMARK Flexibility Score: inf
ROOT
ATOM      1  C   UNL     1      15.806  26.482  52.572  1.00  0.00     0.004 C 
ENDROOT
BRANCH   1   2
ATOM      2  C   UNL     1      15.554  27.165  53.925  1.00  0.00     0.000 C 
BRANCH   2   3
ATOM      3  C   UNL     1      16.714  28.104  54.290  1.00  0.00     0.000 C 
BRANCH   3   4
ATOM      4  C   UNL     1      16.553  28.732  55.683  1.00  0.00     0.000 C 
BRANCH   4   5
ATOM      5  C   UNL     1      17.891  28.862  56.432  1.00  0.00     0.006 C 
BRANCH   5   6
ATOM      6  C   UNL     1      19.062  28.276  55.631  1.00  0.00     0.053 C 
BRANCH   6   7
ATOM      7  C   UNL     1      20.385  28.627  56.239  1.00  0.00     0.041 C 
ATOM      8  O   UNL     1      21.424  28.004  55.898  1.00  0.00    -0.550 OA
ATOM      9  O   UNL     1      20.466  29.623  57.206  1.00  0.00    -0.550 OA
ENDBRANCH   6   7
ENDBRANCH   5   6
ENDBRANCH   4   5
ENDBRANCH   3   4
ENDBRANCH   2   3
ENDBRANCH   1   2
BRANCH   1  10
ATOM     10  C   UNL     1      17.295  26.171  52.352  1.00  0.00     0.027 C 
BRANCH  10  11
ATOM     11  C   UNL     1      17.587  24.693  52.449  1.00  0.00    -0.031 C 
ATOM     12  C   UNL     1      18.020  24.065  53.559  1.00  0.00    -0.031 C 
BRANCH  12  13
ATOM     13  C   UNL     1      18.233  24.721  54.903  1.00  0.00     0.027 C 
BRANCH  13  14
ATOM     14  C   UNL     1      17.070  24.428  55.860  1.00  0.00     0.004 C 
BRANCH  14  15
ATOM     15  C   UNL     1      17.051  25.392  57.058  1.00  0.00     0.000 C 
BRANCH  15  16
ATOM     16  C   UNL     1      15.861  25.146  58.004  1.00  0.00    -0.000 C 
BRANCH  16  17
ATOM     17  C   UNL     1      14.867  26.316  58.113  1.00  0.00    -0.003 C 
ATOM     18  C   UNL     1      13.755  26.255  57.066  1.00  0.00     0.004 C 
ENDBRANCH  16  17
ENDBRANCH  15  16
ENDBRANCH  14  15
ENDBRANCH  13  14
ENDBRANCH  12  13
ENDBRANCH  10  11
ENDBRANCH   1  10
TORSDOF 13
ENDMDL
MODEL 2
REMARK VINA RESULT:    -4.458      1.219      3.667
REMARK INTER + INTRA:         -10.253
REMARK INTER:                  -7.916
REMARK INTRA:                  -2.337
REMARK UNBOUND:                -2.408
REMARK SMILES CCCCCCC=CCCCCCCCC(=O)[O-]
REMARK SMILES IDX 10 1 11 2 12 3 13 4 14 5 15 6 16 7 17 8 18 9 9 10 8 11 7 12
REMARK SMILES IDX 6 13 5 14 4 15 3 16 2 17 1 18
REMARK H PARENT
REMARK Flexibility Score: inf
ROOT
ATOM      1  C   UNL     1      14.120  27.943  56.933  1.00  0.00     0.004 C 
ENDROOT
BRANCH   1   2
ATOM      2  C   UNL     1      14.887  28.517  55.732  1.00  0.00     0.000 C 
BRANCH   2   3
ATOM      3  C   UNL     1      16.326  28.883  56.124  1.00  0.00     0.000 C 
BRANCH   3   4
ATOM      4  C   UNL     1      16.501  29.064  57.640  1.00  0.00     0.000 C 
BRANCH   4   5
ATOM      5  C   UNL     1      17.977  29.030  58.073  1.00  0.00     0.006 C 
BRANCH   5   6
ATOM      6  C   UNL     1      18.907  28.599  56.930  1.00  0.00     0.053 C 
BRANCH   6   7
ATOM      7  C   UNL     1      20.237  29.282  57.005  1.00  0.00     0.041 C 
ATOM      8  O   UNL     1      21.299  28.610  56.939  1.00  0.00    -0.550 OA
ATOM      9  O   UNL     1      20.305  30.660  57.178  1.00  0.00    -0.550 OA
ENDBRANCH   6   7
ENDBRANCH   5   6
ENDBRANCH   4   5
ENDBRANCH   3   4
ENDBRANCH   2   3
ENDBRANCH   1   2
BRANCH   1  10
ATOM     10  C   UNL     1      13.956  26.418  56.838  1.00  0.00     0.027 C 
BRANCH  10  11
ATOM     11  C   UNL     1      14.288  25.728  58.138  1.00  0.00    -0.031 C 
ATOM     12  C   UNL     1      15.517  25.312  58.498  1.00  0.00    -0.031 C 
BRANCH  12  13
ATOM     13  C   UNL     1      16.776  25.514  57.687  1.00  0.00     0.027 C 
BRANCH  13  14
ATOM     14  C   UNL     1      16.769  24.654  56.418  1.00  0.00     0.004 C 
BRANCH  14  15
ATOM     15  C   UNL     1      17.365  25.399  55.211  1.00  0.00     0.000 C 
BRANCH  15  16
ATOM     16  C   UNL     1      16.432  25.395  53.986  1.00  0.00    -0.000 C 
BRANCH  16  17
ATOM     17  C   UNL     1      16.780  26.432  52.903  1.00  0.00    -0.003 C 
ATOM     18  C   UNL     1      15.546  27.102  52.299  1.00  0.00     0.004 C 
ENDBRANCH  16  17
ENDBRANCH  15  16
ENDBRANCH  14  15
ENDBRANCH  13  14
ENDBRANCH  12  13
ENDBRANCH  10  11
ENDBRANCH   1  10
TORSDOF 13
ENDMDL
MODEL 3
REMARK VINA RESULT:    -4.440      2.404      3.594
REMARK INTER + INTRA:         -10.222
REMARK INTER:                  -8.121
REMARK INTRA:                  -2.102
REMARK UNBOUND:                -2.408
REMARK SMILES CCCCCCC=CCCCCCCCC(=O)[O-]
REMARK SMILES IDX 10 1 11 2 12 3 13 4 14 5 15 6 16 7 17 8 18 9 9 10 8 11 7 12
REMARK SMILES IDX 6 13 5 14 4 15 3 16 2 17 1 18
REMARK H PARENT
REMARK Flexibility Score: inf
ROOT
ATOM      1  C   UNL     1      17.710  29.055  54.894  1.00  0.00     0.004 C 
ENDROOT
BRANCH   1   2
ATOM      2  C   UNL     1      18.920  29.051  55.839  1.00  0.00     0.000 C 
BRANCH   2   3
ATOM      3  C   UNL     1      18.498  28.685  57.270  1.00  0.00     0.000 C 
BRANCH   3   4
ATOM      4  C   UNL     1      18.958  29.720  58.308  1.00  0.00     0.000 C 
BRANCH   4   5
ATOM      5  C   UNL     1      19.694  30.912  57.669  1.00  0.00     0.006 C 
BRANCH   5   6
ATOM      6  C   UNL     1      19.327  32.244  58.337  1.00  0.00     0.053 C 
BRANCH   6   7
ATOM      7  C   UNL     1      18.422  33.070  57.475  1.00  0.00     0.041 C 
ATOM      8  O   UNL     1      18.083  34.226  57.838  1.00  0.00    -0.550 OA
ATOM      9  O   UNL     1      17.928  32.551  56.284  1.00  0.00    -0.550 OA
ENDBRANCH   6   7
ENDBRANCH   5   6
ENDBRANCH   4   5
ENDBRANCH   3   4
ENDBRANCH   2   3
ENDBRANCH   1   2
BRANCH   1  10
ATOM     10  C   UNL     1      16.451  28.485  55.566  1.00  0.00     0.027 C 
BRANCH  10  11
ATOM     11  C   UNL     1      15.826  27.376  54.756  1.00  0.00    -0.031 C 
ATOM     12  C   UNL     1      16.272  26.106  54.713  1.00  0.00    -0.031 C 
BRANCH  12  13
ATOM     13  C   UNL     1      17.437  25.567  55.510  1.00  0.00     0.027 C 
BRANCH  13  14
ATOM     14  C   UNL     1      16.960  24.709  56.689  1.00  0.00     0.004 C 
BRANCH  14  15
ATOM     15  C   UNL     1      16.687  25.555  57.945  1.00  0.00     0.000 C 
BRANCH  15  16
ATOM     16  C   UNL     1      15.231  25.448  58.433  1.00  0.00    -0.000 C 
BRANCH  16  17
ATOM     17  C   UNL     1      14.366  26.693  58.170  1.00  0.00    -0.003 C 
ATOM     18  C   UNL     1      13.147  26.400  57.296  1.00  0.00     0.004 C 
ENDBRANCH  16  17
ENDBRANCH  15  16
ENDBRANCH  14  15
ENDBRANCH  13  14
ENDBRANCH  12  13
ENDBRANCH  10  11
ENDBRANCH   1  10
TORSDOF 13
ENDMDL
MODEL 4
REMARK VINA RESULT:    -4.367      2.851      5.773
REMARK INTER + INTRA:         -10.093
REMARK INTER:                  -7.802
REMARK INTRA:                  -2.290
REMARK UNBOUND:                -2.408
REMARK SMILES CCCCCCC=CCCCCCCCC(=O)[O-]
REMARK SMILES IDX 10 1 11 2 12 3 13 4 14 5 15 6 16 7 17 8 18 9 9 10 8 11 7 12
REMARK SMILES IDX 6 13 5 14 4 15 3 16 2 17 1 18
REMARK H PARENT
REMARK Flexibility Score: inf
ROOT
ATOM      1  C   UNL     1      14.122  27.560  58.322  1.00  0.00     0.004 C 
ENDROOT
BRANCH   1   2
ATOM      2  C   UNL     1      14.358  26.135  57.800  1.00  0.00     0.000 C 
BRANCH   2   3
ATOM      3  C   UNL     1      15.623  25.525  58.423  1.00  0.00     0.000 C 
BRANCH   3   4
ATOM      4  C   UNL     1      16.601  24.982  57.370  1.00  0.00     0.000 C 
BRANCH   4   5
ATOM      5  C   UNL     1      16.223  25.403  55.938  1.00  0.00     0.006 C 
BRANCH   5   6
ATOM      6  C   UNL     1      17.456  25.566  55.039  1.00  0.00     0.053 C 
BRANCH   6   7
ATOM      7  C   UNL     1      17.528  24.499  53.990  1.00  0.00     0.041 C 
ATOM      8  O   UNL     1      17.189  23.318  54.265  1.00  0.00    -0.550 OA
ATOM      9  O   UNL     1      17.997  24.801  52.717  1.00  0.00    -0.550 OA
ENDBRANCH   6   7
ENDBRANCH   5   6
ENDBRANCH   4   5
ENDBRANCH   3   4
ENDBRANCH   2   3
ENDBRANCH   1   2
BRANCH   1  10
ATOM     10  C   UNL     1      15.436  28.342  58.480  1.00  0.00     0.027 C 
BRANCH  10  11
ATOM     11  C   UNL     1      15.880  28.976  57.185  1.00  0.00    -0.031 C 
ATOM     12  C   UNL     1      17.152  29.018  56.743  1.00  0.00    -0.031 C 
BRANCH  12  13
ATOM     13  C   UNL     1      18.336  28.390  57.441  1.00  0.00     0.027 C 
BRANCH  13  14
ATOM     14  C   UNL     1      19.605  29.232  57.259  1.00  0.00     0.004 C 
BRANCH  14  15
ATOM     15  C   UNL     1      19.283  30.716  57.012  1.00  0.00     0.000 C 
BRANCH  15  16
ATOM     16  C   UNL     1      19.504  31.591  58.259  1.00  0.00    -0.000 C 
BRANCH  16  17
ATOM     17  C   UNL     1      18.219  32.002  58.999  1.00  0.00    -0.003 C 
ATOM     18  C   UNL     1      17.774  30.974  60.039  1.00  0.00     0.004 C 
ENDBRANCH  16  17
ENDBRANCH  15  16
ENDBRANCH  14  15
ENDBRANCH  13  14
ENDBRANCH  12  13
ENDBRANCH  10  11
ENDBRANCH   1  10
TORSDOF 13
ENDMDL
MODEL 5
REMARK VINA RESULT:    -4.316      2.145      4.766
REMARK INTER + INTRA:         -10.003
REMARK INTER:                  -7.929
REMARK INTRA:                  -2.074
REMARK UNBOUND:                -2.408
REMARK SMILES CCCCCCC=CCCCCCCCC(=O)[O-]
REMARK SMILES IDX 10 1 11 2 12 3 13 4 14 5 15 6 16 7 17 8 18 9 9 10 8 11 7 12
REMARK SMILES IDX 6 13 5 14 4 15 3 16 2 17 1 18
REMARK H PARENT
REMARK Flexibility Score: inf
ROOT
ATOM      1  C   UNL     1      17.109  26.411  56.539  1.00  0.00     0.004 C 
ENDROOT
BRANCH   1   2
ATOM      2  C   UNL     1      16.582  26.879  55.174  1.00  0.00     0.000 C 
BRANCH   2   3
ATOM      3  C   UNL     1      15.738  25.782  54.507  1.00  0.00     0.000 C 
BRANCH   3   4
ATOM      4  C   UNL     1      15.936  25.725  52.984  1.00  0.00     0.000 C 
BRANCH   4   5
ATOM      5  C   UNL     1      17.414  25.571  52.584  1.00  0.00     0.006 C 
BRANCH   5   6
ATOM      6  C   UNL     1      17.983  24.203  52.988  1.00  0.00     0.053 C 
BRANCH   6   7
ATOM      7  C   UNL     1      19.359  24.321  53.569  1.00  0.00     0.041 C 
ATOM      8  O   UNL     1      20.219  23.429  53.347  1.00  0.00    -0.550 OA
ATOM      9  O   UNL     1      19.683  25.402  54.381  1.00  0.00    -0.550 OA
ENDBRANCH   6   7
ENDBRANCH   5   6
ENDBRANCH   4   5
ENDBRANCH   3   4
ENDBRANCH   2   3
ENDBRANCH   1   2
BRANCH   1  10
ATOM     10  C   UNL     1      16.482  25.077  56.973  1.00  0.00     0.027 C 
BRANCH  10  11
ATOM     11  C   UNL     1      15.803  25.177  58.316  1.00  0.00    -0.031 C 
ATOM     12  C   UNL     1      14.577  25.694  58.524  1.00  0.00    -0.031 C 
BRANCH  12  13
ATOM     13  C   UNL     1      13.655  26.207  57.442  1.00  0.00     0.027 C 
BRANCH  13  14
ATOM     14  C   UNL     1      13.167  27.628  57.749  1.00  0.00     0.004 C 
BRANCH  14  15
ATOM     15  C   UNL     1      14.257  28.682  57.490  1.00  0.00     0.000 C 
BRANCH  15  16
ATOM     16  C   UNL     1      14.965  29.140  58.778  1.00  0.00    -0.000 C 
BRANCH  16  17
ATOM     17  C   UNL     1      16.273  29.919  58.558  1.00  0.00    -0.003 C 
ATOM     18  C   UNL     1      16.642  30.063  57.082  1.00  0.00     0.004 C 
ENDBRANCH  16  17
ENDBRANCH  15  16
ENDBRANCH  14  15
ENDBRANCH  13  14
ENDBRANCH  12  13
ENDBRANCH  10  11
ENDBRANCH   1  10
TORSDOF 13
ENDMDL
MODEL 6
REMARK VINA RESULT:    -4.277      1.853      3.983
REMARK INTER + INTRA:          -9.935
REMARK INTER:                  -7.598
REMARK INTRA:                  -2.338
REMARK UNBOUND:                -2.408
REMARK SMILES CCCCCCC=CCCCCCCCC(=O)[O-]
REMARK SMILES IDX 10 1 11 2 12 3 13 4 14 5 15 6 16 7 17 8 18 9 9 10 8 11 7 12
REMARK SMILES IDX 6 13 5 14 4 15 3 16 2 17 1 18
REMARK H PARENT
REMARK Flexibility Score: inf
ROOT
ATOM      1  C   UNL     1      14.631  27.619  56.932  1.00  0.00     0.004 C 
ENDROOT
BRANCH   1   2
ATOM      2  C   UNL     1      15.419  28.267  58.080  1.00  0.00     0.000 C 
BRANCH   2   3
ATOM      3  C   UNL     1      16.582  29.112  57.538  1.00  0.00     0.000 C 
BRANCH   3   4
ATOM      4  C   UNL     1      17.951  28.451  57.762  1.00  0.00     0.000 C 
BRANCH   4   5
ATOM      5  C   UNL     1      19.120  29.438  57.595  1.00  0.00     0.006 C 
BRANCH   5   6
ATOM      6  C   UNL     1      19.155  30.061  56.192  1.00  0.00     0.053 C 
BRANCH   6   7
ATOM      7  C   UNL     1      18.901  31.537  56.231  1.00  0.00     0.041 C 
ATOM      8  O   UNL     1      19.500  32.261  57.067  1.00  0.00    -0.550 OA
ATOM      9  O   UNL     1      17.978  32.108  55.362  1.00  0.00    -0.550 OA
ENDBRANCH   6   7
ENDBRANCH   5   6
ENDBRANCH   4   5
ENDBRANCH   3   4
ENDBRANCH   2   3
ENDBRANCH   1   2
BRANCH   1  10
ATOM     10  C   UNL     1      14.470  26.103  57.126  1.00  0.00     0.027 C 
BRANCH  10  11
ATOM     11  C   UNL     1      15.627  25.501  57.885  1.00  0.00    -0.031 C 
ATOM     12  C   UNL     1      16.712  24.938  57.318  1.00  0.00    -0.031 C 
BRANCH  12  13
ATOM     13  C   UNL     1      16.977  24.865  55.832  1.00  0.00     0.027 C 
BRANCH  13  14
ATOM     14  C   UNL     1      18.254  25.625  55.452  1.00  0.00     0.004 C 
BRANCH  14  15
ATOM     15  C   UNL     1      18.099  26.388  54.126  1.00  0.00     0.000 C 
BRANCH  15  16
ATOM     16  C   UNL     1      17.072  27.532  54.210  1.00  0.00    -0.000 C 
BRANCH  16  17
ATOM     17  C   UNL     1      15.942  27.467  53.168  1.00  0.00    -0.003 C 
ATOM     18  C   UNL     1      15.816  26.094  52.508  1.00  0.00     0.004 C 
ENDBRANCH  16  17
ENDBRANCH  15  16
ENDBRANCH  14  15
ENDBRANCH  13  14
ENDBRANCH  12  13
ENDBRANCH  10  11
ENDBRANCH   1  10
TORSDOF 13
ENDMDL
MODEL 7
REMARK VINA RESULT:    -4.261      7.644      9.965
REMARK INTER + INTRA:          -9.906
REMARK INTER:                  -7.399
REMARK INTRA:                  -2.507
REMARK UNBOUND:                -2.408
REMARK SMILES CCCCCCC=CCCCCCCCC(=O)[O-]
REMARK SMILES IDX 10 1 11 2 12 3 13 4 14 5 15 6 16 7 17 8 18 9 9 10 8 11 7 12
REMARK SMILES IDX 6 13 5 14 4 15 3 16 2 17 1 18
REMARK H PARENT
REMARK Flexibility Score: inf
ROOT
ATOM      1  C   UNL     1      27.870  22.877  57.086  1.00  0.00     0.004 C 
ENDROOT
BRANCH   1   2
ATOM      2  C   UNL     1      26.395  23.212  57.352  1.00  0.00     0.000 C 
BRANCH   2   3
ATOM      3  C   UNL     1      26.087  24.670  56.976  1.00  0.00     0.000 C 
BRANCH   3   4
ATOM      4  C   UNL     1      26.769  25.102  55.669  1.00  0.00     0.000 C 
BRANCH   4   5
ATOM      5  C   UNL     1      26.624  26.611  55.397  1.00  0.00     0.006 C 
BRANCH   5   6
ATOM      6  C   UNL     1      25.464  27.232  56.187  1.00  0.00     0.053 C 
BRANCH   6   7
ATOM      7  C   UNL     1      24.281  27.516  55.313  1.00  0.00     0.041 C 
ATOM      8  O   UNL     1      24.360  28.382  54.403  1.00  0.00    -0.550 OA
ATOM      9  O   UNL     1      23.082  26.845  55.522  1.00  0.00    -0.550 OA
ENDBRANCH   6   7
ENDBRANCH   5   6
ENDBRANCH   4   5
ENDBRANCH   3   4
ENDBRANCH   2   3
ENDBRANCH   1   2
BRANCH   1  10
ATOM     10  C   UNL     1      28.029  21.599  56.248  1.00  0.00     0.027 C 
BRANCH  10  11
ATOM     11  C   UNL     1      26.952  21.469  55.199  1.00  0.00    -0.031 C 
ATOM     12  C   UNL     1      27.048  21.923  53.934  1.00  0.00    -0.031 C 
BRANCH  12  13
ATOM     13  C   UNL     1      28.269  22.587  53.339  1.00  0.00     0.027 C 
BRANCH  13  14
ATOM     14  C   UNL     1      27.878  23.675  52.332  1.00  0.00     0.004 C 
BRANCH  14  15
ATOM     15  C   UNL     1      26.373  23.657  52.016  1.00  0.00     0.000 C 
BRANCH  15  16
ATOM     16  C   UNL     1      25.720  25.047  52.138  1.00  0.00    -0.000 C 
BRANCH  16  17
ATOM     17  C   UNL     1      24.242  25.033  52.567  1.00  0.00    -0.003 C 
ATOM     18  C   UNL     1      23.939  23.979  53.632  1.00  0.00     0.004 C 
ENDBRANCH  16  17
ENDBRANCH  15  16
ENDBRANCH  14  15
ENDBRANCH  13  14
ENDBRANCH  12  13
ENDBRANCH  10  11
ENDBRANCH   1  10
TORSDOF 13
ENDMDL
MODEL 8
REMARK VINA RESULT:    -4.258      1.732      4.528
REMARK INTER + INTRA:          -9.902
REMARK INTER:                  -7.430
REMARK INTRA:                  -2.472
REMARK UNBOUND:                -2.408
REMARK SMILES CCCCCCC=CCCCCCCCC(=O)[O-]
REMARK SMILES IDX 10 1 11 2 12 3 13 4 14 5 15 6 16 7 17 8 18 9 9 10 8 11 7 12
REMARK SMILES IDX 6 13 5 14 4 15 3 16 2 17 1 18
REMARK H PARENT
REMARK Flexibility Score: inf
ROOT
ATOM      1  C   UNL     1      16.698  25.230  57.743  1.00  0.00     0.004 C 
ENDROOT
BRANCH   1   2
ATOM      2  C   UNL     1      15.255  25.406  58.236  1.00  0.00     0.000 C 
BRANCH   2   3
ATOM      3  C   UNL     1      14.414  26.179  57.208  1.00  0.00     0.000 C 
BRANCH   3   4
ATOM      4  C   UNL     1      14.013  27.578  57.699  1.00  0.00     0.000 C 
BRANCH   4   5
ATOM      5  C   UNL     1      14.958  28.679  57.183  1.00  0.00     0.006 C 
BRANCH   5   6
ATOM      6  C   UNL     1      15.926  29.166  58.270  1.00  0.00     0.053 C 
BRANCH   6   7
ATOM      7  C   UNL     1      17.297  29.419  57.723  1.00  0.00     0.041 C 
ATOM      8  O   UNL     1      18.297  28.850  58.232  1.00  0.00    -0.550 OA
ATOM      9  O   UNL     1      17.474  30.308  56.669  1.00  0.00    -0.550 OA
ENDBRANCH   6   7
ENDBRANCH   5   6
ENDBRANCH   4   5
ENDBRANCH   3   4
ENDBRANCH   2   3
ENDBRANCH   1   2
BRANCH   1  10
ATOM     10  C   UNL     1      16.804  25.339  56.214  1.00  0.00     0.027 C 
BRANCH  10  11
ATOM     11  C   UNL     1      17.889  26.295  55.785  1.00  0.00    -0.031 C 
ATOM     12  C   UNL     1      17.752  27.243  54.838  1.00  0.00    -0.031 C 
BRANCH  12  13
ATOM     13  C   UNL     1      16.475  27.543  54.088  1.00  0.00     0.027 C 
BRANCH  13  14
ATOM     14  C   UNL     1      16.578  27.125  52.616  1.00  0.00     0.004 C 
BRANCH  14  15
ATOM     15  C   UNL     1      16.318  25.621  52.423  1.00  0.00     0.000 C 
BRANCH  15  16
ATOM     16  C   UNL     1      17.595  24.833  52.077  1.00  0.00    -0.000 C 
BRANCH  16  17
ATOM     17  C   UNL     1      17.952  23.710  53.066  1.00  0.00    -0.003 C 
ATOM     18  C   UNL     1      19.409  23.760  53.527  1.00  0.00     0.004 C 
ENDBRANCH  16  17
ENDBRANCH  15  16
ENDBRANCH  14  15
ENDBRANCH  13  14
ENDBRANCH  12  13
ENDBRANCH  10  11
ENDBRANCH   1  10
TORSDOF 13
ENDMDL
MODEL 9
REMARK VINA RESULT:    -4.217      7.862     10.770
REMARK INTER + INTRA:          -9.829
REMARK INTER:                  -7.361
REMARK INTRA:                  -2.468
REMARK UNBOUND:                -2.408
REMARK SMILES CCCCCCC=CCCCCCCCC(=O)[O-]
REMARK SMILES IDX 10 1 11 2 12 3 13 4 14 5 15 6 16 7 17 8 18 9 9 10 8 11 7 12
REMARK SMILES IDX 6 13 5 14 4 15 3 16 2 17 1 18
REMARK H PARENT
REMARK Flexibility Score: inf
ROOT
ATOM      1  C   UNL     1      28.104  21.644  56.112  1.00  0.00     0.004 C 
ENDROOT
BRANCH   1   2
ATOM      2  C   UNL     1      28.248  22.134  54.664  1.00  0.00     0.000 C 
BRANCH   2   3
ATOM      3  C   UNL     1      26.955  21.890  53.871  1.00  0.00     0.000 C 
BRANCH   3   4
ATOM      4  C   UNL     1      25.976  20.960  54.603  1.00  0.00     0.000 C 
BRANCH   4   5
ATOM      5  C   UNL     1      24.514  21.425  54.479  1.00  0.00     0.006 C 
BRANCH   5   6
ATOM      6  C   UNL     1      24.236  22.110  53.134  1.00  0.00     0.053 C 
BRANCH   6   7
ATOM      7  C   UNL     1      22.936  22.854  53.144  1.00  0.00     0.041 C 
ATOM      8  O   UNL     1      21.941  22.382  53.754  1.00  0.00    -0.550 OA
ATOM      9  O   UNL     1      22.814  24.054  52.454  1.00  0.00    -0.550 OA
ENDBRANCH   6   7
ENDBRANCH   5   6
ENDBRANCH   4   5
ENDBRANCH   3   4
ENDBRANCH   2   3
ENDBRANCH   1   2
BRANCH   1  10
ATOM     10  C   UNL     1      28.247  22.790  57.127  1.00  0.00     0.027 C 
BRANCH  10  11
ATOM     11  C   UNL     1      26.923  23.174  57.741  1.00  0.00    -0.031 C 
ATOM     12  C   UNL     1      26.163  24.213  57.347  1.00  0.00    -0.031 C 
BRANCH  12  13
ATOM     13  C   UNL     1      26.479  25.132  56.190  1.00  0.00     0.027 C 
BRANCH  13  14
ATOM     14  C   UNL     1      25.447  24.991  55.064  1.00  0.00     0.004 C 
BRANCH  14  15
ATOM     15  C   UNL     1      25.525  26.153  54.059  1.00  0.00     0.000 C 
BRANCH  15  16
ATOM     16  C   UNL     1      26.941  26.357  53.489  1.00  0.00    -0.000 C 
BRANCH  16  17
ATOM     17  C   UNL     1      27.415  25.256  52.524  1.00  0.00    -0.003 C 
ATOM     18  C   UNL     1      26.353  24.861  51.499  1.00  0.00     0.004 C 
ENDBRANCH  16  17
ENDBRANCH  15  16
ENDBRANCH  14  15
ENDBRANCH  13  14
ENDBRANCH  12  13
ENDBRANCH  10  11
ENDBRANCH   1  10
TORSDOF 13
ENDMDL
