MODEL 1
REMARK VINA RESULT:     0.442      0.000      0.000
REMARK INTER + INTRA:           1.435
REMARK INTER:                   0.662
REMARK INTRA:                   0.773
REMARK UNBOUND:                 0.773
REMARK SMILES C=C(CC[C@H](C(=O)[O-])[C@H]1[C@@H](O)C[C@@]2(C)C3=C(CC[C@@]12C)[C@]1(C)CC[C@@H](OC(C)=O)C(C)(C)[C@@H]1CC3)C(C)C
REMARK SMILES IDX 4 1 5 2 6 3 7 4 8 5 9 6 10 7 19 8 12 9 13 10 18 11 20 12
REMARK SMILES IDX 14 13 15 14 17 15 16 16 35 17 21 18 34 19 33 20 23 21 22 22
REMARK SMILES IDX 30 23 24 24 25 25 31 26 32 27 11 28 26 30 27 31 29 32 28 33
REMARK SMILES IDX 3 34 2 35 1 36 36 37 37 38 38 39
REMARK H PARENT 11 29
REMARK Flexibility Score: inf
ROOT
ATOM      1  C   UNL     1     -25.484 -16.395 -13.647  1.00  0.00     0.014 C 
ENDROOT
BRANCH   1   2
ATOM      2  C   UNL     1     -24.402 -16.822 -12.607  1.00  0.00     0.042 C 
BRANCH   2   3
ATOM      3  C   UNL     1     -23.037 -16.292 -12.990  1.00  0.00     0.045 C 
ATOM      4  O   UNL     1     -22.745 -15.087 -12.776  1.00  0.00    -0.550 OA
ATOM      5  O   UNL     1     -22.072 -17.130 -13.530  1.00  0.00    -0.550 OA
ENDBRANCH   2   3
BRANCH   2   6
ATOM      6  C   UNL     1     -24.306 -18.336 -12.168  1.00  0.00     0.033 C 
ATOM      7  C   UNL     1     -25.392 -18.851 -11.204  1.00  0.00     0.119 C 
ATOM      8  C   UNL     1     -23.995 -19.524 -13.143  1.00  0.00    -0.017 C 
ATOM      9  C   UNL     1     -25.210 -20.379 -11.133  1.00  0.00     0.043 C 
ATOM     10  C   UNL     1     -24.120 -20.782 -12.167  1.00  0.00    -0.003 C 
ATOM     11  C   UNL     1     -24.995 -19.601 -14.355  1.00  0.00     0.012 C 
ATOM     12  C   UNL     1     -22.565 -19.407 -13.744  1.00  0.00     0.013 C 
ATOM     13  C   UNL     1     -22.790 -21.019 -11.372  1.00  0.00     0.017 C 
ATOM     14  C   UNL     1     -24.528 -22.088 -12.904  1.00  0.00    -0.064 C 
ATOM     15  C   UNL     1     -26.027 -20.717 -14.262  1.00  0.00     0.032 C 
ATOM     16  C   UNL     1     -25.330 -22.034 -14.000  1.00  0.00    -0.064 C 
ATOM     17  C   UNL     1     -24.070 -23.422 -12.351  1.00  0.00     0.032 C 
ATOM     18  C   UNL     1     -25.582 -23.245 -14.944  1.00  0.00    -0.008 C 
ATOM     19  C   UNL     1     -24.805 -24.614 -12.942  1.00  0.00     0.009 C 
ATOM     20  C   UNL     1     -24.780 -24.533 -14.486  1.00  0.00     0.009 C 
ATOM     21  C   UNL     1     -27.111 -23.541 -14.914  1.00  0.00     0.015 C 
ATOM     22  C   UNL     1     -25.128 -22.811 -16.377  1.00  0.00     0.016 C 
ATOM     23  C   UNL     1     -25.228 -25.891 -15.183  1.00  0.00     0.005 C 
ATOM     24  C   UNL     1     -27.523 -24.828 -15.637  1.00  0.00     0.047 C 
ATOM     25  C   UNL     1     -26.778 -26.059 -15.112  1.00  0.00     0.182 C 
ATOM     26  C   UNL     1     -24.736 -25.946 -16.659  1.00  0.00     0.015 C 
ATOM     27  C   UNL     1     -24.558 -27.110 -14.490  1.00  0.00     0.015 C 
BRANCH   7  28
ATOM     28  O   UNL     1     -26.682 -18.537 -11.657  1.00  0.00    -0.393 OA
ATOM     29  H   UNL     1     -27.224 -19.370 -11.581  1.00  0.00     0.210 HD
ENDBRANCH   7  28
BRANCH  25  30
ATOM     30  O   UNL     1     -27.196 -27.189 -15.884  1.00  0.00    -0.462 OA
BRANCH  30  31
ATOM     31  C   UNL     1     -28.387 -27.894 -15.670  1.00  0.00     0.302 C 
ATOM     32  O   UNL     1     -29.043 -27.757 -14.601  1.00  0.00    -0.253 OA
ATOM     33  C   UNL     1     -28.896 -28.795 -16.741  1.00  0.00     0.139 C 
ENDBRANCH  30  31
ENDBRANCH  25  30
ENDBRANCH   2   6
ENDBRANCH   1   2
BRANCH   1  34
ATOM     34  C   UNL     1     -24.924 -16.187 -15.074  1.00  0.00     0.031 C 
BRANCH  34  35
ATOM     35  C   UNL     1     -24.987 -14.752 -15.574  1.00  0.00    -0.075 C 
ATOM     36  C   UNL     1     -25.788 -13.875 -14.941  1.00  0.00     0.008 C 
BRANCH  35  37
ATOM     37  C   UNL     1     -23.993 -14.233 -16.606  1.00  0.00     0.008 C 
ATOM     38  C   UNL     1     -23.960 -15.081 -17.884  1.00  0.00     0.012 C 
ATOM     39  C   UNL     1     -22.592 -14.118 -15.997  1.00  0.00     0.012 C 
ENDBRANCH  35  37
ENDBRANCH  34  35
ENDBRANCH   1  34
TORSDOF 9
ENDMDL
MODEL 2
REMARK VINA RESULT:     1.981      1.920      9.834
REMARK INTER + INTRA:           3.739
REMARK INTER:                   3.098
REMARK INTRA:                   0.641
REMARK UNBOUND:                 0.773
REMARK SMILES C=C(CC[C@H](C(=O)[O-])[C@H]1[C@@H](O)C[C@@]2(C)C3=C(CC[C@@]12C)[C@]1(C)CC[C@@H](OC(C)=O)C(C)(C)[C@@H]1CC3)C(C)C
REMARK SMILES IDX 4 1 5 2 6 3 7 4 8 5 9 6 10 7 19 8 12 9 13 10 18 11 20 12
REMARK SMILES IDX 14 13 15 14 17 15 16 16 35 17 21 18 34 19 33 20 23 21 22 22
REMARK SMILES IDX 30 23 24 24 25 25 31 26 32 27 11 28 26 30 27 31 29 32 28 33
REMARK SMILES IDX 3 34 2 35 1 36 36 37 37 38 38 39
REMARK H PARENT 11 29
REMARK Flexibility Score: inf
ROOT
ATOM      1  C   UNL     1     -26.726 -26.876 -15.239  1.00  0.00     0.014 C 
ENDROOT
BRANCH   1   2
ATOM      2  C   UNL     1     -26.893 -25.598 -14.360  1.00  0.00     0.042 C 
BRANCH   2   3
ATOM      3  C   UNL     1     -28.049 -24.750 -14.844  1.00  0.00     0.045 C 
ATOM      4  O   UNL     1     -29.073 -24.611 -14.127  1.00  0.00    -0.550 OA
ATOM      5  O   UNL     1     -27.981 -24.073 -16.053  1.00  0.00    -0.550 OA
ENDBRANCH   2   3
BRANCH   2   6
ATOM      6  C   UNL     1     -25.632 -24.696 -14.059  1.00  0.00     0.033 C 
ATOM      7  C   UNL     1     -24.523 -24.673 -15.129  1.00  0.00     0.119 C 
ATOM      8  C   UNL     1     -25.700 -23.243 -13.475  1.00  0.00    -0.017 C 
ATOM      9  C   UNL     1     -23.550 -23.555 -14.709  1.00  0.00     0.043 C 
ATOM     10  C   UNL     1     -24.160 -22.821 -13.480  1.00  0.00    -0.003 C 
ATOM     11  C   UNL     1     -26.592 -22.275 -14.339  1.00  0.00     0.012 C 
ATOM     12  C   UNL     1     -26.290 -23.235 -12.035  1.00  0.00     0.013 C 
ATOM     13  C   UNL     1     -23.420 -23.354 -12.205  1.00  0.00     0.017 C 
ATOM     14  C   UNL     1     -23.948 -21.287 -13.605  1.00  0.00    -0.064 C 
ATOM     15  C   UNL     1     -25.816 -21.272 -15.180  1.00  0.00     0.032 C 
ATOM     16  C   UNL     1     -24.831 -20.527 -14.305  1.00  0.00    -0.064 C 
ATOM     17  C   UNL     1     -22.715 -20.658 -12.989  1.00  0.00     0.032 C 
ATOM     18  C   UNL     1     -24.846 -18.972 -14.274  1.00  0.00    -0.008 C 
ATOM     19  C   UNL     1     -22.446 -19.241 -13.465  1.00  0.00     0.009 C 
ATOM     20  C   UNL     1     -23.726 -18.386 -13.318  1.00  0.00     0.009 C 
ATOM     21  C   UNL     1     -24.601 -18.480 -15.732  1.00  0.00     0.015 C 
ATOM     22  C   UNL     1     -26.262 -18.537 -13.772  1.00  0.00     0.016 C 
ATOM     23  C   UNL     1     -23.449 -16.827 -13.477  1.00  0.00     0.005 C 
ATOM     24  C   UNL     1     -24.389 -16.968 -15.864  1.00  0.00     0.047 C 
ATOM     25  C   UNL     1     -23.248 -16.457 -14.979  1.00  0.00     0.182 C 
ATOM     26  C   UNL     1     -24.607 -15.992 -12.855  1.00  0.00     0.015 C 
ATOM     27  C   UNL     1     -22.180 -16.412 -12.683  1.00  0.00     0.015 C 
BRANCH   7  28
ATOM     28  O   UNL     1     -25.037 -24.412 -16.407  1.00  0.00    -0.393 OA
ATOM     29  H   UNL     1     -25.967 -24.769 -16.421  1.00  0.00     0.210 HD
ENDBRANCH   7  28
BRANCH  25  30
ATOM     30  O   UNL     1     -23.170 -15.036 -15.139  1.00  0.00    -0.462 OA
BRANCH  30  31
ATOM     31  C   UNL     1     -24.185 -14.249 -15.697  1.00  0.00     0.302 C 
ATOM     32  O   UNL     1     -24.135 -13.875 -16.901  1.00  0.00    -0.253 OA
ATOM     33  C   UNL     1     -25.356 -13.875 -14.855  1.00  0.00     0.139 C 
ENDBRANCH  30  31
ENDBRANCH  25  30
ENDBRANCH   2   6
ENDBRANCH   1   2
BRANCH   1  34
ATOM     34  C   UNL     1     -28.067 -27.531 -15.644  1.00  0.00     0.031 C 
BRANCH  34  35
ATOM     35  C   UNL     1     -27.966 -28.518 -16.796  1.00  0.00    -0.075 C 
ATOM     36  C   UNL     1     -27.022 -28.328 -17.737  1.00  0.00     0.008 C 
BRANCH  35  37
ATOM     37  C   UNL     1     -28.738 -29.832 -16.779  1.00  0.00     0.008 C 
ATOM     38  C   UNL     1     -28.854 -30.438 -15.374  1.00  0.00     0.012 C 
ATOM     39  C   UNL     1     -28.114 -30.837 -17.753  1.00  0.00     0.012 C 
ENDBRANCH  35  37
ENDBRANCH  34  35
ENDBRANCH   1  34
TORSDOF 9
ENDMDL
MODEL 3
REMARK VINA RESULT:     2.174      2.037     10.015
REMARK INTER + INTRA:           4.027
REMARK INTER:                   3.087
REMARK INTRA:                   0.940
REMARK UNBOUND:                 0.773
REMARK SMILES C=C(CC[C@H](C(=O)[O-])[C@H]1[C@@H](O)C[C@@]2(C)C3=C(CC[C@@]12C)[C@]1(C)CC[C@@H](OC(C)=O)C(C)(C)[C@@H]1CC3)C(C)C
REMARK SMILES IDX 4 1 5 2 6 3 7 4 8 5 9 6 10 7 19 8 12 9 13 10 18 11 20 12
REMARK SMILES IDX 14 13 15 14 17 15 16 16 35 17 21 18 34 19 33 20 23 21 22 22
REMARK SMILES IDX 30 23 24 24 25 25 31 26 32 27 11 28 26 30 27 31 29 32 28 33
REMARK SMILES IDX 3 34 2 35 1 36 36 37 37 38 38 39
REMARK H PARENT 11 29
REMARK Flexibility Score: inf
ROOT
ATOM      1  C   UNL     1     -27.013 -27.100 -15.074  1.00  0.00     0.014 C 
ENDROOT
BRANCH   1   2
ATOM      2  C   UNL     1     -26.075 -25.869 -15.273  1.00  0.00     0.042 C 
BRANCH   2   3
ATOM      3  C   UNL     1     -24.720 -26.293 -15.796  1.00  0.00     0.045 C 
ATOM      4  O   UNL     1     -24.355 -25.953 -16.950  1.00  0.00    -0.550 OA
ATOM      5  O   UNL     1     -23.842 -27.015 -15.000  1.00  0.00    -0.550 OA
ENDBRANCH   2   3
BRANCH   2   6
ATOM      6  C   UNL     1     -25.914 -24.822 -14.100  1.00  0.00     0.033 C 
ATOM      7  C   UNL     1     -24.680 -24.983 -13.190  1.00  0.00     0.119 C 
ATOM      8  C   UNL     1     -26.141 -23.278 -14.253  1.00  0.00    -0.017 C 
ATOM      9  C   UNL     1     -24.635 -23.721 -12.308  1.00  0.00     0.043 C 
ATOM     10  C   UNL     1     -25.748 -22.750 -12.798  1.00  0.00    -0.003 C 
ATOM     11  C   UNL     1     -25.255 -22.636 -15.385  1.00  0.00     0.012 C 
ATOM     12  C   UNL     1     -27.622 -22.953 -14.598  1.00  0.00     0.013 C 
ATOM     13  C   UNL     1     -26.951 -22.881 -11.801  1.00  0.00     0.017 C 
ATOM     14  C   UNL     1     -25.228 -21.286 -12.799  1.00  0.00    -0.064 C 
ATOM     15  C   UNL     1     -24.071 -21.821 -14.884  1.00  0.00     0.032 C 
ATOM     16  C   UNL     1     -24.546 -20.803 -13.871  1.00  0.00    -0.064 C 
ATOM     17  C   UNL     1     -25.437 -20.426 -11.570  1.00  0.00     0.032 C 
ATOM     18  C   UNL     1     -24.212 -19.297 -14.072  1.00  0.00    -0.008 C 
ATOM     19  C   UNL     1     -24.598 -19.160 -11.558  1.00  0.00     0.009 C 
ATOM     20  C   UNL     1     -24.776 -18.400 -12.894  1.00  0.00     0.009 C 
ATOM     21  C   UNL     1     -22.660 -19.173 -14.128  1.00  0.00     0.015 C 
ATOM     22  C   UNL     1     -24.853 -18.862 -15.431  1.00  0.00     0.016 C 
ATOM     23  C   UNL     1     -24.205 -16.916 -12.840  1.00  0.00     0.005 C 
ATOM     24  C   UNL     1     -22.137 -17.732 -14.129  1.00  0.00     0.047 C 
ATOM     25  C   UNL     1     -22.647 -16.924 -12.932  1.00  0.00     0.182 C 
ATOM     26  C   UNL     1     -24.818 -16.045 -13.976  1.00  0.00     0.015 C 
ATOM     27  C   UNL     1     -24.627 -16.212 -11.520  1.00  0.00     0.015 C 
BRANCH   7  28
ATOM     28  O   UNL     1     -23.496 -25.098 -13.933  1.00  0.00    -0.393 OA
ATOM     29  H   UNL     1     -23.524 -25.986 -14.383  1.00  0.00     0.210 HD
ENDBRANCH   7  28
BRANCH  25  30
ATOM     30  O   UNL     1     -22.145 -15.589 -13.057  1.00  0.00    -0.462 OA
BRANCH  30  31
ATOM     31  C   UNL     1     -20.786 -15.255 -13.051  1.00  0.00     0.302 C 
ATOM     32  O   UNL     1     -19.905 -16.106 -12.747  1.00  0.00    -0.253 OA
ATOM     33  C   UNL     1     -20.379 -13.875 -13.440  1.00  0.00     0.139 C 
ENDBRANCH  30  31
ENDBRANCH  25  30
ENDBRANCH   2   6
ENDBRANCH   1   2
BRANCH   1  34
ATOM     34  C   UNL     1     -28.110 -27.225 -16.156  1.00  0.00     0.031 C 
BRANCH  34  35
ATOM     35  C   UNL     1     -28.007 -28.473 -17.019  1.00  0.00    -0.075 C 
ATOM     36  C   UNL     1     -26.947 -28.616 -17.836  1.00  0.00     0.008 C 
BRANCH  35  37
ATOM     37  C   UNL     1     -28.938 -29.661 -16.801  1.00  0.00     0.008 C 
ATOM     38  C   UNL     1     -29.121 -30.013 -15.319  1.00  0.00     0.012 C 
ATOM     39  C   UNL     1     -28.452 -30.879 -17.593  1.00  0.00     0.012 C 
ENDBRANCH  35  37
ENDBRANCH  34  35
ENDBRANCH   1  34
TORSDOF 9
ENDMDL
MODEL 4
REMARK VINA RESULT:     2.645      1.983      2.822
REMARK INTER + INTRA:           4.733
REMARK INTER:                   5.312
REMARK INTRA:                  -0.579
REMARK UNBOUND:                 0.773
REMARK SMILES C=C(CC[C@H](C(=O)[O-])[C@H]1[C@@H](O)C[C@@]2(C)C3=C(CC[C@@]12C)[C@]1(C)CC[C@@H](OC(C)=O)C(C)(C)[C@@H]1CC3)C(C)C
REMARK SMILES IDX 4 1 5 2 6 3 7 4 8 5 9 6 10 7 19 8 12 9 13 10 18 11 20 12
REMARK SMILES IDX 14 13 15 14 17 15 16 16 35 17 21 18 34 19 33 20 23 21 22 22
REMARK SMILES IDX 30 23 24 24 25 25 31 26 32 27 11 28 26 30 27 31 29 32 28 33
REMARK SMILES IDX 3 34 2 35 1 36 36 37 37 38 38 39
REMARK H PARENT 11 29
REMARK Flexibility Score: inf
ROOT
ATOM      1  C   UNL     1     -23.032 -15.201 -13.462  1.00  0.00     0.014 C 
ENDROOT
BRANCH   1   2
ATOM      2  C   UNL     1     -23.905 -16.282 -14.172  1.00  0.00     0.042 C 
BRANCH   2   3
ATOM      3  C   UNL     1     -25.093 -15.654 -14.868  1.00  0.00     0.045 C 
ATOM      4  O   UNL     1     -25.429 -16.043 -16.016  1.00  0.00    -0.550 OA
ATOM      5  O   UNL     1     -25.859 -14.684 -14.237  1.00  0.00    -0.550 OA
ENDBRANCH   2   3
BRANCH   2   6
ATOM      6  C   UNL     1     -24.349 -17.567 -13.368  1.00  0.00     0.033 C 
ATOM      7  C   UNL     1     -25.831 -17.650 -12.953  1.00  0.00     0.119 C 
ATOM      8  C   UNL     1     -23.918 -19.031 -13.728  1.00  0.00    -0.017 C 
ATOM      9  C   UNL     1     -26.043 -19.077 -12.414  1.00  0.00     0.043 C 
ATOM     10  C   UNL     1     -24.732 -19.881 -12.649  1.00  0.00    -0.003 C 
ATOM     11  C   UNL     1     -24.281 -19.432 -15.207  1.00  0.00     0.012 C 
ATOM     12  C   UNL     1     -22.383 -19.227 -13.571  1.00  0.00     0.013 C 
ATOM     13  C   UNL     1     -23.970 -19.939 -11.279  1.00  0.00     0.017 C 
ATOM     14  C   UNL     1     -25.058 -21.323 -13.126  1.00  0.00    -0.064 C 
ATOM     15  C   UNL     1     -25.469 -20.374 -15.340  1.00  0.00     0.032 C 
ATOM     16  C   UNL     1     -25.269 -21.577 -14.445  1.00  0.00    -0.064 C 
ATOM     17  C   UNL     1     -25.197 -22.428 -12.100  1.00  0.00     0.032 C 
ATOM     18  C   UNL     1     -25.348 -23.009 -15.046  1.00  0.00    -0.008 C 
ATOM     19  C   UNL     1     -25.846 -23.690 -12.642  1.00  0.00     0.009 C 
ATOM     20  C   UNL     1     -25.134 -24.128 -13.944  1.00  0.00     0.009 C 
ATOM     21  C   UNL     1     -26.761 -23.165 -15.683  1.00  0.00     0.015 C 
ATOM     22  C   UNL     1     -24.232 -23.111 -16.138  1.00  0.00     0.016 C 
ATOM     23  C   UNL     1     -25.524 -25.604 -14.395  1.00  0.00     0.005 C 
ATOM     24  C   UNL     1     -27.092 -24.584 -16.156  1.00  0.00     0.047 C 
ATOM     25  C   UNL     1     -26.945 -25.622 -15.040  1.00  0.00     0.182 C 
ATOM     26  C   UNL     1     -24.465 -26.182 -15.379  1.00  0.00     0.015 C 
ATOM     27  C   UNL     1     -25.513 -26.570 -13.177  1.00  0.00     0.015 C 
BRANCH   7  28
ATOM     28  O   UNL     1     -26.689 -17.409 -14.036  1.00  0.00    -0.393 OA
ATOM     29  H   UNL     1     -27.195 -16.578 -13.822  1.00  0.00     0.210 HD
ENDBRANCH   7  28
BRANCH  25  30
ATOM     30  O   UNL     1     -27.225 -26.910 -15.599  1.00  0.00    -0.462 OA
BRANCH  30  31
ATOM     31  C   UNL     1     -28.437 -27.592 -15.438  1.00  0.00     0.302 C 
ATOM     32  O   UNL     1     -29.120 -27.472 -14.383  1.00  0.00    -0.253 OA
ATOM     33  C   UNL     1     -28.938 -28.449 -16.549  1.00  0.00     0.139 C 
ENDBRANCH  30  31
ENDBRANCH  25  30
ENDBRANCH   2   6
ENDBRANCH   1   2
BRANCH   1  34
ATOM     34  C   UNL     1     -21.740 -15.765 -12.827  1.00  0.00     0.031 C 
BRANCH  34  35
ATOM     35  C   UNL     1     -20.467 -15.044 -13.240  1.00  0.00    -0.075 C 
ATOM     36  C   UNL     1     -20.558 -13.962 -14.036  1.00  0.00     0.008 C 
BRANCH  35  37
ATOM     37  C   UNL     1     -19.129 -15.366 -12.582  1.00  0.00     0.008 C 
ATOM     38  C   UNL     1     -18.230 -14.134 -12.421  1.00  0.00     0.012 C 
ATOM     39  C   UNL     1     -18.401 -16.471 -13.354  1.00  0.00     0.012 C 
ENDBRANCH  35  37
ENDBRANCH  34  35
ENDBRANCH   1  34
TORSDOF 9
ENDMDL
