MODEL 1
REMARK VINA RESULT:    -4.037      0.000      0.000
REMARK INTER + INTRA:          -5.028
REMARK INTER:                  -5.688
REMARK INTRA:                   0.661
REMARK UNBOUND:                 0.661
REMARK SMILES CC1=CCC(=C(C)C)C(=O)CC(C)=CCC1
REMARK SMILES IDX 12 1 14 2 13 3 15 4 16 5 2 6 1 7 3 8 11 10 9 11 10 12 5 13
REMARK SMILES IDX 6 14 7 15 8 16 4 17
REMARK H PARENT
REMARK Flexibility Score: 60.00
ROOT
ATOM      1  C   UNL     1     -10.885 -16.902  27.610  1.00  0.00    -0.070 C 
ATOM      2  C   UNL     1     -10.272 -17.919  28.254  1.00  0.00    -0.027 C 
ATOM      3  C   UNL     1     -11.228 -17.094  26.154  1.00  0.00     0.039 C 
ENDROOT
BRANCH   2   4
ATOM      4  C   UNL     1      -9.937 -17.957  29.730  1.00  0.00     0.032 C 
BRANCH   4   5
ATOM      5  C   UNL     1     -10.578 -19.125  30.509  1.00  0.00     0.034 C 
BRANCH   5   6
ATOM      6  C   UNL     1     -12.088 -19.188  30.357  1.00  0.00    -0.077 C 
ATOM      7  C   UNL     1     -12.695 -20.502  29.937  1.00  0.00     0.039 C 
ATOM      8  C   UNL     1     -12.928 -18.162  30.640  1.00  0.00    -0.023 CG0
ATOM      9  G   UNL     1     -12.545 -16.755  31.057  1.00  0.00     0.000 G0
ENDBRANCH   5   6
ENDBRANCH   4   5
ENDBRANCH   2   4
BRANCH   1  10
ATOM     10  C   UNL     1     -11.325 -15.626  28.299  1.00  0.00     0.111 C 
BRANCH  10  11
ATOM     11  C   UNL     1     -12.771 -15.691  28.717  1.00  0.00     0.163 C 
ATOM     12  O   UNL     1     -13.645 -15.798  27.816  1.00  0.00    -0.294 OA
BRANCH  11  13
ATOM     13  C   UNL     1     -13.191 -15.697  30.150  1.00  0.00    -0.002 C 
ATOM     14  C   UNL     1     -14.162 -14.846  30.597  1.00  0.00    -0.069 C 
ATOM     15  C   UNL     1     -14.721 -14.933  32.000  1.00  0.00     0.039 C 
ATOM     16  C   UNL     1     -14.732 -13.766  29.702  1.00  0.00     0.039 C 
BRANCH  13  17
ATOM     17  C   UNL     1     -12.565 -16.747  31.054  1.00  0.00     0.066 CG0
ATOM     18  G   UNL     1     -12.933 -18.158  30.641  1.00  0.00     0.000 G0
ENDBRANCH  13  17
ENDBRANCH  11  13
ENDBRANCH  10  11
ENDBRANCH   1  10
TORSDOF 0
ENDMDL
MODEL 2
REMARK VINA RESULT:    -3.698      1.895      3.428
REMARK INTER + INTRA:          -4.550
REMARK INTER:                  -5.199
REMARK INTRA:                   0.649
REMARK UNBOUND:                 0.661
REMARK SMILES CC1=CCC(=C(C)C)C(=O)CC(C)=CCC1
REMARK SMILES IDX 12 1 14 2 13 3 15 4 16 5 2 6 1 7 3 8 11 10 9 11 10 12 5 13
REMARK SMILES IDX 6 14 7 15 8 16 4 17
REMARK H PARENT
REMARK Flexibility Score: 60.00
ROOT
ATOM      1  C   UNL     1     -12.713 -16.949  31.118  1.00  0.00    -0.070 C 
ATOM      2  C   UNL     1     -13.242 -18.179  31.301  1.00  0.00    -0.027 C 
ATOM      3  C   UNL     1     -13.620 -15.757  31.297  1.00  0.00     0.039 C 
ENDROOT
BRANCH   2   4
ATOM      4  C   UNL     1     -12.476 -19.484  31.263  1.00  0.00     0.032 C 
BRANCH   4   5
ATOM      5  C   UNL     1     -11.737 -19.763  29.937  1.00  0.00     0.034 C 
BRANCH   5   6
ATOM      6  C   UNL     1     -12.652 -19.722  28.724  1.00  0.00    -0.077 C 
ATOM      7  C   UNL     1     -13.782 -20.718  28.666  1.00  0.00     0.039 C 
ATOM      8  C   UNL     1     -12.559 -18.808  27.727  1.00  0.00    -0.023 CG0
ATOM      9  G   UNL     1     -11.502 -17.733  27.568  1.00  0.00     0.000 G0
ENDBRANCH   5   6
ENDBRANCH   4   5
ENDBRANCH   2   4
BRANCH   1  10
ATOM     10  C   UNL     1     -11.244 -16.709  30.834  1.00  0.00     0.111 C 
BRANCH  10  11
ATOM     11  C   UNL     1     -11.035 -16.087  29.478  1.00  0.00     0.163 C 
ATOM     12  O   UNL     1     -10.086 -15.270  29.340  1.00  0.00    -0.294 OA
BRANCH  11  13
ATOM     13  C   UNL     1     -11.866 -16.453  28.292  1.00  0.00    -0.002 C 
ATOM     14  C   UNL     1     -12.852 -15.617  27.847  1.00  0.00    -0.069 C 
ATOM     15  C   UNL     1     -13.605 -15.880  26.561  1.00  0.00     0.039 C 
ATOM     16  C   UNL     1     -13.241 -14.377  28.623  1.00  0.00     0.039 C 
BRANCH  13  17
ATOM     17  C   UNL     1     -11.506 -17.734  27.558  1.00  0.00     0.066 CG0
ATOM     18  G   UNL     1     -12.559 -18.811  27.727  1.00  0.00     0.000 G0
ENDBRANCH  13  17
ENDBRANCH  11  13
ENDBRANCH  10  11
ENDBRANCH   1  10
TORSDOF 0
ENDMDL
MODEL 3
REMARK VINA RESULT:    -3.303      1.737      3.404
REMARK INTER + INTRA:          -3.995
REMARK INTER:                  -5.223
REMARK INTRA:                   1.228
REMARK UNBOUND:                 0.661
REMARK SMILES CC1=CCC(=C(C)C)C(=O)CC(C)=CCC1
REMARK SMILES IDX 12 1 14 2 13 3 15 4 16 5 2 6 1 7 3 8 11 10 9 11 10 12 5 13
REMARK SMILES IDX 6 14 7 15 8 16 4 17
REMARK H PARENT
REMARK Flexibility Score: 60.00
ROOT
ATOM      1  C   UNL     1     -11.914 -18.968  30.322  1.00  0.00    -0.070 C 
ATOM      2  C   UNL     1     -12.339 -19.419  29.121  1.00  0.00    -0.027 C 
ATOM      3  C   UNL     1     -10.556 -19.416  30.804  1.00  0.00     0.039 C 
ENDROOT
BRANCH   2   4
ATOM      4  C   UNL     1     -13.619 -19.008  28.426  1.00  0.00     0.032 C 
BRANCH   4   5
ATOM      5  C   UNL     1     -13.442 -17.951  27.315  1.00  0.00     0.034 C 
BRANCH   5   6
ATOM      6  C   UNL     1     -12.176 -17.127  27.471  1.00  0.00    -0.077 C 
ATOM      7  C   UNL     1     -10.915 -17.651  26.833  1.00  0.00     0.039 C 
ATOM      8  C   UNL     1     -12.121 -15.920  28.088  1.00  0.00    -0.023 CG0
ATOM      9  G   UNL     1     -13.249 -15.211  28.811  1.00  0.00     0.000 G0
ENDBRANCH   5   6
ENDBRANCH   4   5
ENDBRANCH   2   4
BRANCH   1  10
ATOM     10  C   UNL     1     -12.689 -17.970  31.157  1.00  0.00     0.111 C 
BRANCH  10  11
ATOM     11  C   UNL     1     -12.332 -16.551  30.799  1.00  0.00     0.163 C 
ATOM     12  O   UNL     1     -11.127 -16.198  30.899  1.00  0.00    -0.294 OA
BRANCH  11  13
ATOM     13  C   UNL     1     -13.339 -15.579  30.275  1.00  0.00    -0.002 C 
ATOM     14  C   UNL     1     -14.249 -14.997  31.112  1.00  0.00    -0.069 C 
ATOM     15  C   UNL     1     -15.175 -13.895  30.647  1.00  0.00     0.039 C 
ATOM     16  C   UNL     1     -14.373 -15.427  32.559  1.00  0.00     0.039 C 
BRANCH  13  17
ATOM     17  C   UNL     1     -13.242 -15.202  28.806  1.00  0.00     0.066 CG0
ATOM     18  G   UNL     1     -12.109 -15.920  28.100  1.00  0.00     0.000 G0
ENDBRANCH  13  17
ENDBRANCH  11  13
ENDBRANCH  10  11
ENDBRANCH   1  10
TORSDOF 0
ENDMDL
MODEL 4
REMARK VINA RESULT:    -3.132      2.129      4.710
REMARK INTER + INTRA:          -3.753
REMARK INTER:                  -4.701
REMARK INTRA:                   0.948
REMARK UNBOUND:                 0.661
REMARK SMILES CC1=CCC(=C(C)C)C(=O)CC(C)=CCC1
REMARK SMILES IDX 12 1 14 2 13 3 15 4 16 5 2 6 1 7 3 8 11 10 9 11 10 12 5 13
REMARK SMILES IDX 6 14 7 15 8 16 4 17
REMARK H PARENT
REMARK Flexibility Score: 60.00
ROOT
ATOM      1  C   UNL     1     -12.761 -16.121  30.896  1.00  0.00    -0.070 C 
ATOM      2  C   UNL     1     -13.606 -15.382  30.144  1.00  0.00    -0.027 C 
ATOM      3  C   UNL     1     -13.342 -16.899  32.051  1.00  0.00     0.039 C 
ENDROOT
BRANCH   2   4
ATOM      4  C   UNL     1     -13.234 -14.616  28.892  1.00  0.00     0.032 C 
BRANCH   4   5
ATOM      5  C   UNL     1     -12.222 -15.332  27.973  1.00  0.00     0.034 C 
BRANCH   5   6
ATOM      6  C   UNL     1     -12.839 -16.471  27.179  1.00  0.00    -0.077 C 
ATOM      7  C   UNL     1     -14.036 -16.157  26.318  1.00  0.00     0.039 C 
ATOM      8  C   UNL     1     -12.343 -17.732  27.141  1.00  0.00    -0.023 CG0
ATOM      9  G   UNL     1     -11.169 -18.277  27.931  1.00  0.00     0.000 G0
ENDBRANCH   5   6
ENDBRANCH   4   5
ENDBRANCH   2   4
BRANCH   1  10
ATOM     10  C   UNL     1     -11.288 -16.279  30.581  1.00  0.00     0.111 C 
BRANCH  10  11
ATOM     11  C   UNL     1     -10.907 -17.728  30.418  1.00  0.00     0.163 C 
ATOM     12  O   UNL     1     -10.088 -18.222  31.237  1.00  0.00    -0.294 OA
BRANCH  11  13
ATOM     13  C   UNL     1     -11.511 -18.602  29.367  1.00  0.00    -0.002 C 
ATOM     14  C   UNL     1     -12.396 -19.587  29.703  1.00  0.00    -0.069 C 
ATOM     15  C   UNL     1     -13.144 -20.383  28.655  1.00  0.00     0.039 C 
ATOM     16  C   UNL     1     -12.677 -19.931  31.150  1.00  0.00     0.039 C 
BRANCH  13  17
ATOM     17  C   UNL     1     -11.171 -18.285  27.920  1.00  0.00     0.066 CG0
ATOM     18  G   UNL     1     -12.359 -17.731  27.157  1.00  0.00     0.000 G0
ENDBRANCH  13  17
ENDBRANCH  11  13
ENDBRANCH  10  11
ENDBRANCH   1  10
TORSDOF 0
ENDMDL
MODEL 5
REMARK VINA RESULT:    -2.798      2.096      4.505
REMARK INTER + INTRA:          -3.283
REMARK INTER:                  -4.329
REMARK INTRA:                   1.047
REMARK UNBOUND:                 0.661
REMARK SMILES CC1=CCC(=C(C)C)C(=O)CC(C)=CCC1
REMARK SMILES IDX 12 1 14 2 13 3 15 4 16 5 2 6 1 7 3 8 11 10 9 11 10 12 5 13
REMARK SMILES IDX 6 14 7 15 8 16 4 17
REMARK H PARENT
REMARK Flexibility Score: 60.00
ROOT
ATOM      1  C   UNL     1     -11.563 -16.186  30.203  1.00  0.00    -0.070 C 
ATOM      2  C   UNL     1     -11.457 -15.585  28.998  1.00  0.00    -0.027 C 
ATOM      3  C   UNL     1     -10.290 -16.574  30.913  1.00  0.00     0.039 C 
ENDROOT
BRANCH   2   4
ATOM      4  C   UNL     1     -12.607 -15.036  28.180  1.00  0.00     0.032 C 
BRANCH   4   5
ATOM      5  C   UNL     1     -12.997 -15.892  26.956  1.00  0.00     0.034 C 
BRANCH   5   6
ATOM      6  C   UNL     1     -12.202 -17.181  26.851  1.00  0.00    -0.077 C 
ATOM      7  C   UNL     1     -11.050 -17.217  25.879  1.00  0.00     0.039 C 
ATOM      8  C   UNL     1     -12.416 -18.277  27.621  1.00  0.00    -0.023 CG0
ATOM      9  G   UNL     1     -13.518 -18.474  28.643  1.00  0.00     0.000 G0
ENDBRANCH   5   6
ENDBRANCH   4   5
ENDBRANCH   2   4
BRANCH   1  10
ATOM     10  C   UNL     1     -12.885 -16.402  30.912  1.00  0.00     0.111 C 
BRANCH  10  11
ATOM     11  C   UNL     1     -13.178 -17.866  31.107  1.00  0.00     0.163 C 
ATOM     12  O   UNL     1     -13.623 -18.239  32.225  1.00  0.00    -0.294 OA
BRANCH  11  13
ATOM     13  C   UNL     1     -13.018 -18.869  30.012  1.00  0.00    -0.002 C 
ATOM     14  C   UNL     1     -12.505 -20.109  30.269  1.00  0.00    -0.069 C 
ATOM     15  C   UNL     1     -12.476 -21.198  29.219  1.00  0.00     0.039 C 
ATOM     16  C   UNL     1     -11.938 -20.458  31.629  1.00  0.00     0.039 C 
BRANCH  13  17
ATOM     17  C   UNL     1     -13.535 -18.483  28.635  1.00  0.00     0.066 CG0
ATOM     18  G   UNL     1     -12.414 -18.287  27.633  1.00  0.00     0.000 G0
ENDBRANCH  13  17
ENDBRANCH  11  13
ENDBRANCH  10  11
ENDBRANCH   1  10
TORSDOF 0
ENDMDL
MODEL 6
REMARK VINA RESULT:    -2.468      1.880      3.852
REMARK INTER + INTRA:          -2.818
REMARK INTER:                  -3.689
REMARK INTRA:                   0.871
REMARK UNBOUND:                 0.661
REMARK SMILES CC1=CCC(=C(C)C)C(=O)CC(C)=CCC1
REMARK SMILES IDX 12 1 14 2 13 3 15 4 16 5 2 6 1 7 3 8 11 10 9 11 10 12 5 13
REMARK SMILES IDX 6 14 7 15 8 16 4 17
REMARK H PARENT
REMARK Flexibility Score: 60.00
ROOT
ATOM      1  C   UNL     1     -12.851 -15.678  27.966  1.00  0.00    -0.070 C 
ATOM      2  C   UNL     1     -13.453 -15.328  29.124  1.00  0.00    -0.027 C 
ATOM      3  C   UNL     1     -13.656 -15.577  26.694  1.00  0.00     0.039 C 
ENDROOT
BRANCH   2   4
ATOM      4  C   UNL     1     -12.788 -15.267  30.482  1.00  0.00     0.032 C 
BRANCH   4   5
ATOM      5  C   UNL     1     -12.202 -16.606  30.976  1.00  0.00     0.034 C 
BRANCH   5   6
ATOM      6  C   UNL     1     -10.687 -16.592  31.085  1.00  0.00    -0.077 C 
ATOM      7  C   UNL     1     -10.051 -15.464  31.855  1.00  0.00     0.039 C 
ATOM      8  C   UNL     1      -9.877 -17.562  30.594  1.00  0.00    -0.023 CG0
ATOM      9  G   UNL     1     -10.289 -18.770  29.777  1.00  0.00     0.000 G0
ENDBRANCH   5   6
ENDBRANCH   4   5
ENDBRANCH   2   4
BRANCH   1  10
ATOM     10  C   UNL     1     -11.392 -16.073  27.874  1.00  0.00     0.111 C 
BRANCH  10  11
ATOM     11  C   UNL     1     -11.229 -17.562  27.709  1.00  0.00     0.163 C 
ATOM     12  O   UNL     1     -10.841 -17.996  26.592  1.00  0.00    -0.294 OA
BRANCH  11  13
ATOM     13  C   UNL     1     -11.450 -18.522  28.832  1.00  0.00    -0.002 C 
ATOM     14  C   UNL     1     -12.634 -19.193  28.954  1.00  0.00    -0.069 C 
ATOM     15  C   UNL     1     -12.834 -20.285  29.982  1.00  0.00     0.039 C 
ATOM     16  C   UNL     1     -13.812 -18.877  28.058  1.00  0.00     0.039 C 
BRANCH  13  17
ATOM     17  C   UNL     1     -10.278 -18.783  29.764  1.00  0.00     0.066 CG0
ATOM     18  G   UNL     1      -9.902 -17.559  30.575  1.00  0.00     0.000 G0
ENDBRANCH  13  17
ENDBRANCH  11  13
ENDBRANCH  10  11
ENDBRANCH   1  10
TORSDOF 0
ENDMDL
MODEL 7
REMARK VINA RESULT:    -2.399      1.284      3.758
REMARK INTER + INTRA:          -2.720
REMARK INTER:                  -4.252
REMARK INTRA:                   1.532
REMARK UNBOUND:                 0.661
REMARK SMILES CC1=CCC(=C(C)C)C(=O)CC(C)=CCC1
REMARK SMILES IDX 12 1 14 2 13 3 15 4 16 5 2 6 1 7 3 8 11 10 9 11 10 12 5 13
REMARK SMILES IDX 6 14 7 15 8 16 4 17
REMARK H PARENT
REMARK Flexibility Score: 60.00
ROOT
ATOM      1  C   UNL     1     -11.319 -16.911  26.817  1.00  0.00    -0.070 C 
ATOM      2  C   UNL     1     -11.492 -15.734  27.457  1.00  0.00    -0.027 C 
ATOM      3  C   UNL     1     -11.070 -16.876  25.329  1.00  0.00     0.039 C 
ENDROOT
BRANCH   2   4
ATOM      4  C   UNL     1     -11.655 -15.557  28.951  1.00  0.00     0.032 C 
BRANCH   4   5
ATOM      5  C   UNL     1     -13.076 -15.159  29.405  1.00  0.00     0.034 C 
BRANCH   5   6
ATOM      6  C   UNL     1     -13.417 -15.652  30.801  1.00  0.00    -0.077 C 
ATOM      7  C   UNL     1     -14.490 -14.915  31.561  1.00  0.00     0.039 C 
ATOM      8  C   UNL     1     -12.869 -16.748  31.379  1.00  0.00    -0.023 CG0
ATOM      9  G   UNL     1     -11.769 -17.626  30.816  1.00  0.00     0.000 G0
ENDBRANCH   5   6
ENDBRANCH   4   5
ENDBRANCH   2   4
BRANCH   1  10
ATOM     10  C   UNL     1     -11.270 -18.247  27.531  1.00  0.00     0.111 C 
BRANCH  10  11
ATOM     11  C   UNL     1     -12.446 -18.425  28.455  1.00  0.00     0.163 C 
ATOM     12  O   UNL     1     -13.604 -18.351  27.965  1.00  0.00    -0.294 OA
BRANCH  11  13
ATOM     13  C   UNL     1     -12.283 -18.746  29.905  1.00  0.00    -0.002 C 
ATOM     14  C   UNL     1     -12.514 -20.010  30.371  1.00  0.00    -0.069 C 
ATOM     15  C   UNL     1     -12.209 -20.406  31.799  1.00  0.00     0.039 C 
ATOM     16  C   UNL     1     -13.090 -21.084  29.473  1.00  0.00     0.039 C 
BRANCH  13  17
ATOM     17  C   UNL     1     -11.764 -17.639  30.809  1.00  0.00     0.066 CG0
ATOM     18  G   UNL     1     -12.881 -16.781  31.369  1.00  0.00     0.000 G0
ENDBRANCH  13  17
ENDBRANCH  11  13
ENDBRANCH  10  11
ENDBRANCH   1  10
TORSDOF 0
ENDMDL
MODEL 8
REMARK VINA RESULT:    -2.232      1.532      4.186
REMARK INTER + INTRA:          -2.485
REMARK INTER:                  -3.231
REMARK INTRA:                   0.747
REMARK UNBOUND:                 0.661
REMARK SMILES CC1=CCC(=C(C)C)C(=O)CC(C)=CCC1
REMARK SMILES IDX 12 1 14 2 13 3 15 4 16 5 2 6 1 7 3 8 11 10 9 11 10 12 5 13
REMARK SMILES IDX 6 14 7 15 8 16 4 17
REMARK H PARENT
REMARK Flexibility Score: 60.00
ROOT
ATOM      1  C   UNL     1     -12.683 -15.712  28.109  1.00  0.00    -0.070 C 
ATOM      2  C   UNL     1     -13.708 -15.011  28.644  1.00  0.00    -0.027 C 
ATOM      3  C   UNL     1     -12.906 -16.380  26.775  1.00  0.00     0.039 C 
ENDROOT
BRANCH   2   4
ATOM      4  C   UNL     1     -13.650 -14.194  29.916  1.00  0.00     0.032 C 
BRANCH   4   5
ATOM      5  C   UNL     1     -14.676 -14.601  30.994  1.00  0.00     0.034 C 
BRANCH   5   6
ATOM      6  C   UNL     1     -14.051 -15.333  32.169  1.00  0.00    -0.077 C 
ATOM      7  C   UNL     1     -13.998 -14.615  33.494  1.00  0.00     0.039 C 
ATOM      8  C   UNL     1     -13.600 -16.611  32.121  1.00  0.00    -0.023 CG0
ATOM      9  G   UNL     1     -13.536 -17.513  30.904  1.00  0.00     0.000 G0
ENDBRANCH   5   6
ENDBRANCH   4   5
ENDBRANCH   2   4
BRANCH   1  10
ATOM     10  C   UNL     1     -11.305 -15.779  28.735  1.00  0.00     0.111 C 
BRANCH  10  11
ATOM     11  C   UNL     1     -11.347 -16.411  30.101  1.00  0.00     0.163 C 
ATOM     12  O   UNL     1     -10.764 -15.819  31.048  1.00  0.00    -0.294 OA
BRANCH  11  13
ATOM     13  C   UNL     1     -12.102 -17.670  30.379  1.00  0.00    -0.002 C 
ATOM     14  C   UNL     1     -11.500 -18.890  30.244  1.00  0.00    -0.069 C 
ATOM     15  C   UNL     1     -12.182 -20.172  30.667  1.00  0.00     0.039 C 
ATOM     16  C   UNL     1     -10.108 -19.018  29.662  1.00  0.00     0.039 C 
BRANCH  13  17
ATOM     17  C   UNL     1     -13.521 -17.529  30.903  1.00  0.00     0.066 CG0
ATOM     18  G   UNL     1     -13.604 -16.602  32.100  1.00  0.00     0.000 G0
ENDBRANCH  13  17
ENDBRANCH  11  13
ENDBRANCH  10  11
ENDBRANCH   1  10
TORSDOF 0
ENDMDL
MODEL 9
REMARK VINA RESULT:    -1.927      1.648      3.860
REMARK INTER + INTRA:          -2.055
REMARK INTER:                  -3.434
REMARK INTRA:                   1.378
REMARK UNBOUND:                 0.661
REMARK SMILES CC1=CCC(=C(C)C)C(=O)CC(C)=CCC1
REMARK SMILES IDX 12 1 14 2 13 3 15 4 16 5 2 6 1 7 3 8 11 10 9 11 10 12 5 13
REMARK SMILES IDX 6 14 7 15 8 16 4 17
REMARK H PARENT
REMARK Flexibility Score: 60.00
ROOT
ATOM      1  C   UNL     1     -12.929 -15.958  31.212  1.00  0.00    -0.070 C 
ATOM      2  C   UNL     1     -11.687 -15.723  31.689  1.00  0.00    -0.027 C 
ATOM      3  C   UNL     1     -14.097 -15.381  31.972  1.00  0.00     0.039 C 
ENDROOT
BRANCH   2   4
ATOM      4  C   UNL     1     -10.391 -16.131  31.020  1.00  0.00     0.032 C 
BRANCH   4   5
ATOM      5  C   UNL     1      -9.876 -17.533  31.408  1.00  0.00     0.034 C 
BRANCH   5   6
ATOM      6  C   UNL     1     -10.421 -18.637  30.518  1.00  0.00    -0.077 C 
ATOM      7  C   UNL     1     -10.778 -19.949  31.168  1.00  0.00     0.039 C 
ATOM      8  C   UNL     1     -10.670 -18.497  29.192  1.00  0.00    -0.023 CG0
ATOM      9  G   UNL     1     -10.375 -17.286  28.330  1.00  0.00     0.000 G0
ENDBRANCH   5   6
ENDBRANCH   4   5
ENDBRANCH   2   4
BRANCH   1  10
ATOM     10  C   UNL     1     -13.196 -16.686  29.911  1.00  0.00     0.111 C 
BRANCH  10  11
ATOM     11  C   UNL     1     -12.564 -15.980  28.740  1.00  0.00     0.163 C 
ATOM     12  O   UNL     1     -12.753 -14.740  28.622  1.00  0.00    -0.294 OA
BRANCH  11  13
ATOM     13  C   UNL     1     -11.679 -16.682  27.762  1.00  0.00    -0.002 C 
ATOM     14  C   UNL     1     -11.982 -16.694  26.430  1.00  0.00    -0.069 C 
ATOM     15  C   UNL     1     -11.030 -17.258  25.397  1.00  0.00     0.039 C 
ATOM     16  C   UNL     1     -13.293 -16.138  25.917  1.00  0.00     0.039 C 
BRANCH  13  17
ATOM     17  C   UNL     1     -10.395 -17.292  28.300  1.00  0.00     0.066 CG0
ATOM     18  G   UNL     1     -10.655 -18.496  29.185  1.00  0.00     0.000 G0
ENDBRANCH  13  17
ENDBRANCH  11  13
ENDBRANCH  10  11
ENDBRANCH   1  10
TORSDOF 0
ENDMDL
