MODEL 1
REMARK VINA RESULT:    -3.869      0.000      0.000
REMARK INTER + INTRA:          -8.522
REMARK INTER:                  -6.696
REMARK INTRA:                  -1.826
REMARK UNBOUND:                -1.826
REMARK SMILES CCCCCCCCCCCCCCO
REMARK SMILES IDX 8 1 7 2 6 3 5 4 4 5 3 6 2 7 1 8 9 9 10 10 11 11 12 12 13 13
REMARK SMILES IDX 14 14 15 15
REMARK H PARENT 15 16
REMARK Flexibility Score: inf
ROOT
ATOM      1  C   UNL     1     164.767 177.606 180.593  1.00  0.00     0.000 C 
ENDROOT
BRANCH   1   2
ATOM      2  C   UNL     1     164.438 179.104 180.645  1.00  0.00    -0.000 C 
BRANCH   2   3
ATOM      3  C   UNL     1     163.267 179.377 181.598  1.00  0.00    -0.000 C 
BRANCH   3   4
ATOM      4  C   UNL     1     162.068 179.966 180.842  1.00  0.00    -0.000 C 
BRANCH   4   5
ATOM      5  C   UNL     1     162.281 179.988 179.320  1.00  0.00    -0.000 C 
BRANCH   5   6
ATOM      6  C   UNL     1     161.428 178.938 178.587  1.00  0.00    -0.000 C 
BRANCH   6   7
ATOM      7  C   UNL     1     162.280 177.944 177.784  1.00  0.00    -0.003 C 
ATOM      8  C   UNL     1     161.444 176.843 177.131  1.00  0.00     0.004 C 
ENDBRANCH   6   7
ENDBRANCH   5   6
ENDBRANCH   4   5
ENDBRANCH   3   4
ENDBRANCH   2   3
ENDBRANCH   1   2
BRANCH   1   9
ATOM      9  C   UNL     1     163.883 176.773 181.534  1.00  0.00     0.000 C 
BRANCH   9  10
ATOM     10  C   UNL     1     162.927 175.837 180.774  1.00  0.00     0.000 C 
BRANCH  10  11
ATOM     11  C   UNL     1     161.450 176.198 180.994  1.00  0.00     0.000 C 
BRANCH  11  12
ATOM     12  C   UNL     1     160.512 174.996 180.790  1.00  0.00     0.002 C 
BRANCH  12  13
ATOM     13  C   UNL     1     161.271 173.681 180.537  1.00  0.00     0.028 C 
BRANCH  13  14
ATOM     14  C   UNL     1     160.715 172.873 179.359  1.00  0.00     0.156 C 
BRANCH  14  15
ATOM     15  O   UNL     1     159.890 173.679 178.563  1.00  0.00    -0.396 OA
ATOM     16  H   UNL     1     160.396 173.851 177.727  1.00  0.00     0.210 HD
ENDBRANCH  14  15
ENDBRANCH  13  14
ENDBRANCH  12  13
ENDBRANCH  11  12
ENDBRANCH  10  11
ENDBRANCH   9  10
ENDBRANCH   1   9
TORSDOF 13
ENDMDL
MODEL 2
REMARK VINA RESULT:    -3.744     11.682     13.989
REMARK INTER + INTRA:          -8.307
REMARK INTER:                  -6.511
REMARK INTRA:                  -1.796
REMARK UNBOUND:                -1.826
REMARK SMILES CCCCCCCCCCCCCCO
REMARK SMILES IDX 8 1 7 2 6 3 5 4 4 5 3 6 2 7 1 8 9 9 10 10 11 11 12 12 13 13
REMARK SMILES IDX 14 14 15 15
REMARK H PARENT 15 16
REMARK Flexibility Score: inf
ROOT
ATOM      1  C   UNL     1     177.033 180.119 179.004  1.00  0.00     0.000 C 
ENDROOT
BRANCH   1   2
ATOM      2  C   UNL     1     175.520 179.917 178.840  1.00  0.00    -0.000 C 
BRANCH   2   3
ATOM      3  C   UNL     1     175.216 178.605 178.105  1.00  0.00    -0.000 C 
BRANCH   3   4
ATOM      4  C   UNL     1     174.037 177.869 178.758  1.00  0.00    -0.000 C 
BRANCH   4   5
ATOM      5  C   UNL     1     173.055 178.826 179.454  1.00  0.00    -0.000 C 
BRANCH   5   6
ATOM      6  C   UNL     1     172.823 178.465 180.931  1.00  0.00    -0.000 C 
BRANCH   6   7
ATOM      7  C   UNL     1     173.336 177.060 181.281  1.00  0.00    -0.003 C 
ATOM      8  C   UNL     1     172.218 176.116 181.721  1.00  0.00     0.004 C 
ENDBRANCH   6   7
ENDBRANCH   5   6
ENDBRANCH   4   5
ENDBRANCH   3   4
ENDBRANCH   2   3
ENDBRANCH   1   2
BRANCH   1   9
ATOM      9  C   UNL     1     177.486 180.032 180.469  1.00  0.00     0.000 C 
BRANCH   9  10
ATOM     10  C   UNL     1     176.395 179.461 181.393  1.00  0.00     0.000 C 
BRANCH  10  11
ATOM     11  C   UNL     1     176.717 178.037 181.874  1.00  0.00     0.000 C 
BRANCH  11  12
ATOM     12  C   UNL     1     177.619 177.273 180.890  1.00  0.00     0.002 C 
BRANCH  12  13
ATOM     13  C   UNL     1     176.944 176.017 180.311  1.00  0.00     0.028 C 
BRANCH  13  14
ATOM     14  C   UNL     1     177.759 174.735 180.520  1.00  0.00     0.156 C 
BRANCH  14  15
ATOM     15  O   UNL     1     178.376 174.350 179.324  1.00  0.00    -0.396 OA
ATOM     16  H   UNL     1     179.098 175.011 179.161  1.00  0.00     0.210 HD
ENDBRANCH  14  15
ENDBRANCH  13  14
ENDBRANCH  12  13
ENDBRANCH  11  12
ENDBRANCH  10  11
ENDBRANCH   9  10
ENDBRANCH   1   9
TORSDOF 13
ENDMDL
MODEL 3
REMARK VINA RESULT:    -3.736      2.497      5.587
REMARK INTER + INTRA:          -8.292
REMARK INTER:                  -6.755
REMARK INTRA:                  -1.538
REMARK UNBOUND:                -1.826
REMARK SMILES CCCCCCCCCCCCCCO
REMARK SMILES IDX 8 1 7 2 6 3 5 4 4 5 3 6 2 7 1 8 9 9 10 10 11 11 12 12 13 13
REMARK SMILES IDX 14 14 15 15
REMARK H PARENT 15 16
REMARK Flexibility Score: inf
ROOT
ATOM      1  C   UNL     1     163.180 176.877 181.211  1.00  0.00     0.000 C 
ENDROOT
BRANCH   1   2
ATOM      2  C   UNL     1     161.678 176.566 181.133  1.00  0.00    -0.000 C 
BRANCH   2   3
ATOM      3  C   UNL     1     161.370 175.639 179.950  1.00  0.00    -0.000 C 
BRANCH   3   4
ATOM      4  C   UNL     1     162.519 174.649 179.712  1.00  0.00    -0.000 C 
BRANCH   4   5
ATOM      5  C   UNL     1     162.216 173.247 180.264  1.00  0.00    -0.000 C 
BRANCH   5   6
ATOM      6  C   UNL     1     163.096 172.883 181.472  1.00  0.00    -0.000 C 
BRANCH   6   7
ATOM      7  C   UNL     1     162.279 172.687 182.758  1.00  0.00    -0.003 C 
ATOM      8  C   UNL     1     160.771 172.758 182.516  1.00  0.00     0.004 C 
ENDBRANCH   6   7
ENDBRANCH   5   6
ENDBRANCH   4   5
ENDBRANCH   3   4
ENDBRANCH   2   3
ENDBRANCH   1   2
BRANCH   1   9
ATOM      9  C   UNL     1     163.463 178.326 181.636  1.00  0.00     0.000 C 
BRANCH   9  10
ATOM     10  C   UNL     1     162.268 179.262 181.381  1.00  0.00     0.000 C 
BRANCH  10  11
ATOM     11  C   UNL     1     162.427 180.079 180.090  1.00  0.00     0.000 C 
BRANCH  11  12
ATOM     12  C   UNL     1     161.591 179.514 178.928  1.00  0.00     0.002 C 
BRANCH  12  13
ATOM     13  C   UNL     1     162.457 178.927 177.798  1.00  0.00     0.028 C 
BRANCH  13  14
ATOM     14  C   UNL     1     163.957 179.182 177.985  1.00  0.00     0.156 C 
BRANCH  14  15
ATOM     15  O   UNL     1     164.473 179.874 176.881  1.00  0.00    -0.396 OA
ATOM     16  H   UNL     1     165.043 180.597 177.252  1.00  0.00     0.210 HD
ENDBRANCH  14  15
ENDBRANCH  13  14
ENDBRANCH  12  13
ENDBRANCH  11  12
ENDBRANCH  10  11
ENDBRANCH   9  10
ENDBRANCH   1   9
TORSDOF 13
ENDMDL
MODEL 4
REMARK VINA RESULT:    -3.733     11.721     13.814
REMARK INTER + INTRA:          -8.288
REMARK INTER:                  -6.420
REMARK INTRA:                  -1.868
REMARK UNBOUND:                -1.826
REMARK SMILES CCCCCCCCCCCCCCO
REMARK SMILES IDX 8 1 7 2 6 3 5 4 4 5 3 6 2 7 1 8 9 9 10 10 11 11 12 12 13 13
REMARK SMILES IDX 14 14 15 15
REMARK H PARENT 15 16
REMARK Flexibility Score: inf
ROOT
ATOM      1  C   UNL     1     177.080 179.773 181.171  1.00  0.00     0.000 C 
ENDROOT
BRANCH   1   2
ATOM      2  C   UNL     1     177.453 179.464 179.714  1.00  0.00    -0.000 C 
BRANCH   2   3
ATOM      3  C   UNL     1     176.458 180.112 178.743  1.00  0.00    -0.000 C 
BRANCH   3   4
ATOM      4  C   UNL     1     175.550 179.055 178.098  1.00  0.00    -0.000 C 
BRANCH   4   5
ATOM      5  C   UNL     1     174.061 179.430 178.172  1.00  0.00    -0.000 C 
BRANCH   5   6
ATOM      6  C   UNL     1     173.318 178.687 179.295  1.00  0.00    -0.000 C 
BRANCH   6   7
ATOM      7  C   UNL     1     173.381 179.433 180.636  1.00  0.00    -0.003 C 
ATOM      8  C   UNL     1     171.996 179.748 181.202  1.00  0.00     0.004 C 
ENDBRANCH   6   7
ENDBRANCH   5   6
ENDBRANCH   4   5
ENDBRANCH   3   4
ENDBRANCH   2   3
ENDBRANCH   1   2
BRANCH   1   9
ATOM      9  C   UNL     1     176.677 178.516 181.958  1.00  0.00     0.000 C 
BRANCH   9  10
ATOM     10  C   UNL     1     176.664 177.249 181.084  1.00  0.00     0.000 C 
BRANCH  10  11
ATOM     11  C   UNL     1     175.367 176.440 181.239  1.00  0.00     0.000 C 
BRANCH  11  12
ATOM     12  C   UNL     1     175.221 175.349 180.164  1.00  0.00     0.002 C 
BRANCH  12  13
ATOM     13  C   UNL     1     176.218 175.514 179.004  1.00  0.00     0.028 C 
BRANCH  13  14
ATOM     14  C   UNL     1     177.093 174.277 178.770  1.00  0.00     0.156 C 
BRANCH  14  15
ATOM     15  O   UNL     1     178.352 174.453 179.358  1.00  0.00    -0.396 OA
ATOM     16  H   UNL     1     178.464 175.431 179.481  1.00  0.00     0.210 HD
ENDBRANCH  14  15
ENDBRANCH  13  14
ENDBRANCH  12  13
ENDBRANCH  11  12
ENDBRANCH  10  11
ENDBRANCH   9  10
ENDBRANCH   1   9
TORSDOF 13
ENDMDL
MODEL 5
REMARK VINA RESULT:    -3.689     10.526     12.980
REMARK INTER + INTRA:          -8.211
REMARK INTER:                  -7.018
REMARK INTRA:                  -1.193
REMARK UNBOUND:                -1.826
REMARK SMILES CCCCCCCCCCCCCCO
REMARK SMILES IDX 8 1 7 2 6 3 5 4 4 5 3 6 2 7 1 8 9 9 10 10 11 11 12 12 13 13
REMARK SMILES IDX 14 14 15 15
REMARK H PARENT 15 16
REMARK Flexibility Score: inf
ROOT
ATOM      1  C   UNL     1     174.493 177.633 181.229  1.00  0.00     0.000 C 
ENDROOT
BRANCH   1   2
ATOM      2  C   UNL     1     173.723 178.956 181.114  1.00  0.00    -0.000 C 
BRANCH   2   3
ATOM      3  C   UNL     1     172.822 178.963 179.873  1.00  0.00    -0.000 C 
BRANCH   3   4
ATOM      4  C   UNL     1     171.461 179.603 180.184  1.00  0.00    -0.000 C 
BRANCH   4   5
ATOM      5  C   UNL     1     170.414 178.574 180.639  1.00  0.00    -0.000 C 
BRANCH   5   6
ATOM      6  C   UNL     1     170.019 178.744 182.117  1.00  0.00    -0.000 C 
BRANCH   6   7
ATOM      7  C   UNL     1     170.202 177.452 182.927  1.00  0.00    -0.003 C 
ATOM      8  C   UNL     1     170.592 176.258 182.055  1.00  0.00     0.004 C 
ENDBRANCH   6   7
ENDBRANCH   5   6
ENDBRANCH   4   5
ENDBRANCH   3   4
ENDBRANCH   2   3
ENDBRANCH   1   2
BRANCH   1   9
ATOM      9  C   UNL     1     175.994 177.841 181.477  1.00  0.00     0.000 C 
BRANCH   9  10
ATOM     10  C   UNL     1     176.361 179.322 181.681  1.00  0.00     0.000 C 
BRANCH  10  11
ATOM     11  C   UNL     1     177.225 179.877 180.538  1.00  0.00     0.000 C 
BRANCH  11  12
ATOM     12  C   UNL     1     177.361 178.888 179.367  1.00  0.00     0.002 C 
BRANCH  12  13
ATOM     13  C   UNL     1     176.715 179.404 178.069  1.00  0.00     0.028 C 
BRANCH  13  14
ATOM     14  C   UNL     1     176.640 178.346 176.963  1.00  0.00     0.156 C 
BRANCH  14  15
ATOM     15  O   UNL     1     177.771 177.519 177.002  1.00  0.00    -0.396 OA
ATOM     16  H   UNL     1     178.222 177.713 177.864  1.00  0.00     0.210 HD
ENDBRANCH  14  15
ENDBRANCH  13  14
ENDBRANCH  12  13
ENDBRANCH  11  12
ENDBRANCH  10  11
ENDBRANCH   9  10
ENDBRANCH   1   9
TORSDOF 13
ENDMDL
MODEL 6
REMARK VINA RESULT:    -3.661      2.775      4.865
REMARK INTER + INTRA:          -8.163
REMARK INTER:                  -6.460
REMARK INTRA:                  -1.704
REMARK UNBOUND:                -1.826
REMARK SMILES CCCCCCCCCCCCCCO
REMARK SMILES IDX 8 1 7 2 6 3 5 4 4 5 3 6 2 7 1 8 9 9 10 10 11 11 12 12 13 13
REMARK SMILES IDX 14 14 15 15
REMARK H PARENT 15 16
REMARK Flexibility Score: inf
ROOT
ATOM      1  C   UNL     1     162.023 180.119 180.715  1.00  0.00     0.000 C 
ENDROOT
BRANCH   1   2
ATOM      2  C   UNL     1     162.763 179.896 179.388  1.00  0.00    -0.000 C 
BRANCH   2   3
ATOM      3  C   UNL     1     161.855 179.207 178.361  1.00  0.00    -0.000 C 
BRANCH   3   4
ATOM      4  C   UNL     1     162.631 178.153 177.559  1.00  0.00    -0.000 C 
BRANCH   4   5
ATOM      5  C   UNL     1     162.514 176.745 178.163  1.00  0.00    -0.000 C 
BRANCH   5   6
ATOM      6  C   UNL     1     161.451 176.663 179.272  1.00  0.00    -0.000 C 
BRANCH   6   7
ATOM      7  C   UNL     1     161.558 175.371 180.096  1.00  0.00    -0.003 C 
ATOM      8  C   UNL     1     160.478 175.266 181.172  1.00  0.00     0.004 C 
ENDBRANCH   6   7
ENDBRANCH   5   6
ENDBRANCH   4   5
ENDBRANCH   3   4
ENDBRANCH   2   3
ENDBRANCH   1   2
BRANCH   1   9
ATOM      9  C   UNL     1     162.531 179.201 181.837  1.00  0.00     0.000 C 
BRANCH   9  10
ATOM     10  C   UNL     1     164.019 178.843 181.681  1.00  0.00     0.000 C 
BRANCH  10  11
ATOM     11  C   UNL     1     164.257 177.326 181.620  1.00  0.00     0.000 C 
BRANCH  11  12
ATOM     12  C   UNL     1     165.187 176.921 180.463  1.00  0.00     0.002 C 
BRANCH  12  13
ATOM     13  C   UNL     1     166.491 177.737 180.430  1.00  0.00     0.028 C 
BRANCH  13  14
ATOM     14  C   UNL     1     166.769 178.388 179.070  1.00  0.00     0.156 C 
BRANCH  14  15
ATOM     15  O   UNL     1     167.716 179.411 179.205  1.00  0.00    -0.396 OA
ATOM     16  H   UNL     1     167.953 179.441 180.168  1.00  0.00     0.210 HD
ENDBRANCH  14  15
ENDBRANCH  13  14
ENDBRANCH  12  13
ENDBRANCH  11  12
ENDBRANCH  10  11
ENDBRANCH   9  10
ENDBRANCH   1   9
TORSDOF 13
ENDMDL
MODEL 7
REMARK VINA RESULT:    -3.661      2.738      5.670
REMARK INTER + INTRA:          -8.162
REMARK INTER:                  -6.810
REMARK INTRA:                  -1.352
REMARK UNBOUND:                -1.826
REMARK SMILES CCCCCCCCCCCCCCO
REMARK SMILES IDX 8 1 7 2 6 3 5 4 4 5 3 6 2 7 1 8 9 9 10 10 11 11 12 12 13 13
REMARK SMILES IDX 14 14 15 15
REMARK H PARENT 15 16
REMARK Flexibility Score: inf
ROOT
ATOM      1  C   UNL     1     161.393 179.009 178.655  1.00  0.00     0.000 C 
ENDROOT
BRANCH   1   2
ATOM      2  C   UNL     1     162.366 177.893 178.249  1.00  0.00    -0.000 C 
BRANCH   2   3
ATOM      3  C   UNL     1     161.762 176.510 178.525  1.00  0.00    -0.000 C 
BRANCH   3   4
ATOM      4  C   UNL     1     162.181 175.993 179.908  1.00  0.00    -0.000 C 
BRANCH   4   5
ATOM      5  C   UNL     1     161.081 176.176 180.966  1.00  0.00    -0.000 C 
BRANCH   5   6
ATOM      6  C   UNL     1     160.607 174.840 181.564  1.00  0.00    -0.000 C 
BRANCH   6   7
ATOM      7  C   UNL     1     161.671 173.737 181.459  1.00  0.00    -0.003 C 
ATOM      8  C   UNL     1     161.067 172.333 181.454  1.00  0.00     0.004 C 
ENDBRANCH   6   7
ENDBRANCH   5   6
ENDBRANCH   4   5
ENDBRANCH   3   4
ENDBRANCH   2   3
ENDBRANCH   1   2
BRANCH   1   9
ATOM      9  C   UNL     1     162.058 180.083 179.531  1.00  0.00     0.000 C 
BRANCH   9  10
ATOM     10  C   UNL     1     162.105 179.688 181.018  1.00  0.00     0.000 C 
BRANCH  10  11
ATOM     11  C   UNL     1     163.490 179.180 181.448  1.00  0.00     0.000 C 
BRANCH  11  12
ATOM     12  C   UNL     1     164.619 179.711 180.547  1.00  0.00     0.002 C 
BRANCH  12  13
ATOM     13  C   UNL     1     165.598 178.611 180.103  1.00  0.00     0.028 C 
BRANCH  13  14
ATOM     14  C   UNL     1     167.065 178.945 180.397  1.00  0.00     0.156 C 
BRANCH  14  15
ATOM     15  O   UNL     1     167.729 179.305 179.217  1.00  0.00    -0.396 OA
ATOM     16  H   UNL     1     168.306 178.534 178.980  1.00  0.00     0.210 HD
ENDBRANCH  14  15
ENDBRANCH  13  14
ENDBRANCH  12  13
ENDBRANCH  11  12
ENDBRANCH  10  11
ENDBRANCH   9  10
ENDBRANCH   1   9
TORSDOF 13
ENDMDL
MODEL 8
REMARK VINA RESULT:    -3.604      2.618      5.572
REMARK INTER + INTRA:          -8.064
REMARK INTER:                  -6.318
REMARK INTRA:                  -1.746
REMARK UNBOUND:                -1.826
REMARK SMILES CCCCCCCCCCCCCCO
REMARK SMILES IDX 8 1 7 2 6 3 5 4 4 5 3 6 2 7 1 8 9 9 10 10 11 11 12 12 13 13
REMARK SMILES IDX 14 14 15 15
REMARK H PARENT 15 16
REMARK Flexibility Score: inf
ROOT
ATOM      1  C   UNL     1     161.868 176.979 179.760  1.00  0.00     0.000 C 
ENDROOT
BRANCH   1   2
ATOM      2  C   UNL     1     161.241 175.578 179.743  1.00  0.00    -0.000 C 
BRANCH   2   3
ATOM      3  C   UNL     1     160.665 175.216 181.118  1.00  0.00    -0.000 C 
BRANCH   3   4
ATOM      4  C   UNL     1     161.158 173.835 181.574  1.00  0.00    -0.000 C 
BRANCH   4   5
ATOM      5  C   UNL     1     162.598 173.542 181.123  1.00  0.00    -0.000 C 
BRANCH   5   6
ATOM      6  C   UNL     1     163.640 173.924 182.188  1.00  0.00    -0.000 C 
BRANCH   6   7
ATOM      7  C   UNL     1     164.344 175.252 181.873  1.00  0.00    -0.003 C 
ATOM      8  C   UNL     1     165.052 175.239 180.518  1.00  0.00     0.004 C 
ENDBRANCH   6   7
ENDBRANCH   5   6
ENDBRANCH   4   5
ENDBRANCH   3   4
ENDBRANCH   2   3
ENDBRANCH   1   2
BRANCH   1   9
ATOM      9  C   UNL     1     161.783 177.647 181.141  1.00  0.00     0.000 C 
BRANCH   9  10
ATOM     10  C   UNL     1     162.417 179.049 181.161  1.00  0.00     0.000 C 
BRANCH  10  11
ATOM     11  C   UNL     1     163.920 179.012 181.477  1.00  0.00     0.000 C 
BRANCH  11  12
ATOM     12  C   UNL     1     164.766 179.727 180.409  1.00  0.00     0.002 C 
BRANCH  12  13
ATOM     13  C   UNL     1     165.522 178.750 179.492  1.00  0.00     0.028 C 
BRANCH  13  14
ATOM     14  C   UNL     1     164.811 178.490 178.159  1.00  0.00     0.156 C 
BRANCH  14  15
ATOM     15  O   UNL     1     164.737 179.670 177.408  1.00  0.00    -0.396 OA
ATOM     16  H   UNL     1     164.966 180.408 178.032  1.00  0.00     0.210 HD
ENDBRANCH  14  15
ENDBRANCH  13  14
ENDBRANCH  12  13
ENDBRANCH  11  12
ENDBRANCH  10  11
ENDBRANCH   9  10
ENDBRANCH   1   9
TORSDOF 13
ENDMDL
MODEL 9
REMARK VINA RESULT:    -3.574     10.530     12.760
REMARK INTER + INTRA:          -8.012
REMARK INTER:                  -6.185
REMARK INTRA:                  -1.827
REMARK UNBOUND:                -1.826
REMARK SMILES CCCCCCCCCCCCCCO
REMARK SMILES IDX 8 1 7 2 6 3 5 4 4 5 3 6 2 7 1 8 9 9 10 10 11 11 12 12 13 13
REMARK SMILES IDX 14 14 15 15
REMARK H PARENT 15 16
REMARK Flexibility Score: inf
ROOT
ATOM      1  C   UNL     1     176.066 176.550 180.426  1.00  0.00     0.000 C 
ENDROOT
BRANCH   1   2
ATOM      2  C   UNL     1     177.330 177.403 180.607  1.00  0.00    -0.000 C 
BRANCH   2   3
ATOM      3  C   UNL     1     177.064 178.590 181.542  1.00  0.00    -0.000 C 
BRANCH   3   4
ATOM      4  C   UNL     1     177.145 179.920 180.779  1.00  0.00    -0.000 C 
BRANCH   4   5
ATOM      5  C   UNL     1     177.232 179.724 179.256  1.00  0.00    -0.000 C 
BRANCH   5   6
ATOM      6  C   UNL     1     175.935 180.125 178.533  1.00  0.00    -0.000 C 
BRANCH   6   7
ATOM      7  C   UNL     1     175.413 179.018 177.604  1.00  0.00    -0.003 C 
ATOM      8  C   UNL     1     174.035 179.335 177.024  1.00  0.00     0.004 C 
ENDBRANCH   6   7
ENDBRANCH   5   6
ENDBRANCH   4   5
ENDBRANCH   3   4
ENDBRANCH   2   3
ENDBRANCH   1   2
BRANCH   1   9
ATOM      9  C   UNL     1     174.924 176.981 181.359  1.00  0.00     0.000 C 
BRANCH   9  10
ATOM     10  C   UNL     1     173.773 177.672 180.607  1.00  0.00     0.000 C 
BRANCH  10  11
ATOM     11  C   UNL     1     173.494 179.089 181.132  1.00  0.00     0.000 C 
BRANCH  11  12
ATOM     12  C   UNL     1     172.205 179.691 180.545  1.00  0.00     0.002 C 
BRANCH  12  13
ATOM     13  C   UNL     1     171.020 178.710 180.570  1.00  0.00     0.028 C 
BRANCH  13  14
ATOM     14  C   UNL     1     170.277 178.686 181.911  1.00  0.00     0.156 C 
BRANCH  14  15
ATOM     15  O   UNL     1     170.564 177.504 182.605  1.00  0.00    -0.396 OA
ATOM     16  H   UNL     1     171.496 177.597 182.934  1.00  0.00     0.210 HD
ENDBRANCH  14  15
ENDBRANCH  13  14
ENDBRANCH  12  13
ENDBRANCH  11  12
ENDBRANCH  10  11
ENDBRANCH   9  10
ENDBRANCH   1   9
TORSDOF 13
ENDMDL
