MODEL 1
REMARK VINA RESULT:    -4.462      0.000      0.000
REMARK INTER + INTRA:          -8.602
REMARK INTER:                  -7.070
REMARK INTRA:                  -1.532
REMARK UNBOUND:                -1.532
REMARK SMILES CCCCCCCCCCCC(=O)[O-]
REMARK SMILES IDX 7 1 8 2 9 3 10 4 11 5 12 6 13 7 14 8 6 9 5 10 4 11 3 12 2 13
REMARK SMILES IDX 1 14
REMARK H PARENT
REMARK Flexibility Score: inf
ROOT
ATOM      1  C   UNL     1      62.851  28.972  13.228  1.00  0.00     0.000 C 
ENDROOT
BRANCH   1   2
ATOM      2  C   UNL     1      61.343  29.110  13.492  1.00  0.00     0.000 C 
BRANCH   2   3
ATOM      3  C   UNL     1      60.501  28.940  12.215  1.00  0.00     0.000 C 
BRANCH   3   4
ATOM      4  C   UNL     1      60.453  30.219  11.365  1.00  0.00     0.006 C 
BRANCH   4   5
ATOM      5  C   UNL     1      60.432  29.925   9.859  1.00  0.00     0.053 C 
BRANCH   5   6
ATOM      6  C   UNL     1      61.458  28.893   9.515  1.00  0.00     0.041 C 
ATOM      7  O   UNL     1      61.104  27.778   9.050  1.00  0.00    -0.550 OA
ATOM      8  O   UNL     1      62.804  29.144   9.753  1.00  0.00    -0.550 OA
ENDBRANCH   5   6
ENDBRANCH   4   5
ENDBRANCH   3   4
ENDBRANCH   2   3
ENDBRANCH   1   2
BRANCH   1   9
ATOM      9  C   UNL     1      63.646  30.205  13.686  1.00  0.00     0.000 C 
BRANCH   9  10
ATOM     10  C   UNL     1      64.069  31.060  12.482  1.00  0.00    -0.000 C 
BRANCH  10  11
ATOM     11  C   UNL     1      63.324  32.403  12.415  1.00  0.00    -0.000 C 
BRANCH  11  12
ATOM     12  C   UNL     1      62.593  32.738  13.728  1.00  0.00    -0.000 C 
BRANCH  12  13
ATOM     13  C   UNL     1      61.128  33.145  13.498  1.00  0.00    -0.003 C 
ATOM     14  C   UNL     1      60.161  32.435  14.445  1.00  0.00     0.004 C 
ENDBRANCH  12  13
ENDBRANCH  11  12
ENDBRANCH  10  11
ENDBRANCH   9  10
ENDBRANCH   1   9
TORSDOF 10
ENDMDL
MODEL 2
REMARK VINA RESULT:    -4.371     13.373     14.851
REMARK INTER + INTRA:          -8.459
REMARK INTER:                  -6.946
REMARK INTRA:                  -1.513
REMARK UNBOUND:                -1.532
REMARK SMILES CCCCCCCCCCCC(=O)[O-]
REMARK SMILES IDX 7 1 8 2 9 3 10 4 11 5 12 6 13 7 14 8 6 9 5 10 4 11 3 12 2 13
REMARK SMILES IDX 1 14
REMARK H PARENT
REMARK Flexibility Score: inf
ROOT
ATOM      1  C   UNL     1      63.764  29.982  25.015  1.00  0.00     0.000 C 
ENDROOT
BRANCH   1   2
ATOM      2  C   UNL     1      62.252  29.718  25.076  1.00  0.00     0.000 C 
BRANCH   2   3
ATOM      3  C   UNL     1      61.885  28.278  24.677  1.00  0.00     0.000 C 
BRANCH   3   4
ATOM      4  C   UNL     1      61.034  27.568  25.741  1.00  0.00     0.006 C 
BRANCH   4   5
ATOM      5  C   UNL     1      61.854  27.143  26.966  1.00  0.00     0.053 C 
BRANCH   5   6
ATOM      6  C   UNL     1      61.326  27.800  28.201  1.00  0.00     0.041 C 
ATOM      7  O   UNL     1      61.617  28.998  28.455  1.00  0.00    -0.550 OA
ATOM      8  O   UNL     1      60.550  27.075  29.096  1.00  0.00    -0.550 OA
ENDBRANCH   5   6
ENDBRANCH   4   5
ENDBRANCH   3   4
ENDBRANCH   2   3
ENDBRANCH   1   2
BRANCH   1   9
ATOM      9  C   UNL     1      64.479  29.629  26.329  1.00  0.00     0.000 C 
BRANCH   9  10
ATOM     10  C   UNL     1      65.872  29.042  26.053  1.00  0.00    -0.000 C 
BRANCH  10  11
ATOM     11  C   UNL     1      65.858  27.969  24.952  1.00  0.00    -0.000 C 
BRANCH  11  12
ATOM     12  C   UNL     1      65.199  26.657  25.415  1.00  0.00    -0.000 C 
BRANCH  12  13
ATOM     13  C   UNL     1      64.522  25.900  24.262  1.00  0.00    -0.003 C 
ATOM     14  C   UNL     1      64.899  26.452  22.888  1.00  0.00     0.004 C 
ENDBRANCH  12  13
ENDBRANCH  11  12
ENDBRANCH  10  11
ENDBRANCH   9  10
ENDBRANCH   1   9
TORSDOF 10
ENDMDL
MODEL 3
REMARK VINA RESULT:    -4.338      2.695      4.934
REMARK INTER + INTRA:          -8.406
REMARK INTER:                  -6.876
REMARK INTRA:                  -1.530
REMARK UNBOUND:                -1.532
REMARK SMILES CCCCCCCCCCCC(=O)[O-]
REMARK SMILES IDX 7 1 8 2 9 3 10 4 11 5 12 6 13 7 14 8 6 9 5 10 4 11 3 12 2 13
REMARK SMILES IDX 1 14
REMARK H PARENT
REMARK Flexibility Score: inf
ROOT
ATOM      1  C   UNL     1      63.260  29.825  13.774  1.00  0.00     0.000 C 
ENDROOT
BRANCH   1   2
ATOM      2  C   UNL     1      64.057  30.502  12.649  1.00  0.00     0.000 C 
BRANCH   2   3
ATOM      3  C   UNL     1      63.323  31.715  12.051  1.00  0.00     0.000 C 
BRANCH   3   4
ATOM      4  C   UNL     1      62.677  32.604  13.125  1.00  0.00     0.006 C 
BRANCH   4   5
ATOM      5  C   UNL     1      61.161  32.746  12.939  1.00  0.00     0.053 C 
BRANCH   5   6
ATOM      6  C   UNL     1      60.477  32.812  14.268  1.00  0.00     0.041 C 
ATOM      7  O   UNL     1      59.516  32.041  14.524  1.00  0.00    -0.550 OA
ATOM      8  O   UNL     1      60.870  33.759  15.205  1.00  0.00    -0.550 OA
ENDBRANCH   5   6
ENDBRANCH   4   5
ENDBRANCH   3   4
ENDBRANCH   2   3
ENDBRANCH   1   2
BRANCH   1   9
ATOM      9  C   UNL     1      62.380  28.672  13.266  1.00  0.00     0.000 C 
BRANCH   9  10
ATOM     10  C   UNL     1      60.893  28.963  13.524  1.00  0.00    -0.000 C 
BRANCH  10  11
ATOM     11  C   UNL     1      60.011  28.685  12.297  1.00  0.00    -0.000 C 
BRANCH  11  12
ATOM     12  C   UNL     1      60.348  29.602  11.108  1.00  0.00    -0.000 C 
BRANCH  12  13
ATOM     13  C   UNL     1      60.844  28.817   9.882  1.00  0.00    -0.003 C 
ATOM     14  C   UNL     1      62.331  29.033   9.602  1.00  0.00     0.004 C 
ENDBRANCH  12  13
ENDBRANCH  11  12
ENDBRANCH  10  11
ENDBRANCH   9  10
ENDBRANCH   1   9
TORSDOF 10
ENDMDL
MODEL 4
REMARK VINA RESULT:    -4.317      2.807      4.900
REMARK INTER + INTRA:          -8.373
REMARK INTER:                  -6.975
REMARK INTRA:                  -1.398
REMARK UNBOUND:                -1.532
REMARK SMILES CCCCCCCCCCCC(=O)[O-]
REMARK SMILES IDX 7 1 8 2 9 3 10 4 11 5 12 6 13 7 14 8 6 9 5 10 4 11 3 12 2 13
REMARK SMILES IDX 1 14
REMARK H PARENT
REMARK Flexibility Score: inf
ROOT
ATOM      1  C   UNL     1      64.215  30.721  10.202  1.00  0.00     0.000 C 
ENDROOT
BRANCH   1   2
ATOM      2  C   UNL     1      64.252  30.975  11.717  1.00  0.00     0.000 C 
BRANCH   2   3
ATOM      3  C   UNL     1      63.761  32.384  12.094  1.00  0.00     0.000 C 
BRANCH   3   4
ATOM      4  C   UNL     1      62.855  32.381  13.335  1.00  0.00     0.006 C 
BRANCH   4   5
ATOM      5  C   UNL     1      61.398  32.728  13.003  1.00  0.00     0.053 C 
BRANCH   5   6
ATOM      6  C   UNL     1      60.583  32.810  14.255  1.00  0.00     0.041 C 
ATOM      7  O   UNL     1      59.587  32.056  14.413  1.00  0.00    -0.550 OA
ATOM      8  O   UNL     1      60.895  33.752  15.227  1.00  0.00    -0.550 OA
ENDBRANCH   5   6
ENDBRANCH   4   5
ENDBRANCH   3   4
ENDBRANCH   2   3
ENDBRANCH   1   2
BRANCH   1   9
ATOM      9  C   UNL     1      63.692  29.320   9.850  1.00  0.00     0.000 C 
BRANCH   9  10
ATOM     10  C   UNL     1      62.249  29.390   9.326  1.00  0.00    -0.000 C 
BRANCH  10  11
ATOM     11  C   UNL     1      61.245  28.680  10.248  1.00  0.00    -0.000 C 
BRANCH  11  12
ATOM     12  C   UNL     1      60.532  29.652  11.204  1.00  0.00    -0.000 C 
BRANCH  12  13
ATOM     13  C   UNL     1      60.330  29.055  12.607  1.00  0.00    -0.003 C 
ATOM     14  C   UNL     1      61.642  28.883  13.372  1.00  0.00     0.004 C 
ENDBRANCH  12  13
ENDBRANCH  11  12
ENDBRANCH  10  11
ENDBRANCH   9  10
ENDBRANCH   1   9
TORSDOF 10
ENDMDL
MODEL 5
REMARK VINA RESULT:    -4.311     12.861     14.275
REMARK INTER + INTRA:          -8.363
REMARK INTER:                  -6.787
REMARK INTRA:                  -1.576
REMARK UNBOUND:                -1.532
REMARK SMILES CCCCCCCCCCCC(=O)[O-]
REMARK SMILES IDX 7 1 8 2 9 3 10 4 11 5 12 6 13 7 14 8 6 9 5 10 4 11 3 12 2 13
REMARK SMILES IDX 1 14
REMARK H PARENT
REMARK Flexibility Score: inf
ROOT
ATOM      1  C   UNL     1      63.746  29.949  24.827  1.00  0.00     0.000 C 
ENDROOT
BRANCH   1   2
ATOM      2  C   UNL     1      64.529  30.006  26.148  1.00  0.00     0.000 C 
BRANCH   2   3
ATOM      3  C   UNL     1      65.619  28.924  26.238  1.00  0.00     0.000 C 
BRANCH   3   4
ATOM      4  C   UNL     1      65.685  28.044  24.980  1.00  0.00     0.006 C 
BRANCH   4   5
ATOM      5  C   UNL     1      65.276  26.591  25.254  1.00  0.00     0.053 C 
BRANCH   5   6
ATOM      6  C   UNL     1      64.899  25.906  23.979  1.00  0.00     0.041 C 
ATOM      7  O   UNL     1      63.734  25.452  23.825  1.00  0.00    -0.550 OA
ATOM      8  O   UNL     1      65.846  25.727  22.979  1.00  0.00    -0.550 OA
ENDBRANCH   5   6
ENDBRANCH   4   5
ENDBRANCH   3   4
ENDBRANCH   2   3
ENDBRANCH   1   2
BRANCH   1   9
ATOM      9  C   UNL     1      62.234  29.783  25.042  1.00  0.00     0.000 C 
BRANCH   9  10
ATOM     10  C   UNL     1      61.799  28.333  24.780  1.00  0.00    -0.000 C 
BRANCH  10  11
ATOM     11  C   UNL     1      61.171  27.668  26.015  1.00  0.00    -0.000 C 
BRANCH  11  12
ATOM     12  C   UNL     1      62.215  26.969  26.904  1.00  0.00    -0.000 C 
BRANCH  12  13
ATOM     13  C   UNL     1      62.346  27.627  28.287  1.00  0.00    -0.003 C 
ATOM     14  C   UNL     1      61.337  28.754  28.504  1.00  0.00     0.004 C 
ENDBRANCH  12  13
ENDBRANCH  11  12
ENDBRANCH  10  11
ENDBRANCH   9  10
ENDBRANCH   1   9
TORSDOF 10
ENDMDL
MODEL 6
REMARK VINA RESULT:    -4.283     12.930     14.393
REMARK INTER + INTRA:          -8.319
REMARK INTER:                  -6.776
REMARK INTRA:                  -1.543
REMARK UNBOUND:                -1.532
REMARK SMILES CCCCCCCCCCCC(=O)[O-]
REMARK SMILES IDX 7 1 8 2 9 3 10 4 11 5 12 6 13 7 14 8 6 9 5 10 4 11 3 12 2 13
REMARK SMILES IDX 1 14
REMARK H PARENT
REMARK Flexibility Score: inf
ROOT
ATOM      1  C   UNL     1      63.928  30.233  26.613  1.00  0.00     0.000 C 
ENDROOT
BRANCH   1   2
ATOM      2  C   UNL     1      65.111  29.264  26.468  1.00  0.00     0.000 C 
BRANCH   2   3
ATOM      3  C   UNL     1      64.945  28.299  25.281  1.00  0.00     0.000 C 
BRANCH   3   4
ATOM      4  C   UNL     1      64.810  26.834  25.724  1.00  0.00     0.006 C 
BRANCH   4   5
ATOM      5  C   UNL     1      64.082  25.969  24.687  1.00  0.00     0.053 C 
BRANCH   5   6
ATOM      6  C   UNL     1      64.723  26.116  23.343  1.00  0.00     0.041 C 
ATOM      7  O   UNL     1      65.888  25.682  23.147  1.00  0.00    -0.550 OA
ATOM      8  O   UNL     1      64.051  26.775  22.321  1.00  0.00    -0.550 OA
ENDBRANCH   5   6
ENDBRANCH   4   5
ENDBRANCH   3   4
ENDBRANCH   2   3
ENDBRANCH   1   2
BRANCH   1   9
ATOM      9  C   UNL     1      63.390  30.298  28.051  1.00  0.00     0.000 C 
BRANCH   9  10
ATOM     10  C   UNL     1      62.855  28.929  28.498  1.00  0.00    -0.000 C 
BRANCH  10  11
ATOM     11  C   UNL     1      61.482  28.599  27.890  1.00  0.00    -0.000 C 
BRANCH  11  12
ATOM     12  C   UNL     1      61.441  27.202  27.248  1.00  0.00    -0.000 C 
BRANCH  12  13
ATOM     13  C   UNL     1      60.730  27.202  25.884  1.00  0.00    -0.003 C 
ATOM     14  C   UNL     1      61.226  28.312  24.958  1.00  0.00     0.004 C 
ENDBRANCH  12  13
ENDBRANCH  11  12
ENDBRANCH  10  11
ENDBRANCH   9  10
ENDBRANCH   1   9
TORSDOF 10
ENDMDL
MODEL 7
REMARK VINA RESULT:    -4.254     13.197     14.684
REMARK INTER + INTRA:          -8.273
REMARK INTER:                  -6.932
REMARK INTRA:                  -1.341
REMARK UNBOUND:                -1.532
REMARK SMILES CCCCCCCCCCCC(=O)[O-]
REMARK SMILES IDX 7 1 8 2 9 3 10 4 11 5 12 6 13 7 14 8 6 9 5 10 4 11 3 12 2 13
REMARK SMILES IDX 1 14
REMARK H PARENT
REMARK Flexibility Score: inf
ROOT
ATOM      1  C   UNL     1      63.499  30.185  26.352  1.00  0.00     0.000 C 
ENDROOT
BRANCH   1   2
ATOM      2  C   UNL     1      63.579  29.997  27.875  1.00  0.00     0.000 C 
BRANCH   2   3
ATOM      3  C   UNL     1      62.847  28.731  28.356  1.00  0.00     0.000 C 
BRANCH   3   4
ATOM      4  C   UNL     1      61.485  28.540  27.670  1.00  0.00     0.006 C 
BRANCH   4   5
ATOM      5  C   UNL     1      61.348  27.163  27.007  1.00  0.00     0.053 C 
BRANCH   5   6
ATOM      6  C   UNL     1      60.677  27.290  25.676  1.00  0.00     0.041 C 
ATOM      7  O   UNL     1      61.101  28.122  24.831  1.00  0.00    -0.550 OA
ATOM      8  O   UNL     1      59.555  26.525  25.387  1.00  0.00    -0.550 OA
ENDBRANCH   5   6
ENDBRANCH   4   5
ENDBRANCH   3   4
ENDBRANCH   2   3
ENDBRANCH   1   2
BRANCH   1   9
ATOM      9  C   UNL     1      64.883  30.209  25.686  1.00  0.00     0.000 C 
BRANCH   9  10
ATOM     10  C   UNL     1      65.724  29.001  26.128  1.00  0.00    -0.000 C 
BRANCH  10  11
ATOM     11  C   UNL     1      65.666  27.836  25.126  1.00  0.00    -0.000 C 
BRANCH  11  12
ATOM     12  C   UNL     1      64.856  26.641  25.659  1.00  0.00    -0.000 C 
BRANCH  12  13
ATOM     13  C   UNL     1      64.008  25.971  24.565  1.00  0.00    -0.003 C 
ATOM     14  C   UNL     1      64.028  26.741  23.245  1.00  0.00     0.004 C 
ENDBRANCH  12  13
ENDBRANCH  11  12
ENDBRANCH  10  11
ENDBRANCH   9  10
ENDBRANCH   1   9
TORSDOF 10
ENDMDL
MODEL 8
REMARK VINA RESULT:    -4.081      1.941      2.958
REMARK INTER + INTRA:          -7.999
REMARK INTER:                  -6.783
REMARK INTRA:                  -1.216
REMARK UNBOUND:                -1.532
REMARK SMILES CCCCCCCCCCCC(=O)[O-]
REMARK SMILES IDX 7 1 8 2 9 3 10 4 11 5 12 6 13 7 14 8 6 9 5 10 4 11 3 12 2 13
REMARK SMILES IDX 1 14
REMARK H PARENT
REMARK Flexibility Score: inf
ROOT
ATOM      1  C   UNL     1      64.497  30.603  10.155  1.00  0.00     0.000 C 
ENDROOT
BRANCH   1   2
ATOM      2  C   UNL     1      63.786  29.366   9.585  1.00  0.00     0.000 C 
BRANCH   2   3
ATOM      3  C   UNL     1      62.266  29.567   9.447  1.00  0.00     0.000 C 
BRANCH   3   4
ATOM      4  C   UNL     1      61.461  28.633  10.363  1.00  0.00     0.006 C 
BRANCH   4   5
ATOM      5  C   UNL     1      60.616  29.398  11.390  1.00  0.00     0.053 C 
BRANCH   5   6
ATOM      6  C   UNL     1      60.619  28.684  12.704  1.00  0.00     0.041 C 
ATOM      7  O   UNL     1      61.630  28.740  13.453  1.00  0.00    -0.550 OA
ATOM      8  O   UNL     1      59.524  27.917  13.081  1.00  0.00    -0.550 OA
ENDBRANCH   5   6
ENDBRANCH   4   5
ENDBRANCH   3   4
ENDBRANCH   2   3
ENDBRANCH   1   2
BRANCH   1   9
ATOM      9  C   UNL     1      64.282  30.763  11.669  1.00  0.00     0.000 C 
BRANCH   9  10
ATOM     10  C   UNL     1      63.628  32.116  11.988  1.00  0.00    -0.000 C 
BRANCH  10  11
ATOM     11  C   UNL     1      62.703  32.054  13.215  1.00  0.00    -0.000 C 
BRANCH  11  12
ATOM     12  C   UNL     1      61.322  32.677  12.944  1.00  0.00    -0.000 C 
BRANCH  12  13
ATOM     13  C   UNL     1      60.266  32.234  13.969  1.00  0.00    -0.003 C 
ATOM     14  C   UNL     1      60.878  31.798  15.300  1.00  0.00     0.004 C 
ENDBRANCH  12  13
ENDBRANCH  11  12
ENDBRANCH  10  11
ENDBRANCH   9  10
ENDBRANCH   1   9
TORSDOF 10
ENDMDL
MODEL 9
REMARK VINA RESULT:    -4.001      1.727      2.775
REMARK INTER + INTRA:          -7.872
REMARK INTER:                  -6.559
REMARK INTRA:                  -1.313
REMARK UNBOUND:                -1.532
REMARK SMILES CCCCCCCCCCCC(=O)[O-]
REMARK SMILES IDX 7 1 8 2 9 3 10 4 11 5 12 6 13 7 14 8 6 9 5 10 4 11 3 12 2 13
REMARK SMILES IDX 1 14
REMARK H PARENT
REMARK Flexibility Score: inf
ROOT
ATOM      1  C   UNL     1      63.808  31.011  11.781  1.00  0.00     0.000 C 
ENDROOT
BRANCH   1   2
ATOM      2  C   UNL     1      64.033  30.743  10.285  1.00  0.00     0.000 C 
BRANCH   2   3
ATOM      3  C   UNL     1      63.580  29.335   9.861  1.00  0.00     0.000 C 
BRANCH   3   4
ATOM      4  C   UNL     1      62.144  29.316   9.313  1.00  0.00     0.006 C 
BRANCH   4   5
ATOM      5  C   UNL     1      61.209  28.426  10.142  1.00  0.00     0.053 C 
BRANCH   5   6
ATOM      6  C   UNL     1      60.411  29.255  11.098  1.00  0.00     0.041 C 
ATOM      7  O   UNL     1      60.394  30.509  10.985  1.00  0.00    -0.550 OA
ATOM      8  O   UNL     1      59.726  28.647  12.142  1.00  0.00    -0.550 OA
ENDBRANCH   5   6
ENDBRANCH   4   5
ENDBRANCH   3   4
ENDBRANCH   2   3
ENDBRANCH   1   2
BRANCH   1   9
ATOM      9  C   UNL     1      63.985  29.749  12.641  1.00  0.00     0.000 C 
BRANCH   9  10
ATOM     10  C   UNL     1      62.887  29.660  13.713  1.00  0.00    -0.000 C 
BRANCH  10  11
ATOM     11  C   UNL     1      62.573  31.021  14.357  1.00  0.00    -0.000 C 
BRANCH  11  12
ATOM     12  C   UNL     1      61.149  31.085  14.936  1.00  0.00    -0.000 C 
BRANCH  12  13
ATOM     13  C   UNL     1      60.252  32.081  14.183  1.00  0.00    -0.003 C 
ATOM     14  C   UNL     1      61.049  33.074  13.338  1.00  0.00     0.004 C 
ENDBRANCH  12  13
ENDBRANCH  11  12
ENDBRANCH  10  11
ENDBRANCH   9  10
ENDBRANCH   1   9
TORSDOF 10
ENDMDL
