MODEL 1
REMARK VINA RESULT:    -4.771      0.000      0.000
REMARK INTER + INTRA:          -7.426
REMARK INTER:                  -5.886
REMARK INTRA:                  -1.540
REMARK UNBOUND:                -1.540
REMARK SMILES CC(C)=CCC[C@@H](C)c1ccc(C)cc1
REMARK SMILES IDX 6 1 7 2 8 3 9 4 13 5 12 6 11 7 14 8 10 9 15 10 5 11 4 12
REMARK SMILES IDX 2 13 1 14 3 15
REMARK H PARENT
REMARK Flexibility Score: inf
ROOT
ATOM      1  C   UNL     1     176.790 174.653 181.991  1.00  0.00     0.012 C 
ENDROOT
BRANCH   1   2
ATOM      2  C   UNL     1     176.222 175.664 183.013  1.00  0.00     0.016 C 
ATOM      3  C   UNL     1     176.884 177.046 182.892  1.00  0.00     0.013 C 
BRANCH   2   4
ATOM      4  C   UNL     1     174.717 175.787 182.855  1.00  0.00    -0.045 A 
ATOM      5  C   UNL     1     170.434 176.173 182.448  1.00  0.00     0.044 C 
ATOM      6  C   UNL     1     171.923 176.036 182.559  1.00  0.00    -0.051 A 
ATOM      7  C   UNL     1     172.742 177.174 182.544  1.00  0.00     0.004 A 
ATOM      8  C   UNL     1     172.504 174.775 182.749  1.00  0.00     0.004 A 
ATOM      9  C   UNL     1     174.126 177.051 182.684  1.00  0.00     0.004 A 
ATOM     10  C   UNL     1     173.889 174.648 182.890  1.00  0.00     0.004 A 
ENDBRANCH   2   4
ENDBRANCH   1   2
BRANCH   1  11
ATOM     11  C   UNL     1     177.047 175.284 180.614  1.00  0.00     0.028 C 
BRANCH  11  12
ATOM     12  C   UNL     1     175.860 175.084 179.706  1.00  0.00    -0.028 C 
ATOM     13  C   UNL     1     175.126 176.086 179.174  1.00  0.00    -0.080 C 
ATOM     14  C   UNL     1     175.472 177.540 179.400  1.00  0.00     0.039 C 
ATOM     15  C   UNL     1     173.941 175.731 178.314  1.00  0.00     0.039 C 
ENDBRANCH  11  12
ENDBRANCH   1  11
TORSDOF 4
ENDMDL
MODEL 2
REMARK VINA RESULT:    -4.727      1.855      3.761
REMARK INTER + INTRA:          -7.372
REMARK INTER:                  -6.118
REMARK INTRA:                  -1.253
REMARK UNBOUND:                -1.540
REMARK SMILES CC(C)=CCC[C@@H](C)c1ccc(C)cc1
REMARK SMILES IDX 6 1 7 2 8 3 9 4 13 5 12 6 11 7 14 8 10 9 15 10 5 11 4 12
REMARK SMILES IDX 2 13 1 14 3 15
REMARK H PARENT
REMARK Flexibility Score: inf
ROOT
ATOM      1  C   UNL     1     177.032 177.102 182.686  1.00  0.00     0.012 C 
ENDROOT
BRANCH   1   2
ATOM      2  C   UNL     1     175.867 176.193 183.137  1.00  0.00     0.016 C 
ATOM      3  C   UNL     1     174.494 176.799 182.803  1.00  0.00     0.013 C 
BRANCH   2   4
ATOM      4  C   UNL     1     175.999 174.815 182.514  1.00  0.00    -0.045 A 
ATOM      5  C   UNL     1     176.406 170.916 180.700  1.00  0.00     0.044 C 
ATOM      6  C   UNL     1     176.265 172.257 181.357  1.00  0.00    -0.051 A 
ATOM      7  C   UNL     1     177.402 173.018 181.662  1.00  0.00     0.004 A 
ATOM      8  C   UNL     1     174.993 172.790 181.608  1.00  0.00     0.004 A 
ATOM      9  C   UNL     1     177.271 174.283 182.241  1.00  0.00     0.004 A 
ATOM     10  C   UNL     1     174.859 174.055 182.187  1.00  0.00     0.004 A 
ENDBRANCH   2   4
ENDBRANCH   1   2
BRANCH   1  11
ATOM     11  C   UNL     1     176.677 177.955 181.459  1.00  0.00     0.028 C 
BRANCH  11  12
ATOM     12  C   UNL     1     177.072 177.247 180.186  1.00  0.00    -0.028 C 
ATOM     13  C   UNL     1     176.214 176.926 179.192  1.00  0.00    -0.080 C 
ATOM     14  C   UNL     1     174.753 177.308 179.240  1.00  0.00     0.039 C 
ATOM     15  C   UNL     1     176.749 176.183 177.996  1.00  0.00     0.039 C 
ENDBRANCH  11  12
ENDBRANCH   1  11
TORSDOF 4
ENDMDL
MODEL 3
REMARK VINA RESULT:    -4.720      1.619      2.771
REMARK INTER + INTRA:          -7.363
REMARK INTER:                  -6.315
REMARK INTRA:                  -1.047
REMARK UNBOUND:                -1.540
REMARK SMILES CC(C)=CCC[C@@H](C)c1ccc(C)cc1
REMARK SMILES IDX 6 1 7 2 8 3 9 4 13 5 12 6 11 7 14 8 10 9 15 10 5 11 4 12
REMARK SMILES IDX 2 13 1 14 3 15
REMARK H PARENT
REMARK Flexibility Score: inf
ROOT
ATOM      1  C   UNL     1     175.684 174.478 183.014  1.00  0.00     0.012 C 
ENDROOT
BRANCH   1   2
ATOM      2  C   UNL     1     174.585 174.270 181.946  1.00  0.00     0.016 C 
ATOM      3  C   UNL     1     174.236 172.786 181.752  1.00  0.00     0.013 C 
BRANCH   2   4
ATOM      4  C   UNL     1     173.340 175.060 182.309  1.00  0.00    -0.045 A 
ATOM      5  C   UNL     1     169.767 177.273 183.308  1.00  0.00     0.044 C 
ATOM      6  C   UNL     1     171.017 176.508 182.989  1.00  0.00    -0.051 A 
ATOM      7  C   UNL     1     171.041 175.111 183.107  1.00  0.00     0.004 A 
ATOM      8  C   UNL     1     172.150 177.176 182.506  1.00  0.00     0.004 A 
ATOM      9  C   UNL     1     172.193 174.393 182.776  1.00  0.00     0.004 A 
ATOM     10  C   UNL     1     173.304 176.461 182.174  1.00  0.00     0.004 A 
ENDBRANCH   2   4
ENDBRANCH   1   2
BRANCH   1  11
ATOM     11  C   UNL     1     177.068 174.727 182.397  1.00  0.00     0.028 C 
BRANCH  11  12
ATOM     12  C   UNL     1     176.966 175.671 181.224  1.00  0.00    -0.028 C 
ATOM     13  C   UNL     1     177.004 177.019 181.321  1.00  0.00    -0.080 C 
ATOM     14  C   UNL     1     177.216 177.721 182.642  1.00  0.00     0.039 C 
ATOM     15  C   UNL     1     176.851 177.833 180.064  1.00  0.00     0.039 C 
ENDBRANCH  11  12
ENDBRANCH   1  11
TORSDOF 4
ENDMDL
MODEL 4
REMARK VINA RESULT:    -4.668      1.308      2.308
REMARK INTER + INTRA:          -7.299
REMARK INTER:                  -5.807
REMARK INTRA:                  -1.492
REMARK UNBOUND:                -1.540
REMARK SMILES CC(C)=CCC[C@@H](C)c1ccc(C)cc1
REMARK SMILES IDX 6 1 7 2 8 3 9 4 13 5 12 6 11 7 14 8 10 9 15 10 5 11 4 12
REMARK SMILES IDX 2 13 1 14 3 15
REMARK H PARENT
REMARK Flexibility Score: inf
ROOT
ATOM      1  C   UNL     1     176.957 177.765 180.522  1.00  0.00     0.012 C 
ENDROOT
BRANCH   1   2
ATOM      2  C   UNL     1     177.091 177.048 181.884  1.00  0.00     0.016 C 
ATOM      3  C   UNL     1     177.457 178.018 183.019  1.00  0.00     0.013 C 
BRANCH   2   4
ATOM      4  C   UNL     1     175.808 176.307 182.220  1.00  0.00    -0.045 A 
ATOM      5  C   UNL     1     172.172 174.164 183.138  1.00  0.00     0.044 C 
ATOM      6  C   UNL     1     173.438 174.914 182.849  1.00  0.00    -0.051 A 
ATOM      7  C   UNL     1     174.668 174.242 182.820  1.00  0.00     0.004 A 
ATOM      8  C   UNL     1     173.394 176.280 182.536  1.00  0.00     0.004 A 
ATOM      9  C   UNL     1     175.844 174.933 182.515  1.00  0.00     0.004 A 
ATOM     10  C   UNL     1     174.568 176.974 182.231  1.00  0.00     0.004 A 
ENDBRANCH   2   4
ENDBRANCH   1   2
BRANCH   1  11
ATOM     11  C   UNL     1     176.697 176.791 179.363  1.00  0.00     0.028 C 
BRANCH  11  12
ATOM     12  C   UNL     1     175.355 177.063 178.729  1.00  0.00    -0.028 C 
ATOM     13  C   UNL     1     174.386 176.136 178.561  1.00  0.00    -0.080 C 
ATOM     14  C   UNL     1     174.539 174.718 179.058  1.00  0.00     0.039 C 
ATOM     15  C   UNL     1     173.110 176.548 177.874  1.00  0.00     0.039 C 
ENDBRANCH  11  12
ENDBRANCH   1  11
TORSDOF 4
ENDMDL
MODEL 5
REMARK VINA RESULT:    -4.598      0.984      4.081
REMARK INTER + INTRA:          -7.213
REMARK INTER:                  -5.636
REMARK INTRA:                  -1.577
REMARK UNBOUND:                -1.540
REMARK SMILES CC(C)=CCC[C@@H](C)c1ccc(C)cc1
REMARK SMILES IDX 6 1 7 2 8 3 9 4 13 5 12 6 11 7 14 8 10 9 15 10 5 11 4 12
REMARK SMILES IDX 2 13 1 14 3 15
REMARK H PARENT
REMARK Flexibility Score: inf
ROOT
ATOM      1  C   UNL     1     176.772 177.018 182.055  1.00  0.00     0.012 C 
ENDROOT
BRANCH   1   2
ATOM      2  C   UNL     1     177.075 176.041 180.896  1.00  0.00     0.016 C 
ATOM      3  C   UNL     1     177.170 174.583 181.374  1.00  0.00     0.013 C 
BRANCH   2   4
ATOM      4  C   UNL     1     176.023 176.170 179.808  1.00  0.00    -0.045 A 
ATOM      5  C   UNL     1     172.999 176.561 176.748  1.00  0.00     0.044 C 
ATOM      6  C   UNL     1     174.070 176.429 177.790  1.00  0.00    -0.051 A 
ATOM      7  C   UNL     1     174.496 177.553 178.512  1.00  0.00     0.004 A 
ATOM      8  C   UNL     1     174.606 175.171 178.098  1.00  0.00     0.004 A 
ATOM      9  C   UNL     1     175.468 177.426 179.508  1.00  0.00     0.004 A 
ATOM     10  C   UNL     1     175.578 175.041 179.093  1.00  0.00     0.004 A 
ENDBRANCH   2   4
ENDBRANCH   1   2
BRANCH   1  11
ATOM     11  C   UNL     1     175.772 176.441 183.068  1.00  0.00     0.028 C 
BRANCH  11  12
ATOM     12  C   UNL     1     174.389 176.993 182.824  1.00  0.00    -0.028 C 
ATOM     13  C   UNL     1     173.339 176.260 182.392  1.00  0.00    -0.080 C 
ATOM     14  C   UNL     1     173.442 174.770 182.162  1.00  0.00     0.039 C 
ATOM     15  C   UNL     1     172.026 176.958 182.156  1.00  0.00     0.039 C 
ENDBRANCH  11  12
ENDBRANCH   1  11
TORSDOF 4
ENDMDL
MODEL 6
REMARK VINA RESULT:    -4.571      1.545      4.230
REMARK INTER + INTRA:          -7.180
REMARK INTER:                  -5.636
REMARK INTRA:                  -1.543
REMARK UNBOUND:                -1.540
REMARK SMILES CC(C)=CCC[C@@H](C)c1ccc(C)cc1
REMARK SMILES IDX 6 1 7 2 8 3 9 4 13 5 12 6 11 7 14 8 10 9 15 10 5 11 4 12
REMARK SMILES IDX 2 13 1 14 3 15
REMARK H PARENT
REMARK Flexibility Score: inf
ROOT
ATOM      1  C   UNL     1     173.750 172.878 181.868  1.00  0.00     0.012 C 
ENDROOT
BRANCH   1   2
ATOM      2  C   UNL     1     175.261 172.906 181.549  1.00  0.00     0.016 C 
ATOM      3  C   UNL     1     175.553 172.545 180.083  1.00  0.00     0.013 C 
BRANCH   2   4
ATOM      4  C   UNL     1     175.847 174.268 181.880  1.00  0.00    -0.045 A 
ATOM      5  C   UNL     1     177.562 178.123 182.805  1.00  0.00     0.044 C 
ATOM      6  C   UNL     1     176.941 176.798 182.475  1.00  0.00    -0.051 A 
ATOM      7  C   UNL     1     177.135 176.222 181.211  1.00  0.00     0.004 A 
ATOM      8  C   UNL     1     176.220 176.093 183.448  1.00  0.00     0.004 A 
ATOM      9  C   UNL     1     176.588 174.971 180.914  1.00  0.00     0.004 A 
ATOM     10  C   UNL     1     175.671 174.842 183.153  1.00  0.00     0.004 A 
ENDBRANCH   2   4
ENDBRANCH   1   2
BRANCH   1  11
ATOM     11  C   UNL     1     172.943 173.855 180.999  1.00  0.00     0.028 C 
BRANCH  11  12
ATOM     12  C   UNL     1     172.445 175.016 181.824  1.00  0.00    -0.028 C 
ATOM     13  C   UNL     1     172.693 176.315 181.545  1.00  0.00    -0.080 C 
ATOM     14  C   UNL     1     173.465 176.737 180.317  1.00  0.00     0.039 C 
ATOM     15  C   UNL     1     172.162 177.365 182.485  1.00  0.00     0.039 C 
ENDBRANCH  11  12
ENDBRANCH   1  11
TORSDOF 4
ENDMDL
MODEL 7
REMARK VINA RESULT:    -4.512      1.452      3.343
REMARK INTER + INTRA:          -7.107
REMARK INTER:                  -6.049
REMARK INTRA:                  -1.058
REMARK UNBOUND:                -1.540
REMARK SMILES CC(C)=CCC[C@@H](C)c1ccc(C)cc1
REMARK SMILES IDX 6 1 7 2 8 3 9 4 13 5 12 6 11 7 14 8 10 9 15 10 5 11 4 12
REMARK SMILES IDX 2 13 1 14 3 15
REMARK H PARENT
REMARK Flexibility Score: inf
ROOT
ATOM      1  C   UNL     1     175.057 175.543 179.690  1.00  0.00     0.012 C 
ENDROOT
BRANCH   1   2
ATOM      2  C   UNL     1     174.411 176.947 179.673  1.00  0.00     0.016 C 
ATOM      3  C   UNL     1     173.970 177.367 178.261  1.00  0.00     0.013 C 
BRANCH   2   4
ATOM      4  C   UNL     1     173.232 176.999 180.628  1.00  0.00    -0.045 A 
ATOM      5  C   UNL     1     169.905 177.111 183.381  1.00  0.00     0.044 C 
ATOM      6  C   UNL     1     171.056 177.102 182.419  1.00  0.00    -0.051 A 
ATOM      7  C   UNL     1     172.362 177.327 182.878  1.00  0.00     0.004 A 
ATOM      8  C   UNL     1     170.845 176.799 181.067  1.00  0.00     0.004 A 
ATOM      9  C   UNL     1     173.440 177.282 181.990  1.00  0.00     0.004 A 
ATOM     10  C   UNL     1     171.922 176.754 180.177  1.00  0.00     0.004 A 
ENDBRANCH   2   4
ENDBRANCH   1   2
BRANCH   1  11
ATOM     11  C   UNL     1     176.583 175.595 179.860  1.00  0.00     0.028 C 
BRANCH  11  12
ATOM     12  C   UNL     1     176.981 176.753 180.741  1.00  0.00    -0.028 C 
ATOM     13  C   UNL     1     176.980 176.722 182.092  1.00  0.00    -0.080 C 
ATOM     14  C   UNL     1     176.627 175.472 182.864  1.00  0.00     0.039 C 
ATOM     15  C   UNL     1     177.366 177.971 182.840  1.00  0.00     0.039 C 
ENDBRANCH  11  12
ENDBRANCH   1  11
TORSDOF 4
ENDMDL
MODEL 8
REMARK VINA RESULT:    -4.471      1.691      2.617
REMARK INTER + INTRA:          -7.056
REMARK INTER:                  -5.575
REMARK INTRA:                  -1.481
REMARK UNBOUND:                -1.540
REMARK SMILES CC(C)=CCC[C@@H](C)c1ccc(C)cc1
REMARK SMILES IDX 6 1 7 2 8 3 9 4 13 5 12 6 11 7 14 8 10 9 15 10 5 11 4 12
REMARK SMILES IDX 2 13 1 14 3 15
REMARK H PARENT
REMARK Flexibility Score: inf
ROOT
ATOM      1  C   UNL     1     176.145 175.821 183.289  1.00  0.00     0.012 C 
ENDROOT
BRANCH   1   2
ATOM      2  C   UNL     1     175.980 177.020 182.328  1.00  0.00     0.016 C 
ATOM      3  C   UNL     1     177.015 177.002 181.191  1.00  0.00     0.013 C 
BRANCH   2   4
ATOM      4  C   UNL     1     174.573 177.050 181.756  1.00  0.00    -0.045 A 
ATOM      5  C   UNL     1     170.558 177.092 180.162  1.00  0.00     0.044 C 
ATOM      6  C   UNL     1     171.953 177.107 180.714  1.00  0.00    -0.051 A 
ATOM      7  C   UNL     1     172.165 177.142 182.099  1.00  0.00     0.004 A 
ATOM      8  C   UNL     1     173.055 177.018 179.852  1.00  0.00     0.004 A 
ATOM      9  C   UNL     1     173.463 177.120 182.616  1.00  0.00     0.004 A 
ATOM     10  C   UNL     1     174.354 176.996 180.366  1.00  0.00     0.004 A 
ENDBRANCH   2   4
ENDBRANCH   1   2
BRANCH   1  11
ATOM     11  C   UNL     1     176.576 174.537 182.564  1.00  0.00     0.028 C 
BRANCH  11  12
ATOM     12  C   UNL     1     175.373 173.707 182.190  1.00  0.00    -0.028 C 
ATOM     13  C   UNL     1     175.042 173.368 180.924  1.00  0.00    -0.080 C 
ATOM     14  C   UNL     1     175.900 173.751 179.741  1.00  0.00     0.039 C 
ATOM     15  C   UNL     1     173.786 172.566 180.701  1.00  0.00     0.039 C 
ENDBRANCH  11  12
ENDBRANCH   1  11
TORSDOF 4
ENDMDL
MODEL 9
REMARK VINA RESULT:    -4.459      1.541      2.595
REMARK INTER + INTRA:          -7.041
REMARK INTER:                  -6.007
REMARK INTRA:                  -1.035
REMARK UNBOUND:                -1.540
REMARK SMILES CC(C)=CCC[C@@H](C)c1ccc(C)cc1
REMARK SMILES IDX 6 1 7 2 8 3 9 4 13 5 12 6 11 7 14 8 10 9 15 10 5 11 4 12
REMARK SMILES IDX 2 13 1 14 3 15
REMARK H PARENT
REMARK Flexibility Score: inf
ROOT
ATOM      1  C   UNL     1     176.542 175.320 182.833  1.00  0.00     0.012 C 
ENDROOT
BRANCH   1   2
ATOM      2  C   UNL     1     175.730 176.560 182.396  1.00  0.00     0.016 C 
ATOM      3  C   UNL     1     176.071 177.005 180.965  1.00  0.00     0.013 C 
BRANCH   2   4
ATOM      4  C   UNL     1     174.241 176.289 182.520  1.00  0.00    -0.045 A 
ATOM      5  C   UNL     1     170.002 175.555 182.912  1.00  0.00     0.044 C 
ATOM      6  C   UNL     1     171.472 175.805 182.746  1.00  0.00    -0.051 A 
ATOM      7  C   UNL     1     171.948 177.105 182.529  1.00  0.00     0.004 A 
ATOM      8  C   UNL     1     172.387 174.750 182.876  1.00  0.00     0.004 A 
ATOM      9  C   UNL     1     173.319 177.345 182.411  1.00  0.00     0.004 A 
ATOM     10  C   UNL     1     173.759 174.987 182.758  1.00  0.00     0.004 A 
ENDBRANCH   2   4
ENDBRANCH   1   2
BRANCH   1  11
ATOM     11  C   UNL     1     177.368 174.720 181.686  1.00  0.00     0.028 C 
BRANCH  11  12
ATOM     12  C   UNL     1     177.364 173.213 181.758  1.00  0.00    -0.028 C 
ATOM     13  C   UNL     1     176.529 172.416 181.053  1.00  0.00    -0.080 C 
ATOM     14  C   UNL     1     175.537 172.974 180.060  1.00  0.00     0.039 C 
ATOM     15  C   UNL     1     176.615 170.927 181.259  1.00  0.00     0.039 C 
ENDBRANCH  11  12
ENDBRANCH   1  11
TORSDOF 4
ENDMDL
