MODEL 1
REMARK VINA RESULT:    -4.161      0.000      0.000
REMARK INTER + INTRA:          -6.908
REMARK INTER:                  -5.985
REMARK INTRA:                  -0.923
REMARK UNBOUND:                -0.923
REMARK SMILES O=C(CO)[C@@H](O)[C@H](O)[C@@H](O)CO
REMARK SMILES IDX 7 1 9 2 11 3 12 4 10 6 5 8 2 9 1 10 3 11 4 12 6 14 8 16
REMARK H PARENT 12 5 10 7 4 13 6 15 8 17
REMARK Flexibility Score: inf
ROOT
ATOM      1  C   UNL     1      40.062  21.907  22.758  1.00  0.00     0.181 C 
ENDROOT
BRANCH   1   2
ATOM      2  C   UNL     1      40.282  22.675  24.089  1.00  0.00     0.171 C 
BRANCH   2   3
ATOM      3  C   UNL     1      40.353  21.723  25.295  1.00  0.00     0.190 C 
BRANCH   3   4
ATOM      4  O   UNL     1      39.574  20.587  25.045  1.00  0.00    -0.394 OA
ATOM      5  H   UNL     1      40.192  19.812  25.097  1.00  0.00     0.210 HD
ENDBRANCH   3   4
ENDBRANCH   2   3
BRANCH   2   6
ATOM      6  O   UNL     1      39.293  23.656  24.290  1.00  0.00    -0.388 OA
ATOM      7  H   UNL     1      38.462  23.195  24.579  1.00  0.00     0.211 HD
ENDBRANCH   2   6
ENDBRANCH   1   2
BRANCH   1   8
ATOM      8  C   UNL     1      40.472  22.756  21.536  1.00  0.00     0.214 C 
BRANCH   8   9
ATOM      9  C   UNL     1      40.610  21.876  20.309  1.00  0.00     0.189 C 
ATOM     10  O   UNL     1      40.119  20.757  20.326  1.00  0.00    -0.294 OA
BRANCH   9  11
ATOM     11  C   UNL     1      41.377  22.338  19.096  1.00  0.00     0.234 C 
BRANCH  11  12
ATOM     12  O   UNL     1      40.835  23.530  18.598  1.00  0.00    -0.388 OA
ATOM     13  H   UNL     1      40.237  23.878  19.310  1.00  0.00     0.211 HD
ENDBRANCH  11  12
ENDBRANCH   9  11
ENDBRANCH   8   9
BRANCH   8  14
ATOM     14  O   UNL     1      39.523  23.770  21.317  1.00  0.00    -0.382 OA
ATOM     15  H   UNL     1      39.461  24.293  22.159  1.00  0.00     0.211 HD
ENDBRANCH   8  14
ENDBRANCH   1   8
BRANCH   1  16
ATOM     16  O   UNL     1      38.716  21.515  22.628  1.00  0.00    -0.387 OA
ATOM     17  H   UNL     1      38.661  20.562  22.896  1.00  0.00     0.211 HD
ENDBRANCH   1  16
TORSDOF 10
ENDMDL
MODEL 2
REMARK VINA RESULT:    -4.116      2.110      4.490
REMARK INTER + INTRA:          -6.843
REMARK INTER:                  -5.390
REMARK INTRA:                  -1.453
REMARK UNBOUND:                -0.923
REMARK SMILES O=C(CO)[C@@H](O)[C@H](O)[C@@H](O)CO
REMARK SMILES IDX 7 1 9 2 11 3 12 4 10 6 5 8 2 9 1 10 3 11 4 12 6 14 8 16
REMARK H PARENT 12 5 10 7 4 13 6 15 8 17
REMARK Flexibility Score: inf
ROOT
ATOM      1  C   UNL     1      40.123  20.635  22.401  1.00  0.00     0.181 C 
ENDROOT
BRANCH   1   2
ATOM      2  C   UNL     1      38.681  20.173  22.063  1.00  0.00     0.171 C 
BRANCH   2   3
ATOM      3  C   UNL     1      38.512  19.875  20.564  1.00  0.00     0.190 C 
BRANCH   3   4
ATOM      4  O   UNL     1      39.741  20.029  19.910  1.00  0.00    -0.394 OA
ATOM      5  H   UNL     1      40.021  20.968  20.069  1.00  0.00     0.210 HD
ENDBRANCH   3   4
ENDBRANCH   2   3
BRANCH   2   6
ATOM      6  O   UNL     1      37.723  21.110  22.493  1.00  0.00    -0.388 OA
ATOM      7  H   UNL     1      37.913  21.324  23.444  1.00  0.00     0.211 HD
ENDBRANCH   2   6
ENDBRANCH   1   2
BRANCH   1   8
ATOM      8  C   UNL     1      40.443  20.455  23.900  1.00  0.00     0.214 C 
BRANCH   8   9
ATOM      9  C   UNL     1      40.933  21.761  24.493  1.00  0.00     0.189 C 
ATOM     10  O   UNL     1      42.104  22.077  24.341  1.00  0.00    -0.294 OA
BRANCH   9  11
ATOM     11  C   UNL     1      40.019  22.647  25.301  1.00  0.00     0.234 C 
BRANCH  11  12
ATOM     12  O   UNL     1      38.834  22.899  24.598  1.00  0.00    -0.388 OA
ATOM     13  H   UNL     1      38.307  23.523  25.162  1.00  0.00     0.211 HD
ENDBRANCH  11  12
ENDBRANCH   9  11
ENDBRANCH   8   9
BRANCH   8  14
ATOM     14  O   UNL     1      39.301  19.996  24.581  1.00  0.00    -0.382 OA
ATOM     15  H   UNL     1      39.616  19.597  25.434  1.00  0.00     0.211 HD
ENDBRANCH   8  14
ENDBRANCH   1   8
BRANCH   1  16
ATOM     16  O   UNL     1      40.311  21.983  22.040  1.00  0.00    -0.387 OA
ATOM     17  H   UNL     1      39.827  22.535  22.707  1.00  0.00     0.211 HD
ENDBRANCH   1  16
TORSDOF 10
ENDMDL
MODEL 3
REMARK VINA RESULT:    -3.997      1.504      4.376
REMARK INTER + INTRA:          -6.672
REMARK INTER:                  -5.236
REMARK INTRA:                  -1.437
REMARK UNBOUND:                -0.923
REMARK SMILES O=C(CO)[C@@H](O)[C@H](O)[C@@H](O)CO
REMARK SMILES IDX 7 1 9 2 11 3 12 4 10 6 5 8 2 9 1 10 3 11 4 12 6 14 8 16
REMARK H PARENT 12 5 10 7 4 13 6 15 8 17
REMARK Flexibility Score: inf
ROOT
ATOM      1  C   UNL     1      40.652  21.092  22.598  1.00  0.00     0.181 C 
ENDROOT
BRANCH   1   2
ATOM      2  C   UNL     1      39.869  21.526  21.331  1.00  0.00     0.171 C 
BRANCH   2   3
ATOM      3  C   UNL     1      40.541  21.025  20.042  1.00  0.00     0.190 C 
BRANCH   3   4
ATOM      4  O   UNL     1      41.826  21.572  19.937  1.00  0.00    -0.394 OA
ATOM      5  H   UNL     1      42.400  21.047  20.552  1.00  0.00     0.210 HD
ENDBRANCH   3   4
ENDBRANCH   2   3
BRANCH   2   6
ATOM      6  O   UNL     1      39.691  22.922  21.286  1.00  0.00    -0.388 OA
ATOM      7  H   UNL     1      39.795  23.271  22.210  1.00  0.00     0.211 HD
ENDBRANCH   2   6
ENDBRANCH   1   2
BRANCH   1   8
ATOM      8  C   UNL     1      39.745  21.063  23.847  1.00  0.00     0.214 C 
BRANCH   8   9
ATOM      9  C   UNL     1      40.238  22.060  24.876  1.00  0.00     0.189 C 
ATOM     10  O   UNL     1      41.157  21.741  25.616  1.00  0.00    -0.294 OA
BRANCH   9  11
ATOM     11  C   UNL     1      39.588  23.411  25.033  1.00  0.00     0.234 C 
BRANCH  11  12
ATOM     12  O   UNL     1      39.564  24.089  23.808  1.00  0.00    -0.388 OA
ATOM     13  H   UNL     1      38.814  24.737  23.866  1.00  0.00     0.211 HD
ENDBRANCH  11  12
ENDBRANCH   9  11
ENDBRANCH   8   9
BRANCH   8  14
ATOM     14  O   UNL     1      38.416  21.342  23.480  1.00  0.00    -0.382 OA
ATOM     15  H   UNL     1      37.874  21.306  24.311  1.00  0.00     0.211 HD
ENDBRANCH   8  14
ENDBRANCH   1   8
BRANCH   1  16
ATOM     16  O   UNL     1      41.741  21.952  22.829  1.00  0.00    -0.387 OA
ATOM     17  H   UNL     1      42.368  21.842  22.068  1.00  0.00     0.211 HD
ENDBRANCH   1  16
TORSDOF 10
ENDMDL
MODEL 4
REMARK VINA RESULT:    -3.836     14.297     15.743
REMARK INTER + INTRA:          -6.441
REMARK INTER:                  -5.142
REMARK INTRA:                  -1.299
REMARK UNBOUND:                -0.923
REMARK SMILES O=C(CO)[C@@H](O)[C@H](O)[C@@H](O)CO
REMARK SMILES IDX 7 1 9 2 11 3 12 4 10 6 5 8 2 9 1 10 3 11 4 12 6 14 8 16
REMARK H PARENT 12 5 10 7 4 13 6 15 8 17
REMARK Flexibility Score: inf
ROOT
ATOM      1  C   UNL     1      41.462  37.203  28.052  1.00  0.00     0.181 C 
ENDROOT
BRANCH   1   2
ATOM      2  C   UNL     1      41.099  38.369  27.095  1.00  0.00     0.171 C 
BRANCH   2   3
ATOM      3  C   UNL     1      39.995  39.266  27.678  1.00  0.00     0.190 C 
BRANCH   3   4
ATOM      4  O   UNL     1      38.765  38.598  27.622  1.00  0.00    -0.394 OA
ATOM      5  H   UNL     1      38.175  39.154  27.051  1.00  0.00     0.210 HD
ENDBRANCH   3   4
ENDBRANCH   2   3
BRANCH   2   6
ATOM      6  O   UNL     1      40.732  37.896  25.821  1.00  0.00    -0.388 OA
ATOM      7  H   UNL     1      41.536  37.485  25.406  1.00  0.00     0.211 HD
ENDBRANCH   2   6
ENDBRANCH   1   2
BRANCH   1   8
ATOM      8  C   UNL     1      42.877  36.654  27.772  1.00  0.00     0.214 C 
BRANCH   8   9
ATOM      9  C   UNL     1      42.792  35.262  27.179  1.00  0.00     0.189 C 
ATOM     10  O   UNL     1      42.520  34.322  27.912  1.00  0.00    -0.294 OA
BRANCH   9  11
ATOM     11  C   UNL     1      43.081  35.012  25.720  1.00  0.00     0.234 C 
BRANCH  11  12
ATOM     12  O   UNL     1      42.361  35.907  24.918  1.00  0.00    -0.388 OA
ATOM     13  H   UNL     1      41.422  35.869  25.238  1.00  0.00     0.211 HD
ENDBRANCH  11  12
ENDBRANCH   9  11
ENDBRANCH   8   9
BRANCH   8  14
ATOM     14  O   UNL     1      43.564  37.523  26.906  1.00  0.00    -0.382 OA
ATOM     15  H   UNL     1      43.405  38.446  27.237  1.00  0.00     0.211 HD
ENDBRANCH   8  14
ENDBRANCH   1   8
BRANCH   1  16
ATOM     16  O   UNL     1      40.524  36.159  27.943  1.00  0.00    -0.387 OA
ATOM     17  H   UNL     1      40.470  35.719  28.830  1.00  0.00     0.211 HD
ENDBRANCH   1  16
TORSDOF 10
ENDMDL
MODEL 5
REMARK VINA RESULT:    -3.823     15.351     16.545
REMARK INTER + INTRA:          -6.422
REMARK INTER:                  -5.841
REMARK INTRA:                  -0.582
REMARK UNBOUND:                -0.923
REMARK SMILES O=C(CO)[C@@H](O)[C@H](O)[C@@H](O)CO
REMARK SMILES IDX 7 1 9 2 11 3 12 4 10 6 5 8 2 9 1 10 3 11 4 12 6 14 8 16
REMARK H PARENT 12 5 10 7 4 13 6 15 8 17
REMARK Flexibility Score: inf
ROOT
ATOM      1  C   UNL     1      38.892  38.559  26.513  1.00  0.00     0.181 C 
ENDROOT
BRANCH   1   2
ATOM      2  C   UNL     1      37.482  37.931  26.353  1.00  0.00     0.171 C 
BRANCH   2   3
ATOM      3  C   UNL     1      36.386  38.825  26.957  1.00  0.00     0.190 C 
BRANCH   3   4
ATOM      4  O   UNL     1      35.141  38.471  26.420  1.00  0.00    -0.394 OA
ATOM      5  H   UNL     1      35.243  38.516  25.434  1.00  0.00     0.210 HD
ENDBRANCH   3   4
ENDBRANCH   2   3
BRANCH   2   6
ATOM      6  O   UNL     1      37.426  36.638  26.905  1.00  0.00    -0.388 OA
ATOM      7  H   UNL     1      37.730  36.696  27.849  1.00  0.00     0.211 HD
ENDBRANCH   2   6
ENDBRANCH   1   2
BRANCH   1   8
ATOM      8  C   UNL     1      39.597  38.731  25.150  1.00  0.00     0.214 C 
BRANCH   8   9
ATOM      9  C   UNL     1      41.097  38.592  25.314  1.00  0.00     0.189 C 
ATOM     10  O   UNL     1      41.658  39.228  26.194  1.00  0.00    -0.294 OA
BRANCH   9  11
ATOM     11  C   UNL     1      41.910  37.725  24.386  1.00  0.00     0.234 C 
BRANCH  11  12
ATOM     12  O   UNL     1      41.931  36.401  24.846  1.00  0.00    -0.388 OA
ATOM     13  H   UNL     1      42.175  35.842  24.062  1.00  0.00     0.211 HD
ENDBRANCH  11  12
ENDBRANCH   9  11
ENDBRANCH   8   9
BRANCH   8  14
ATOM     14  O   UNL     1      39.106  37.784  24.234  1.00  0.00    -0.382 OA
ATOM     15  H   UNL     1      39.271  38.150  23.326  1.00  0.00     0.211 HD
ENDBRANCH   8  14
ENDBRANCH   1   8
BRANCH   1  16
ATOM     16  O   UNL     1      39.694  37.771  27.359  1.00  0.00    -0.387 OA
ATOM     17  H   UNL     1      40.515  38.292  27.555  1.00  0.00     0.211 HD
ENDBRANCH   1  16
TORSDOF 10
ENDMDL
MODEL 6
REMARK VINA RESULT:    -3.777     16.102     17.288
REMARK INTER + INTRA:          -6.356
REMARK INTER:                  -5.630
REMARK INTRA:                  -0.725
REMARK UNBOUND:                -0.923
REMARK SMILES O=C(CO)[C@@H](O)[C@H](O)[C@@H](O)CO
REMARK SMILES IDX 7 1 9 2 11 3 12 4 10 6 5 8 2 9 1 10 3 11 4 12 6 14 8 16
REMARK H PARENT 12 5 10 7 4 13 6 15 8 17
REMARK Flexibility Score: inf
ROOT
ATOM      1  C   UNL     1      38.578  38.627  26.038  1.00  0.00     0.181 C 
ENDROOT
BRANCH   1   2
ATOM      2  C   UNL     1      40.028  38.547  26.585  1.00  0.00     0.171 C 
BRANCH   2   3
ATOM      3  C   UNL     1      41.067  38.514  25.452  1.00  0.00     0.190 C 
BRANCH   3   4
ATOM      4  O   UNL     1      41.383  37.185  25.142  1.00  0.00    -0.394 OA
ATOM      5  H   UNL     1      42.197  37.220  24.576  1.00  0.00     0.210 HD
ENDBRANCH   3   4
ENDBRANCH   2   3
BRANCH   2   6
ATOM      6  O   UNL     1      40.196  37.446  27.445  1.00  0.00    -0.388 OA
ATOM      7  H   UNL     1      41.164  37.221  27.464  1.00  0.00     0.211 HD
ENDBRANCH   2   6
ENDBRANCH   1   2
BRANCH   1   8
ATOM      8  C   UNL     1      37.550  38.118  27.071  1.00  0.00     0.214 C 
BRANCH   8   9
ATOM      9  C   UNL     1      36.225  38.830  26.888  1.00  0.00     0.189 C 
ATOM     10  O   UNL     1      35.601  38.661  25.850  1.00  0.00    -0.294 OA
BRANCH   9  11
ATOM     11  C   UNL     1      35.689  39.772  27.936  1.00  0.00     0.234 C 
BRANCH  11  12
ATOM     12  O   UNL     1      34.510  39.262  28.496  1.00  0.00    -0.388 OA
ATOM     13  H   UNL     1      34.690  38.305  28.690  1.00  0.00     0.211 HD
ENDBRANCH  11  12
ENDBRANCH   9  11
ENDBRANCH   8   9
BRANCH   8  14
ATOM     14  O   UNL     1      37.390  36.727  26.942  1.00  0.00    -0.382 OA
ATOM     15  H   UNL     1      36.542  36.579  26.448  1.00  0.00     0.211 HD
ENDBRANCH   8  14
ENDBRANCH   1   8
BRANCH   1  16
ATOM     16  O   UNL     1      38.454  37.885  24.848  1.00  0.00    -0.387 OA
ATOM     17  H   UNL     1      37.596  37.389  24.900  1.00  0.00     0.211 HD
ENDBRANCH   1  16
TORSDOF 10
ENDMDL
MODEL 7
REMARK VINA RESULT:    -3.759     15.831     17.224
REMARK INTER + INTRA:          -6.329
REMARK INTER:                  -5.093
REMARK INTRA:                  -1.236
REMARK UNBOUND:                -0.923
REMARK SMILES O=C(CO)[C@@H](O)[C@H](O)[C@@H](O)CO
REMARK SMILES IDX 7 1 9 2 11 3 12 4 10 6 5 8 2 9 1 10 3 11 4 12 6 14 8 16
REMARK H PARENT 12 5 10 7 4 13 6 15 8 17
REMARK Flexibility Score: inf
ROOT
ATOM      1  C   UNL     1      38.643  39.282  27.047  1.00  0.00     0.181 C 
ENDROOT
BRANCH   1   2
ATOM      2  C   UNL     1      37.452  38.384  26.619  1.00  0.00     0.171 C 
BRANCH   2   3
ATOM      3  C   UNL     1      36.101  38.985  27.038  1.00  0.00     0.190 C 
BRANCH   3   4
ATOM      4  O   UNL     1      35.068  38.366  26.323  1.00  0.00    -0.394 OA
ATOM      5  H   UNL     1      34.383  38.110  26.993  1.00  0.00     0.210 HD
ENDBRANCH   3   4
ENDBRANCH   2   3
BRANCH   2   6
ATOM      6  O   UNL     1      37.588  37.074  27.116  1.00  0.00    -0.388 OA
ATOM      7  H   UNL     1      37.324  37.084  28.074  1.00  0.00     0.211 HD
ENDBRANCH   2   6
ENDBRANCH   1   2
BRANCH   1   8
ATOM      8  C   UNL     1      39.921  38.955  26.247  1.00  0.00     0.214 C 
BRANCH   8   9
ATOM      9  C   UNL     1      41.062  38.630  27.190  1.00  0.00     0.189 C 
ATOM     10  O   UNL     1      41.674  39.548  27.717  1.00  0.00    -0.294 OA
BRANCH   9  11
ATOM     11  C   UNL     1      41.482  37.206  27.451  1.00  0.00     0.234 C 
BRANCH  11  12
ATOM     12  O   UNL     1      40.403  36.459  27.942  1.00  0.00    -0.388 OA
ATOM     13  H   UNL     1      40.764  35.557  28.146  1.00  0.00     0.211 HD
ENDBRANCH  11  12
ENDBRANCH   9  11
ENDBRANCH   8   9
BRANCH   8  14
ATOM     14  O   UNL     1      39.677  37.881  25.373  1.00  0.00    -0.382 OA
ATOM     15  H   UNL     1      39.955  37.054  25.847  1.00  0.00     0.211 HD
ENDBRANCH   8  14
ENDBRANCH   1   8
BRANCH   1  16
ATOM     16  O   UNL     1      38.901  39.141  28.423  1.00  0.00    -0.387 OA
ATOM     17  H   UNL     1      38.309  38.421  28.761  1.00  0.00     0.211 HD
ENDBRANCH   1  16
TORSDOF 10
ENDMDL
MODEL 8
REMARK VINA RESULT:    -3.714      0.877      4.690
REMARK INTER + INTRA:          -6.265
REMARK INTER:                  -5.548
REMARK INTRA:                  -0.717
REMARK UNBOUND:                -0.923
REMARK SMILES O=C(CO)[C@@H](O)[C@H](O)[C@@H](O)CO
REMARK SMILES IDX 7 1 9 2 11 3 12 4 10 6 5 8 2 9 1 10 3 11 4 12 6 14 8 16
REMARK H PARENT 12 5 10 7 4 13 6 15 8 17
REMARK Flexibility Score: inf
ROOT
ATOM      1  C   UNL     1      40.663  22.433  21.980  1.00  0.00     0.181 C 
ENDROOT
BRANCH   1   2
ATOM      2  C   UNL     1      41.090  21.595  20.746  1.00  0.00     0.171 C 
BRANCH   2   3
ATOM      3  C   UNL     1      41.781  22.458  19.678  1.00  0.00     0.190 C 
BRANCH   3   4
ATOM      4  O   UNL     1      40.834  23.275  19.048  1.00  0.00    -0.394 OA
ATOM      5  H   UNL     1      40.303  23.692  19.774  1.00  0.00     0.210 HD
ENDBRANCH   3   4
ENDBRANCH   2   3
BRANCH   2   6
ATOM      6  O   UNL     1      40.000  20.898  20.191  1.00  0.00    -0.388 OA
ATOM      7  H   UNL     1      39.440  21.554  19.698  1.00  0.00     0.211 HD
ENDBRANCH   2   6
ENDBRANCH   1   2
BRANCH   1   8
ATOM      8  C   UNL     1      40.108  21.541  23.111  1.00  0.00     0.214 C 
BRANCH   8   9
ATOM      9  C   UNL     1      40.508  22.098  24.463  1.00  0.00     0.189 C 
ATOM     10  O   UNL     1      41.276  21.455  25.163  1.00  0.00    -0.294 OA
BRANCH   9  11
ATOM     11  C   UNL     1      39.941  23.398  24.974  1.00  0.00     0.234 C 
BRANCH  11  12
ATOM     12  O   UNL     1      38.545  23.321  25.068  1.00  0.00    -0.388 OA
ATOM     13  H   UNL     1      38.272  24.039  25.696  1.00  0.00     0.211 HD
ENDBRANCH  11  12
ENDBRANCH   9  11
ENDBRANCH   8   9
BRANCH   8  14
ATOM     14  O   UNL     1      38.708  21.448  23.005  1.00  0.00    -0.382 OA
ATOM     15  H   UNL     1      38.352  21.403  23.930  1.00  0.00     0.211 HD
ENDBRANCH   8  14
ENDBRANCH   1   8
BRANCH   1  16
ATOM     16  O   UNL     1      39.696  23.390  21.620  1.00  0.00    -0.387 OA
ATOM     17  H   UNL     1      40.176  24.147  21.195  1.00  0.00     0.211 HD
ENDBRANCH   1  16
TORSDOF 10
ENDMDL
MODEL 9
REMARK VINA RESULT:    -3.698     14.652     16.188
REMARK INTER + INTRA:          -6.242
REMARK INTER:                  -4.925
REMARK INTRA:                  -1.318
REMARK UNBOUND:                -0.923
REMARK SMILES O=C(CO)[C@@H](O)[C@H](O)[C@@H](O)CO
REMARK SMILES IDX 7 1 9 2 11 3 12 4 10 6 5 8 2 9 1 10 3 11 4 12 6 14 8 16
REMARK H PARENT 12 5 10 7 4 13 6 15 8 17
REMARK Flexibility Score: inf
ROOT
ATOM      1  C   UNL     1      41.956  37.482  26.857  1.00  0.00     0.181 C 
ENDROOT
BRANCH   1   2
ATOM      2  C   UNL     1      41.912  36.312  27.875  1.00  0.00     0.171 C 
BRANCH   2   3
ATOM      3  C   UNL     1      42.906  35.198  27.511  1.00  0.00     0.190 C 
BRANCH   3   4
ATOM      4  O   UNL     1      42.391  34.433  26.456  1.00  0.00    -0.394 OA
ATOM      5  H   UNL     1      42.207  33.534  26.833  1.00  0.00     0.210 HD
ENDBRANCH   3   4
ENDBRANCH   2   3
BRANCH   2   6
ATOM      6  O   UNL     1      40.611  35.791  28.009  1.00  0.00    -0.388 OA
ATOM      7  H   UNL     1      40.022  36.279  27.374  1.00  0.00     0.211 HD
ENDBRANCH   2   6
ENDBRANCH   1   2
BRANCH   1   8
ATOM      8  C   UNL     1      41.126  38.691  27.341  1.00  0.00     0.214 C 
BRANCH   8   9
ATOM      9  C   UNL     1      39.959  38.935  26.405  1.00  0.00     0.189 C 
ATOM     10  O   UNL     1      40.176  39.411  25.300  1.00  0.00    -0.294 OA
BRANCH   9  11
ATOM     11  C   UNL     1      38.541  38.646  26.828  1.00  0.00     0.234 C 
BRANCH  11  12
ATOM     12  O   UNL     1      38.394  37.292  27.158  1.00  0.00    -0.388 OA
ATOM     13  H   UNL     1      38.789  36.781  26.404  1.00  0.00     0.211 HD
ENDBRANCH  11  12
ENDBRANCH   9  11
ENDBRANCH   8   9
BRANCH   8  14
ATOM     14  O   UNL     1      40.673  38.466  28.653  1.00  0.00    -0.382 OA
ATOM     15  H   UNL     1      41.075  37.609  28.954  1.00  0.00     0.211 HD
ENDBRANCH   8  14
ENDBRANCH   1   8
BRANCH   1  16
ATOM     16  O   UNL     1      41.485  37.064  25.598  1.00  0.00    -0.387 OA
ATOM     17  H   UNL     1      42.263  36.704  25.100  1.00  0.00     0.211 HD
ENDBRANCH   1  16
TORSDOF 10
ENDMDL
