MODEL 1
REMARK VINA RESULT:    -5.174      0.000      0.000
REMARK INTER + INTRA:          -7.282
REMARK INTER:                  -6.989
REMARK INTRA:                  -0.293
REMARK UNBOUND:                -0.293
REMARK SMILES CC[C@@H](CC[C@@H](C)[C@H]1CC[C@H]2[C@@H]3CC(=O)C4=CC(=O)CC[C@]4(C)[C@@H]3CC[C@]12C)C(C)C
REMARK SMILES IDX 4 1 3 2 2 3 1 4 29 5 30 6 31 7 5 8 6 9 7 10 8 11 9 12 27 13
REMARK SMILES IDX 10 14 11 15 26 16 28 17 12 18 25 19 24 20 13 21 22 22 14 23
REMARK SMILES IDX 16 24 21 25 23 26 15 27 17 28 20 29 18 30 19 31
REMARK H PARENT
REMARK Flexibility Score: inf
ROOT
ATOM      1  C   UNL     1     -12.995 -37.531  -8.606  1.00  0.00     0.004 C 
ENDROOT
BRANCH   1   2
ATOM      2  C   UNL     1     -12.213 -36.308  -9.184  1.00  0.00    -0.009 C 
BRANCH   2   3
ATOM      3  C   UNL     1     -13.085 -35.508 -10.195  1.00  0.00     0.000 C 
ATOM      4  C   UNL     1     -12.600 -34.072 -10.383  1.00  0.00     0.004 C 
ENDBRANCH   2   3
BRANCH   2   5
ATOM      5  C   UNL     1     -10.840 -36.703  -9.826  1.00  0.00    -0.014 C 
ATOM      6  C   UNL     1     -10.931 -36.762 -11.359  1.00  0.00     0.007 C 
ATOM      7  C   UNL     1      -9.666 -35.805  -9.396  1.00  0.00     0.007 C 
ENDBRANCH   2   5
ENDBRANCH   1   2
BRANCH   1   8
ATOM      8  C   UNL     1     -12.246 -38.283  -7.483  1.00  0.00     0.004 C 
BRANCH   8   9
ATOM      9  C   UNL     1     -12.874 -39.636  -7.036  1.00  0.00    -0.011 C 
ATOM     10  C   UNL     1     -11.820 -40.480  -6.296  1.00  0.00     0.008 C 
BRANCH   9  11
ATOM     11  C   UNL     1     -14.131 -39.402  -6.129  1.00  0.00    -0.002 C 
ATOM     12  C   UNL     1     -14.287 -37.933  -5.663  1.00  0.00     0.005 C 
ATOM     13  C   UNL     1     -15.535 -39.741  -6.726  1.00  0.00    -0.026 C 
ATOM     14  C   UNL     1     -15.787 -37.672  -5.484  1.00  0.00     0.005 C 
ATOM     15  C   UNL     1     -16.443 -39.028  -5.715  1.00  0.00    -0.001 C 
ATOM     16  C   UNL     1     -15.904 -41.254  -6.726  1.00  0.00     0.007 C 
ATOM     17  C   UNL     1     -15.666 -39.150  -8.168  1.00  0.00     0.012 C 
ATOM     18  C   UNL     1     -17.951 -39.037  -6.101  1.00  0.00     0.004 C 
ATOM     19  C   UNL     1     -17.369 -41.560  -6.308  1.00  0.00     0.005 C 
ATOM     20  C   UNL     1     -18.390 -40.446  -6.703  1.00  0.00     0.003 C 
ATOM     21  C   UNL     1     -18.802 -38.554  -4.887  1.00  0.00     0.085 C 
ATOM     22  C   UNL     1     -19.901 -40.818  -6.407  1.00  0.00    -0.000 C 
ATOM     23  C   UNL     1     -19.452 -39.678  -4.146  1.00  0.00     0.159 C 
ATOM     24  C   UNL     1     -20.178 -40.708  -4.910  1.00  0.00     0.005 C 
ATOM     25  C   UNL     1     -20.254 -42.265  -6.892  1.00  0.00     0.020 C 
ATOM     26  C   UNL     1     -20.823 -39.823  -7.168  1.00  0.00     0.017 C 
ATOM     27  O   UNL     1     -19.435 -39.695  -2.884  1.00  0.00    -0.295 OA
ATOM     28  C   UNL     1     -21.135 -41.446  -4.314  1.00  0.00     0.055 C 
ATOM     29  C   UNL     1     -21.687 -42.672  -6.524  1.00  0.00     0.081 C 
ATOM     30  C   UNL     1     -21.922 -42.445  -5.060  1.00  0.00     0.156 C 
ATOM     31  O   UNL     1     -22.808 -43.111  -4.458  1.00  0.00    -0.295 OA
ENDBRANCH   9  11
ENDBRANCH   8   9
ENDBRANCH   1   8
TORSDOF 6
ENDMDL
MODEL 2
REMARK VINA RESULT:    -4.250      2.943      8.089
REMARK INTER + INTRA:          -6.034
REMARK INTER:                  -6.738
REMARK INTRA:                   0.704
REMARK UNBOUND:                -0.293
REMARK SMILES CC[C@@H](CC[C@@H](C)[C@H]1CC[C@H]2[C@@H]3CC(=O)C4=CC(=O)CC[C@]4(C)[C@@H]3CC[C@]12C)C(C)C
REMARK SMILES IDX 4 1 3 2 2 3 1 4 29 5 30 6 31 7 5 8 6 9 7 10 8 11 9 12 27 13
REMARK SMILES IDX 10 14 11 15 26 16 28 17 12 18 25 19 24 20 13 21 22 22 14 23
REMARK SMILES IDX 16 24 21 25 23 26 15 27 17 28 20 29 18 30 19 31
REMARK H PARENT
REMARK Flexibility Score: inf
ROOT
ATOM      1  C   UNL     1     -22.389 -37.786  -5.673  1.00  0.00     0.004 C 
ENDROOT
BRANCH   1   2
ATOM      2  C   UNL     1     -21.942 -36.630  -4.723  1.00  0.00    -0.009 C 
BRANCH   2   3
ATOM      3  C   UNL     1     -22.705 -35.311  -5.042  1.00  0.00     0.000 C 
ATOM      4  C   UNL     1     -22.946 -34.454  -3.801  1.00  0.00     0.004 C 
ENDBRANCH   2   3
BRANCH   2   5
ATOM      5  C   UNL     1     -20.394 -36.390  -4.729  1.00  0.00    -0.014 C 
ATOM      6  C   UNL     1     -20.055 -34.894  -4.825  1.00  0.00     0.007 C 
ATOM      7  C   UNL     1     -19.656 -37.029  -3.538  1.00  0.00     0.007 C 
ENDBRANCH   2   5
ENDBRANCH   1   2
BRANCH   1   8
ATOM      8  C   UNL     1     -22.934 -39.031  -4.936  1.00  0.00     0.004 C 
BRANCH   8   9
ATOM      9  C   UNL     1     -22.903 -40.364  -5.740  1.00  0.00    -0.011 C 
ATOM     10  C   UNL     1     -23.125 -40.073  -7.237  1.00  0.00     0.008 C 
BRANCH   9  11
ATOM     11  C   UNL     1     -21.551 -41.125  -5.519  1.00  0.00    -0.002 C 
ATOM     12  C   UNL     1     -21.658 -42.650  -5.771  1.00  0.00     0.005 C 
ATOM     13  C   UNL     1     -20.325 -40.702  -6.390  1.00  0.00    -0.026 C 
ATOM     14  C   UNL     1     -20.285 -43.125  -6.262  1.00  0.00     0.005 C 
ATOM     15  C   UNL     1     -19.391 -41.896  -6.149  1.00  0.00    -0.001 C 
ATOM     16  C   UNL     1     -19.593 -39.411  -5.916  1.00  0.00     0.007 C 
ATOM     17  C   UNL     1     -20.747 -40.568  -7.890  1.00  0.00     0.012 C 
ATOM     18  C   UNL     1     -18.095 -41.872  -7.011  1.00  0.00     0.004 C 
ATOM     19  C   UNL     1     -18.042 -39.495  -5.967  1.00  0.00     0.005 C 
ATOM     20  C   UNL     1     -17.489 -40.401  -7.111  1.00  0.00     0.003 C 
ATOM     21  C   UNL     1     -17.100 -42.952  -6.485  1.00  0.00     0.085 C 
ATOM     22  C   UNL     1     -15.912 -40.375  -7.254  1.00  0.00    -0.000 C 
ATOM     23  C   UNL     1     -16.007 -42.377  -5.643  1.00  0.00     0.159 C 
ATOM     24  C   UNL     1     -15.277 -41.195  -6.135  1.00  0.00     0.005 C 
ATOM     25  C   UNL     1     -15.344 -38.916  -7.209  1.00  0.00     0.020 C 
ATOM     26  C   UNL     1     -15.520 -40.997  -8.625  1.00  0.00     0.017 C 
ATOM     27  O   UNL     1     -15.675 -42.945  -4.566  1.00  0.00    -0.295 OA
ATOM     28  C   UNL     1     -14.037 -40.926  -5.680  1.00  0.00     0.055 C 
ATOM     29  C   UNL     1     -13.810 -38.883  -7.250  1.00  0.00     0.081 C 
ATOM     30  C   UNL     1     -13.253 -39.787  -6.190  1.00  0.00     0.156 C 
ATOM     31  O   UNL     1     -12.097 -39.576  -5.733  1.00  0.00    -0.295 OA
ENDBRANCH   9  11
ENDBRANCH   8   9
ENDBRANCH   1   8
TORSDOF 6
ENDMDL
MODEL 3
REMARK VINA RESULT:    -3.891      2.080      3.458
REMARK INTER + INTRA:          -5.549
REMARK INTER:                  -5.854
REMARK INTRA:                   0.305
REMARK UNBOUND:                -0.293
REMARK SMILES CC[C@@H](CC[C@@H](C)[C@H]1CC[C@H]2[C@@H]3CC(=O)C4=CC(=O)CC[C@]4(C)[C@@H]3CC[C@]12C)C(C)C
REMARK SMILES IDX 4 1 3 2 2 3 1 4 29 5 30 6 31 7 5 8 6 9 7 10 8 11 9 12 27 13
REMARK SMILES IDX 10 14 11 15 26 16 28 17 12 18 25 19 24 20 13 21 22 22 14 23
REMARK SMILES IDX 16 24 21 25 23 26 15 27 17 28 20 29 18 30 19 31
REMARK H PARENT
REMARK Flexibility Score: inf
ROOT
ATOM      1  C   UNL     1     -13.180 -37.180  -8.753  1.00  0.00     0.004 C 
ENDROOT
BRANCH   1   2
ATOM      2  C   UNL     1     -12.284 -36.115  -9.463  1.00  0.00    -0.009 C 
BRANCH   2   3
ATOM      3  C   UNL     1     -13.056 -35.407 -10.615  1.00  0.00     0.000 C 
ATOM      4  C   UNL     1     -12.887 -33.889 -10.590  1.00  0.00     0.004 C 
ENDBRANCH   2   3
BRANCH   2   5
ATOM      5  C   UNL     1     -10.926 -36.699  -9.981  1.00  0.00    -0.014 C 
ATOM      6  C   UNL     1     -10.877 -36.733 -11.517  1.00  0.00     0.007 C 
ATOM      7  C   UNL     1      -9.682 -35.984  -9.423  1.00  0.00     0.007 C 
ENDBRANCH   2   5
ENDBRANCH   1   2
BRANCH   1   8
ATOM      8  C   UNL     1     -12.431 -38.036  -7.706  1.00  0.00     0.004 C 
BRANCH   8   9
ATOM      9  C   UNL     1     -13.155 -39.336  -7.249  1.00  0.00    -0.011 C 
ATOM     10  C   UNL     1     -12.869 -39.594  -5.758  1.00  0.00     0.008 C 
BRANCH   9  11
ATOM     11  C   UNL     1     -14.699 -39.244  -7.508  1.00  0.00    -0.002 C 
ATOM     12  C   UNL     1     -15.246 -40.408  -8.371  1.00  0.00     0.005 C 
ATOM     13  C   UNL     1     -15.647 -39.238  -6.267  1.00  0.00    -0.026 C 
ATOM     14  C   UNL     1     -16.699 -40.645  -7.941  1.00  0.00     0.005 C 
ATOM     15  C   UNL     1     -16.992 -39.527  -6.947  1.00  0.00    -0.001 C 
ATOM     16  C   UNL     1     -15.761 -37.872  -5.529  1.00  0.00     0.007 C 
ATOM     17  C   UNL     1     -15.232 -40.364  -5.263  1.00  0.00     0.012 C 
ATOM     18  C   UNL     1     -18.171 -39.743  -5.954  1.00  0.00     0.004 C 
ATOM     19  C   UNL     1     -17.204 -37.492  -5.094  1.00  0.00     0.005 C 
ATOM     20  C   UNL     1     -18.105 -38.717  -4.738  1.00  0.00     0.003 C 
ATOM     21  C   UNL     1     -19.520 -39.738  -6.738  1.00  0.00     0.085 C 
ATOM     22  C   UNL     1     -19.527 -38.328  -4.158  1.00  0.00    -0.000 C 
ATOM     23  C   UNL     1     -20.257 -38.442  -6.621  1.00  0.00     0.159 C 
ATOM     24  C   UNL     1     -20.430 -37.840  -5.288  1.00  0.00     0.005 C 
ATOM     25  C   UNL     1     -19.428 -37.215  -3.061  1.00  0.00     0.020 C 
ATOM     26  C   UNL     1     -20.166 -39.586  -3.505  1.00  0.00     0.017 C 
ATOM     27  O   UNL     1     -20.779 -37.919  -7.645  1.00  0.00    -0.295 OA
ATOM     28  C   UNL     1     -21.434 -36.970  -5.062  1.00  0.00     0.055 C 
ATOM     29  C   UNL     1     -20.806 -36.761  -2.561  1.00  0.00     0.081 C 
ATOM     30  C   UNL     1     -21.675 -36.392  -3.727  1.00  0.00     0.156 C 
ATOM     31  O   UNL     1     -22.628 -35.582  -3.566  1.00  0.00    -0.295 OA
ENDBRANCH   9  11
ENDBRANCH   8   9
ENDBRANCH   1   8
TORSDOF 6
ENDMDL
