MODEL 1
REMARK VINA RESULT:    -5.361      0.000      0.000
REMARK INTER + INTRA:          -9.685
REMARK INTER:                  -7.242
REMARK INTRA:                  -2.444
REMARK UNBOUND:                -2.444
REMARK SMILES CC[C@H](CC[C@@H](C)[C@H]1CC[C@@H]2[C@H]3CC(=O)C4=CC(=O)CC[C@]4(C)[C@@H]3CC[C@@]21C)C(C)C
REMARK SMILES IDX 4 1 3 2 2 3 1 4 29 5 30 6 31 7 5 8 6 9 7 10 8 11 9 12 27 13
REMARK SMILES IDX 10 14 11 15 26 16 28 17 12 18 25 19 24 20 13 21 22 22 14 23
REMARK SMILES IDX 16 24 21 25 23 26 15 27 17 28 20 29 18 30 19 31
REMARK H PARENT
REMARK Flexibility Score: inf
ROOT
ATOM      1  C   UNL     1     184.888 186.040 194.778  1.00  0.00     0.004 C 
ENDROOT
BRANCH   1   2
ATOM      2  C   UNL     1     185.962 187.182 194.778  1.00  0.00    -0.009 C 
BRANCH   2   3
ATOM      3  C   UNL     1     185.386 188.442 195.499  1.00  0.00     0.000 C 
ATOM      4  C   UNL     1     186.101 189.740 195.114  1.00  0.00     0.004 C 
ENDBRANCH   2   3
BRANCH   2   5
ATOM      5  C   UNL     1     187.313 186.675 195.397  1.00  0.00    -0.014 C 
ATOM      6  C   UNL     1     188.393 186.355 194.347  1.00  0.00     0.007 C 
ATOM      7  C   UNL     1     187.095 185.406 196.247  1.00  0.00     0.007 C 
ENDBRANCH   2   5
ENDBRANCH   1   2
BRANCH   1   8
ATOM      8  C   UNL     1     184.696 185.383 193.395  1.00  0.00     0.004 C 
BRANCH   8   9
ATOM      9  C   UNL     1     184.870 186.335 192.177  1.00  0.00    -0.011 C 
ATOM     10  C   UNL     1     185.752 185.670 191.102  1.00  0.00     0.008 C 
BRANCH   9  11
ATOM     11  C   UNL     1     183.556 187.034 191.635  1.00  0.00    -0.002 C 
ATOM     12  C   UNL     1     182.315 186.436 192.326  1.00  0.00     0.005 C 
ATOM     13  C   UNL     1     183.326 188.586 191.760  1.00  0.00    -0.026 C 
ATOM     14  C   UNL     1     181.811 187.473 193.332  1.00  0.00     0.005 C 
ATOM     15  C   UNL     1     182.680 188.731 193.163  1.00  0.00    -0.001 C 
ATOM     16  C   UNL     1     182.342 189.050 190.606  1.00  0.00     0.007 C 
ATOM     17  C   UNL     1     184.621 189.424 191.652  1.00  0.00     0.012 C 
ATOM     18  C   UNL     1     181.891 190.055 193.449  1.00  0.00     0.004 C 
ATOM     19  C   UNL     1     181.120 189.868 191.053  1.00  0.00     0.005 C 
ATOM     20  C   UNL     1     181.487 190.842 192.179  1.00  0.00     0.003 C 
ATOM     21  C   UNL     1     182.675 191.008 194.375  1.00  0.00     0.085 C 
ATOM     22  C   UNL     1     180.400 191.945 192.500  1.00  0.00    -0.000 C 
ATOM     23  C   UNL     1     181.905 192.278 194.616  1.00  0.00     0.159 C 
ATOM     24  C   UNL     1     180.626 192.528 193.904  1.00  0.00     0.005 C 
ATOM     25  C   UNL     1     178.951 191.372 192.435  1.00  0.00     0.020 C 
ATOM     26  C   UNL     1     180.554 193.097 191.473  1.00  0.00     0.017 C 
ATOM     27  O   UNL     1     182.342 193.111 195.457  1.00  0.00    -0.295 OA
ATOM     28  C   UNL     1     179.643 193.187 194.541  1.00  0.00     0.055 C 
ATOM     29  C   UNL     1     177.880 192.413 192.805  1.00  0.00     0.081 C 
ATOM     30  C   UNL     1     178.270 193.222 194.009  1.00  0.00     0.156 C 
ATOM     31  O   UNL     1     177.407 193.944 194.576  1.00  0.00    -0.295 OA
ENDBRANCH   9  11
ENDBRANCH   8   9
ENDBRANCH   1   8
TORSDOF 6
ENDMDL
MODEL 2
REMARK VINA RESULT:    -5.310      6.532     12.203
REMARK INTER + INTRA:          -9.616
REMARK INTER:                  -7.168
REMARK INTRA:                  -2.449
REMARK UNBOUND:                -2.444
REMARK SMILES CC[C@H](CC[C@@H](C)[C@H]1CC[C@@H]2[C@H]3CC(=O)C4=CC(=O)CC[C@]4(C)[C@@H]3CC[C@@]21C)C(C)C
REMARK SMILES IDX 4 1 3 2 2 3 1 4 29 5 30 6 31 7 5 8 6 9 7 10 8 11 9 12 27 13
REMARK SMILES IDX 10 14 11 15 26 16 28 17 12 18 25 19 24 20 13 21 22 22 14 23
REMARK SMILES IDX 16 24 21 25 23 26 15 27 17 28 20 29 18 30 19 31
REMARK H PARENT
REMARK Flexibility Score: inf
ROOT
ATOM      1  C   UNL     1     187.819 186.887 194.717  1.00  0.00     0.004 C 
ENDROOT
BRANCH   1   2
ATOM      2  C   UNL     1     186.773 185.720 194.766  1.00  0.00    -0.009 C 
BRANCH   2   3
ATOM      3  C   UNL     1     187.387 184.498 195.520  1.00  0.00     0.000 C 
ATOM      4  C   UNL     1     186.703 183.171 195.179  1.00  0.00     0.004 C 
ENDBRANCH   2   3
BRANCH   2   5
ATOM      5  C   UNL     1     185.417 186.215 195.385  1.00  0.00    -0.014 C 
ATOM      6  C   UNL     1     184.350 186.572 194.333  1.00  0.00     0.007 C 
ATOM      7  C   UNL     1     185.631 187.457 196.276  1.00  0.00     0.007 C 
ENDBRANCH   2   5
ENDBRANCH   1   2
BRANCH   1   8
ATOM      8  C   UNL     1     188.019 187.467 193.301  1.00  0.00     0.004 C 
BRANCH   8   9
ATOM      9  C   UNL     1     187.834 186.454 192.135  1.00  0.00    -0.011 C 
ATOM     10  C   UNL     1     186.926 187.055 191.045  1.00  0.00     0.008 C 
BRANCH   9  11
ATOM     11  C   UNL     1     189.146 185.742 191.605  1.00  0.00    -0.002 C 
ATOM     12  C   UNL     1     190.388 186.332 192.301  1.00  0.00     0.005 C 
ATOM     13  C   UNL     1     189.363 184.189 191.737  1.00  0.00    -0.026 C 
ATOM     14  C   UNL     1     190.877 185.296 193.315  1.00  0.00     0.005 C 
ATOM     15  C   UNL     1     189.998 184.044 193.145  1.00  0.00    -0.001 C 
ATOM     16  C   UNL     1     190.350 183.712 190.592  1.00  0.00     0.007 C 
ATOM     17  C   UNL     1     188.062 183.361 191.624  1.00  0.00     0.012 C 
ATOM     18  C   UNL     1     190.775 182.715 193.441  1.00  0.00     0.004 C 
ATOM     19  C   UNL     1     191.563 182.886 191.050  1.00  0.00     0.005 C 
ATOM     20  C   UNL     1     191.181 181.920 192.178  1.00  0.00     0.003 C 
ATOM     21  C   UNL     1     189.977 181.772 194.367  1.00  0.00     0.085 C 
ATOM     22  C   UNL     1     192.257 180.809 192.510  1.00  0.00    -0.000 C 
ATOM     23  C   UNL     1     190.735 180.498 194.618  1.00  0.00     0.159 C 
ATOM     24  C   UNL     1     192.017 180.234 193.915  1.00  0.00     0.005 C 
ATOM     25  C   UNL     1     193.711 181.371 192.452  1.00  0.00     0.020 C 
ATOM     26  C   UNL     1     192.100 179.654 191.487  1.00  0.00     0.017 C 
ATOM     27  O   UNL     1     190.287 179.672 195.459  1.00  0.00    -0.295 OA
ATOM     28  C   UNL     1     192.991 179.570 194.561  1.00  0.00     0.055 C 
ATOM     29  C   UNL     1     194.771 180.323 192.834  1.00  0.00     0.081 C 
ATOM     30  C   UNL     1     194.366 179.522 194.038  1.00  0.00     0.156 C 
ATOM     31  O   UNL     1     195.220 178.795 194.613  1.00  0.00    -0.295 OA
ENDBRANCH   9  11
ENDBRANCH   8   9
ENDBRANCH   1   8
TORSDOF 6
ENDMDL
MODEL 3
REMARK VINA RESULT:    -5.211      3.560      6.545
REMARK INTER + INTRA:          -9.483
REMARK INTER:                  -8.521
REMARK INTRA:                  -0.962
REMARK UNBOUND:                -2.444
REMARK SMILES CC[C@H](CC[C@@H](C)[C@H]1CC[C@@H]2[C@H]3CC(=O)C4=CC(=O)CC[C@]4(C)[C@@H]3CC[C@@]21C)C(C)C
REMARK SMILES IDX 4 1 3 2 2 3 1 4 29 5 30 6 31 7 5 8 6 9 7 10 8 11 9 12 27 13
REMARK SMILES IDX 10 14 11 15 26 16 28 17 12 18 25 19 24 20 13 21 22 22 14 23
REMARK SMILES IDX 16 24 21 25 23 26 15 27 17 28 20 29 18 30 19 31
REMARK H PARENT
REMARK Flexibility Score: inf
ROOT
ATOM      1  C   UNL     1     192.194 187.589 193.061  1.00  0.00     0.004 C 
ENDROOT
BRANCH   1   2
ATOM      2  C   UNL     1     193.110 188.393 194.047  1.00  0.00    -0.009 C 
BRANCH   2   3
ATOM      3  C   UNL     1     193.684 187.428 195.132  1.00  0.00     0.000 C 
ATOM      4  C   UNL     1     194.570 188.134 196.163  1.00  0.00     0.004 C 
ENDBRANCH   2   3
BRANCH   2   5
ATOM      5  C   UNL     1     194.221 189.176 193.261  1.00  0.00    -0.014 C 
ATOM      6  C   UNL     1     194.296 190.672 193.620  1.00  0.00     0.007 C 
ATOM      7  C   UNL     1     194.005 189.070 191.737  1.00  0.00     0.007 C 
ENDBRANCH   2   5
ENDBRANCH   1   2
BRANCH   1   8
ATOM      8  C   UNL     1     191.273 186.576 193.773  1.00  0.00     0.004 C 
BRANCH   8   9
ATOM      9  C   UNL     1     190.990 185.267 192.981  1.00  0.00    -0.011 C 
ATOM     10  C   UNL     1     191.955 184.152 193.430  1.00  0.00     0.008 C 
BRANCH   9  11
ATOM     11  C   UNL     1     189.471 184.834 192.855  1.00  0.00    -0.002 C 
ATOM     12  C   UNL     1     188.865 184.612 194.255  1.00  0.00     0.005 C 
ATOM     13  C   UNL     1     188.402 185.742 192.140  1.00  0.00    -0.026 C 
ATOM     14  C   UNL     1     187.948 185.801 194.547  1.00  0.00     0.005 C 
ATOM     15  C   UNL     1     187.917 186.674 193.280  1.00  0.00    -0.001 C 
ATOM     16  C   UNL     1     187.234 184.820 191.593  1.00  0.00     0.007 C 
ATOM     17  C   UNL     1     188.965 186.558 190.953  1.00  0.00     0.012 C 
ATOM     18  C   UNL     1     186.539 187.393 193.074  1.00  0.00     0.004 C 
ATOM     19  C   UNL     1     185.808 185.231 191.997  1.00  0.00     0.005 C 
ATOM     20  C   UNL     1     185.646 186.755 191.983  1.00  0.00     0.003 C 
ATOM     21  C   UNL     1     186.711 188.890 192.741  1.00  0.00     0.085 C 
ATOM     22  C   UNL     1     184.156 187.278 192.072  1.00  0.00    -0.000 C 
ATOM     23  C   UNL     1     185.376 189.550 192.527  1.00  0.00     0.159 C 
ATOM     24  C   UNL     1     184.129 188.743 192.536  1.00  0.00     0.005 C 
ATOM     25  C   UNL     1     183.301 186.433 193.066  1.00  0.00     0.020 C 
ATOM     26  C   UNL     1     183.529 187.213 190.655  1.00  0.00     0.017 C 
ATOM     27  O   UNL     1     185.326 190.800 192.376  1.00  0.00    -0.295 OA
ATOM     28  C   UNL     1     183.006 189.282 193.041  1.00  0.00     0.055 C 
ATOM     29  C   UNL     1     181.864 186.962 193.216  1.00  0.00     0.081 C 
ATOM     30  C   UNL     1     181.822 188.459 193.338  1.00  0.00     0.156 C 
ATOM     31  O   UNL     1     180.755 189.021 193.702  1.00  0.00    -0.295 OA
ENDBRANCH   9  11
ENDBRANCH   8   9
ENDBRANCH   1   8
TORSDOF 6
ENDMDL
MODEL 4
REMARK VINA RESULT:    -5.211      1.164      1.575
REMARK INTER + INTRA:          -9.482
REMARK INTER:                  -7.035
REMARK INTRA:                  -2.448
REMARK UNBOUND:                -2.444
REMARK SMILES CC[C@H](CC[C@@H](C)[C@H]1CC[C@@H]2[C@H]3CC(=O)C4=CC(=O)CC[C@]4(C)[C@@H]3CC[C@@]21C)C(C)C
REMARK SMILES IDX 4 1 3 2 2 3 1 4 29 5 30 6 31 7 5 8 6 9 7 10 8 11 9 12 27 13
REMARK SMILES IDX 10 14 11 15 26 16 28 17 12 18 25 19 24 20 13 21 22 22 14 23
REMARK SMILES IDX 16 24 21 25 23 26 15 27 17 28 20 29 18 30 19 31
REMARK H PARENT
REMARK Flexibility Score: inf
ROOT
ATOM      1  C   UNL     1     186.680 184.961 193.996  1.00  0.00     0.004 C 
ENDROOT
BRANCH   1   2
ATOM      2  C   UNL     1     186.289 186.197 194.878  1.00  0.00    -0.009 C 
BRANCH   2   3
ATOM      3  C   UNL     1     185.862 185.711 196.300  1.00  0.00     0.000 C 
ATOM      4  C   UNL     1     186.176 186.725 197.405  1.00  0.00     0.004 C 
ENDBRANCH   2   3
BRANCH   2   5
ATOM      5  C   UNL     1     187.451 187.252 194.904  1.00  0.00    -0.014 C 
ATOM      6  C   UNL     1     187.038 188.641 194.384  1.00  0.00     0.007 C 
ATOM      7  C   UNL     1     188.655 186.775 194.064  1.00  0.00     0.007 C 
ENDBRANCH   2   5
ENDBRANCH   1   2
BRANCH   1   8
ATOM      8  C   UNL     1     185.752 184.760 192.780  1.00  0.00     0.004 C 
BRANCH   8   9
ATOM      9  C   UNL     1     185.659 185.971 191.808  1.00  0.00    -0.011 C 
ATOM     10  C   UNL     1     186.466 185.690 190.527  1.00  0.00     0.008 C 
BRANCH   9  11
ATOM     11  C   UNL     1     184.215 186.581 191.577  1.00  0.00    -0.002 C 
ATOM     12  C   UNL     1     183.209 185.949 192.559  1.00  0.00     0.005 C 
ATOM     13  C   UNL     1     183.930 188.123 191.712  1.00  0.00    -0.026 C 
ATOM     14  C   UNL     1     182.898 186.998 193.629  1.00  0.00     0.005 C 
ATOM     15  C   UNL     1     183.627 188.291 193.224  1.00  0.00    -0.001 C 
ATOM     16  C   UNL     1     182.676 188.490 190.814  1.00  0.00     0.007 C 
ATOM     17  C   UNL     1     185.111 189.021 191.276  1.00  0.00     0.012 C 
ATOM     18  C   UNL     1     182.852 189.583 193.654  1.00  0.00     0.004 C 
ATOM     19  C   UNL     1     181.548 189.263 191.518  1.00  0.00     0.005 C 
ATOM     20  C   UNL     1     182.113 190.298 192.497  1.00  0.00     0.003 C 
ATOM     21  C   UNL     1     183.775 190.611 194.342  1.00  0.00     0.085 C 
ATOM     22  C   UNL     1     181.070 191.356 193.039  1.00  0.00    -0.000 C 
ATOM     23  C   UNL     1     183.011 191.848 194.726  1.00  0.00     0.159 C 
ATOM     24  C   UNL     1     181.587 192.005 194.333  1.00  0.00     0.005 C 
ATOM     25  C   UNL     1     179.683 190.708 193.336  1.00  0.00     0.020 C 
ATOM     26  C   UNL     1     180.909 192.473 191.975  1.00  0.00     0.017 C 
ATOM     27  O   UNL     1     183.584 192.735 195.416  1.00  0.00    -0.295 OA
ATOM     28  C   UNL     1     180.745 192.638 195.168  1.00  0.00     0.055 C 
ATOM     29  C   UNL     1     178.670 191.707 193.923  1.00  0.00     0.081 C 
ATOM     30  C   UNL     1     179.287 192.582 194.977  1.00  0.00     0.156 C 
ATOM     31  O   UNL     1     178.541 193.281 195.714  1.00  0.00    -0.295 OA
ENDBRANCH   9  11
ENDBRANCH   8   9
ENDBRANCH   1   8
TORSDOF 6
ENDMDL
MODEL 5
REMARK VINA RESULT:    -5.154      2.663      7.924
REMARK INTER + INTRA:          -9.406
REMARK INTER:                  -7.004
REMARK INTRA:                  -2.402
REMARK UNBOUND:                -2.444
REMARK SMILES CC[C@H](CC[C@@H](C)[C@H]1CC[C@@H]2[C@H]3CC(=O)C4=CC(=O)CC[C@]4(C)[C@@H]3CC[C@@]21C)C(C)C
REMARK SMILES IDX 4 1 3 2 2 3 1 4 29 5 30 6 31 7 5 8 6 9 7 10 8 11 9 12 27 13
REMARK SMILES IDX 10 14 11 15 26 16 28 17 12 18 25 19 24 20 13 21 22 22 14 23
REMARK SMILES IDX 16 24 21 25 23 26 15 27 17 28 20 29 18 30 19 31
REMARK H PARENT
REMARK Flexibility Score: inf
ROOT
ATOM      1  C   UNL     1     179.338 193.553 193.015  1.00  0.00     0.004 C 
ENDROOT
BRANCH   1   2
ATOM      2  C   UNL     1     179.316 192.011 192.734  1.00  0.00    -0.009 C 
BRANCH   2   3
ATOM      3  C   UNL     1     178.784 191.257 193.994  1.00  0.00     0.000 C 
ATOM      4  C   UNL     1     179.586 189.996 194.329  1.00  0.00     0.004 C 
ENDBRANCH   2   3
BRANCH   2   5
ATOM      5  C   UNL     1     178.501 191.695 191.430  1.00  0.00    -0.014 C 
ATOM      6  C   UNL     1     179.379 191.255 190.243  1.00  0.00     0.007 C 
ATOM      7  C   UNL     1     177.679 192.919 190.976  1.00  0.00     0.007 C 
ENDBRANCH   2   5
ENDBRANCH   1   2
BRANCH   1   8
ATOM      8  C   UNL     1     180.764 194.135 193.112  1.00  0.00     0.004 C 
BRANCH   8   9
ATOM      9  C   UNL     1     181.747 193.675 191.998  1.00  0.00    -0.011 C 
ATOM     10  C   UNL     1     181.811 194.729 190.875  1.00  0.00     0.008 C 
BRANCH   9  11
ATOM     11  C   UNL     1     183.149 193.117 192.480  1.00  0.00    -0.002 C 
ATOM     12  C   UNL     1     183.277 193.258 194.010  1.00  0.00     0.005 C 
ATOM     13  C   UNL     1     183.588 191.628 192.217  1.00  0.00    -0.026 C 
ATOM     14  C   UNL     1     183.114 191.860 194.611  1.00  0.00     0.005 C 
ATOM     15  C   UNL     1     183.002 190.871 193.437  1.00  0.00    -0.001 C 
ATOM     16  C   UNL     1     185.172 191.562 192.187  1.00  0.00     0.007 C 
ATOM     17  C   UNL     1     183.058 191.043 190.888  1.00  0.00     0.012 C 
ATOM     18  C   UNL     1     183.619 189.469 193.767  1.00  0.00     0.004 C 
ATOM     19  C   UNL     1     185.819 190.512 193.104  1.00  0.00     0.005 C 
ATOM     20  C   UNL     1     185.002 189.214 193.122  1.00  0.00     0.003 C 
ATOM     21  C   UNL     1     182.680 188.313 193.362  1.00  0.00     0.085 C 
ATOM     22  C   UNL     1     185.728 187.968 193.772  1.00  0.00    -0.000 C 
ATOM     23  C   UNL     1     183.305 186.979 193.670  1.00  0.00     0.159 C 
ATOM     24  C   UNL     1     184.698 186.902 194.179  1.00  0.00     0.005 C 
ATOM     25  C   UNL     1     186.548 188.366 195.037  1.00  0.00     0.020 C 
ATOM     26  C   UNL     1     186.670 187.342 192.711  1.00  0.00     0.017 C 
ATOM     27  O   UNL     1     182.619 185.931 193.525  1.00  0.00    -0.295 OA
ATOM     28  C   UNL     1     185.016 185.945 195.069  1.00  0.00     0.055 C 
ATOM     29  C   UNL     1     187.211 187.158 195.723  1.00  0.00     0.081 C 
ATOM     30  C   UNL     1     186.282 185.982 195.819  1.00  0.00     0.156 C 
ATOM     31  O   UNL     1     186.590 185.009 196.558  1.00  0.00    -0.295 OA
ENDBRANCH   9  11
ENDBRANCH   8   9
ENDBRANCH   1   8
TORSDOF 6
ENDMDL
MODEL 6
REMARK VINA RESULT:    -5.149      6.395     10.189
REMARK INTER + INTRA:          -9.399
REMARK INTER:                  -6.768
REMARK INTRA:                  -2.630
REMARK UNBOUND:                -2.444
REMARK SMILES CC[C@H](CC[C@@H](C)[C@H]1CC[C@@H]2[C@H]3CC(=O)C4=CC(=O)CC[C@]4(C)[C@@H]3CC[C@@]21C)C(C)C
REMARK SMILES IDX 4 1 3 2 2 3 1 4 29 5 30 6 31 7 5 8 6 9 7 10 8 11 9 12 27 13
REMARK SMILES IDX 10 14 11 15 26 16 28 17 12 18 25 19 24 20 13 21 22 22 14 23
REMARK SMILES IDX 16 24 21 25 23 26 15 27 17 28 20 29 18 30 19 31
REMARK H PARENT
REMARK Flexibility Score: inf
ROOT
ATOM      1  C   UNL     1     193.495 179.044 193.279  1.00  0.00     0.004 C 
ENDROOT
BRANCH   1   2
ATOM      2  C   UNL     1     193.429 180.585 193.003  1.00  0.00    -0.009 C 
BRANCH   2   3
ATOM      3  C   UNL     1     193.720 181.366 194.324  1.00  0.00     0.000 C 
ATOM      4  C   UNL     1     193.286 182.834 194.268  1.00  0.00     0.004 C 
ENDBRANCH   2   3
BRANCH   2   5
ATOM      5  C   UNL     1     194.387 180.981 191.823  1.00  0.00    -0.014 C 
ATOM      6  C   UNL     1     193.648 181.442 190.554  1.00  0.00     0.007 C 
ATOM      7  C   UNL     1     195.303 179.803 191.431  1.00  0.00     0.007 C 
ENDBRANCH   2   5
ENDBRANCH   1   2
BRANCH   1   8
ATOM      8  C   UNL     1     192.181 178.307 192.942  1.00  0.00     0.004 C 
BRANCH   8   9
ATOM      9  C   UNL     1     191.265 179.022 191.908  1.00  0.00    -0.011 C 
ATOM     10  C   UNL     1     191.207 178.214 190.598  1.00  0.00     0.008 C 
BRANCH   9  11
ATOM     11  C   UNL     1     189.868 179.541 192.444  1.00  0.00    -0.002 C 
ATOM     12  C   UNL     1     189.808 179.411 193.979  1.00  0.00     0.005 C 
ATOM     13  C   UNL     1     189.370 181.012 192.188  1.00  0.00    -0.026 C 
ATOM     14  C   UNL     1     189.951 180.819 194.560  1.00  0.00     0.005 C 
ATOM     15  C   UNL     1     189.983 181.800 193.375  1.00  0.00    -0.001 C 
ATOM     16  C   UNL     1     187.785 181.028 192.223  1.00  0.00     0.007 C 
ATOM     17  C   UNL     1     189.825 181.601 190.832  1.00  0.00     0.012 C 
ATOM     18  C   UNL     1     189.335 183.185 193.718  1.00  0.00     0.004 C 
ATOM     19  C   UNL     1     187.144 182.067 193.157  1.00  0.00     0.005 C 
ATOM     20  C   UNL     1     187.919 183.389 193.130  1.00  0.00     0.003 C 
ATOM     21  C   UNL     1     190.219 184.366 193.265  1.00  0.00     0.085 C 
ATOM     22  C   UNL     1     187.182 184.618 193.800  1.00  0.00    -0.000 C 
ATOM     23  C   UNL     1     189.566 185.682 193.588  1.00  0.00     0.159 C 
ATOM     24  C   UNL     1     188.193 185.721 194.154  1.00  0.00     0.005 C 
ATOM     25  C   UNL     1     186.428 184.207 195.102  1.00  0.00     0.020 C 
ATOM     26  C   UNL     1     186.176 185.204 192.775  1.00  0.00     0.017 C 
ATOM     27  O   UNL     1     190.211 186.750 193.404  1.00  0.00    -0.295 OA
ATOM     28  C   UNL     1     187.883 186.675 195.049  1.00  0.00     0.055 C 
ATOM     29  C   UNL     1     185.756 185.400 195.805  1.00  0.00     0.081 C 
ATOM     30  C   UNL     1     186.651 186.606 195.852  1.00  0.00     0.156 C 
ATOM     31  O   UNL     1     186.343 187.576 196.594  1.00  0.00    -0.295 OA
ENDBRANCH   9  11
ENDBRANCH   8   9
ENDBRANCH   1   8
TORSDOF 6
ENDMDL
MODEL 7
REMARK VINA RESULT:    -5.014     12.358     15.184
REMARK INTER + INTRA:          -9.216
REMARK INTER:                  -6.708
REMARK INTRA:                  -2.508
REMARK UNBOUND:                -2.444
REMARK SMILES CC[C@H](CC[C@@H](C)[C@H]1CC[C@@H]2[C@H]3CC(=O)C4=CC(=O)CC[C@]4(C)[C@@H]3CC[C@@]21C)C(C)C
REMARK SMILES IDX 4 1 3 2 2 3 1 4 29 5 30 6 31 7 5 8 6 9 7 10 8 11 9 12 27 13
REMARK SMILES IDX 10 14 11 15 26 16 28 17 12 18 25 19 24 20 13 21 22 22 14 23
REMARK SMILES IDX 16 24 21 25 23 26 15 27 17 28 20 29 18 30 19 31
REMARK H PARENT
REMARK Flexibility Score: inf
ROOT
ATOM      1  C   UNL     1     193.819 181.366 191.567  1.00  0.00     0.004 C 
ENDROOT
BRANCH   1   2
ATOM      2  C   UNL     1     192.421 180.710 191.834  1.00  0.00    -0.009 C 
BRANCH   2   3
ATOM      3  C   UNL     1     191.574 181.642 192.757  1.00  0.00     0.000 C 
ATOM      4  C   UNL     1     192.410 182.703 193.479  1.00  0.00     0.004 C 
ENDBRANCH   2   3
BRANCH   2   5
ATOM      5  C   UNL     1     191.705 180.356 190.482  1.00  0.00    -0.014 C 
ATOM      6  C   UNL     1     190.180 180.186 190.615  1.00  0.00     0.007 C 
ATOM      7  C   UNL     1     192.271 179.055 189.875  1.00  0.00     0.007 C 
ENDBRANCH   2   5
ENDBRANCH   1   2
BRANCH   1   8
ATOM      8  C   UNL     1     194.985 180.615 192.243  1.00  0.00     0.004 C 
BRANCH   8   9
ATOM      9  C   UNL     1     194.855 179.065 192.261  1.00  0.00    -0.011 C 
ATOM     10  C   UNL     1     195.899 178.430 191.322  1.00  0.00     0.008 C 
BRANCH   9  11
ATOM     11  C   UNL     1     194.726 178.384 193.686  1.00  0.00    -0.002 C 
ATOM     12  C   UNL     1     195.191 179.362 194.783  1.00  0.00     0.005 C 
ATOM     13  C   UNL     1     193.350 177.854 194.235  1.00  0.00    -0.026 C 
ATOM     14  C   UNL     1     193.939 179.867 195.502  1.00  0.00     0.005 C 
ATOM     15  C   UNL     1     192.738 179.108 194.911  1.00  0.00    -0.001 C 
ATOM     16  C   UNL     1     193.631 176.696 195.281  1.00  0.00     0.007 C 
ATOM     17  C   UNL     1     192.411 177.294 193.141  1.00  0.00     0.012 C 
ATOM     18  C   UNL     1     191.599 178.865 195.961  1.00  0.00     0.004 C 
ATOM     19  C   UNL     1     192.951 176.849 196.652  1.00  0.00     0.005 C 
ATOM     20  C   UNL     1     191.535 177.419 196.507  1.00  0.00     0.003 C 
ATOM     21  C   UNL     1     190.208 179.231 195.403  1.00  0.00     0.085 C 
ATOM     22  C   UNL     1     190.633 177.325 197.803  1.00  0.00    -0.000 C 
ATOM     23  C   UNL     1     189.133 178.969 196.422  1.00  0.00     0.159 C 
ATOM     24  C   UNL     1     189.468 178.324 197.718  1.00  0.00     0.005 C 
ATOM     25  C   UNL     1     191.444 177.628 199.101  1.00  0.00     0.020 C 
ATOM     26  C   UNL     1     190.035 175.897 197.881  1.00  0.00     0.017 C 
ATOM     27  O   UNL     1     187.952 179.336 196.178  1.00  0.00    -0.295 OA
ATOM     28  C   UNL     1     188.800 178.696 198.824  1.00  0.00     0.055 C 
ATOM     29  C   UNL     1     190.572 177.605 200.369  1.00  0.00     0.081 C 
ATOM     30  C   UNL     1     189.263 178.313 200.168  1.00  0.00     0.156 C 
ATOM     31  O   UNL     1     188.547 178.585 201.168  1.00  0.00    -0.295 OA
ENDBRANCH   9  11
ENDBRANCH   8   9
ENDBRANCH   1   8
TORSDOF 6
ENDMDL
MODEL 8
REMARK VINA RESULT:    -4.898      3.580      6.049
REMARK INTER + INTRA:          -9.060
REMARK INTER:                  -6.528
REMARK INTRA:                  -2.532
REMARK UNBOUND:                -2.444
REMARK SMILES CC[C@H](CC[C@@H](C)[C@H]1CC[C@@H]2[C@H]3CC(=O)C4=CC(=O)CC[C@]4(C)[C@@H]3CC[C@@]21C)C(C)C
REMARK SMILES IDX 4 1 3 2 2 3 1 4 29 5 30 6 31 7 5 8 6 9 7 10 8 11 9 12 27 13
REMARK SMILES IDX 10 14 11 15 26 16 28 17 12 18 25 19 24 20 13 21 22 22 14 23
REMARK SMILES IDX 16 24 21 25 23 26 15 27 17 28 20 29 18 30 19 31
REMARK H PARENT
REMARK Flexibility Score: inf
ROOT
ATOM      1  C   UNL     1     189.483 182.918 193.231  1.00  0.00     0.004 C 
ENDROOT
BRANCH   1   2
ATOM      2  C   UNL     1     189.493 184.383 192.672  1.00  0.00    -0.009 C 
BRANCH   2   3
ATOM      3  C   UNL     1     190.898 185.022 192.904  1.00  0.00     0.000 C 
ATOM      4  C   UNL     1     190.838 186.376 193.617  1.00  0.00     0.004 C 
ENDBRANCH   2   3
BRANCH   2   5
ATOM      5  C   UNL     1     189.039 184.407 191.169  1.00  0.00    -0.014 C 
ATOM      6  C   UNL     1     188.538 183.046 190.651  1.00  0.00     0.007 C 
ATOM      7  C   UNL     1     190.189 184.864 190.247  1.00  0.00     0.007 C 
ENDBRANCH   2   5
ENDBRANCH   1   2
BRANCH   1   8
ATOM      8  C   UNL     1     188.498 182.719 194.402  1.00  0.00     0.004 C 
BRANCH   8   9
ATOM      9  C   UNL     1     186.992 182.824 194.029  1.00  0.00    -0.011 C 
ATOM     10  C   UNL     1     186.306 181.453 194.188  1.00  0.00     0.008 C 
BRANCH   9  11
ATOM     11  C   UNL     1     186.197 184.051 194.639  1.00  0.00    -0.002 C 
ATOM     12  C   UNL     1     186.994 184.672 195.803  1.00  0.00     0.005 C 
ATOM     13  C   UNL     1     185.797 185.301 193.769  1.00  0.00    -0.026 C 
ATOM     14  C   UNL     1     187.584 185.990 195.298  1.00  0.00     0.005 C 
ATOM     15  C   UNL     1     187.048 186.212 193.873  1.00  0.00    -0.001 C 
ATOM     16  C   UNL     1     184.516 185.979 194.410  1.00  0.00     0.007 C 
ATOM     17  C   UNL     1     185.474 184.962 192.295  1.00  0.00     0.012 C 
ATOM     18  C   UNL     1     186.852 187.729 193.529  1.00  0.00     0.004 C 
ATOM     19  C   UNL     1     184.620 187.489 194.683  1.00  0.00     0.005 C 
ATOM     20  C   UNL     1     185.379 188.203 193.559  1.00  0.00     0.003 C 
ATOM     21  C   UNL     1     187.447 188.093 192.153  1.00  0.00     0.085 C 
ATOM     22  C   UNL     1     185.277 189.782 193.571  1.00  0.00    -0.000 C 
ATOM     23  C   UNL     1     187.227 189.548 191.839  1.00  0.00     0.159 C 
ATOM     24  C   UNL     1     186.420 190.400 192.751  1.00  0.00     0.005 C 
ATOM     25  C   UNL     1     185.343 190.359 195.018  1.00  0.00     0.020 C 
ATOM     26  C   UNL     1     183.936 190.190 192.905  1.00  0.00     0.017 C 
ATOM     27  O   UNL     1     187.766 190.043 190.812  1.00  0.00    -0.295 OA
ATOM     28  C   UNL     1     186.765 191.688 192.915  1.00  0.00     0.055 C 
ATOM     29  C   UNL     1     185.309 191.898 195.049  1.00  0.00     0.081 C 
ATOM     30  C   UNL     1     186.196 192.504 194.000  1.00  0.00     0.156 C 
ATOM     31  O   UNL     1     186.459 193.735 194.049  1.00  0.00    -0.295 OA
ENDBRANCH   9  11
ENDBRANCH   8   9
ENDBRANCH   1   8
TORSDOF 6
ENDMDL
MODEL 9
REMARK VINA RESULT:    -4.861      1.700      2.810
REMARK INTER + INTRA:          -9.009
REMARK INTER:                  -6.277
REMARK INTRA:                  -2.732
REMARK UNBOUND:                -2.444
REMARK SMILES CC[C@H](CC[C@@H](C)[C@H]1CC[C@@H]2[C@H]3CC(=O)C4=CC(=O)CC[C@]4(C)[C@@H]3CC[C@@]21C)C(C)C
REMARK SMILES IDX 4 1 3 2 2 3 1 4 29 5 30 6 31 7 5 8 6 9 7 10 8 11 9 12 27 13
REMARK SMILES IDX 10 14 11 15 26 16 28 17 12 18 25 19 24 20 13 21 22 22 14 23
REMARK SMILES IDX 16 24 21 25 23 26 15 27 17 28 20 29 18 30 19 31
REMARK H PARENT
REMARK Flexibility Score: inf
ROOT
ATOM      1  C   UNL     1     184.779 185.623 192.395  1.00  0.00     0.004 C 
ENDROOT
BRANCH   1   2
ATOM      2  C   UNL     1     184.237 186.430 193.624  1.00  0.00    -0.009 C 
BRANCH   2   3
ATOM      3  C   UNL     1     182.679 186.336 193.666  1.00  0.00     0.000 C 
ATOM      4  C   UNL     1     182.073 185.754 192.385  1.00  0.00     0.004 C 
ENDBRANCH   2   3
BRANCH   2   5
ATOM      5  C   UNL     1     184.925 185.950 194.952  1.00  0.00    -0.014 C 
ATOM      6  C   UNL     1     185.864 186.998 195.577  1.00  0.00     0.007 C 
ATOM      7  C   UNL     1     185.745 184.663 194.721  1.00  0.00     0.007 C 
ENDBRANCH   2   5
ENDBRANCH   1   2
BRANCH   1   8
ATOM      8  C   UNL     1     185.576 186.491 191.398  1.00  0.00     0.004 C 
BRANCH   8   9
ATOM      9  C   UNL     1     186.077 187.854 191.958  1.00  0.00    -0.011 C 
ATOM     10  C   UNL     1     187.617 187.880 191.997  1.00  0.00     0.008 C 
BRANCH   9  11
ATOM     11  C   UNL     1     185.395 189.154 191.363  1.00  0.00    -0.002 C 
ATOM     12  C   UNL     1     184.564 188.794 190.116  1.00  0.00     0.005 C 
ATOM     13  C   UNL     1     184.407 190.039 192.211  1.00  0.00    -0.026 C 
ATOM     14  C   UNL     1     183.090 188.851 190.519  1.00  0.00     0.005 C 
ATOM     15  C   UNL     1     183.035 189.355 191.972  1.00  0.00    -0.001 C 
ATOM     16  C   UNL     1     184.436 191.520 191.646  1.00  0.00     0.007 C 
ATOM     17  C   UNL     1     184.749 190.093 193.718  1.00  0.00     0.012 C 
ATOM     18  C   UNL     1     181.755 190.209 192.269  1.00  0.00     0.004 C 
ATOM     19  C   UNL     1     183.069 192.136 191.306  1.00  0.00     0.005 C 
ATOM     20  C   UNL     1     182.008 191.734 192.337  1.00  0.00     0.003 C 
ATOM     21  C   UNL     1     181.061 189.778 193.579  1.00  0.00     0.085 C 
ATOM     22  C   UNL     1     180.656 192.552 192.270  1.00  0.00    -0.000 C 
ATOM     23  C   UNL     1     179.849 190.626 193.850  1.00  0.00     0.159 C 
ATOM     24  C   UNL     1     179.527 191.780 192.971  1.00  0.00     0.005 C 
ATOM     25  C   UNL     1     180.217 192.833 190.800  1.00  0.00     0.020 C 
ATOM     26  C   UNL     1     180.858 193.893 193.022  1.00  0.00     0.017 C 
ATOM     27  O   UNL     1     179.090 190.324 194.810  1.00  0.00    -0.295 OA
ATOM     28  C   UNL     1     178.238 192.076 192.728  1.00  0.00     0.055 C 
ATOM     29  C   UNL     1     178.871 193.574 190.709  1.00  0.00     0.081 C 
ATOM     30  C   UNL     1     177.852 193.012 191.660  1.00  0.00     0.156 C 
ATOM     31  O   UNL     1     176.644 193.348 191.541  1.00  0.00    -0.295 OA
ENDBRANCH   9  11
ENDBRANCH   8   9
ENDBRANCH   1   8
TORSDOF 6
ENDMDL
