MODEL 1
REMARK VINA RESULT:    -6.215      0.000      0.000
REMARK INTER + INTRA:          -6.397
REMARK INTER:                  -6.397
REMARK INTRA:                   0.000
REMARK UNBOUND:                 0.000
REMARK SMILES C=C1[C@H](O)C[C@]23C[C@H]1C(C)(C)[C@H]2CC[C@H]3C
REMARK SMILES IDX 16 1 15 2 14 3 13 4 12 5 6 6 7 7 8 8 9 9 10 10 11 11 2 12
REMARK SMILES IDX 1 13 3 14 5 15 4 16
REMARK H PARENT 4 17
REMARK Flexibility Score: inf
ROOT
ATOM      1  C   UNL     1     116.592 120.898 133.303  1.00  0.00     0.008 C 
ATOM      2  C   UNL     1     115.322 121.488 132.667  1.00  0.00    -0.008 C 
ATOM      3  C   UNL     1     114.138 120.521 132.792  1.00  0.00     0.004 C 
ATOM      4  C   UNL     1     113.987 119.876 131.427  1.00  0.00     0.005 C 
ATOM      5  C   UNL     1     114.358 120.982 130.431  1.00  0.00     0.002 C 
ATOM      6  C   UNL     1     115.428 121.835 131.146  1.00  0.00    -0.020 C 
ATOM      7  C   UNL     1     116.735 121.459 130.431  1.00  0.00     0.016 C 
ATOM      8  C   UNL     1     116.283 121.399 128.981  1.00  0.00     0.023 C 
ATOM      9  C   UNL     1     114.970 120.562 129.047  1.00  0.00    -0.025 C 
ATOM     10  C   UNL     1     115.324 119.055 128.928  1.00  0.00     0.012 C 
ATOM     11  C   UNL     1     113.986 120.876 127.891  1.00  0.00     0.012 C 
ATOM     12  C   UNL     1     116.038 122.832 128.519  1.00  0.00    -0.045 C 
ATOM     13  C   UNL     1     116.352 123.188 127.263  1.00  0.00     0.011 C 
ATOM     14  C   UNL     1     115.279 123.806 129.418  1.00  0.00     0.140 C 
ATOM     15  C   UNL     1     115.196 123.355 130.908  1.00  0.00     0.044 C 
ENDROOT
BRANCH  14  16
ATOM     16  O   UNL     1     115.884 125.073 129.351  1.00  0.00    -0.389 OA
ATOM     17  H   UNL     1     116.805 124.933 129.011  1.00  0.00     0.211 HD
ENDBRANCH  14  16
TORSDOF 1
ENDMDL
MODEL 2
REMARK VINA RESULT:    -6.090      1.850      3.326
REMARK INTER + INTRA:          -6.268
REMARK INTER:                  -6.268
REMARK INTRA:                   0.000
REMARK UNBOUND:                 0.000
REMARK SMILES C=C1[C@H](O)C[C@]23C[C@H]1C(C)(C)[C@H]2CC[C@H]3C
REMARK SMILES IDX 16 1 15 2 14 3 13 4 12 5 6 6 7 7 8 8 9 9 10 10 11 11 2 12
REMARK SMILES IDX 1 13 3 14 5 15 4 16
REMARK H PARENT 4 17
REMARK Flexibility Score: inf
ROOT
ATOM      1  C   UNL     1     114.001 120.558 132.910  1.00  0.00     0.008 C 
ATOM      2  C   UNL     1     115.069 120.294 131.834  1.00  0.00    -0.008 C 
ATOM      3  C   UNL     1     116.472 120.636 132.348  1.00  0.00     0.004 C 
ATOM      4  C   UNL     1     116.820 121.978 131.732  1.00  0.00     0.005 C 
ATOM      5  C   UNL     1     116.174 121.947 130.341  1.00  0.00     0.002 C 
ATOM      6  C   UNL     1     114.897 121.095 130.502  1.00  0.00    -0.020 C 
ATOM      7  C   UNL     1     113.759 122.125 130.447  1.00  0.00     0.016 C 
ATOM      8  C   UNL     1     114.234 123.046 129.334  1.00  0.00     0.023 C 
ATOM      9  C   UNL     1     115.727 123.308 129.697  1.00  0.00    -0.025 C 
ATOM     10  C   UNL     1     115.808 124.530 130.651  1.00  0.00     0.012 C 
ATOM     11  C   UNL     1     116.605 123.650 128.467  1.00  0.00     0.012 C 
ATOM     12  C   UNL     1     114.079 122.289 128.017  1.00  0.00    -0.045 C 
ATOM     13  C   UNL     1     113.701 122.951 126.912  1.00  0.00     0.011 C 
ATOM     14  C   UNL     1     114.523 120.831 127.917  1.00  0.00     0.140 C 
ATOM     15  C   UNL     1     114.701 120.129 129.297  1.00  0.00     0.044 C 
ENDROOT
BRANCH  14  16
ATOM     16  O   UNL     1     113.591 120.112 127.149  1.00  0.00    -0.389 OA
ATOM     17  H   UNL     1     113.099 119.518 127.775  1.00  0.00     0.211 HD
ENDBRANCH  14  16
TORSDOF 1
ENDMDL
MODEL 3
REMARK VINA RESULT:    -5.947      1.979      4.405
REMARK INTER + INTRA:          -6.120
REMARK INTER:                  -6.120
REMARK INTRA:                   0.000
REMARK UNBOUND:                 0.000
REMARK SMILES C=C1[C@H](O)C[C@]23C[C@H]1C(C)(C)[C@H]2CC[C@H]3C
REMARK SMILES IDX 16 1 15 2 14 3 13 4 12 5 6 6 7 7 8 8 9 9 10 10 11 11 2 12
REMARK SMILES IDX 1 13 3 14 5 15 4 16
REMARK H PARENT 4 17
REMARK Flexibility Score: inf
ROOT
ATOM      1  C   UNL     1     115.828 119.016 127.265  1.00  0.00     0.008 C 
ATOM      2  C   UNL     1     114.726 119.920 127.844  1.00  0.00    -0.008 C 
ATOM      3  C   UNL     1     114.405 121.081 126.894  1.00  0.00     0.004 C 
ATOM      4  C   UNL     1     115.095 122.297 127.482  1.00  0.00     0.005 C 
ATOM      5  C   UNL     1     114.995 122.105 129.001  1.00  0.00     0.002 C 
ATOM      6  C   UNL     1     115.050 120.578 129.225  1.00  0.00    -0.020 C 
ATOM      7  C   UNL     1     116.454 120.342 129.801  1.00  0.00     0.016 C 
ATOM      8  C   UNL     1     116.593 121.516 130.757  1.00  0.00     0.023 C 
ATOM      9  C   UNL     1     116.115 122.731 129.906  1.00  0.00    -0.025 C 
ATOM     10  C   UNL     1     117.327 123.310 129.125  1.00  0.00     0.012 C 
ATOM     11  C   UNL     1     115.547 123.892 130.761  1.00  0.00     0.012 C 
ATOM     12  C   UNL     1     115.680 121.246 131.950  1.00  0.00    -0.045 C 
ATOM     13  C   UNL     1     116.072 121.610 133.181  1.00  0.00     0.011 C 
ATOM     14  C   UNL     1     114.260 120.729 131.724  1.00  0.00     0.140 C 
ATOM     15  C   UNL     1     114.027 120.125 130.306  1.00  0.00     0.044 C 
ENDROOT
BRANCH  14  16
ATOM     16  O   UNL     1     113.956 119.760 132.696  1.00  0.00    -0.389 OA
ATOM     17  H   UNL     1     113.898 120.234 133.566  1.00  0.00     0.211 HD
ENDBRANCH  14  16
TORSDOF 1
ENDMDL
MODEL 4
REMARK VINA RESULT:    -5.913      1.935      2.971
REMARK INTER + INTRA:          -6.085
REMARK INTER:                  -6.085
REMARK INTRA:                   0.000
REMARK UNBOUND:                 0.000
REMARK SMILES C=C1[C@H](O)C[C@]23C[C@H]1C(C)(C)[C@H]2CC[C@H]3C
REMARK SMILES IDX 16 1 15 2 14 3 13 4 12 5 6 6 7 7 8 8 9 9 10 10 11 11 2 12
REMARK SMILES IDX 1 13 3 14 5 15 4 16
REMARK H PARENT 4 17
REMARK Flexibility Score: inf
ROOT
ATOM      1  C   UNL     1     117.262 119.360 128.581  1.00  0.00     0.008 C 
ATOM      2  C   UNL     1     116.111 120.071 129.314  1.00  0.00    -0.008 C 
ATOM      3  C   UNL     1     114.778 119.350 129.088  1.00  0.00     0.004 C 
ATOM      4  C   UNL     1     114.035 120.172 128.052  1.00  0.00     0.005 C 
ATOM      5  C   UNL     1     114.421 121.625 128.359  1.00  0.00     0.002 C 
ATOM      6  C   UNL     1     115.865 121.559 128.899  1.00  0.00    -0.020 C 
ATOM      7  C   UNL     1     116.714 122.114 127.746  1.00  0.00     0.016 C 
ATOM      8  C   UNL     1     115.858 123.276 127.269  1.00  0.00     0.023 C 
ATOM      9  C   UNL     1     114.431 122.657 127.176  1.00  0.00    -0.025 C 
ATOM     10  C   UNL     1     114.242 122.029 125.769  1.00  0.00     0.012 C 
ATOM     11  C   UNL     1     113.298 123.702 127.347  1.00  0.00     0.012 C 
ATOM     12  C   UNL     1     115.949 124.375 128.324  1.00  0.00    -0.045 C 
ATOM     13  C   UNL     1     115.971 125.662 127.942  1.00  0.00     0.011 C 
ATOM     14  C   UNL     1     115.836 124.022 129.806  1.00  0.00     0.140 C 
ATOM     15  C   UNL     1     116.062 122.511 130.114  1.00  0.00     0.044 C 
ENDROOT
BRANCH  14  16
ATOM     16  O   UNL     1     116.759 124.787 130.540  1.00  0.00    -0.389 OA
ATOM     17  H   UNL     1     117.652 124.380 130.392  1.00  0.00     0.211 HD
ENDBRANCH  14  16
TORSDOF 1
ENDMDL
MODEL 5
REMARK VINA RESULT:    -5.881      1.970      4.116
REMARK INTER + INTRA:          -6.053
REMARK INTER:                  -6.053
REMARK INTRA:                   0.000
REMARK UNBOUND:                 0.000
REMARK SMILES C=C1[C@H](O)C[C@]23C[C@H]1C(C)(C)[C@H]2CC[C@H]3C
REMARK SMILES IDX 16 1 15 2 14 3 13 4 12 5 6 6 7 7 8 8 9 9 10 10 11 11 2 12
REMARK SMILES IDX 1 13 3 14 5 15 4 16
REMARK H PARENT 4 17
REMARK Flexibility Score: inf
ROOT
ATOM      1  C   UNL     1     116.626 125.545 130.279  1.00  0.00     0.008 C 
ATOM      2  C   UNL     1     117.186 124.138 130.009  1.00  0.00    -0.008 C 
ATOM      3  C   UNL     1     117.521 123.950 128.524  1.00  0.00     0.004 C 
ATOM      4  C   UNL     1     116.385 123.126 127.947  1.00  0.00     0.005 C 
ATOM      5  C   UNL     1     115.984 122.170 129.078  1.00  0.00     0.002 C 
ATOM      6  C   UNL     1     116.239 122.952 130.385  1.00  0.00    -0.020 C 
ATOM      7  C   UNL     1     114.830 123.310 130.879  1.00  0.00     0.016 C 
ATOM      8  C   UNL     1     114.070 122.024 130.594  1.00  0.00     0.023 C 
ATOM      9  C   UNL     1     114.498 121.669 129.138  1.00  0.00    -0.025 C 
ATOM     10  C   UNL     1     113.538 122.376 128.142  1.00  0.00     0.012 C 
ATOM     11  C   UNL     1     114.414 120.152 128.828  1.00  0.00     0.012 C 
ATOM     12  C   UNL     1     114.537 120.983 131.608  1.00  0.00    -0.045 C 
ATOM     13  C   UNL     1     113.656 120.103 132.109  1.00  0.00     0.011 C 
ATOM     14  C   UNL     1     116.025 120.830 131.916  1.00  0.00     0.140 C 
ATOM     15  C   UNL     1     116.891 122.048 131.471  1.00  0.00     0.044 C 
ENDROOT
BRANCH  14  16
ATOM     16  O   UNL     1     116.198 120.618 133.294  1.00  0.00    -0.389 OA
ATOM     17  H   UNL     1     116.400 119.654 133.414  1.00  0.00     0.211 HD
ENDBRANCH  14  16
TORSDOF 1
ENDMDL
MODEL 6
REMARK VINA RESULT:    -5.703      2.166      3.673
REMARK INTER + INTRA:          -5.869
REMARK INTER:                  -5.869
REMARK INTRA:                   0.000
REMARK UNBOUND:                 0.000
REMARK SMILES C=C1[C@H](O)C[C@]23C[C@H]1C(C)(C)[C@H]2CC[C@H]3C
REMARK SMILES IDX 16 1 15 2 14 3 13 4 12 5 6 6 7 7 8 8 9 9 10 10 11 11 2 12
REMARK SMILES IDX 1 13 3 14 5 15 4 16
REMARK H PARENT 4 17
REMARK Flexibility Score: inf
ROOT
ATOM      1  C   UNL     1     117.340 125.183 128.525  1.00  0.00     0.008 C 
ATOM      2  C   UNL     1     115.930 124.789 128.999  1.00  0.00    -0.008 C 
ATOM      3  C   UNL     1     115.886 124.609 130.521  1.00  0.00     0.004 C 
ATOM      4  C   UNL     1     115.903 123.111 130.760  1.00  0.00     0.005 C 
ATOM      5  C   UNL     1     115.098 122.523 129.594  1.00  0.00     0.002 C 
ATOM      6  C   UNL     1     115.364 123.461 128.397  1.00  0.00    -0.020 C 
ATOM      7  C   UNL     1     116.300 122.647 127.493  1.00  0.00     0.016 C 
ATOM      8  C   UNL     1     115.681 121.261 127.581  1.00  0.00     0.023 C 
ATOM      9  C   UNL     1     115.444 121.070 129.110  1.00  0.00    -0.025 C 
ATOM     10  C   UNL     1     116.723 120.464 129.748  1.00  0.00     0.012 C 
ATOM     11  C   UNL     1     114.286 120.091 129.432  1.00  0.00     0.012 C 
ATOM     12  C   UNL     1     114.376 121.292 126.789  1.00  0.00    -0.045 C 
ATOM     13  C   UNL     1     114.006 120.215 126.078  1.00  0.00     0.011 C 
ATOM     14  C   UNL     1     113.415 122.469 126.946  1.00  0.00     0.140 C 
ATOM     15  C   UNL     1     114.063 123.733 127.587  1.00  0.00     0.044 C 
ENDROOT
BRANCH  14  16
ATOM     16  O   UNL     1     112.883 122.808 125.690  1.00  0.00    -0.389 OA
ATOM     17  H   UNL     1     113.190 122.113 125.051  1.00  0.00     0.211 HD
ENDBRANCH  14  16
TORSDOF 1
ENDMDL
MODEL 7
REMARK VINA RESULT:    -5.621      1.747      3.916
REMARK INTER + INTRA:          -5.785
REMARK INTER:                  -5.785
REMARK INTRA:                   0.000
REMARK UNBOUND:                 0.000
REMARK SMILES C=C1[C@H](O)C[C@]23C[C@H]1C(C)(C)[C@H]2CC[C@H]3C
REMARK SMILES IDX 16 1 15 2 14 3 13 4 12 5 6 6 7 7 8 8 9 9 10 10 11 11 2 12
REMARK SMILES IDX 1 13 3 14 5 15 4 16
REMARK H PARENT 4 17
REMARK Flexibility Score: inf
ROOT
ATOM      1  C   UNL     1     115.876 117.832 128.070  1.00  0.00     0.008 C 
ATOM      2  C   UNL     1     116.446 119.254 127.928  1.00  0.00    -0.008 C 
ATOM      3  C   UNL     1     117.883 119.332 128.455  1.00  0.00     0.004 C 
ATOM      4  C   UNL     1     117.786 119.985 129.821  1.00  0.00     0.005 C 
ATOM      5  C   UNL     1     116.644 121.002 129.685  1.00  0.00     0.002 C 
ATOM      6  C   UNL     1     115.655 120.375 128.679  1.00  0.00    -0.020 C 
ATOM      7  C   UNL     1     114.473 119.932 129.554  1.00  0.00     0.016 C 
ATOM      8  C   UNL     1     114.344 121.107 130.510  1.00  0.00     0.023 C 
ATOM      9  C   UNL     1     115.813 121.362 130.967  1.00  0.00    -0.025 C 
ATOM     10  C   UNL     1     116.118 120.476 132.205  1.00  0.00     0.012 C 
ATOM     11  C   UNL     1     116.073 122.827 131.400  1.00  0.00     0.012 C 
ATOM     12  C   UNL     1     113.769 122.279 129.720  1.00  0.00    -0.045 C 
ATOM     13  C   UNL     1     112.900 123.115 130.310  1.00  0.00     0.011 C 
ATOM     14  C   UNL     1     114.311 122.602 128.328  1.00  0.00     0.140 C 
ATOM     15  C   UNL     1     115.114 121.436 127.677  1.00  0.00     0.044 C 
ENDROOT
BRANCH  14  16
ATOM     16  O   UNL     1     113.246 122.959 127.484  1.00  0.00    -0.389 OA
ATOM     17  H   UNL     1     112.943 123.860 127.768  1.00  0.00     0.211 HD
ENDBRANCH  14  16
TORSDOF 1
ENDMDL
MODEL 8
REMARK VINA RESULT:    -5.589      2.812      5.095
REMARK INTER + INTRA:          -5.752
REMARK INTER:                  -5.752
REMARK INTRA:                   0.000
REMARK UNBOUND:                 0.000
REMARK SMILES C=C1[C@H](O)C[C@]23C[C@H]1C(C)(C)[C@H]2CC[C@H]3C
REMARK SMILES IDX 16 1 15 2 14 3 13 4 12 5 6 6 7 7 8 8 9 9 10 10 11 11 2 12
REMARK SMILES IDX 1 13 3 14 5 15 4 16
REMARK H PARENT 4 17
REMARK Flexibility Score: inf
ROOT
ATOM      1  C   UNL     1     117.899 127.992 129.408  1.00  0.00     0.008 C 
ATOM      2  C   UNL     1     118.129 126.615 130.055  1.00  0.00    -0.008 C 
ATOM      3  C   UNL     1     119.569 126.133 129.841  1.00  0.00     0.004 C 
ATOM      4  C   UNL     1     119.498 125.105 128.728  1.00  0.00     0.005 C 
ATOM      5  C   UNL     1     118.157 124.391 128.943  1.00  0.00     0.002 C 
ATOM      6  C   UNL     1     117.212 125.461 129.530  1.00  0.00    -0.020 C 
ATOM      7  C   UNL     1     116.266 125.794 128.367  1.00  0.00     0.016 C 
ATOM      8  C   UNL     1     116.004 124.414 127.783  1.00  0.00     0.023 C 
ATOM      9  C   UNL     1     117.427 123.785 127.692  1.00  0.00    -0.025 C 
ATOM     10  C   UNL     1     118.062 124.167 126.327  1.00  0.00     0.012 C 
ATOM     11  C   UNL     1     117.417 122.237 127.755  1.00  0.00     0.012 C 
ATOM     12  C   UNL     1     115.100 123.669 128.761  1.00  0.00    -0.045 C 
ATOM     13  C   UNL     1     114.149 122.846 128.291  1.00  0.00     0.011 C 
ATOM     14  C   UNL     1     115.389 123.720 130.261  1.00  0.00     0.140 C 
ATOM     15  C   UNL     1     116.339 124.881 130.681  1.00  0.00     0.044 C 
ENDROOT
BRANCH  14  16
ATOM     16  O   UNL     1     114.179 123.834 130.966  1.00  0.00    -0.389 OA
ATOM     17  H   UNL     1     113.855 124.763 130.832  1.00  0.00     0.211 HD
ENDBRANCH  14  16
TORSDOF 1
ENDMDL
MODEL 9
REMARK VINA RESULT:    -5.579      2.076      4.736
REMARK INTER + INTRA:          -5.742
REMARK INTER:                  -5.742
REMARK INTRA:                   0.000
REMARK UNBOUND:                 0.000
REMARK SMILES C=C1[C@H](O)C[C@]23C[C@H]1C(C)(C)[C@H]2CC[C@H]3C
REMARK SMILES IDX 16 1 15 2 14 3 13 4 12 5 6 6 7 7 8 8 9 9 10 10 11 11 2 12
REMARK SMILES IDX 1 13 3 14 5 15 4 16
REMARK H PARENT 4 17
REMARK Flexibility Score: inf
ROOT
ATOM      1  C   UNL     1     118.465 124.015 126.500  1.00  0.00     0.008 C 
ATOM      2  C   UNL     1     117.010 124.338 126.883  1.00  0.00    -0.008 C 
ATOM      3  C   UNL     1     116.934 125.583 127.774  1.00  0.00     0.004 C 
ATOM      4  C   UNL     1     116.724 125.068 129.185  1.00  0.00     0.005 C 
ATOM      5  C   UNL     1     115.843 123.823 129.018  1.00  0.00     0.002 C 
ATOM      6  C   UNL     1     116.252 123.212 127.660  1.00  0.00    -0.020 C 
ATOM      7  C   UNL     1     117.058 121.963 128.047  1.00  0.00     0.016 C 
ATOM      8  C   UNL     1     116.236 121.416 129.204  1.00  0.00     0.023 C 
ATOM      9  C   UNL     1     115.967 122.675 130.082  1.00  0.00    -0.025 C 
ATOM     10  C   UNL     1     117.138 122.851 131.086  1.00  0.00     0.012 C 
ATOM     11  C   UNL     1     114.673 122.566 130.929  1.00  0.00     0.012 C 
ATOM     12  C   UNL     1     114.954 120.831 128.617  1.00  0.00    -0.045 C 
ATOM     13  C   UNL     1     114.428 119.717 129.150  1.00  0.00     0.011 C 
ATOM     14  C   UNL     1     114.180 121.603 127.549  1.00  0.00     0.140 C 
ATOM     15  C   UNL     1     115.010 122.727 126.858  1.00  0.00     0.044 C 
ENDROOT
BRANCH  14  16
ATOM     16  O   UNL     1     113.710 120.708 126.574  1.00  0.00    -0.389 OA
ATOM     17  H   UNL     1     114.455 120.563 125.934  1.00  0.00     0.211 HD
ENDBRANCH  14  16
TORSDOF 1
ENDMDL
