MODEL 1
REMARK VINA RESULT:    -3.958      0.000      0.000
REMARK INTER + INTRA:          -6.863
REMARK INTER:                  -6.040
REMARK INTRA:                  -0.822
REMARK UNBOUND:                -0.822
REMARK SMILES CCCCCCCCCCC(=O)[O-]
REMARK SMILES IDX 7 1 8 2 9 3 10 4 11 5 12 6 13 7 6 8 5 9 4 10 3 11 2 12 1 13
REMARK H PARENT
REMARK Flexibility Score: inf
ROOT
ATOM      1  C   UNL     1     -16.750  14.645 -13.109  1.00  0.00     0.000 C 
ENDROOT
BRANCH   1   2
ATOM      2  C   UNL     1     -16.444  14.529 -14.613  1.00  0.00     0.000 C 
BRANCH   2   3
ATOM      3  C   UNL     1     -16.461  13.096 -15.177  1.00  0.00     0.006 C 
BRANCH   3   4
ATOM      4  C   UNL     1     -16.955  13.028 -16.627  1.00  0.00     0.053 C 
BRANCH   4   5
ATOM      5  C   UNL     1     -18.131  12.109 -16.735  1.00  0.00     0.041 C 
ATOM      6  O   UNL     1     -18.119  10.994 -16.149  1.00  0.00    -0.550 OA
ATOM      7  O   UNL     1     -19.260  12.504 -17.442  1.00  0.00    -0.550 OA
ENDBRANCH   4   5
ENDBRANCH   3   4
ENDBRANCH   2   3
ENDBRANCH   1   2
BRANCH   1   8
ATOM      8  C   UNL     1     -16.217  15.949 -12.489  1.00  0.00     0.000 C 
BRANCH   8   9
ATOM      9  C   UNL     1     -16.787  17.202 -13.173  1.00  0.00    -0.000 C 
BRANCH   9  10
ATOM     10  C   UNL     1     -18.134  17.645 -12.576  1.00  0.00    -0.000 C 
BRANCH  10  11
ATOM     11  C   UNL     1     -19.270  17.635 -13.612  1.00  0.00    -0.000 C 
BRANCH  11  12
ATOM     12  C   UNL     1     -18.771  17.329 -15.031  1.00  0.00    -0.003 C 
ATOM     13  C   UNL     1     -19.751  16.428 -15.775  1.00  0.00     0.004 C 
ENDBRANCH  11  12
ENDBRANCH  10  11
ENDBRANCH   9  10
ENDBRANCH   8   9
ENDBRANCH   1   8
TORSDOF 9
ENDMDL
MODEL 2
REMARK VINA RESULT:    -3.911      6.504      7.060
REMARK INTER + INTRA:          -6.792
REMARK INTER:                  -5.991
REMARK INTRA:                  -0.801
REMARK UNBOUND:                -0.822
REMARK SMILES CCCCCCCCCCC(=O)[O-]
REMARK SMILES IDX 7 1 8 2 9 3 10 4 11 5 12 6 13 7 6 8 5 9 4 10 3 11 2 12 1 13
REMARK H PARENT
REMARK Flexibility Score: inf
ROOT
ATOM      1  C   UNL     1     -12.611  18.539 -18.858  1.00  0.00     0.000 C 
ENDROOT
BRANCH   1   2
ATOM      2  C   UNL     1     -13.954  18.025 -18.309  1.00  0.00     0.000 C 
BRANCH   2   3
ATOM      3  C   UNL     1     -14.965  17.566 -19.374  1.00  0.00     0.006 C 
BRANCH   3   4
ATOM      4  C   UNL     1     -14.753  16.112 -19.814  1.00  0.00     0.053 C 
BRANCH   4   5
ATOM      5  C   UNL     1     -14.227  16.060 -21.213  1.00  0.00     0.041 C 
ATOM      6  O   UNL     1     -13.000  16.241 -21.436  1.00  0.00    -0.550 OA
ATOM      7  O   UNL     1     -15.081  15.764 -22.268  1.00  0.00    -0.550 OA
ENDBRANCH   4   5
ENDBRANCH   3   4
ENDBRANCH   2   3
ENDBRANCH   1   2
BRANCH   1   8
ATOM      8  C   UNL     1     -12.301  19.984 -18.428  1.00  0.00     0.000 C 
BRANCH   8   9
ATOM      9  C   UNL     1     -12.253  20.147 -16.900  1.00  0.00    -0.000 C 
BRANCH   9  10
ATOM     10  C   UNL     1     -13.472  20.905 -16.345  1.00  0.00    -0.000 C 
BRANCH  10  11
ATOM     11  C   UNL     1     -13.761  22.202 -17.116  1.00  0.00    -0.000 C 
BRANCH  11  12
ATOM     12  C   UNL     1     -15.141  22.194 -17.788  1.00  0.00    -0.003 C 
ATOM     13  C   UNL     1     -15.926  20.940 -17.416  1.00  0.00     0.004 C 
ENDBRANCH  11  12
ENDBRANCH  10  11
ENDBRANCH   9  10
ENDBRANCH   8   9
ENDBRANCH   1   8
TORSDOF 9
ENDMDL
MODEL 3
REMARK VINA RESULT:    -3.899     14.806     16.852
REMARK INTER + INTRA:          -6.773
REMARK INTER:                  -6.118
REMARK INTRA:                  -0.655
REMARK UNBOUND:                -0.822
REMARK SMILES CCCCCCCCCCC(=O)[O-]
REMARK SMILES IDX 7 1 8 2 9 3 10 4 11 5 12 6 13 7 6 8 5 9 4 10 3 11 2 12 1 13
REMARK H PARENT
REMARK Flexibility Score: inf
ROOT
ATOM      1  C   UNL     1      -4.572  11.495  -9.828  1.00  0.00     0.000 C 
ENDROOT
BRANCH   1   2
ATOM      2  C   UNL     1      -3.996  12.853  -9.386  1.00  0.00     0.000 C 
BRANCH   2   3
ATOM      3  C   UNL     1      -5.030  13.858  -8.845  1.00  0.00     0.006 C 
BRANCH   3   4
ATOM      4  C   UNL     1      -4.915  14.080  -7.332  1.00  0.00     0.053 C 
BRANCH   4   5
ATOM      5  C   UNL     1      -5.963  15.039  -6.864  1.00  0.00     0.041 C 
ATOM      6  O   UNL     1      -5.786  15.707  -5.810  1.00  0.00    -0.550 OA
ATOM      7  O   UNL     1      -7.115  15.232  -7.616  1.00  0.00    -0.550 OA
ENDBRANCH   4   5
ENDBRANCH   3   4
ENDBRANCH   2   3
ENDBRANCH   1   2
BRANCH   1   8
ATOM      8  C   UNL     1      -3.841  10.299  -9.192  1.00  0.00     0.000 C 
BRANCH   8   9
ATOM      9  C   UNL     1      -2.858  10.728  -8.090  1.00  0.00    -0.000 C 
BRANCH   9  10
ATOM     10  C   UNL     1      -1.393  10.421  -8.448  1.00  0.00    -0.000 C 
BRANCH  10  11
ATOM     11  C   UNL     1      -1.267   9.436  -9.622  1.00  0.00    -0.000 C 
BRANCH  11  12
ATOM     12  C   UNL     1      -0.392   8.221  -9.281  1.00  0.00    -0.003 C 
ATOM     13  C   UNL     1      -1.242   7.053  -8.793  1.00  0.00     0.004 C 
ENDBRANCH  11  12
ENDBRANCH  10  11
ENDBRANCH   9  10
ENDBRANCH   8   9
ENDBRANCH   1   8
TORSDOF 9
ENDMDL
MODEL 4
REMARK VINA RESULT:    -3.818     13.210     15.221
REMARK INTER + INTRA:          -6.649
REMARK INTER:                  -6.094
REMARK INTRA:                  -0.555
REMARK UNBOUND:                -0.822
REMARK SMILES CCCCCCCCCCC(=O)[O-]
REMARK SMILES IDX 7 1 8 2 9 3 10 4 11 5 12 6 13 7 6 8 5 9 4 10 3 11 2 12 1 13
REMARK H PARENT
REMARK Flexibility Score: inf
ROOT
ATOM      1  C   UNL     1      -6.049   9.951 -11.205  1.00  0.00     0.000 C 
ENDROOT
BRANCH   1   2
ATOM      2  C   UNL     1      -7.456  10.535 -10.979  1.00  0.00     0.000 C 
BRANCH   2   3
ATOM      3  C   UNL     1      -7.704  11.125  -9.579  1.00  0.00     0.006 C 
BRANCH   3   4
ATOM      4  C   UNL     1      -7.068  12.508  -9.390  1.00  0.00     0.053 C 
BRANCH   4   5
ATOM      5  C   UNL     1      -7.907  13.348  -8.481  1.00  0.00     0.041 C 
ATOM      6  O   UNL     1      -8.485  12.827  -7.490  1.00  0.00    -0.550 OA
ATOM      7  O   UNL     1      -8.014  14.716  -8.698  1.00  0.00    -0.550 OA
ENDBRANCH   4   5
ENDBRANCH   3   4
ENDBRANCH   2   3
ENDBRANCH   1   2
BRANCH   1   8
ATOM      8  C   UNL     1      -5.869   8.561 -10.570  1.00  0.00     0.000 C 
BRANCH   8   9
ATOM      9  C   UNL     1      -4.703   8.517  -9.569  1.00  0.00    -0.000 C 
BRANCH   9  10
ATOM     10  C   UNL     1      -3.620   9.567  -9.872  1.00  0.00    -0.000 C 
BRANCH  10  11
ATOM     11  C   UNL     1      -2.383   9.414  -8.972  1.00  0.00    -0.000 C 
BRANCH  11  12
ATOM     12  C   UNL     1      -1.361   8.417  -9.538  1.00  0.00    -0.003 C 
ATOM     13  C   UNL     1      -1.308   7.148  -8.694  1.00  0.00     0.004 C 
ENDBRANCH  11  12
ENDBRANCH  10  11
ENDBRANCH   9  10
ENDBRANCH   8   9
ENDBRANCH   1   8
TORSDOF 9
ENDMDL
MODEL 5
REMARK VINA RESULT:    -3.813      2.953      5.634
REMARK INTER + INTRA:          -6.642
REMARK INTER:                  -6.074
REMARK INTRA:                  -0.569
REMARK UNBOUND:                -0.822
REMARK SMILES CCCCCCCCCCC(=O)[O-]
REMARK SMILES IDX 7 1 8 2 9 3 10 4 11 5 12 6 13 7 6 8 5 9 4 10 3 11 2 12 1 13
REMARK H PARENT
REMARK Flexibility Score: inf
ROOT
ATOM      1  C   UNL     1     -17.086  14.500 -14.237  1.00  0.00     0.000 C 
ENDROOT
BRANCH   1   2
ATOM      2  C   UNL     1     -16.749  14.972 -12.811  1.00  0.00     0.000 C 
BRANCH   2   3
ATOM      3  C   UNL     1     -15.980  16.303 -12.726  1.00  0.00     0.006 C 
BRANCH   3   4
ATOM      4  C   UNL     1     -16.687  17.452 -13.456  1.00  0.00     0.053 C 
BRANCH   4   5
ATOM      5  C   UNL     1     -18.088  17.605 -12.954  1.00  0.00     0.041 C 
ATOM      6  O   UNL     1     -18.304  17.833 -11.734  1.00  0.00    -0.550 OA
ATOM      7  O   UNL     1     -19.155  17.545 -13.842  1.00  0.00    -0.550 OA
ENDBRANCH   4   5
ENDBRANCH   3   4
ENDBRANCH   2   3
ENDBRANCH   1   2
BRANCH   1   8
ATOM      8  C   UNL     1     -16.067  13.487 -14.788  1.00  0.00     0.000 C 
BRANCH   8   9
ATOM      9  C   UNL     1     -16.593  12.042 -14.750  1.00  0.00    -0.000 C 
BRANCH   9  10
ATOM     10  C   UNL     1     -16.201  11.234 -15.999  1.00  0.00    -0.000 C 
BRANCH  10  11
ATOM     11  C   UNL     1     -17.423  10.755 -16.799  1.00  0.00    -0.000 C 
BRANCH  11  12
ATOM     12  C   UNL     1     -18.726  11.431 -16.347  1.00  0.00    -0.003 C 
ATOM     13  C   UNL     1     -19.122  12.552 -17.302  1.00  0.00     0.004 C 
ENDBRANCH  11  12
ENDBRANCH  10  11
ENDBRANCH   9  10
ENDBRANCH   8   9
ENDBRANCH   1   8
TORSDOF 9
ENDMDL
MODEL 6
REMARK VINA RESULT:    -3.808      5.826      7.454
REMARK INTER + INTRA:          -6.634
REMARK INTER:                  -5.470
REMARK INTRA:                  -1.164
REMARK UNBOUND:                -0.822
REMARK SMILES CCCCCCCCCCC(=O)[O-]
REMARK SMILES IDX 7 1 8 2 9 3 10 4 11 5 12 6 13 7 6 8 5 9 4 10 3 11 2 12 1 13
REMARK H PARENT
REMARK Flexibility Score: inf
ROOT
ATOM      1  C   UNL     1     -16.684  16.225 -19.007  1.00  0.00     0.000 C 
ENDROOT
BRANCH   1   2
ATOM      2  C   UNL     1     -16.615  17.762 -18.953  1.00  0.00     0.000 C 
BRANCH   2   3
ATOM      3  C   UNL     1     -17.008  18.482 -20.255  1.00  0.00     0.006 C 
BRANCH   3   4
ATOM      4  C   UNL     1     -17.500  17.522 -21.346  1.00  0.00     0.053 C 
BRANCH   4   5
ATOM      5  C   UNL     1     -18.945  17.768 -21.645  1.00  0.00     0.041 C 
ATOM      6  O   UNL     1     -19.461  17.310 -22.699  1.00  0.00    -0.550 OA
ATOM      7  O   UNL     1     -19.736  18.462 -20.737  1.00  0.00    -0.550 OA
ENDBRANCH   4   5
ENDBRANCH   3   4
ENDBRANCH   2   3
ENDBRANCH   1   2
BRANCH   1   8
ATOM      8  C   UNL     1     -15.296  15.563 -18.984  1.00  0.00     0.000 C 
BRANCH   8   9
ATOM      9  C   UNL     1     -14.679  15.439 -20.387  1.00  0.00    -0.000 C 
BRANCH   9  10
ATOM     10  C   UNL     1     -13.449  16.345 -20.577  1.00  0.00    -0.000 C 
BRANCH  10  11
ATOM     11  C   UNL     1     -12.879  16.853 -19.243  1.00  0.00    -0.000 C 
BRANCH  11  12
ATOM     12  C   UNL     1     -12.871  18.386 -19.151  1.00  0.00    -0.003 C 
ATOM     13  C   UNL     1     -13.138  18.851 -17.723  1.00  0.00     0.004 C 
ENDBRANCH  11  12
ENDBRANCH  10  11
ENDBRANCH   9  10
ENDBRANCH   8   9
ENDBRANCH   1   8
TORSDOF 9
ENDMDL
MODEL 7
REMARK VINA RESULT:    -3.792      6.183      7.144
REMARK INTER + INTRA:          -6.610
REMARK INTER:                  -5.380
REMARK INTRA:                  -1.230
REMARK UNBOUND:                -0.822
REMARK SMILES CCCCCCCCCCC(=O)[O-]
REMARK SMILES IDX 7 1 8 2 9 3 10 4 11 5 12 6 13 7 6 8 5 9 4 10 3 11 2 12 1 13
REMARK H PARENT
REMARK Flexibility Score: inf
ROOT
ATOM      1  C   UNL     1     -15.581  18.885 -16.812  1.00  0.00     0.000 C 
ENDROOT
BRANCH   1   2
ATOM      2  C   UNL     1     -14.762  17.699 -17.354  1.00  0.00     0.000 C 
BRANCH   2   3
ATOM      3  C   UNL     1     -14.514  17.713 -18.873  1.00  0.00     0.006 C 
BRANCH   3   4
ATOM      4  C   UNL     1     -13.024  17.753 -19.236  1.00  0.00     0.053 C 
BRANCH   4   5
ATOM      5  C   UNL     1     -12.624  16.494 -19.938  1.00  0.00     0.041 C 
ATOM      6  O   UNL     1     -12.579  16.457 -21.197  1.00  0.00    -0.550 OA
ATOM      7  O   UNL     1     -12.253  15.375 -19.204  1.00  0.00    -0.550 OA
ENDBRANCH   4   5
ENDBRANCH   3   4
ENDBRANCH   2   3
ENDBRANCH   1   2
BRANCH   1   8
ATOM      8  C   UNL     1     -15.374  20.176 -17.623  1.00  0.00     0.000 C 
BRANCH   8   9
ATOM      9  C   UNL     1     -14.422  21.162 -16.926  1.00  0.00    -0.000 C 
BRANCH   9  10
ATOM     10  C   UNL     1     -12.984  21.084 -17.468  1.00  0.00    -0.000 C 
BRANCH  10  11
ATOM     11  C   UNL     1     -12.095  20.139 -16.643  1.00  0.00    -0.000 C 
BRANCH  11  12
ATOM     12  C   UNL     1     -12.277  20.327 -15.130  1.00  0.00    -0.003 C 
ATOM     13  C   UNL     1     -12.582  19.000 -14.445  1.00  0.00     0.004 C 
ENDBRANCH  11  12
ENDBRANCH  10  11
ENDBRANCH   9  10
ENDBRANCH   8   9
ENDBRANCH   1   8
TORSDOF 9
ENDMDL
MODEL 8
REMARK VINA RESULT:    -3.729      5.850      7.451
REMARK INTER + INTRA:          -6.513
REMARK INTER:                  -5.150
REMARK INTRA:                  -1.363
REMARK UNBOUND:                -0.822
REMARK SMILES CCCCCCCCCCC(=O)[O-]
REMARK SMILES IDX 7 1 8 2 9 3 10 4 11 5 12 6 13 7 6 8 5 9 4 10 3 11 2 12 1 13
REMARK H PARENT
REMARK Flexibility Score: inf
ROOT
ATOM      1  C   UNL     1     -15.721  17.656 -19.147  1.00  0.00     0.000 C 
ENDROOT
BRANCH   1   2
ATOM      2  C   UNL     1     -16.422  17.523 -17.783  1.00  0.00     0.000 C 
BRANCH   2   3
ATOM      3  C   UNL     1     -16.765  18.854 -17.090  1.00  0.00     0.006 C 
BRANCH   3   4
ATOM      4  C   UNL     1     -16.370  20.081 -17.921  1.00  0.00     0.053 C 
BRANCH   4   5
ATOM      5  C   UNL     1     -15.192  20.770 -17.310  1.00  0.00     0.041 C 
ATOM      6  O   UNL     1     -14.303  20.101 -16.718  1.00  0.00    -0.550 OA
ATOM      7  O   UNL     1     -15.048  22.146 -17.434  1.00  0.00    -0.550 OA
ENDBRANCH   4   5
ENDBRANCH   3   4
ENDBRANCH   2   3
ENDBRANCH   1   2
BRANCH   1   8
ATOM      8  C   UNL     1     -16.342  16.756 -20.230  1.00  0.00     0.000 C 
BRANCH   8   9
ATOM      9  C   UNL     1     -17.134  17.556 -21.277  1.00  0.00    -0.000 C 
BRANCH   9  10
ATOM     10  C   UNL     1     -18.643  17.600 -20.975  1.00  0.00    -0.000 C 
BRANCH  10  11
ATOM     11  C   UNL     1     -19.088  18.951 -20.394  1.00  0.00    -0.000 C 
BRANCH  11  12
ATOM     12  C   UNL     1     -19.950  18.796 -19.133  1.00  0.00    -0.003 C 
ATOM     13  C   UNL     1     -20.016  17.339 -18.689  1.00  0.00     0.004 C 
ENDBRANCH  11  12
ENDBRANCH  10  11
ENDBRANCH   9  10
ENDBRANCH   8   9
ENDBRANCH   1   8
TORSDOF 9
ENDMDL
MODEL 9
REMARK VINA RESULT:    -3.702     16.261     17.907
REMARK INTER + INTRA:          -6.473
REMARK INTER:                  -5.790
REMARK INTRA:                  -0.683
REMARK UNBOUND:                -0.822
REMARK SMILES CCCCCCCCCCC(=O)[O-]
REMARK SMILES IDX 7 1 8 2 9 3 10 4 11 5 12 6 13 7 6 8 5 9 4 10 3 11 2 12 1 13
REMARK H PARENT
REMARK Flexibility Score: inf
ROOT
ATOM      1  C   UNL     1      -0.718  11.941 -10.225  1.00  0.00     0.000 C 
ENDROOT
BRANCH   1   2
ATOM      2  C   UNL     1       0.125  11.924 -11.514  1.00  0.00     0.000 C 
BRANCH   2   3
ATOM      3  C   UNL     1      -0.681  11.993 -12.824  1.00  0.00     0.006 C 
BRANCH   3   4
ATOM      4  C   UNL     1      -2.189  12.149 -12.593  1.00  0.00     0.053 C 
BRANCH   4   5
ATOM      5  C   UNL     1      -2.916  10.923 -13.046  1.00  0.00     0.041 C 
ATOM      6  O   UNL     1      -2.458  10.227 -13.990  1.00  0.00    -0.550 OA
ATOM      7  O   UNL     1      -4.075  10.521 -12.394  1.00  0.00    -0.550 OA
ENDBRANCH   4   5
ENDBRANCH   3   4
ENDBRANCH   2   3
ENDBRANCH   1   2
BRANCH   1   8
ATOM      8  C   UNL     1      -0.120  11.069  -9.107  1.00  0.00     0.000 C 
BRANCH   8   9
ATOM      9  C   UNL     1      -1.195  10.500  -8.166  1.00  0.00    -0.000 C 
BRANCH   9  10
ATOM     10  C   UNL     1      -2.137   9.508  -8.871  1.00  0.00    -0.000 C 
BRANCH  10  11
ATOM     11  C   UNL     1      -1.376   8.380  -9.587  1.00  0.00    -0.000 C 
BRANCH  11  12
ATOM     12  C   UNL     1      -1.319   7.088  -8.758  1.00  0.00    -0.003 C 
ATOM     13  C   UNL     1       0.116   6.747  -8.371  1.00  0.00     0.004 C 
ENDBRANCH  11  12
ENDBRANCH  10  11
ENDBRANCH   9  10
ENDBRANCH   8   9
ENDBRANCH   1   8
TORSDOF 9
ENDMDL
