MODEL 1
REMARK VINA RESULT:    -3.281      0.000      0.000
REMARK INTER + INTRA:          -3.908
REMARK INTER:                  -3.856
REMARK INTRA:                  -0.051
REMARK UNBOUND:                -0.051
REMARK SMILES O=C([O-])CCC(=O)[O-]
REMARK SMILES IDX 4 1 2 2 1 3 3 4 5 5 6 6 7 7 8 8
REMARK H PARENT
REMARK Flexibility Score: inf
ROOT
ATOM      1  C   UNL     1      33.927   6.845  44.810  1.00  0.00     0.059 C 
ENDROOT
BRANCH   1   2
ATOM      2  C   UNL     1      34.318   8.291  44.827  1.00  0.00     0.042 C 
ATOM      3  O   UNL     1      34.848   8.815  43.813  1.00  0.00    -0.550 OA
ATOM      4  O   UNL     1      34.135   9.048  45.977  1.00  0.00    -0.550 OA
ENDBRANCH   1   2
BRANCH   1   5
ATOM      5  C   UNL     1      33.869   6.258  46.224  1.00  0.00     0.059 C 
BRANCH   5   6
ATOM      6  C   UNL     1      34.741   5.047  46.356  1.00  0.00     0.042 C 
ATOM      7  O   UNL     1      35.130   4.666  47.491  1.00  0.00    -0.550 OA
ATOM      8  O   UNL     1      35.156   4.362  45.220  1.00  0.00    -0.550 OA
ENDBRANCH   5   6
ENDBRANCH   1   5
TORSDOF 3
ENDMDL
MODEL 2
REMARK VINA RESULT:    -3.242      3.300      4.282
REMARK INTER + INTRA:          -3.863
REMARK INTER:                  -3.829
REMARK INTRA:                  -0.034
REMARK UNBOUND:                -0.051
REMARK SMILES O=C([O-])CCC(=O)[O-]
REMARK SMILES IDX 4 1 2 2 1 3 3 4 5 5 6 6 7 7 8 8
REMARK H PARENT
REMARK Flexibility Score: inf
ROOT
ATOM      1  C   UNL     1      32.881   6.823  47.165  1.00  0.00     0.059 C 
ENDROOT
BRANCH   1   2
ATOM      2  C   UNL     1      33.778   6.209  46.133  1.00  0.00     0.042 C 
ATOM      3  O   UNL     1      34.663   5.383  46.475  1.00  0.00    -0.550 OA
ATOM      4  O   UNL     1      33.662   6.583  44.800  1.00  0.00    -0.550 OA
ENDBRANCH   1   2
BRANCH   1   5
ATOM      5  C   UNL     1      31.659   5.943  47.446  1.00  0.00     0.059 C 
BRANCH   5   6
ATOM      6  C   UNL     1      30.484   6.758  47.894  1.00  0.00     0.042 C 
ATOM      7  O   UNL     1      30.652   7.928  48.328  1.00  0.00    -0.550 OA
ATOM      8  O   UNL     1      29.207   6.209  47.870  1.00  0.00    -0.550 OA
ENDBRANCH   5   6
ENDBRANCH   1   5
TORSDOF 3
ENDMDL
MODEL 3
REMARK VINA RESULT:    -3.231      3.276      3.987
REMARK INTER + INTRA:          -3.849
REMARK INTER:                  -3.816
REMARK INTRA:                  -0.033
REMARK UNBOUND:                -0.051
REMARK SMILES O=C([O-])CCC(=O)[O-]
REMARK SMILES IDX 4 1 2 2 1 3 3 4 5 5 6 6 7 7 8 8
REMARK H PARENT
REMARK Flexibility Score: inf
ROOT
ATOM      1  C   UNL     1      31.772   5.922  47.534  1.00  0.00     0.059 C 
ENDROOT
BRANCH   1   2
ATOM      2  C   UNL     1      30.552   6.704  47.914  1.00  0.00     0.042 C 
ATOM      3  O   UNL     1      30.660   7.897  48.301  1.00  0.00    -0.550 OA
ATOM      4  O   UNL     1      29.301   6.101  47.881  1.00  0.00    -0.550 OA
ENDBRANCH   1   2
BRANCH   1   5
ATOM      5  C   UNL     1      32.925   6.841  47.117  1.00  0.00     0.059 C 
BRANCH   5   6
ATOM      6  C   UNL     1      33.781   6.209  46.063  1.00  0.00     0.042 C 
ATOM      7  O   UNL     1      34.633   5.335  46.376  1.00  0.00    -0.550 OA
ATOM      8  O   UNL     1      33.666   6.614  44.738  1.00  0.00    -0.550 OA
ENDBRANCH   5   6
ENDBRANCH   1   5
TORSDOF 3
ENDMDL
MODEL 4
REMARK VINA RESULT:    -3.223      3.090      3.904
REMARK INTER + INTRA:          -3.840
REMARK INTER:                  -3.806
REMARK INTRA:                  -0.034
REMARK UNBOUND:                -0.051
REMARK SMILES O=C([O-])CCC(=O)[O-]
REMARK SMILES IDX 4 1 2 2 1 3 3 4 5 5 6 6 7 7 8 8
REMARK H PARENT
REMARK Flexibility Score: inf
ROOT
ATOM      1  C   UNL     1      32.004   6.003  47.548  1.00  0.00     0.059 C 
ENDROOT
BRANCH   1   2
ATOM      2  C   UNL     1      30.770   6.787  47.876  1.00  0.00     0.042 C 
ATOM      3  O   UNL     1      29.632   6.272  47.717  1.00  0.00    -0.550 OA
ATOM      4  O   UNL     1      30.876   8.100  48.316  1.00  0.00    -0.550 OA
ENDBRANCH   1   2
BRANCH   1   5
ATOM      5  C   UNL     1      33.124   6.907  47.021  1.00  0.00     0.059 C 
BRANCH   5   6
ATOM      6  C   UNL     1      33.846   6.277  45.870  1.00  0.00     0.042 C 
ATOM      7  O   UNL     1      33.602   6.644  44.690  1.00  0.00    -0.550 OA
ATOM      8  O   UNL     1      34.760   5.254  46.097  1.00  0.00    -0.550 OA
ENDBRANCH   5   6
ENDBRANCH   1   5
TORSDOF 3
ENDMDL
MODEL 5
REMARK VINA RESULT:    -3.179      2.918      3.964
REMARK INTER + INTRA:          -3.788
REMARK INTER:                  -3.748
REMARK INTRA:                  -0.040
REMARK UNBOUND:                -0.051
REMARK SMILES O=C([O-])CCC(=O)[O-]
REMARK SMILES IDX 4 1 2 2 1 3 3 4 5 5 6 6 7 7 8 8
REMARK H PARENT
REMARK Flexibility Score: inf
ROOT
ATOM      1  C   UNL     1      33.365   6.845  46.983  1.00  0.00     0.059 C 
ENDROOT
BRANCH   1   2
ATOM      2  C   UNL     1      33.942   6.255  45.733  1.00  0.00     0.042 C 
ATOM      3  O   UNL     1      33.650   6.742  44.609  1.00  0.00    -0.550 OA
ATOM      4  O   UNL     1      34.770   5.141  45.807  1.00  0.00    -0.550 OA
ENDBRANCH   1   2
BRANCH   1   5
ATOM      5  C   UNL     1      32.235   5.978  47.547  1.00  0.00     0.059 C 
BRANCH   5   6
ATOM      6  C   UNL     1      30.993   6.780  47.790  1.00  0.00     0.042 C 
ATOM      7  O   UNL     1      29.859   6.276  47.570  1.00  0.00    -0.550 OA
ATOM      8  O   UNL     1      31.088   8.098  48.220  1.00  0.00    -0.550 OA
ENDBRANCH   5   6
ENDBRANCH   1   5
TORSDOF 3
ENDMDL
MODEL 6
REMARK VINA RESULT:    -3.139      0.416      4.059
REMARK INTER + INTRA:          -3.741
REMARK INTER:                  -3.683
REMARK INTRA:                  -0.058
REMARK UNBOUND:                -0.051
REMARK SMILES O=C([O-])CCC(=O)[O-]
REMARK SMILES IDX 4 1 2 2 1 3 3 4 5 5 6 6 7 7 8 8
REMARK H PARENT
REMARK Flexibility Score: inf
ROOT
ATOM      1  C   UNL     1      33.620   6.572  46.121  1.00  0.00     0.059 C 
ENDROOT
BRANCH   1   2
ATOM      2  C   UNL     1      34.412   5.338  46.427  1.00  0.00     0.042 C 
ATOM      3  O   UNL     1      34.539   4.946  47.616  1.00  0.00    -0.550 OA
ATOM      4  O   UNL     1      35.044   4.645  45.402  1.00  0.00    -0.550 OA
ENDBRANCH   1   2
BRANCH   1   5
ATOM      5  C   UNL     1      33.983   7.151  44.749  1.00  0.00     0.059 C 
BRANCH   5   6
ATOM      6  C   UNL     1      34.355   8.600  44.843  1.00  0.00     0.042 C 
ATOM      7  O   UNL     1      34.190   9.228  45.922  1.00  0.00    -0.550 OA
ATOM      8  O   UNL     1      34.845   9.265  43.726  1.00  0.00    -0.550 OA
ENDBRANCH   5   6
ENDBRANCH   1   5
TORSDOF 3
ENDMDL
MODEL 7
REMARK VINA RESULT:    -3.023     16.617     17.785
REMARK INTER + INTRA:          -3.605
REMARK INTER:                  -3.509
REMARK INTRA:                  -0.096
REMARK UNBOUND:                -0.051
REMARK SMILES O=C([O-])CCC(=O)[O-]
REMARK SMILES IDX 4 1 2 2 1 3 3 4 5 5 6 6 7 7 8 8
REMARK H PARENT
REMARK Flexibility Score: inf
ROOT
ATOM      1  C   UNL     1      20.190  11.435  35.180  1.00  0.00     0.059 C 
ENDROOT
BRANCH   1   2
ATOM      2  C   UNL     1      19.823  12.808  35.653  1.00  0.00     0.042 C 
ATOM      3  O   UNL     1      20.528  13.799  35.327  1.00  0.00    -0.550 OA
ATOM      4  O   UNL     1      18.727  12.988  36.487  1.00  0.00    -0.550 OA
ENDBRANCH   1   2
BRANCH   1   5
ATOM      5  C   UNL     1      21.520  10.967  35.780  1.00  0.00     0.059 C 
BRANCH   5   6
ATOM      6  C   UNL     1      22.652  11.140  34.814  1.00  0.00     0.042 C 
ATOM      7  O   UNL     1      22.426  11.507  33.631  1.00  0.00    -0.550 OA
ATOM      8  O   UNL     1      23.954  10.856  35.210  1.00  0.00    -0.550 OA
ENDBRANCH   5   6
ENDBRANCH   1   5
TORSDOF 3
ENDMDL
MODEL 8
REMARK VINA RESULT:    -3.000     16.855     18.157
REMARK INTER + INTRA:          -3.577
REMARK INTER:                  -3.504
REMARK INTRA:                  -0.073
REMARK UNBOUND:                -0.051
REMARK SMILES O=C([O-])CCC(=O)[O-]
REMARK SMILES IDX 4 1 2 2 1 3 3 4 5 5 6 6 7 7 8 8
REMARK H PARENT
REMARK Flexibility Score: inf
ROOT
ATOM      1  C   UNL     1      21.543  11.209  35.677  1.00  0.00     0.059 C 
ENDROOT
BRANCH   1   2
ATOM      2  C   UNL     1      22.621  11.190  34.636  1.00  0.00     0.042 C 
ATOM      3  O   UNL     1      23.801  10.890  34.954  1.00  0.00    -0.550 OA
ATOM      4  O   UNL     1      22.329  11.543  33.325  1.00  0.00    -0.550 OA
ENDBRANCH   1   2
BRANCH   1   5
ATOM      5  C   UNL     1      20.781  12.539  35.676  1.00  0.00     0.059 C 
BRANCH   5   6
ATOM      6  C   UNL     1      19.301  12.326  35.765  1.00  0.00     0.042 C 
ATOM      7  O   UNL     1      18.767  11.337  35.196  1.00  0.00    -0.550 OA
ATOM      8  O   UNL     1      18.506  13.243  36.442  1.00  0.00    -0.550 OA
ENDBRANCH   5   6
ENDBRANCH   1   5
TORSDOF 3
ENDMDL
MODEL 9
REMARK VINA RESULT:    -2.970      2.439      3.308
REMARK INTER + INTRA:          -3.542
REMARK INTER:                  -3.497
REMARK INTRA:                  -0.045
REMARK UNBOUND:                -0.051
REMARK SMILES O=C([O-])CCC(=O)[O-]
REMARK SMILES IDX 4 1 2 2 1 3 3 4 5 5 6 6 7 7 8 8
REMARK H PARENT
REMARK Flexibility Score: inf
ROOT
ATOM      1  C   UNL     1      33.554   7.119  47.067  1.00  0.00     0.059 C 
ENDROOT
BRANCH   1   2
ATOM      2  C   UNL     1      32.319   6.664  47.783  1.00  0.00     0.042 C 
ATOM      3  O   UNL     1      32.305   6.593  49.039  1.00  0.00    -0.550 OA
ATOM      4  O   UNL     1      31.198   6.278  47.058  1.00  0.00    -0.550 OA
ENDBRANCH   1   2
BRANCH   1   5
ATOM      5  C   UNL     1      33.875   6.223  45.867  1.00  0.00     0.059 C 
BRANCH   5   6
ATOM      6  C   UNL     1      34.778   5.091  46.250  1.00  0.00     0.042 C 
ATOM      7  O   UNL     1      35.229   4.313  45.367  1.00  0.00    -0.550 OA
ATOM      8  O   UNL     1      35.089   4.870  47.586  1.00  0.00    -0.550 OA
ENDBRANCH   5   6
ENDBRANCH   1   5
TORSDOF 3
ENDMDL
