MODEL 1
REMARK VINA RESULT:    -6.744      0.000      0.000
REMARK INTER + INTRA:         -11.655
REMARK INTER:                  -9.899
REMARK INTRA:                  -1.757
REMARK UNBOUND:                -1.757
REMARK SMILES O=c1c(O[C@@H]2O[C@H](CO)[C@H](O)[C@@H](O)[C@H]2O)c(-c2ccc(O)c(O)c2)oc2cc(O)cc(O)c12
REMARK SMILES IDX 4 1 3 2 16 3 25 4 2 5 26 6 1 7 33 8 27 9 31 10 28 11 30 12
REMARK SMILES IDX 17 13 18 14 19 15 20 16 24 17 22 18 21 19 23 21 32 23 29 25
REMARK SMILES IDX 5 27 14 28 6 29 12 30 7 31 10 32 15 33 13 35 8 37 9 38 11 40
REMARK H PARENT 21 20 23 22 32 24 29 26 15 34 13 36 9 39 11 41
REMARK Flexibility Score: inf
ROOT
ATOM      1  O   UNL     1       6.626  12.154 -16.371  1.00  0.00    -0.454 OA
ENDROOT
BRANCH   1   2
ATOM      2  C   UNL     1       7.284  12.755 -17.441  1.00  0.00     0.214 A 
ATOM      3  C   UNL     1       7.765  11.970 -18.495  1.00  0.00     0.180 A 
ATOM      4  O   UNL     1       8.172  12.538 -19.624  1.00  0.00    -0.452 OA
ATOM      5  C   UNL     1       7.458  14.142 -17.512  1.00  0.00     0.239 A 
ATOM      6  C   UNL     1       8.278  13.854 -19.761  1.00  0.00     0.146 A 
ATOM      7  O   UNL     1       7.075  14.858 -16.552  1.00  0.00    -0.285 OA
ATOM      8  C   UNL     1       8.043  14.717 -18.658  1.00  0.00     0.111 A 
ATOM      9  C   UNL     1       8.668  14.377 -20.995  1.00  0.00     0.094 A 
ATOM     10  C   UNL     1       8.432  16.076 -18.774  1.00  0.00     0.134 A 
ATOM     11  C   UNL     1       8.926  15.733 -21.135  1.00  0.00     0.123 A 
ATOM     12  C   UNL     1       8.818  16.579 -20.020  1.00  0.00     0.093 A 
BRANCH   3  13
ATOM     13  C   UNL     1       7.969  10.523 -18.327  1.00  0.00     0.025 A 
ATOM     14  C   UNL     1       6.839   9.698 -18.452  1.00  0.00     0.016 A 
ATOM     15  C   UNL     1       6.909   8.357 -18.051  1.00  0.00     0.051 A 
ATOM     16  C   UNL     1       8.119   7.826 -17.562  1.00  0.00     0.157 A 
ATOM     17  C   UNL     1       9.175   9.995 -17.840  1.00  0.00     0.062 A 
ATOM     18  C   UNL     1       9.264   8.639 -17.484  1.00  0.00     0.158 A 
BRANCH  16  19
ATOM     19  O   UNL     1       8.170   6.491 -17.152  1.00  0.00    -0.504 OA
ATOM     20  H   UNL     1       8.443   5.752 -17.803  1.00  0.00     0.293 HD
ENDBRANCH  16  19
BRANCH  18  21
ATOM     21  O   UNL     1      10.484   8.128 -17.037  1.00  0.00    -0.504 OA
ATOM     22  H   UNL     1      11.306   8.142 -17.639  1.00  0.00     0.293 HD
ENDBRANCH  18  21
ENDBRANCH   3  13
BRANCH  10  23
ATOM     23  O   UNL     1       8.544  16.931 -17.661  1.00  0.00    -0.507 OA
ATOM     24  H   UNL     1       9.204  17.709 -17.647  1.00  0.00     0.293 HD
ENDBRANCH  10  23
BRANCH  11  25
ATOM     25  O   UNL     1       9.295  16.235 -22.380  1.00  0.00    -0.508 OA
ATOM     26  H   UNL     1      10.228  16.094 -22.746  1.00  0.00     0.293 HD
ENDBRANCH  11  25
ENDBRANCH   1   2
BRANCH   1  27
ATOM     27  C   UNL     1       7.317  11.779 -15.169  1.00  0.00     0.339 C 
ATOM     28  C   UNL     1       6.573  12.389 -13.956  1.00  0.00     0.214 C 
ATOM     29  O   UNL     1       7.352  10.364 -15.077  1.00  0.00    -0.332 OA
ATOM     30  C   UNL     1       7.205  11.940 -12.630  1.00  0.00     0.180 C 
ATOM     31  C   UNL     1       8.139   9.967 -13.966  1.00  0.00     0.179 C 
ATOM     32  C   UNL     1       7.494  10.423 -12.630  1.00  0.00     0.177 C 
BRANCH  28  33
ATOM     33  O   UNL     1       6.526  13.791 -14.037  1.00  0.00    -0.384 OA
ATOM     34  H   UNL     1       6.039  14.055 -14.856  1.00  0.00     0.211 HD
ENDBRANCH  28  33
BRANCH  30  35
ATOM     35  O   UNL     1       8.358  12.690 -12.306  1.00  0.00    -0.387 OA
ATOM     36  H   UNL     1       9.153  12.253 -12.711  1.00  0.00     0.211 HD
ENDBRANCH  30  35
BRANCH  31  37
ATOM     37  C   UNL     1       8.301   8.438 -13.990  1.00  0.00     0.191 C 
BRANCH  37  38
ATOM     38  O   UNL     1       9.666   8.094 -14.010  1.00  0.00    -0.394 OA
ATOM     39  H   UNL     1       9.894   7.859 -13.067  1.00  0.00     0.210 HD
ENDBRANCH  37  38
ENDBRANCH  31  37
BRANCH  32  40
ATOM     40  O   UNL     1       6.290   9.726 -12.410  1.00  0.00    -0.387 OA
ATOM     41  H   UNL     1       6.175   9.095 -13.165  1.00  0.00     0.211 HD
ENDBRANCH  32  40
ENDBRANCH   1  27
TORSDOF 12
ENDMDL
MODEL 2
REMARK VINA RESULT:    -6.432      2.945      6.230
REMARK INTER + INTRA:         -11.197
REMARK INTER:                  -9.474
REMARK INTRA:                  -1.723
REMARK UNBOUND:                -1.757
REMARK SMILES O=c1c(O[C@@H]2O[C@H](CO)[C@H](O)[C@@H](O)[C@H]2O)c(-c2ccc(O)c(O)c2)oc2cc(O)cc(O)c12
REMARK SMILES IDX 4 1 3 2 16 3 25 4 2 5 26 6 1 7 33 8 27 9 31 10 28 11 30 12
REMARK SMILES IDX 17 13 18 14 19 15 20 16 24 17 22 18 21 19 23 21 32 23 29 25
REMARK SMILES IDX 5 27 14 28 6 29 12 30 7 31 10 32 15 33 13 35 8 37 9 38 11 40
REMARK H PARENT 21 20 23 22 32 24 29 26 15 34 13 36 9 39 11 41
REMARK Flexibility Score: inf
ROOT
ATOM      1  O   UNL     1       8.999  15.612 -18.403  1.00  0.00    -0.454 OA
ENDROOT
BRANCH   1   2
ATOM      2  C   UNL     1       8.322  16.531 -17.604  1.00  0.00     0.214 A 
ATOM      3  C   UNL     1       8.153  16.275 -16.238  1.00  0.00     0.180 A 
ATOM      4  O   UNL     1       7.732  17.235 -15.423  1.00  0.00    -0.452 OA
ATOM      5  C   UNL     1       7.822  17.730 -18.123  1.00  0.00     0.239 A 
ATOM      6  C   UNL     1       7.322  18.417 -15.866  1.00  0.00     0.146 A 
ATOM      7  O   UNL     1       7.923  17.954 -19.355  1.00  0.00    -0.285 OA
ATOM      8  C   UNL     1       7.229  18.674 -17.259  1.00  0.00     0.111 A 
ATOM      9  C   UNL     1       6.939  19.391 -14.943  1.00  0.00     0.094 A 
ATOM     10  C   UNL     1       6.533  19.834 -17.684  1.00  0.00     0.134 A 
ATOM     11  C   UNL     1       6.372  20.583 -15.370  1.00  0.00     0.123 A 
ATOM     12  C   UNL     1       6.160  20.797 -16.741  1.00  0.00     0.093 A 
BRANCH   3  13
ATOM     13  C   UNL     1       8.295  14.913 -15.701  1.00  0.00     0.025 A 
ATOM     14  C   UNL     1       9.597  14.465 -15.425  1.00  0.00     0.016 A 
ATOM     15  C   UNL     1       9.824  13.106 -15.164  1.00  0.00     0.051 A 
ATOM     16  C   UNL     1       8.745  12.200 -15.137  1.00  0.00     0.157 A 
ATOM     17  C   UNL     1       7.219  14.011 -15.675  1.00  0.00     0.062 A 
ATOM     18  C   UNL     1       7.435  12.658 -15.364  1.00  0.00     0.158 A 
BRANCH  16  19
ATOM     19  O   UNL     1       8.990  10.847 -14.890  1.00  0.00    -0.504 OA
ATOM     20  H   UNL     1       9.267  10.216 -15.645  1.00  0.00     0.293 HD
ENDBRANCH  16  19
BRANCH  18  21
ATOM     21  O   UNL     1       6.346  11.787 -15.308  1.00  0.00    -0.504 OA
ATOM     22  H   UNL     1       6.384  10.942 -14.739  1.00  0.00     0.293 HD
ENDBRANCH  18  21
ENDBRANCH   3  13
BRANCH  10  23
ATOM     23  O   UNL     1       6.108  20.020 -19.012  1.00  0.00    -0.507 OA
ATOM     24  H   UNL     1       6.552  19.533 -19.791  1.00  0.00     0.293 HD
ENDBRANCH  10  23
BRANCH  11  25
ATOM     25  O   UNL     1       6.016  21.547 -14.433  1.00  0.00    -0.508 OA
ATOM     26  H   UNL     1       6.713  22.002 -13.858  1.00  0.00     0.293 HD
ENDBRANCH  11  25
ENDBRANCH   1   2
BRANCH   1  27
ATOM     27  C   UNL     1       8.332  14.492 -19.004  1.00  0.00     0.339 C 
ATOM     28  C   UNL     1       8.421  14.626 -20.543  1.00  0.00     0.214 C 
ATOM     29  O   UNL     1       8.954  13.294 -18.567  1.00  0.00    -0.332 OA
ATOM     30  C   UNL     1       7.812  13.402 -21.247  1.00  0.00     0.180 C 
ATOM     31  C   UNL     1       8.234  12.169 -19.044  1.00  0.00     0.179 C 
ATOM     32  C   UNL     1       8.285  12.086 -20.592  1.00  0.00     0.177 C 
BRANCH  28  33
ATOM     33  O   UNL     1       7.813  15.811 -20.990  1.00  0.00    -0.384 OA
ATOM     34  H   UNL     1       8.212  16.078 -21.855  1.00  0.00     0.211 HD
ENDBRANCH  28  33
BRANCH  30  35
ATOM     35  O   UNL     1       6.403  13.473 -21.317  1.00  0.00    -0.387 OA
ATOM     36  H   UNL     1       6.091  12.941 -22.096  1.00  0.00     0.211 HD
ENDBRANCH  30  35
BRANCH  31  37
ATOM     37  C   UNL     1       8.825  10.896 -18.418  1.00  0.00     0.191 C 
BRANCH  37  38
ATOM     38  O   UNL     1      10.200  11.068 -18.171  1.00  0.00    -0.394 OA
ATOM     39  H   UNL     1      10.623  10.194 -18.405  1.00  0.00     0.210 HD
ENDBRANCH  37  38
ENDBRANCH  31  37
BRANCH  32  40
ATOM     40  O   UNL     1       9.598  11.806 -21.020  1.00  0.00    -0.387 OA
ATOM     41  H   UNL     1      10.051  12.675 -21.159  1.00  0.00     0.211 HD
ENDBRANCH  32  40
ENDBRANCH   1  27
TORSDOF 12
ENDMDL
MODEL 3
REMARK VINA RESULT:    -6.425      2.245      3.204
REMARK INTER + INTRA:         -11.186
REMARK INTER:                  -9.513
REMARK INTRA:                  -1.673
REMARK UNBOUND:                -1.757
REMARK SMILES O=c1c(O[C@@H]2O[C@H](CO)[C@H](O)[C@@H](O)[C@H]2O)c(-c2ccc(O)c(O)c2)oc2cc(O)cc(O)c12
REMARK SMILES IDX 4 1 3 2 16 3 25 4 2 5 26 6 1 7 33 8 27 9 31 10 28 11 30 12
REMARK SMILES IDX 17 13 18 14 19 15 20 16 24 17 22 18 21 19 23 21 32 23 29 25
REMARK SMILES IDX 5 27 14 28 6 29 12 30 7 31 10 32 15 33 13 35 8 37 9 38 11 40
REMARK H PARENT 21 20 23 22 32 24 29 26 15 34 13 36 9 39 11 41
REMARK Flexibility Score: inf
ROOT
ATOM      1  O   UNL     1       6.534  13.814 -16.363  1.00  0.00    -0.454 OA
ENDROOT
BRANCH   1   2
ATOM      2  C   UNL     1       7.175  14.998 -16.724  1.00  0.00     0.214 A 
ATOM      3  C   UNL     1       8.185  14.977 -17.692  1.00  0.00     0.180 A 
ATOM      4  O   UNL     1       8.633  16.110 -18.220  1.00  0.00    -0.452 OA
ATOM      5  C   UNL     1       6.818  16.229 -16.162  1.00  0.00     0.239 A 
ATOM      6  C   UNL     1       8.261  17.301 -17.770  1.00  0.00     0.146 A 
ATOM      7  O   UNL     1       5.946  16.260 -15.258  1.00  0.00    -0.285 OA
ATOM      8  C   UNL     1       7.425  17.413 -16.627  1.00  0.00     0.111 A 
ATOM      9  C   UNL     1       8.739  18.446 -18.408  1.00  0.00     0.094 A 
ATOM     10  C   UNL     1       7.280  18.688 -16.022  1.00  0.00     0.134 A 
ATOM     11  C   UNL     1       8.486  19.705 -17.880  1.00  0.00     0.123 A 
ATOM     12  C   UNL     1       7.766  19.822 -16.681  1.00  0.00     0.093 A 
BRANCH   3  13
ATOM     13  C   UNL     1       8.873  13.723 -18.039  1.00  0.00     0.025 A 
ATOM     14  C   UNL     1       8.328  12.962 -19.086  1.00  0.00     0.016 A 
ATOM     15  C   UNL     1       8.770  11.648 -19.294  1.00  0.00     0.051 A 
ATOM     16  C   UNL     1       9.787  11.106 -18.483  1.00  0.00     0.157 A 
ATOM     17  C   UNL     1       9.886  13.185 -17.230  1.00  0.00     0.062 A 
ATOM     18  C   UNL     1      10.368  11.886 -17.467  1.00  0.00     0.158 A 
BRANCH  16  19
ATOM     19  O   UNL     1      10.206   9.790 -18.693  1.00  0.00    -0.504 OA
ATOM     20  H   UNL     1      10.567   9.492 -19.601  1.00  0.00     0.293 HD
ENDBRANCH  16  19
BRANCH  18  21
ATOM     21  O   UNL     1      11.400  11.384 -16.673  1.00  0.00    -0.504 OA
ATOM     22  H   UNL     1      11.923  11.999 -16.050  1.00  0.00     0.293 HD
ENDBRANCH  18  21
ENDBRANCH   3  13
BRANCH  10  23
ATOM     23  O   UNL     1       6.751  18.859 -14.729  1.00  0.00    -0.507 OA
ATOM     24  H   UNL     1       6.369  19.754 -14.420  1.00  0.00     0.293 HD
ENDBRANCH  10  23
BRANCH  11  25
ATOM     25  O   UNL     1       8.957  20.833 -18.544  1.00  0.00    -0.508 OA
ATOM     26  H   UNL     1       9.947  20.977 -18.697  1.00  0.00     0.293 HD
ENDBRANCH  11  25
ENDBRANCH   1   2
BRANCH   1  27
ATOM     27  C   UNL     1       7.078  12.929 -15.372  1.00  0.00     0.339 C 
ATOM     28  C   UNL     1       6.107  12.875 -14.167  1.00  0.00     0.214 C 
ATOM     29  O   UNL     1       7.242  11.641 -15.943  1.00  0.00    -0.332 OA
ATOM     30  C   UNL     1       6.583  11.864 -13.112  1.00  0.00     0.180 C 
ATOM     31  C   UNL     1       7.896  10.781 -15.024  1.00  0.00     0.179 C 
ATOM     32  C   UNL     1       7.021  10.535 -13.766  1.00  0.00     0.177 C 
BRANCH  28  33
ATOM     33  O   UNL     1       5.931  14.147 -13.595  1.00  0.00    -0.384 OA
ATOM     34  H   UNL     1       4.964  14.349 -13.539  1.00  0.00     0.211 HD
ENDBRANCH  28  33
BRANCH  30  35
ATOM     35  O   UNL     1       7.595  12.394 -12.280  1.00  0.00    -0.387 OA
ATOM     36  H   UNL     1       8.480  12.094 -12.617  1.00  0.00     0.211 HD
ENDBRANCH  30  35
BRANCH  31  37
ATOM     37  C   UNL     1       8.214   9.450 -15.725  1.00  0.00     0.191 C 
BRANCH  37  38
ATOM     38  O   UNL     1       9.579   9.137 -15.578  1.00  0.00    -0.394 OA
ATOM     39  H   UNL     1      10.066   9.992 -15.743  1.00  0.00     0.210 HD
ENDBRANCH  37  38
ENDBRANCH  31  37
BRANCH  32  40
ATOM     40  O   UNL     1       5.875   9.792 -14.110  1.00  0.00    -0.387 OA
ATOM     41  H   UNL     1       5.438  10.261 -14.864  1.00  0.00     0.211 HD
ENDBRANCH  32  40
ENDBRANCH   1  27
TORSDOF 12
ENDMDL
MODEL 4
REMARK VINA RESULT:    -6.396      1.585      1.916
REMARK INTER + INTRA:         -11.144
REMARK INTER:                 -10.906
REMARK INTRA:                  -0.238
REMARK UNBOUND:                -1.757
REMARK SMILES O=c1c(O[C@@H]2O[C@H](CO)[C@H](O)[C@@H](O)[C@H]2O)c(-c2ccc(O)c(O)c2)oc2cc(O)cc(O)c12
REMARK SMILES IDX 4 1 3 2 16 3 25 4 2 5 26 6 1 7 33 8 27 9 31 10 28 11 30 12
REMARK SMILES IDX 17 13 18 14 19 15 20 16 24 17 22 18 21 19 23 21 32 23 29 25
REMARK SMILES IDX 5 27 14 28 6 29 12 30 7 31 10 32 15 33 13 35 8 37 9 38 11 40
REMARK H PARENT 21 20 23 22 32 24 29 26 15 34 13 36 9 39 11 41
REMARK Flexibility Score: inf
ROOT
ATOM      1  O   UNL     1       9.954  12.486 -15.480  1.00  0.00    -0.454 OA
ENDROOT
BRANCH   1   2
ATOM      2  C   UNL     1       9.732  12.889 -16.795  1.00  0.00     0.214 A 
ATOM      3  C   UNL     1       9.201  11.984 -17.721  1.00  0.00     0.180 A 
ATOM      4  O   UNL     1       8.760  12.410 -18.899  1.00  0.00    -0.452 OA
ATOM      5  C   UNL     1      10.000  14.195 -17.220  1.00  0.00     0.239 A 
ATOM      6  C   UNL     1       8.922  13.661 -19.310  1.00  0.00     0.146 A 
ATOM      7  O   UNL     1      10.520  15.007 -16.414  1.00  0.00    -0.285 OA
ATOM      8  C   UNL     1       9.669  14.586 -18.533  1.00  0.00     0.111 A 
ATOM      9  C   UNL     1       8.388  14.044 -20.541  1.00  0.00     0.094 A 
ATOM     10  C   UNL     1      10.049  15.814 -19.132  1.00  0.00     0.134 A 
ATOM     11  C   UNL     1       8.660  15.300 -21.067  1.00  0.00     0.123 A 
ATOM     12  C   UNL     1       9.500  16.178 -20.366  1.00  0.00     0.093 A 
BRANCH   3  13
ATOM     13  C   UNL     1       9.254  10.534 -17.477  1.00  0.00     0.025 A 
ATOM     14  C   UNL     1       8.030   9.847 -17.429  1.00  0.00     0.016 A 
ATOM     15  C   UNL     1       7.988   8.532 -16.947  1.00  0.00     0.051 A 
ATOM     16  C   UNL     1       9.176   7.886 -16.549  1.00  0.00     0.157 A 
ATOM     17  C   UNL     1      10.438   9.892 -17.080  1.00  0.00     0.062 A 
ATOM     18  C   UNL     1      10.408   8.556 -16.644  1.00  0.00     0.158 A 
BRANCH  16  19
ATOM     19  O   UNL     1       9.117   6.579 -16.057  1.00  0.00    -0.504 OA
ATOM     20  H   UNL     1       9.424   5.789 -16.627  1.00  0.00     0.293 HD
ENDBRANCH  16  19
BRANCH  18  21
ATOM     21  O   UNL     1      11.602   7.926 -16.289  1.00  0.00    -0.504 OA
ATOM     22  H   UNL     1      11.903   7.076 -16.765  1.00  0.00     0.293 HD
ENDBRANCH  18  21
ENDBRANCH   3  13
BRANCH  10  23
ATOM     23  O   UNL     1      11.039  16.651 -18.585  1.00  0.00    -0.507 OA
ATOM     24  H   UNL     1      10.800  17.459 -18.008  1.00  0.00     0.293 HD
ENDBRANCH  10  23
BRANCH  11  25
ATOM     25  O   UNL     1       8.101  15.667 -22.287  1.00  0.00    -0.508 OA
ATOM     26  H   UNL     1       8.076  15.022 -23.068  1.00  0.00     0.293 HD
ENDBRANCH  11  25
ENDBRANCH   1   2
BRANCH   1  27
ATOM     27  C   UNL     1       8.873  12.267 -14.560  1.00  0.00     0.339 C 
ATOM     28  C   UNL     1       7.583  12.883 -15.153  1.00  0.00     0.214 C 
ATOM     29  O   UNL     1       8.716  10.872 -14.356  1.00  0.00    -0.332 OA
ATOM     30  C   UNL     1       6.365  12.593 -14.261  1.00  0.00     0.180 C 
ATOM     31  C   UNL     1       7.740  10.633 -13.355  1.00  0.00     0.179 C 
ATOM     32  C   UNL     1       6.337  11.115 -13.812  1.00  0.00     0.177 C 
BRANCH  28  33
ATOM     33  O   UNL     1       7.727  14.265 -15.365  1.00  0.00    -0.384 OA
ATOM     34  H   UNL     1       8.373  14.418 -16.098  1.00  0.00     0.211 HD
ENDBRANCH  28  33
BRANCH  30  35
ATOM     35  O   UNL     1       6.287  13.474 -13.159  1.00  0.00    -0.387 OA
ATOM     36  H   UNL     1       5.787  14.289 -13.431  1.00  0.00     0.211 HD
ENDBRANCH  30  35
BRANCH  31  37
ATOM     37  C   UNL     1       7.712   9.130 -13.033  1.00  0.00     0.191 C 
BRANCH  37  38
ATOM     38  O   UNL     1       6.445   8.761 -12.544  1.00  0.00    -0.394 OA
ATOM     39  H   UNL     1       5.891   8.578 -13.354  1.00  0.00     0.210 HD
ENDBRANCH  37  38
ENDBRANCH  31  37
BRANCH  32  40
ATOM     40  O   UNL     1       5.875  10.320 -14.879  1.00  0.00    -0.387 OA
ATOM     41  H   UNL     1       5.756   9.402 -14.529  1.00  0.00     0.211 HD
ENDBRANCH  32  40
ENDBRANCH   1  27
TORSDOF 12
ENDMDL
MODEL 5
REMARK VINA RESULT:    -6.241      2.368      7.645
REMARK INTER + INTRA:         -10.916
REMARK INTER:                  -9.190
REMARK INTRA:                  -1.726
REMARK UNBOUND:                -1.757
REMARK SMILES O=c1c(O[C@@H]2O[C@H](CO)[C@H](O)[C@@H](O)[C@H]2O)c(-c2ccc(O)c(O)c2)oc2cc(O)cc(O)c12
REMARK SMILES IDX 4 1 3 2 16 3 25 4 2 5 26 6 1 7 33 8 27 9 31 10 28 11 30 12
REMARK SMILES IDX 17 13 18 14 19 15 20 16 24 17 22 18 21 19 23 21 32 23 29 25
REMARK SMILES IDX 5 27 14 28 6 29 12 30 7 31 10 32 15 33 13 35 8 37 9 38 11 40
REMARK H PARENT 21 20 23 22 32 24 29 26 15 34 13 36 9 39 11 41
REMARK Flexibility Score: inf
ROOT
ATOM      1  O   UNL     1       6.384  10.606 -17.620  1.00  0.00    -0.454 OA
ENDROOT
BRANCH   1   2
ATOM      2  C   UNL     1       6.812   9.370 -17.140  1.00  0.00     0.214 A 
ATOM      3  C   UNL     1       7.529   9.297 -15.940  1.00  0.00     0.180 A 
ATOM      4  O   UNL     1       7.731   8.125 -15.349  1.00  0.00    -0.452 OA
ATOM      5  C   UNL     1       6.522   8.179 -17.815  1.00  0.00     0.239 A 
ATOM      6  C   UNL     1       7.400   6.974 -15.919  1.00  0.00     0.146 A 
ATOM      7  O   UNL     1       5.922   8.230 -18.918  1.00  0.00    -0.285 OA
ATOM      8  C   UNL     1       6.891   6.943 -17.245  1.00  0.00     0.111 A 
ATOM      9  C   UNL     1       7.601   5.787 -15.214  1.00  0.00     0.094 A 
ATOM     10  C   UNL     1       6.813   5.691 -17.906  1.00  0.00     0.134 A 
ATOM     11  C   UNL     1       7.400   4.559 -15.830  1.00  0.00     0.123 A 
ATOM     12  C   UNL     1       7.017   4.514 -17.179  1.00  0.00     0.093 A 
BRANCH   3  13
ATOM     13  C   UNL     1       8.195  10.486 -15.385  1.00  0.00     0.025 A 
ATOM     14  C   UNL     1       7.439  11.303 -14.529  1.00  0.00     0.016 A 
ATOM     15  C   UNL     1       7.918  12.573 -14.177  1.00  0.00     0.051 A 
ATOM     16  C   UNL     1       9.171  13.012 -14.647  1.00  0.00     0.157 A 
ATOM     17  C   UNL     1       9.444  10.922 -15.853  1.00  0.00     0.062 A 
ATOM     18  C   UNL     1       9.951  12.173 -15.463  1.00  0.00     0.158 A 
BRANCH  16  19
ATOM     19  O   UNL     1       9.629  14.286 -14.300  1.00  0.00    -0.504 OA
ATOM     20  H   UNL     1       8.973  15.030 -14.053  1.00  0.00     0.293 HD
ENDBRANCH  16  19
BRANCH  18  21
ATOM     21  O   UNL     1      11.212  12.571 -15.912  1.00  0.00    -0.504 OA
ATOM     22  H   UNL     1      11.739  11.991 -16.564  1.00  0.00     0.293 HD
ENDBRANCH  18  21
ENDBRANCH   3  13
BRANCH  10  23
ATOM     23  O   UNL     1       6.633   5.578 -19.297  1.00  0.00    -0.507 OA
ATOM     24  H   UNL     1       5.936   6.132 -19.795  1.00  0.00     0.293 HD
ENDBRANCH  10  23
BRANCH  11  25
ATOM     25  O   UNL     1       7.589   3.389 -15.101  1.00  0.00    -0.508 OA
ATOM     26  H   UNL     1       8.483   2.913 -15.096  1.00  0.00     0.293 HD
ENDBRANCH  11  25
ENDBRANCH   1   2
BRANCH   1  27
ATOM     27  C   UNL     1       7.236  11.450 -18.409  1.00  0.00     0.339 C 
ATOM     28  C   UNL     1       6.615  11.605 -19.819  1.00  0.00     0.214 C 
ATOM     29  O   UNL     1       7.356  12.712 -17.772  1.00  0.00    -0.332 OA
ATOM     30  C   UNL     1       7.428  12.581 -20.683  1.00  0.00     0.180 C 
ATOM     31  C   UNL     1       8.293  13.521 -18.465  1.00  0.00     0.179 C 
ATOM     32  C   UNL     1       7.794  13.858 -19.895  1.00  0.00     0.177 C 
BRANCH  28  33
ATOM     33  O   UNL     1       6.486  10.361 -20.460  1.00  0.00    -0.384 OA
ATOM     34  H   UNL     1       6.096  10.495 -21.359  1.00  0.00     0.211 HD
ENDBRANCH  28  33
BRANCH  30  35
ATOM     35  O   UNL     1       8.572  11.971 -21.247  1.00  0.00    -0.387 OA
ATOM     36  H   UNL     1       9.203  12.679 -21.544  1.00  0.00     0.211 HD
ENDBRANCH  30  35
BRANCH  31  37
ATOM     37  C   UNL     1       8.531  14.809 -17.661  1.00  0.00     0.191 C 
BRANCH  37  38
ATOM     38  O   UNL     1       9.905  14.978 -17.408  1.00  0.00    -0.394 OA
ATOM     39  H   UNL     1      10.347  14.935 -18.302  1.00  0.00     0.210 HD
ENDBRANCH  37  38
ENDBRANCH  31  37
BRANCH  32  40
ATOM     40  O   UNL     1       6.664  14.696 -19.829  1.00  0.00    -0.387 OA
ATOM     41  H   UNL     1       6.491  14.880 -18.872  1.00  0.00     0.211 HD
ENDBRANCH  32  40
ENDBRANCH   1  27
TORSDOF 12
ENDMDL
MODEL 6
REMARK VINA RESULT:    -6.095      1.867      7.632
REMARK INTER + INTRA:         -10.702
REMARK INTER:                 -10.507
REMARK INTRA:                  -0.194
REMARK UNBOUND:                -1.757
REMARK SMILES O=c1c(O[C@@H]2O[C@H](CO)[C@H](O)[C@@H](O)[C@H]2O)c(-c2ccc(O)c(O)c2)oc2cc(O)cc(O)c12
REMARK SMILES IDX 4 1 3 2 16 3 25 4 2 5 26 6 1 7 33 8 27 9 31 10 28 11 30 12
REMARK SMILES IDX 17 13 18 14 19 15 20 16 24 17 22 18 21 19 23 21 32 23 29 25
REMARK SMILES IDX 5 27 14 28 6 29 12 30 7 31 10 32 15 33 13 35 8 37 9 38 11 40
REMARK H PARENT 21 20 23 22 32 24 29 26 15 34 13 36 9 39 11 41
REMARK Flexibility Score: inf
ROOT
ATOM      1  O   UNL     1       9.839  11.088 -18.045  1.00  0.00    -0.454 OA
ENDROOT
BRANCH   1   2
ATOM      2  C   UNL     1       9.319  10.885 -16.768  1.00  0.00     0.214 A 
ATOM      3  C   UNL     1       8.802  11.966 -16.045  1.00  0.00     0.180 A 
ATOM      4  O   UNL     1       8.090  11.758 -14.944  1.00  0.00    -0.452 OA
ATOM      5  C   UNL     1       9.272   9.613 -16.187  1.00  0.00     0.239 A 
ATOM      6  C   UNL     1       7.953  10.555 -14.401  1.00  0.00     0.146 A 
ATOM      7  O   UNL     1       9.775   8.639 -16.802  1.00  0.00    -0.285 OA
ATOM      8  C   UNL     1       8.650   9.437 -14.934  1.00  0.00     0.111 A 
ATOM      9  C   UNL     1       7.150  10.409 -13.269  1.00  0.00     0.094 A 
ATOM     10  C   UNL     1       8.694   8.245 -14.168  1.00  0.00     0.134 A 
ATOM     11  C   UNL     1       7.097   9.199 -12.593  1.00  0.00     0.123 A 
ATOM     12  C   UNL     1       7.879   8.121 -13.038  1.00  0.00     0.093 A 
BRANCH   3  13
ATOM     13  C   UNL     1       9.153  13.350 -16.401  1.00  0.00     0.025 A 
ATOM     14  C   UNL     1       8.100  14.202 -16.773  1.00  0.00     0.016 A 
ATOM     15  C   UNL     1       8.385  15.440 -17.367  1.00  0.00     0.051 A 
ATOM     16  C   UNL     1       9.721  15.845 -17.554  1.00  0.00     0.157 A 
ATOM     17  C   UNL     1      10.485  13.752 -16.587  1.00  0.00     0.062 A 
ATOM     18  C   UNL     1      10.774  15.013 -17.136  1.00  0.00     0.158 A 
BRANCH  16  19
ATOM     19  O   UNL     1       9.989  17.074 -18.162  1.00  0.00    -0.504 OA
ATOM     20  H   UNL     1       9.687  17.264 -19.120  1.00  0.00     0.293 HD
ENDBRANCH  16  19
BRANCH  18  21
ATOM     21  O   UNL     1      12.106  15.407 -17.278  1.00  0.00    -0.504 OA
ATOM     22  H   UNL     1      12.489  15.623 -18.198  1.00  0.00     0.293 HD
ENDBRANCH  18  21
ENDBRANCH   3  13
BRANCH  10  23
ATOM     23  O   UNL     1       9.601   7.204 -14.437  1.00  0.00    -0.507 OA
ATOM     24  H   UNL     1      10.605   7.313 -14.283  1.00  0.00     0.293 HD
ENDBRANCH  10  23
BRANCH  11  25
ATOM     25  O   UNL     1       6.275   9.072 -11.478  1.00  0.00    -0.508 OA
ATOM     26  H   UNL     1       6.495   8.421 -10.735  1.00  0.00     0.293 HD
ENDBRANCH  11  25
ENDBRANCH   1   2
BRANCH   1  27
ATOM     27  C   UNL     1       8.995  11.376 -19.171  1.00  0.00     0.339 C 
ATOM     28  C   UNL     1       7.527  11.075 -18.782  1.00  0.00     0.214 C 
ATOM     29  O   UNL     1       9.151  12.739 -19.529  1.00  0.00    -0.332 OA
ATOM     30  C   UNL     1       6.561  11.459 -19.914  1.00  0.00     0.180 C 
ATOM     31  C   UNL     1       8.426  13.017 -20.716  1.00  0.00     0.179 C 
ATOM     32  C   UNL     1       6.900  12.850 -20.494  1.00  0.00     0.177 C 
BRANCH  28  33
ATOM     33  O   UNL     1       7.360   9.727 -18.420  1.00  0.00    -0.384 OA
ATOM     34  H   UNL     1       8.239   9.342 -18.179  1.00  0.00     0.211 HD
ENDBRANCH  28  33
BRANCH  30  35
ATOM     35  O   UNL     1       6.501  10.473 -20.924  1.00  0.00    -0.387 OA
ATOM     36  H   UNL     1       6.762   9.596 -20.537  1.00  0.00     0.211 HD
ENDBRANCH  30  35
BRANCH  31  37
ATOM     37  C   UNL     1       8.749  14.448 -21.174  1.00  0.00     0.191 C 
BRANCH  37  38
ATOM     38  O   UNL     1       7.752  14.914 -22.053  1.00  0.00    -0.394 OA
ATOM     39  H   UNL     1       8.166  14.888 -22.961  1.00  0.00     0.210 HD
ENDBRANCH  37  38
ENDBRANCH  31  37
BRANCH  32  40
ATOM     40  O   UNL     1       6.427  13.842 -19.613  1.00  0.00    -0.387 OA
ATOM     41  H   UNL     1       5.457  13.945 -19.783  1.00  0.00     0.211 HD
ENDBRANCH  32  40
ENDBRANCH   1  27
TORSDOF 12
ENDMDL
MODEL 7
REMARK VINA RESULT:    -6.070      2.142      7.932
REMARK INTER + INTRA:         -10.666
REMARK INTER:                  -9.175
REMARK INTRA:                  -1.491
REMARK UNBOUND:                -1.757
REMARK SMILES O=c1c(O[C@@H]2O[C@H](CO)[C@H](O)[C@@H](O)[C@H]2O)c(-c2ccc(O)c(O)c2)oc2cc(O)cc(O)c12
REMARK SMILES IDX 4 1 3 2 16 3 25 4 2 5 26 6 1 7 33 8 27 9 31 10 28 11 30 12
REMARK SMILES IDX 17 13 18 14 19 15 20 16 24 17 22 18 21 19 23 21 32 23 29 25
REMARK SMILES IDX 5 27 14 28 6 29 12 30 7 31 10 32 15 33 13 35 8 37 9 38 11 40
REMARK H PARENT 21 20 23 22 32 24 29 26 15 34 13 36 9 39 11 41
REMARK Flexibility Score: inf
ROOT
ATOM      1  O   UNL     1       5.876  11.714 -17.096  1.00  0.00    -0.454 OA
ENDROOT
BRANCH   1   2
ATOM      2  C   UNL     1       6.268  11.151 -15.884  1.00  0.00     0.214 A 
ATOM      3  C   UNL     1       6.682  11.977 -14.832  1.00  0.00     0.180 A 
ATOM      4  O   UNL     1       6.824  11.484 -13.607  1.00  0.00    -0.452 OA
ATOM      5  C   UNL     1       6.234   9.769 -15.670  1.00  0.00     0.239 A 
ATOM      6  C   UNL     1       6.722  10.188 -13.345  1.00  0.00     0.146 A 
ATOM      7  O   UNL     1       5.911   9.009 -16.617  1.00  0.00    -0.285 OA
ATOM      8  C   UNL     1       6.546   9.249 -14.397  1.00  0.00     0.111 A 
ATOM      9  C   UNL     1       6.837   9.752 -12.024  1.00  0.00     0.094 A 
ATOM     10  C   UNL     1       6.719   7.872 -14.105  1.00  0.00     0.134 A 
ATOM     11  C   UNL     1       6.879   8.397 -11.730  1.00  0.00     0.123 A 
ATOM     12  C   UNL     1       6.831   7.459 -12.773  1.00  0.00     0.093 A 
BRANCH   3  13
ATOM     13  C   UNL     1       7.109  13.363 -15.083  1.00  0.00     0.025 A 
ATOM     14  C   UNL     1       6.103  14.341 -15.145  1.00  0.00     0.016 A 
ATOM     15  C   UNL     1       6.406  15.620 -15.633  1.00  0.00     0.051 A 
ATOM     16  C   UNL     1       7.723  15.935 -16.023  1.00  0.00     0.157 A 
ATOM     17  C   UNL     1       8.421  13.675 -15.471  1.00  0.00     0.062 A 
ATOM     18  C   UNL     1       8.740  14.970 -15.914  1.00  0.00     0.158 A 
BRANCH  16  19
ATOM     19  O   UNL     1       8.007  17.209 -16.522  1.00  0.00    -0.504 OA
ATOM     20  H   UNL     1       8.942  17.446 -16.858  1.00  0.00     0.293 HD
ENDBRANCH  16  19
BRANCH  18  21
ATOM     21  O   UNL     1      10.059  15.269 -16.260  1.00  0.00    -0.504 OA
ATOM     22  H   UNL     1      10.422  15.030 -17.182  1.00  0.00     0.293 HD
ENDBRANCH  18  21
ENDBRANCH   3  13
BRANCH  10  23
ATOM     23  O   UNL     1       6.884   6.899 -15.107  1.00  0.00    -0.507 OA
ATOM     24  H   UNL     1       6.122   6.642 -15.736  1.00  0.00     0.293 HD
ENDBRANCH  10  23
BRANCH  11  25
ATOM     25  O   UNL     1       6.974   7.986 -10.404  1.00  0.00    -0.508 OA
ATOM     26  H   UNL     1       7.759   8.259  -9.826  1.00  0.00     0.293 HD
ENDBRANCH  11  25
ENDBRANCH   1   2
BRANCH   1  27
ATOM     27  C   UNL     1       6.833  12.164 -18.068  1.00  0.00     0.339 C 
ATOM     28  C   UNL     1       6.768  11.229 -19.300  1.00  0.00     0.214 C 
ATOM     29  O   UNL     1       6.527  13.499 -18.435  1.00  0.00    -0.332 OA
ATOM     30  C   UNL     1       7.699  11.717 -20.421  1.00  0.00     0.180 C 
ATOM     31  C   UNL     1       7.531  14.010 -19.297  1.00  0.00     0.179 C 
ATOM     32  C   UNL     1       7.560  13.239 -20.643  1.00  0.00     0.177 C 
BRANCH  28  33
ATOM     33  O   UNL     1       7.065   9.900 -18.950  1.00  0.00    -0.384 OA
ATOM     34  H   UNL     1       7.251   9.380 -19.770  1.00  0.00     0.211 HD
ENDBRANCH  28  33
BRANCH  30  35
ATOM     35  O   UNL     1       9.044  11.343 -20.201  1.00  0.00    -0.387 OA
ATOM     36  H   UNL     1       9.470  12.009 -19.601  1.00  0.00     0.211 HD
ENDBRANCH  30  35
BRANCH  31  37
ATOM     37  C   UNL     1       7.267  15.505 -19.540  1.00  0.00     0.191 C 
BRANCH  37  38
ATOM     38  O   UNL     1       7.829  15.905 -20.767  1.00  0.00    -0.394 OA
ATOM     39  H   UNL     1       8.194  16.820 -20.605  1.00  0.00     0.210 HD
ENDBRANCH  37  38
ENDBRANCH  31  37
BRANCH  32  40
ATOM     40  O   UNL     1       6.381  13.491 -21.372  1.00  0.00    -0.387 OA
ATOM     41  H   UNL     1       6.529  14.320 -21.891  1.00  0.00     0.211 HD
ENDBRANCH  32  40
ENDBRANCH   1  27
TORSDOF 12
ENDMDL
MODEL 8
REMARK VINA RESULT:    -6.064      2.475      7.144
REMARK INTER + INTRA:         -10.657
REMARK INTER:                  -9.118
REMARK INTRA:                  -1.539
REMARK UNBOUND:                -1.757
REMARK SMILES O=c1c(O[C@@H]2O[C@H](CO)[C@H](O)[C@@H](O)[C@H]2O)c(-c2ccc(O)c(O)c2)oc2cc(O)cc(O)c12
REMARK SMILES IDX 4 1 3 2 16 3 25 4 2 5 26 6 1 7 33 8 27 9 31 10 28 11 30 12
REMARK SMILES IDX 17 13 18 14 19 15 20 16 24 17 22 18 21 19 23 21 32 23 29 25
REMARK SMILES IDX 5 27 14 28 6 29 12 30 7 31 10 32 15 33 13 35 8 37 9 38 11 40
REMARK H PARENT 21 20 23 22 32 24 29 26 15 34 13 36 9 39 11 41
REMARK Flexibility Score: inf
ROOT
ATOM      1  O   UNL     1       8.528   8.403 -15.404  1.00  0.00    -0.454 OA
ENDROOT
BRANCH   1   2
ATOM      2  C   UNL     1       8.052   7.479 -16.331  1.00  0.00     0.214 A 
ATOM      3  C   UNL     1       7.729   7.896 -17.628  1.00  0.00     0.180 A 
ATOM      4  O   UNL     1       7.509   7.002 -18.585  1.00  0.00    -0.452 OA
ATOM      5  C   UNL     1       7.909   6.124 -16.014  1.00  0.00     0.239 A 
ATOM      6  C   UNL     1       7.444   5.700 -18.342  1.00  0.00     0.146 A 
ATOM      7  O   UNL     1       8.149   5.741 -14.841  1.00  0.00    -0.285 OA
ATOM      8  C   UNL     1       7.517   5.208 -17.011  1.00  0.00     0.111 A 
ATOM      9  C   UNL     1       7.257   4.819 -19.408  1.00  0.00     0.094 A 
ATOM     10  C   UNL     1       7.169   3.854 -16.774  1.00  0.00     0.134 A 
ATOM     11  C   UNL     1       7.043   3.468 -19.177  1.00  0.00     0.123 A 
ATOM     12  C   UNL     1       6.988   2.990 -17.859  1.00  0.00     0.093 A 
BRANCH   3  13
ATOM     13  C   UNL     1       7.482   9.316 -17.926  1.00  0.00     0.025 A 
ATOM     14  C   UNL     1       6.153   9.697 -18.172  1.00  0.00     0.016 A 
ATOM     15  C   UNL     1       5.880  10.961 -18.712  1.00  0.00     0.051 A 
ATOM     16  C   UNL     1       6.932  11.862 -18.969  1.00  0.00     0.157 A 
ATOM     17  C   UNL     1       8.531  10.212 -18.182  1.00  0.00     0.062 A 
ATOM     18  C   UNL     1       8.258  11.499 -18.676  1.00  0.00     0.158 A 
BRANCH  16  19
ATOM     19  O   UNL     1       6.646  13.114 -19.522  1.00  0.00    -0.504 OA
ATOM     20  H   UNL     1       7.397  13.758 -19.779  1.00  0.00     0.293 HD
ENDBRANCH  16  19
BRANCH  18  21
ATOM     21  O   UNL     1       9.314  12.388 -18.889  1.00  0.00    -0.504 OA
ATOM     22  H   UNL     1       9.488  13.155 -18.240  1.00  0.00     0.293 HD
ENDBRANCH  18  21
ENDBRANCH   3  13
BRANCH  10  23
ATOM     23  O   UNL     1       6.899   3.353 -15.487  1.00  0.00    -0.507 OA
ATOM     24  H   UNL     1       7.647   3.059 -14.858  1.00  0.00     0.293 HD
ENDBRANCH  10  23
BRANCH  11  25
ATOM     25  O   UNL     1       6.878   2.606 -20.257  1.00  0.00    -0.508 OA
ATOM     26  H   UNL     1       6.005   2.568 -20.769  1.00  0.00     0.293 HD
ENDBRANCH  11  25
ENDBRANCH   1   2
BRANCH   1  27
ATOM     27  C   UNL     1       7.644   9.135 -14.539  1.00  0.00     0.339 C 
ATOM     28  C   UNL     1       8.117   8.954 -13.077  1.00  0.00     0.214 C 
ATOM     29  O   UNL     1       7.666  10.504 -14.909  1.00  0.00    -0.332 OA
ATOM     30  C   UNL     1       7.271   9.797 -12.109  1.00  0.00     0.180 C 
ATOM     31  C   UNL     1       6.706  11.227 -14.155  1.00  0.00     0.179 C 
ATOM     32  C   UNL     1       7.065  11.231 -12.645  1.00  0.00     0.177 C 
BRANCH  28  33
ATOM     33  O   UNL     1       8.105   7.600 -12.699  1.00  0.00    -0.384 OA
ATOM     34  H   UNL     1       7.375   7.134 -13.177  1.00  0.00     0.211 HD
ENDBRANCH  28  33
BRANCH  30  35
ATOM     35  O   UNL     1       6.041   9.177 -11.794  1.00  0.00    -0.387 OA
ATOM     36  H   UNL     1       6.175   8.193 -11.757  1.00  0.00     0.211 HD
ENDBRANCH  30  35
BRANCH  31  37
ATOM     37  C   UNL     1       6.630  12.666 -14.692  1.00  0.00     0.191 C 
BRANCH  37  38
ATOM     38  O   UNL     1       6.208  13.543 -13.675  1.00  0.00    -0.394 OA
ATOM     39  H   UNL     1       6.426  13.080 -12.818  1.00  0.00     0.210 HD
ENDBRANCH  37  38
ENDBRANCH  31  37
BRANCH  32  40
ATOM     40  O   UNL     1       8.241  11.975 -12.428  1.00  0.00    -0.387 OA
ATOM     41  H   UNL     1       7.977  12.926 -12.361  1.00  0.00     0.211 HD
ENDBRANCH  32  40
ENDBRANCH   1  27
TORSDOF 12
ENDMDL
MODEL 9
REMARK VINA RESULT:    -6.030      2.814      6.164
REMARK INTER + INTRA:         -10.607
REMARK INTER:                  -9.793
REMARK INTRA:                  -0.814
REMARK UNBOUND:                -1.757
REMARK SMILES O=c1c(O[C@@H]2O[C@H](CO)[C@H](O)[C@@H](O)[C@H]2O)c(-c2ccc(O)c(O)c2)oc2cc(O)cc(O)c12
REMARK SMILES IDX 4 1 3 2 16 3 25 4 2 5 26 6 1 7 33 8 27 9 31 10 28 11 30 12
REMARK SMILES IDX 17 13 18 14 19 15 20 16 24 17 22 18 21 19 23 21 32 23 29 25
REMARK SMILES IDX 5 27 14 28 6 29 12 30 7 31 10 32 15 33 13 35 8 37 9 38 11 40
REMARK H PARENT 21 20 23 22 32 24 29 26 15 34 13 36 9 39 11 41
REMARK Flexibility Score: inf
ROOT
ATOM      1  O   UNL     1       9.091  15.252 -16.776  1.00  0.00    -0.454 OA
ENDROOT
BRANCH   1   2
ATOM      2  C   UNL     1       8.815  15.650 -18.082  1.00  0.00     0.214 A 
ATOM      3  C   UNL     1       8.291  16.924 -18.327  1.00  0.00     0.180 A 
ATOM      4  O   UNL     1       8.250  17.407 -19.564  1.00  0.00    -0.452 OA
ATOM      5  C   UNL     1       9.075  14.816 -19.176  1.00  0.00     0.239 A 
ATOM      6  C   UNL     1       8.564  16.675 -20.625  1.00  0.00     0.146 A 
ATOM      7  O   UNL     1       9.501  13.652 -18.971  1.00  0.00    -0.285 OA
ATOM      8  C   UNL     1       8.872  15.295 -20.486  1.00  0.00     0.111 A 
ATOM      9  C   UNL     1       8.543  17.268 -21.888  1.00  0.00     0.094 A 
ATOM     10  C   UNL     1       8.928  14.498 -21.657  1.00  0.00     0.134 A 
ATOM     11  C   UNL     1       8.725  16.502 -23.030  1.00  0.00     0.123 A 
ATOM     12  C   UNL     1       8.906  15.115 -22.912  1.00  0.00     0.093 A 
BRANCH   3  13
ATOM     13  C   UNL     1       7.642  17.693 -17.254  1.00  0.00     0.025 A 
ATOM     14  C   UNL     1       7.901  19.073 -17.208  1.00  0.00     0.016 A 
ATOM     15  C   UNL     1       7.533  19.812 -16.075  1.00  0.00     0.051 A 
ATOM     16  C   UNL     1       6.869  19.182 -15.003  1.00  0.00     0.157 A 
ATOM     17  C   UNL     1       6.981  17.065 -16.187  1.00  0.00     0.062 A 
ATOM     18  C   UNL     1       6.565  17.811 -15.072  1.00  0.00     0.158 A 
BRANCH  16  19
ATOM     19  O   UNL     1       6.522  19.930 -13.874  1.00  0.00    -0.504 OA
ATOM     20  H   UNL     1       6.764  19.606 -12.936  1.00  0.00     0.293 HD
ENDBRANCH  16  19
BRANCH  18  21
ATOM     21  O   UNL     1       5.877  17.172 -14.038  1.00  0.00    -0.504 OA
ATOM     22  H   UNL     1       5.112  16.530 -14.242  1.00  0.00     0.293 HD
ENDBRANCH  18  21
ENDBRANCH   3  13
BRANCH  10  23
ATOM     23  O   UNL     1       8.906  13.092 -21.620  1.00  0.00    -0.507 OA
ATOM     24  H   UNL     1       9.542  12.530 -22.187  1.00  0.00     0.293 HD
ENDBRANCH  10  23
BRANCH  11  25
ATOM     25  O   UNL     1       8.719  17.118 -24.277  1.00  0.00    -0.508 OA
ATOM     26  H   UNL     1       9.519  17.643 -24.607  1.00  0.00     0.293 HD
ENDBRANCH  11  25
ENDBRANCH   1   2
BRANCH   1  27
ATOM     27  C   UNL     1       8.736  13.948 -16.289  1.00  0.00     0.339 C 
ATOM     28  C   UNL     1       9.962  13.336 -15.569  1.00  0.00     0.214 C 
ATOM     29  O   UNL     1       7.639  14.070 -15.399  1.00  0.00    -0.332 OA
ATOM     30  C   UNL     1       9.616  11.979 -14.935  1.00  0.00     0.180 C 
ATOM     31  C   UNL     1       7.188  12.785 -15.003  1.00  0.00     0.179 C 
ATOM     32  C   UNL     1       8.271  12.039 -14.179  1.00  0.00     0.177 C 
BRANCH  28  33
ATOM     33  O   UNL     1      11.059  13.214 -16.439  1.00  0.00    -0.384 OA
ATOM     34  H   UNL     1      11.897  13.261 -15.917  1.00  0.00     0.211 HD
ENDBRANCH  28  33
BRANCH  30  35
ATOM     35  O   UNL     1       9.638  10.927 -15.878  1.00  0.00    -0.387 OA
ATOM     36  H   UNL     1      10.461  10.388 -15.743  1.00  0.00     0.211 HD
ENDBRANCH  30  35
BRANCH  31  37
ATOM     37  C   UNL     1       5.899  12.940 -14.180  1.00  0.00     0.191 C 
BRANCH  37  38
ATOM     38  O   UNL     1       5.875  14.195 -13.544  1.00  0.00    -0.394 OA
ATOM     39  H   UNL     1       4.911  14.451 -13.499  1.00  0.00     0.210 HD
ENDBRANCH  37  38
ENDBRANCH  31  37
BRANCH  32  40
ATOM     40  O   UNL     1       8.468  12.683 -12.942  1.00  0.00    -0.387 OA
ATOM     41  H   UNL     1       8.169  13.620 -13.049  1.00  0.00     0.211 HD
ENDBRANCH  32  40
ENDBRANCH   1  27
TORSDOF 12
ENDMDL
