MODEL 1
REMARK VINA RESULT:    -1.468      0.000      0.000
REMARK INTER + INTRA:          -1.979
REMARK INTER:                  -1.811
REMARK INTRA:                  -0.168
REMARK UNBOUND:                -0.168
REMARK SMILES CCCCC(=O)c1ccccc1
REMARK SMILES IDX 4 1 3 2 2 3 1 4 5 5 6 6 7 7 8 8 12 9 9 10 11 11 10 12
REMARK H PARENT
REMARK Flexibility Score: inf
ROOT
ATOM      1  C   UNL     1     135.533 127.277 130.492  1.00  0.00     0.081 C 
ENDROOT
BRANCH   1   2
ATOM      2  C   UNL     1     134.698 128.544 130.271  1.00  0.00     0.008 C 
BRANCH   2   3
ATOM      3  C   UNL     1     134.008 128.514 128.902  1.00  0.00    -0.003 C 
ATOM      4  C   UNL     1     134.052 129.885 128.234  1.00  0.00     0.004 C 
ENDBRANCH   2   3
ENDBRANCH   1   2
BRANCH   1   5
ATOM      5  C   UNL     1     136.792 127.316 129.668  1.00  0.00     0.162 C 
ATOM      6  O   UNL     1     136.711 126.990 128.451  1.00  0.00    -0.294 OA
BRANCH   5   7
ATOM      7  C   UNL     1     138.119 127.687 130.237  1.00  0.00     0.017 A 
ATOM      8  C   UNL     1     138.290 127.739 131.635  1.00  0.00     0.012 A 
ATOM      9  C   UNL     1     139.222 127.995 129.412  1.00  0.00     0.012 A 
ATOM     10  C   UNL     1     139.525 128.086 132.191  1.00  0.00     0.001 A 
ATOM     11  C   UNL     1     140.454 128.342 129.975  1.00  0.00     0.001 A 
ATOM     12  C   UNL     1     140.607 128.386 131.360  1.00  0.00     0.000 A 
ENDBRANCH   5   7
ENDBRANCH   1   5
TORSDOF 4
ENDMDL
MODEL 2
REMARK VINA RESULT:    -1.423      0.049      1.398
REMARK INTER + INTRA:          -1.923
REMARK INTER:                  -1.745
REMARK INTRA:                  -0.178
REMARK UNBOUND:                -0.168
REMARK SMILES CCCCC(=O)c1ccccc1
REMARK SMILES IDX 4 1 3 2 2 3 1 4 5 5 6 6 7 7 8 8 12 9 9 10 11 11 10 12
REMARK H PARENT
REMARK Flexibility Score: inf
ROOT
ATOM      1  C   UNL     1     135.543 127.275 130.491  1.00  0.00     0.081 C 
ENDROOT
BRANCH   1   2
ATOM      2  C   UNL     1     134.717 128.547 130.269  1.00  0.00     0.008 C 
BRANCH   2   3
ATOM      3  C   UNL     1     134.029 128.522 128.899  1.00  0.00    -0.003 C 
ATOM      4  C   UNL     1     134.064 129.899 128.242  1.00  0.00     0.004 C 
ENDBRANCH   2   3
ENDBRANCH   1   2
BRANCH   1   5
ATOM      5  C   UNL     1     136.819 127.321 129.695  1.00  0.00     0.162 C 
ATOM      6  O   UNL     1     136.765 126.998 128.476  1.00  0.00    -0.294 OA
BRANCH   5   7
ATOM      7  C   UNL     1     138.133 127.696 130.293  1.00  0.00     0.017 A 
ATOM      8  C   UNL     1     139.210 128.044 129.452  1.00  0.00     0.012 A 
ATOM      9  C   UNL     1     138.337 127.710 131.689  1.00  0.00     0.012 A 
ATOM     10  C   UNL     1     140.450 128.397 129.991  1.00  0.00     0.001 A 
ATOM     11  C   UNL     1     139.581 128.065 132.221  1.00  0.00     0.001 A 
ATOM     12  C   UNL     1     140.635 128.408 131.375  1.00  0.00     0.000 A 
ENDBRANCH   5   7
ENDBRANCH   1   5
TORSDOF 4
ENDMDL
MODEL 3
REMARK VINA RESULT:    -1.304      2.800      5.820
REMARK INTER + INTRA:          -1.777
REMARK INTER:                  -1.569
REMARK INTRA:                  -0.208
REMARK UNBOUND:                -0.168
REMARK SMILES CCCCC(=O)c1ccccc1
REMARK SMILES IDX 4 1 3 2 2 3 1 4 5 5 6 6 7 7 8 8 12 9 9 10 11 11 10 12
REMARK H PARENT
REMARK Flexibility Score: inf
ROOT
ATOM      1  C   UNL     1     141.677 128.830 128.995  1.00  0.00     0.081 C 
ENDROOT
BRANCH   1   2
ATOM      2  C   UNL     1     142.973 128.091 128.646  1.00  0.00     0.008 C 
BRANCH   2   3
ATOM      3  C   UNL     1     143.760 128.842 127.566  1.00  0.00    -0.003 C 
ATOM      4  C   UNL     1     144.118 127.921 126.404  1.00  0.00     0.004 C 
ENDBRANCH   2   3
ENDBRANCH   1   2
BRANCH   1   5
ATOM      5  C   UNL     1     141.083 128.295 130.271  1.00  0.00     0.162 C 
ATOM      6  O   UNL     1     141.869 128.040 131.225  1.00  0.00    -0.294 OA
BRANCH   5   7
ATOM      7  C   UNL     1     139.626 128.028 130.435  1.00  0.00     0.017 A 
ATOM      8  C   UNL     1     139.040 128.112 131.714  1.00  0.00     0.012 A 
ATOM      9  C   UNL     1     138.805 127.686 129.340  1.00  0.00     0.012 A 
ATOM     10  C   UNL     1     137.675 127.864 131.892  1.00  0.00     0.001 A 
ATOM     11  C   UNL     1     137.441 127.439 129.524  1.00  0.00     0.001 A 
ATOM     12  C   UNL     1     136.876 127.529 130.797  1.00  0.00     0.000 A 
ENDBRANCH   5   7
ENDBRANCH   1   5
TORSDOF 4
ENDMDL
MODEL 4
REMARK VINA RESULT:    -1.103      2.223      5.521
REMARK INTER + INTRA:          -1.529
REMARK INTER:                  -1.557
REMARK INTRA:                   0.028
REMARK UNBOUND:                -0.168
REMARK SMILES CCCCC(=O)c1ccccc1
REMARK SMILES IDX 4 1 3 2 2 3 1 4 5 5 6 6 7 7 8 8 12 9 9 10 11 11 10 12
REMARK H PARENT
REMARK Flexibility Score: inf
ROOT
ATOM      1  C   UNL     1     141.078 127.933 131.032  1.00  0.00     0.081 C 
ENDROOT
BRANCH   1   2
ATOM      2  C   UNL     1     141.531 128.570 129.714  1.00  0.00     0.008 C 
BRANCH   2   3
ATOM      3  C   UNL     1     142.964 128.151 129.366  1.00  0.00    -0.003 C 
ATOM      4  C   UNL     1     143.309 128.515 127.924  1.00  0.00     0.004 C 
ENDBRANCH   2   3
ENDBRANCH   1   2
BRANCH   1   5
ATOM      5  C   UNL     1     139.694 128.395 131.402  1.00  0.00     0.162 C 
ATOM      6  O   UNL     1     139.579 129.199 132.368  1.00  0.00    -0.294 OA
BRANCH   5   7
ATOM      7  C   UNL     1     138.468 127.919 130.699  1.00  0.00     0.017 A 
ATOM      8  C   UNL     1     138.463 127.819 129.293  1.00  0.00     0.012 A 
ATOM      9  C   UNL     1     137.297 127.566 131.402  1.00  0.00     0.012 A 
ATOM     10  C   UNL     1     137.325 127.377 128.612  1.00  0.00     0.001 A 
ATOM     11  C   UNL     1     136.162 127.125 130.716  1.00  0.00     0.001 A 
ATOM     12  C   UNL     1     136.175 127.029 129.324  1.00  0.00     0.000 A 
ENDBRANCH   5   7
ENDBRANCH   1   5
TORSDOF 4
ENDMDL
MODEL 5
REMARK VINA RESULT:    -1.102      2.234      5.350
REMARK INTER + INTRA:          -1.528
REMARK INTER:                  -1.580
REMARK INTRA:                   0.052
REMARK UNBOUND:                -0.168
REMARK SMILES CCCCC(=O)c1ccccc1
REMARK SMILES IDX 4 1 3 2 2 3 1 4 5 5 6 6 7 7 8 8 12 9 9 10 11 11 10 12
REMARK H PARENT
REMARK Flexibility Score: inf
ROOT
ATOM      1  C   UNL     1     141.114 127.980 131.056  1.00  0.00     0.081 C 
ENDROOT
BRANCH   1   2
ATOM      2  C   UNL     1     141.536 128.526 129.688  1.00  0.00     0.008 C 
BRANCH   2   3
ATOM      3  C   UNL     1     142.981 128.131 129.360  1.00  0.00    -0.003 C 
ATOM      4  C   UNL     1     143.347 128.518 127.930  1.00  0.00     0.004 C 
ENDBRANCH   2   3
ENDBRANCH   1   2
BRANCH   1   5
ATOM      5  C   UNL     1     139.723 128.433 131.407  1.00  0.00     0.162 C 
ATOM      6  O   UNL     1     139.589 129.227 132.379  1.00  0.00    -0.294 OA
BRANCH   5   7
ATOM      7  C   UNL     1     138.511 127.959 130.679  1.00  0.00     0.017 A 
ATOM      8  C   UNL     1     137.367 127.570 131.406  1.00  0.00     0.012 A 
ATOM      9  C   UNL     1     138.472 127.882 129.271  1.00  0.00     0.012 A 
ATOM     10  C   UNL     1     136.220 127.121 130.745  1.00  0.00     0.001 A 
ATOM     11  C   UNL     1     137.321 127.431 128.616  1.00  0.00     0.001 A 
ATOM     12  C   UNL     1     136.197 127.053 129.350  1.00  0.00     0.000 A 
ENDBRANCH   5   7
ENDBRANCH   1   5
TORSDOF 4
ENDMDL
MODEL 6
REMARK VINA RESULT:    -0.673      1.315      1.554
REMARK INTER + INTRA:          -0.998
REMARK INTER:                  -0.849
REMARK INTRA:                  -0.150
REMARK UNBOUND:                -0.168
REMARK SMILES CCCCC(=O)c1ccccc1
REMARK SMILES IDX 4 1 3 2 2 3 1 4 5 5 6 6 7 7 8 8 12 9 9 10 11 11 10 12
REMARK H PARENT
REMARK Flexibility Score: inf
ROOT
ATOM      1  C   UNL     1     136.498 126.699 130.023  1.00  0.00     0.081 C 
ENDROOT
BRANCH   1   2
ATOM      2  C   UNL     1     135.818 127.550 128.944  1.00  0.00     0.008 C 
BRANCH   2   3
ATOM      3  C   UNL     1     134.578 128.257 129.503  1.00  0.00    -0.003 C 
ATOM      4  C   UNL     1     134.165 129.428 128.616  1.00  0.00     0.004 C 
ENDBRANCH   2   3
ENDBRANCH   1   2
BRANCH   1   5
ATOM      5  C   UNL     1     137.291 127.565 130.965  1.00  0.00     0.162 C 
ATOM      6  O   UNL     1     136.685 128.074 131.948  1.00  0.00    -0.294 OA
BRANCH   5   7
ATOM      7  C   UNL     1     138.737 127.866 130.763  1.00  0.00     0.017 A 
ATOM      8  C   UNL     1     139.617 127.837 131.863  1.00  0.00     0.012 A 
ATOM      9  C   UNL     1     139.259 128.188 129.492  1.00  0.00     0.012 A 
ATOM     10  C   UNL     1     140.977 128.117 131.697  1.00  0.00     0.001 A 
ATOM     11  C   UNL     1     140.620 128.468 129.333  1.00  0.00     0.001 A 
ATOM     12  C   UNL     1     141.477 128.432 130.432  1.00  0.00     0.000 A 
ENDBRANCH   5   7
ENDBRANCH   1   5
TORSDOF 4
ENDMDL
MODEL 7
REMARK VINA RESULT:    -0.148      2.284      2.894
REMARK INTER + INTRA:          -0.351
REMARK INTER:                  -0.363
REMARK INTRA:                   0.012
REMARK UNBOUND:                -0.168
REMARK SMILES CCCCC(=O)c1ccccc1
REMARK SMILES IDX 4 1 3 2 2 3 1 4 5 5 6 6 7 7 8 8 12 9 9 10 11 11 10 12
REMARK H PARENT
REMARK Flexibility Score: inf
ROOT
ATOM      1  C   UNL     1     137.380 128.055 127.331  1.00  0.00     0.081 C 
ENDROOT
BRANCH   1   2
ATOM      2  C   UNL     1     137.852 129.502 127.151  1.00  0.00     0.008 C 
BRANCH   2   3
ATOM      3  C   UNL     1     137.728 129.942 125.687  1.00  0.00    -0.003 C 
ATOM      4  C   UNL     1     139.073 129.862 124.973  1.00  0.00     0.004 C 
ENDBRANCH   2   3
ENDBRANCH   1   2
BRANCH   1   5
ATOM      5  C   UNL     1     137.173 127.737 128.788  1.00  0.00     0.162 C 
ATOM      6  O   UNL     1     136.031 127.340 129.149  1.00  0.00    -0.294 OA
BRANCH   5   7
ATOM      7  C   UNL     1     138.245 127.904 129.811  1.00  0.00     0.017 A 
ATOM      8  C   UNL     1     137.929 127.785 131.179  1.00  0.00     0.012 A 
ATOM      9  C   UNL     1     139.580 128.187 129.451  1.00  0.00     0.012 A 
ATOM     10  C   UNL     1     138.917 127.939 132.156  1.00  0.00     0.001 A 
ATOM     11  C   UNL     1     140.563 128.340 130.433  1.00  0.00     0.001 A 
ATOM     12  C   UNL     1     140.234 128.216 131.782  1.00  0.00     0.000 A 
ENDBRANCH   5   7
ENDBRANCH   1   5
TORSDOF 4
ENDMDL
MODEL 8
REMARK VINA RESULT:     0.353      1.135      4.874
REMARK INTER + INTRA:           0.267
REMARK INTER:                   0.656
REMARK INTRA:                  -0.389
REMARK UNBOUND:                -0.168
REMARK SMILES CCCCC(=O)c1ccccc1
REMARK SMILES IDX 4 1 3 2 2 3 1 4 5 5 6 6 7 7 8 8 12 9 9 10 11 11 10 12
REMARK H PARENT
REMARK Flexibility Score: inf
ROOT
ATOM      1  C   UNL     1     138.677 127.580 131.572  1.00  0.00     0.081 C 
ENDROOT
BRANCH   1   2
ATOM      2  C   UNL     1     139.411 128.830 131.071  1.00  0.00     0.008 C 
BRANCH   2   3
ATOM      3  C   UNL     1     140.572 128.450 130.145  1.00  0.00    -0.003 C 
ATOM      4  C   UNL     1     141.811 128.062 130.947  1.00  0.00     0.004 C 
ENDBRANCH   2   3
ENDBRANCH   1   2
BRANCH   1   5
ATOM      5  C   UNL     1     137.836 126.980 130.478  1.00  0.00     0.162 C 
ATOM      6  O   UNL     1     138.258 125.930 129.919  1.00  0.00    -0.294 OA
BRANCH   5   7
ATOM      7  C   UNL     1     136.557 127.590 130.013  1.00  0.00     0.017 A 
ATOM      8  C   UNL     1     135.590 127.989 130.958  1.00  0.00     0.012 A 
ATOM      9  C   UNL     1     136.278 127.779 128.643  1.00  0.00     0.012 A 
ATOM     10  C   UNL     1     134.384 128.562 130.546  1.00  0.00     0.001 A 
ATOM     11  C   UNL     1     135.069 128.352 128.238  1.00  0.00     0.001 A 
ATOM     12  C   UNL     1     134.124 128.744 129.186  1.00  0.00     0.000 A 
ENDBRANCH   5   7
ENDBRANCH   1   5
TORSDOF 4
ENDMDL
