MODEL 1
REMARK VINA RESULT:    -3.975      0.000      0.000
REMARK INTER + INTRA:          -9.637
REMARK INTER:                  -7.694
REMARK INTRA:                  -1.943
REMARK UNBOUND:                -1.943
REMARK SMILES CCCCCCCCCCCCCCCCCC(=O)[O-]
REMARK SMILES IDX 10 1 11 2 12 3 13 4 14 5 15 6 16 7 17 8 18 9 19 10 20 11
REMARK SMILES IDX 9 12 8 13 7 14 6 15 5 16 4 17 3 18 2 19 1 20
REMARK H PARENT
REMARK Flexibility Score: inf
ROOT
ATOM      1  C   UNL     1       9.913  63.485   8.633  1.00  0.00     0.000 C 
ENDROOT
BRANCH   1   2
ATOM      2  C   UNL     1      11.377  63.031   8.763  1.00  0.00     0.000 C 
BRANCH   2   3
ATOM      3  C   UNL     1      11.829  62.155   7.581  1.00  0.00     0.000 C 
BRANCH   3   4
ATOM      4  C   UNL     1      12.961  62.802   6.766  1.00  0.00     0.000 C 
BRANCH   4   5
ATOM      5  C   UNL     1      13.410  64.155   7.347  1.00  0.00     0.000 C 
BRANCH   5   6
ATOM      6  C   UNL     1      13.153  65.326   6.385  1.00  0.00     0.000 C 
BRANCH   6   7
ATOM      7  C   UNL     1      12.272  64.924   5.189  1.00  0.00     0.006 C 
BRANCH   7   8
ATOM      8  C   UNL     1      11.159  65.945   4.921  1.00  0.00     0.053 C 
BRANCH   8   9
ATOM      9  C   UNL     1      10.857  66.067   3.459  1.00  0.00     0.041 C 
ATOM     10  O   UNL     1       9.664  66.078   3.055  1.00  0.00    -0.550 OA
ATOM     11  O   UNL     1      11.895  66.141   2.539  1.00  0.00    -0.550 OA
ENDBRANCH   8   9
ENDBRANCH   7   8
ENDBRANCH   6   7
ENDBRANCH   5   6
ENDBRANCH   4   5
ENDBRANCH   3   4
ENDBRANCH   2   3
ENDBRANCH   1   2
BRANCH   1  12
ATOM     12  C   UNL     1       9.791  64.990   8.332  1.00  0.00     0.000 C 
BRANCH  12  13
ATOM     13  C   UNL     1       8.468  65.595   8.840  1.00  0.00    -0.000 C 
BRANCH  13  14
ATOM     14  C   UNL     1       8.233  67.066   8.452  1.00  0.00    -0.000 C 
BRANCH  14  15
ATOM     15  C   UNL     1       7.675  67.283   7.031  1.00  0.00    -0.000 C 
BRANCH  15  16
ATOM     16  C   UNL     1       6.191  67.708   7.006  1.00  0.00    -0.000 C 
BRANCH  16  17
ATOM     17  C   UNL     1       5.236  66.507   7.114  1.00  0.00    -0.000 C 
BRANCH  17  18
ATOM     18  C   UNL     1       4.448  66.484   8.436  1.00  0.00    -0.000 C 
BRANCH  18  19
ATOM     19  C   UNL     1       4.817  65.334   9.390  1.00  0.00    -0.003 C 
ATOM     20  C   UNL     1       5.234  64.059   8.656  1.00  0.00     0.004 C 
ENDBRANCH  18  19
ENDBRANCH  17  18
ENDBRANCH  16  17
ENDBRANCH  15  16
ENDBRANCH  14  15
ENDBRANCH  13  14
ENDBRANCH  12  13
ENDBRANCH   1  12
TORSDOF 16
ENDMDL
MODEL 2
REMARK VINA RESULT:    -3.919      2.809      6.364
REMARK INTER + INTRA:          -9.528
REMARK INTER:                  -8.014
REMARK INTRA:                  -1.514
REMARK UNBOUND:                -1.943
REMARK SMILES CCCCCCCCCCCCCCCCCC(=O)[O-]
REMARK SMILES IDX 10 1 11 2 12 3 13 4 14 5 15 6 16 7 17 8 18 9 19 10 20 11
REMARK SMILES IDX 9 12 8 13 7 14 6 15 5 16 4 17 3 18 2 19 1 20
REMARK H PARENT
REMARK Flexibility Score: inf
ROOT
ATOM      1  C   UNL     1      12.709  62.621   7.098  1.00  0.00     0.000 C 
ENDROOT
BRANCH   1   2
ATOM      2  C   UNL     1      11.602  62.033   7.990  1.00  0.00     0.000 C 
BRANCH   2   3
ATOM      3  C   UNL     1      11.029  63.068   8.976  1.00  0.00     0.000 C 
BRANCH   3   4
ATOM      4  C   UNL     1       9.892  63.901   8.362  1.00  0.00     0.000 C 
BRANCH   4   5
ATOM      5  C   UNL     1       8.497  63.377   8.747  1.00  0.00     0.000 C 
BRANCH   5   6
ATOM      6  C   UNL     1       7.413  64.463   8.660  1.00  0.00     0.000 C 
BRANCH   6   7
ATOM      7  C   UNL     1       6.020  63.883   8.361  1.00  0.00     0.006 C 
BRANCH   7   8
ATOM      8  C   UNL     1       4.912  64.610   9.134  1.00  0.00     0.053 C 
BRANCH   8   9
ATOM      9  C   UNL     1       4.499  65.879   8.454  1.00  0.00     0.041 C 
ATOM     10  O   UNL     1       4.533  65.967   7.198  1.00  0.00    -0.550 OA
ATOM     11  O   UNL     1       4.103  66.976   9.209  1.00  0.00    -0.550 OA
ENDBRANCH   8   9
ENDBRANCH   7   8
ENDBRANCH   6   7
ENDBRANCH   5   6
ENDBRANCH   4   5
ENDBRANCH   3   4
ENDBRANCH   2   3
ENDBRANCH   1   2
BRANCH   1  12
ATOM     12  C   UNL     1      13.478  63.760   7.792  1.00  0.00     0.000 C 
BRANCH  12  13
ATOM     13  C   UNL     1      13.734  64.960   6.862  1.00  0.00    -0.000 C 
BRANCH  13  14
ATOM     14  C   UNL     1      12.586  65.985   6.789  1.00  0.00    -0.000 C 
BRANCH  14  15
ATOM     15  C   UNL     1      11.621  65.796   5.603  1.00  0.00    -0.000 C 
BRANCH  15  16
ATOM     16  C   UNL     1      12.267  65.108   4.381  1.00  0.00    -0.000 C 
BRANCH  16  17
ATOM     17  C   UNL     1      11.539  65.443   3.068  1.00  0.00    -0.000 C 
BRANCH  17  18
ATOM     18  C   UNL     1      10.092  65.920   3.290  1.00  0.00    -0.000 C 
BRANCH  18  19
ATOM     19  C   UNL     1       9.766  67.298   2.688  1.00  0.00    -0.003 C 
ATOM     20  C   UNL     1       9.597  68.388   3.746  1.00  0.00     0.004 C 
ENDBRANCH  18  19
ENDBRANCH  17  18
ENDBRANCH  16  17
ENDBRANCH  15  16
ENDBRANCH  14  15
ENDBRANCH  13  14
ENDBRANCH  12  13
ENDBRANCH   1  12
TORSDOF 16
ENDMDL
MODEL 3
REMARK VINA RESULT:    -3.871      2.592      6.593
REMARK INTER + INTRA:          -9.435
REMARK INTER:                  -7.557
REMARK INTRA:                  -1.878
REMARK UNBOUND:                -1.943
REMARK SMILES CCCCCCCCCCCCCCCCCC(=O)[O-]
REMARK SMILES IDX 10 1 11 2 12 3 13 4 14 5 15 6 16 7 17 8 18 9 19 10 20 11
REMARK SMILES IDX 9 12 8 13 7 14 6 15 5 16 4 17 3 18 2 19 1 20
REMARK H PARENT
REMARK Flexibility Score: inf
ROOT
ATOM      1  C   UNL     1       9.755  63.483   8.721  1.00  0.00     0.000 C 
ENDROOT
BRANCH   1   2
ATOM      2  C   UNL     1       9.848  64.802   7.936  1.00  0.00     0.000 C 
BRANCH   2   3
ATOM      3  C   UNL     1       9.988  66.027   8.858  1.00  0.00     0.000 C 
BRANCH   3   4
ATOM      4  C   UNL     1       9.456  67.316   8.209  1.00  0.00     0.000 C 
BRANCH   4   5
ATOM      5  C   UNL     1       8.125  67.102   7.468  1.00  0.00     0.000 C 
BRANCH   5   6
ATOM      6  C   UNL     1       6.972  66.738   8.417  1.00  0.00     0.000 C 
BRANCH   6   7
ATOM      7  C   UNL     1       5.590  66.961   7.779  1.00  0.00     0.006 C 
BRANCH   7   8
ATOM      8  C   UNL     1       4.843  65.642   7.539  1.00  0.00     0.053 C 
BRANCH   8   9
ATOM      9  C   UNL     1       5.134  64.636   8.609  1.00  0.00     0.041 C 
ATOM     10  O   UNL     1       4.597  64.739   9.743  1.00  0.00    -0.550 OA
ATOM     11  O   UNL     1       6.023  63.596   8.362  1.00  0.00    -0.550 OA
ENDBRANCH   8   9
ENDBRANCH   7   8
ENDBRANCH   6   7
ENDBRANCH   5   6
ENDBRANCH   4   5
ENDBRANCH   3   4
ENDBRANCH   2   3
ENDBRANCH   1   2
BRANCH   1  12
ATOM     12  C   UNL     1      11.137  62.864   8.994  1.00  0.00     0.000 C 
BRANCH  12  13
ATOM     13  C   UNL     1      11.634  61.979   7.836  1.00  0.00    -0.000 C 
BRANCH  13  14
ATOM     14  C   UNL     1      12.685  62.633   6.919  1.00  0.00    -0.000 C 
BRANCH  14  15
ATOM     15  C   UNL     1      13.409  63.850   7.526  1.00  0.00    -0.000 C 
BRANCH  15  16
ATOM     16  C   UNL     1      13.292  65.131   6.670  1.00  0.00    -0.000 C 
BRANCH  16  17
ATOM     17  C   UNL     1      12.445  64.913   5.405  1.00  0.00    -0.000 C 
BRANCH  17  18
ATOM     18  C   UNL     1      11.964  66.231   4.771  1.00  0.00    -0.000 C 
BRANCH  18  19
ATOM     19  C   UNL     1      10.449  66.310   4.513  1.00  0.00    -0.003 C 
ATOM     20  C   UNL     1      10.067  65.943   3.079  1.00  0.00     0.004 C 
ENDBRANCH  18  19
ENDBRANCH  17  18
ENDBRANCH  16  17
ENDBRANCH  15  16
ENDBRANCH  14  15
ENDBRANCH  13  14
ENDBRANCH  12  13
ENDBRANCH   1  12
TORSDOF 16
ENDMDL
MODEL 4
REMARK VINA RESULT:    -3.856      3.632      6.444
REMARK INTER + INTRA:          -9.406
REMARK INTER:                  -7.106
REMARK INTRA:                  -2.300
REMARK UNBOUND:                -1.943
REMARK SMILES CCCCCCCCCCCCCCCCCC(=O)[O-]
REMARK SMILES IDX 10 1 11 2 12 3 13 4 14 5 15 6 16 7 17 8 18 9 19 10 20 11
REMARK SMILES IDX 9 12 8 13 7 14 6 15 5 16 4 17 3 18 2 19 1 20
REMARK H PARENT
REMARK Flexibility Score: inf
ROOT
ATOM      1  C   UNL     1      12.616  62.414   7.068  1.00  0.00     0.000 C 
ENDROOT
BRANCH   1   2
ATOM      2  C   UNL     1      11.456  62.004   7.991  1.00  0.00     0.000 C 
BRANCH   2   3
ATOM      3  C   UNL     1      10.953  63.173   8.858  1.00  0.00     0.000 C 
BRANCH   3   4
ATOM      4  C   UNL     1       9.465  63.480   8.626  1.00  0.00     0.000 C 
BRANCH   4   5
ATOM      5  C   UNL     1       9.152  64.986   8.696  1.00  0.00     0.000 C 
BRANCH   5   6
ATOM      6  C   UNL     1      10.266  65.850   8.084  1.00  0.00     0.000 C 
BRANCH   6   7
ATOM      7  C   UNL     1      10.790  66.916   9.061  1.00  0.00     0.006 C 
BRANCH   7   8
ATOM      8  C   UNL     1      12.303  66.799   9.288  1.00  0.00     0.053 C 
BRANCH   8   9
ATOM      9  C   UNL     1      12.621  66.006  10.518  1.00  0.00     0.041 C 
ATOM     10  O   UNL     1      13.802  65.630  10.745  1.00  0.00    -0.550 OA
ATOM     11  O   UNL     1      11.607  65.657  11.402  1.00  0.00    -0.550 OA
ENDBRANCH   8   9
ENDBRANCH   7   8
ENDBRANCH   6   7
ENDBRANCH   5   6
ENDBRANCH   4   5
ENDBRANCH   3   4
ENDBRANCH   2   3
ENDBRANCH   1   2
BRANCH   1  12
ATOM     12  C   UNL     1      13.384  63.638   7.598  1.00  0.00     0.000 C 
BRANCH  12  13
ATOM     13  C   UNL     1      13.488  64.772   6.562  1.00  0.00    -0.000 C 
BRANCH  13  14
ATOM     14  C   UNL     1      12.556  64.630   5.344  1.00  0.00    -0.000 C 
BRANCH  14  15
ATOM     15  C   UNL     1      12.203  65.954   4.638  1.00  0.00    -0.000 C 
BRANCH  15  16
ATOM     16  C   UNL     1      10.688  66.143   4.398  1.00  0.00    -0.000 C 
BRANCH  16  17
ATOM     17  C   UNL     1      10.347  66.282   2.905  1.00  0.00    -0.000 C 
BRANCH  17  18
ATOM     18  C   UNL     1      11.048  67.479   2.238  1.00  0.00    -0.000 C 
BRANCH  18  19
ATOM     19  C   UNL     1      11.816  67.142   0.948  1.00  0.00    -0.003 C 
ATOM     20  C   UNL     1      13.268  66.739   1.204  1.00  0.00     0.004 C 
ENDBRANCH  18  19
ENDBRANCH  17  18
ENDBRANCH  16  17
ENDBRANCH  15  16
ENDBRANCH  14  15
ENDBRANCH  13  14
ENDBRANCH  12  13
ENDBRANCH   1  12
TORSDOF 16
ENDMDL
MODEL 5
REMARK VINA RESULT:    -3.842      2.978      6.234
REMARK INTER + INTRA:          -9.380
REMARK INTER:                  -7.584
REMARK INTRA:                  -1.796
REMARK UNBOUND:                -1.943
REMARK SMILES CCCCCCCCCCCCCCCCCC(=O)[O-]
REMARK SMILES IDX 10 1 11 2 12 3 13 4 14 5 15 6 16 7 17 8 18 9 19 10 20 11
REMARK SMILES IDX 9 12 8 13 7 14 6 15 5 16 4 17 3 18 2 19 1 20
REMARK H PARENT
REMARK Flexibility Score: inf
ROOT
ATOM      1  C   UNL     1      11.748  63.278   8.733  1.00  0.00     0.000 C 
ENDROOT
BRANCH   1   2
ATOM      2  C   UNL     1      10.445  62.893   9.453  1.00  0.00     0.000 C 
BRANCH   2   3
ATOM      3  C   UNL     1       9.191  63.354   8.687  1.00  0.00     0.000 C 
BRANCH   3   4
ATOM      4  C   UNL     1       9.035  64.884   8.678  1.00  0.00     0.000 C 
BRANCH   4   5
ATOM      5  C   UNL     1       7.563  65.330   8.734  1.00  0.00     0.000 C 
BRANCH   5   6
ATOM      6  C   UNL     1       6.587  64.144   8.788  1.00  0.00     0.000 C 
BRANCH   6   7
ATOM      7  C   UNL     1       5.150  64.545   8.416  1.00  0.00     0.006 C 
BRANCH   7   8
ATOM      8  C   UNL     1       5.108  65.816   7.556  1.00  0.00     0.053 C 
BRANCH   8   9
ATOM      9  C   UNL     1       4.080  66.787   8.050  1.00  0.00     0.041 C 
ATOM     10  O   UNL     1       3.995  67.054   9.278  1.00  0.00    -0.550 OA
ATOM     11  O   UNL     1       3.195  67.377   7.156  1.00  0.00    -0.550 OA
ENDBRANCH   8   9
ENDBRANCH   7   8
ENDBRANCH   6   7
ENDBRANCH   5   6
ENDBRANCH   4   5
ENDBRANCH   3   4
ENDBRANCH   2   3
ENDBRANCH   1   2
BRANCH   1  12
ATOM     12  C   UNL     1      12.076  62.329   7.566  1.00  0.00     0.000 C 
BRANCH  12  13
ATOM     13  C   UNL     1      12.980  62.980   6.503  1.00  0.00    -0.000 C 
BRANCH  13  14
ATOM     14  C   UNL     1      13.626  64.313   6.924  1.00  0.00    -0.000 C 
BRANCH  14  15
ATOM     15  C   UNL     1      13.126  65.550   6.152  1.00  0.00    -0.000 C 
BRANCH  15  16
ATOM     16  C   UNL     1      11.597  65.570   5.936  1.00  0.00    -0.000 C 
BRANCH  16  17
ATOM     17  C   UNL     1      11.210  66.080   4.538  1.00  0.00    -0.000 C 
BRANCH  17  18
ATOM     18  C   UNL     1       9.939  66.948   4.546  1.00  0.00    -0.000 C 
BRANCH  18  19
ATOM     19  C   UNL     1       9.508  67.450   5.935  1.00  0.00    -0.003 C 
ATOM     20  C   UNL     1       8.044  67.887   5.986  1.00  0.00     0.004 C 
ENDBRANCH  18  19
ENDBRANCH  17  18
ENDBRANCH  16  17
ENDBRANCH  15  16
ENDBRANCH  14  15
ENDBRANCH  13  14
ENDBRANCH  12  13
ENDBRANCH   1  12
TORSDOF 16
ENDMDL
MODEL 6
REMARK VINA RESULT:    -3.830      0.957      1.775
REMARK INTER + INTRA:          -9.355
REMARK INTER:                  -7.227
REMARK INTRA:                  -2.128
REMARK UNBOUND:                -1.943
REMARK SMILES CCCCCCCCCCCCCCCCCC(=O)[O-]
REMARK SMILES IDX 10 1 11 2 12 3 13 4 14 5 15 6 16 7 17 8 18 9 19 10 20 11
REMARK SMILES IDX 9 12 8 13 7 14 6 15 5 16 4 17 3 18 2 19 1 20
REMARK H PARENT
REMARK Flexibility Score: inf
ROOT
ATOM      1  C   UNL     1      11.612  63.022   8.834  1.00  0.00     0.000 C 
ENDROOT
BRANCH   1   2
ATOM      2  C   UNL     1      11.917  62.138   7.613  1.00  0.00     0.000 C 
BRANCH   2   3
ATOM      3  C   UNL     1      12.907  62.802   6.638  1.00  0.00     0.000 C 
BRANCH   3   4
ATOM      4  C   UNL     1      13.685  63.959   7.286  1.00  0.00     0.000 C 
BRANCH   4   5
ATOM      5  C   UNL     1      13.463  65.300   6.565  1.00  0.00     0.000 C 
BRANCH   5   6
ATOM      6  C   UNL     1      12.291  65.250   5.571  1.00  0.00     0.000 C 
BRANCH   6   7
ATOM      7  C   UNL     1      11.733  66.646   5.247  1.00  0.00     0.006 C 
BRANCH   7   8
ATOM      8  C   UNL     1      10.230  66.610   4.935  1.00  0.00     0.053 C 
BRANCH   8   9
ATOM      9  C   UNL     1       9.971  66.512   3.463  1.00  0.00     0.041 C 
ATOM     10  O   UNL     1      10.061  65.403   2.873  1.00  0.00    -0.550 OA
ATOM     11  O   UNL     1       9.656  67.653   2.735  1.00  0.00    -0.550 OA
ENDBRANCH   8   9
ENDBRANCH   7   8
ENDBRANCH   6   7
ENDBRANCH   5   6
ENDBRANCH   4   5
ENDBRANCH   3   4
ENDBRANCH   2   3
ENDBRANCH   1   2
BRANCH   1  12
ATOM     12  C   UNL     1      10.215  62.750   9.421  1.00  0.00     0.000 C 
BRANCH  12  13
ATOM     13  C   UNL     1       9.111  63.583   8.744  1.00  0.00    -0.000 C 
BRANCH  13  14
ATOM     14  C   UNL     1       9.570  64.942   8.184  1.00  0.00    -0.000 C 
BRANCH  14  15
ATOM     15  C   UNL     1       9.039  66.172   8.946  1.00  0.00    -0.000 C 
BRANCH  15  16
ATOM     16  C   UNL     1       8.179  67.116   8.077  1.00  0.00    -0.000 C 
BRANCH  16  17
ATOM     17  C   UNL     1       6.717  66.649   7.977  1.00  0.00    -0.000 C 
BRANCH  17  18
ATOM     18  C   UNL     1       6.070  66.404   9.352  1.00  0.00    -0.000 C 
BRANCH  18  19
ATOM     19  C   UNL     1       5.050  65.253   9.392  1.00  0.00    -0.003 C 
ATOM     20  C   UNL     1       5.459  64.061   8.526  1.00  0.00     0.004 C 
ENDBRANCH  18  19
ENDBRANCH  17  18
ENDBRANCH  16  17
ENDBRANCH  15  16
ENDBRANCH  14  15
ENDBRANCH  13  14
ENDBRANCH  12  13
ENDBRANCH   1  12
TORSDOF 16
ENDMDL
MODEL 7
REMARK VINA RESULT:    -3.821      2.736      4.426
REMARK INTER + INTRA:          -9.339
REMARK INTER:                  -6.792
REMARK INTRA:                  -2.547
REMARK UNBOUND:                -1.943
REMARK SMILES CCCCCCCCCCCCCCCCCC(=O)[O-]
REMARK SMILES IDX 10 1 11 2 12 3 13 4 14 5 15 6 16 7 17 8 18 9 19 10 20 11
REMARK SMILES IDX 9 12 8 13 7 14 6 15 5 16 4 17 3 18 2 19 1 20
REMARK H PARENT
REMARK Flexibility Score: inf
ROOT
ATOM      1  C   UNL     1      12.647  62.467   7.085  1.00  0.00     0.000 C 
ENDROOT
BRANCH   1   2
ATOM      2  C   UNL     1      13.350  63.724   7.625  1.00  0.00     0.000 C 
BRANCH   2   3
ATOM      3  C   UNL     1      13.467  64.834   6.564  1.00  0.00     0.000 C 
BRANCH   3   4
ATOM      4  C   UNL     1      12.559  64.585   5.349  1.00  0.00     0.000 C 
BRANCH   4   5
ATOM      5  C   UNL     1      12.169  65.886   4.623  1.00  0.00     0.000 C 
BRANCH   5   6
ATOM      6  C   UNL     1      11.607  65.631   3.216  1.00  0.00     0.000 C 
BRANCH   6   7
ATOM      7  C   UNL     1      10.141  66.076   3.077  1.00  0.00     0.006 C 
BRANCH   7   8
ATOM      8  C   UNL     1       9.679  66.929   4.266  1.00  0.00     0.053 C 
BRANCH   8   9
ATOM      9  C   UNL     1       9.359  68.332   3.852  1.00  0.00     0.041 C 
ATOM     10  O   UNL     1      10.059  69.293   4.268  1.00  0.00    -0.550 OA
ATOM     11  O   UNL     1       8.269  68.582   3.028  1.00  0.00    -0.550 OA
ENDBRANCH   8   9
ENDBRANCH   7   8
ENDBRANCH   6   7
ENDBRANCH   5   6
ENDBRANCH   4   5
ENDBRANCH   3   4
ENDBRANCH   2   3
ENDBRANCH   1   2
BRANCH   1  12
ATOM     12  C   UNL     1      11.536  61.967   8.025  1.00  0.00     0.000 C 
BRANCH  12  13
ATOM     13  C   UNL     1      10.954  63.085   8.910  1.00  0.00    -0.000 C 
BRANCH  13  14
ATOM     14  C   UNL     1       9.568  63.602   8.480  1.00  0.00    -0.000 C 
BRANCH  14  15
ATOM     15  C   UNL     1       9.334  65.106   8.718  1.00  0.00    -0.000 C 
BRANCH  15  16
ATOM     16  C   UNL     1      10.322  66.016   7.954  1.00  0.00    -0.000 C 
BRANCH  16  17
ATOM     17  C   UNL     1      11.254  66.791   8.900  1.00  0.00    -0.000 C 
BRANCH  17  18
ATOM     18  C   UNL     1      10.906  66.586  10.385  1.00  0.00    -0.000 C 
BRANCH  18  19
ATOM     19  C   UNL     1      11.958  65.806  11.194  1.00  0.00    -0.003 C 
ATOM     20  C   UNL     1      13.348  65.841  10.559  1.00  0.00     0.004 C 
ENDBRANCH  18  19
ENDBRANCH  17  18
ENDBRANCH  16  17
ENDBRANCH  15  16
ENDBRANCH  14  15
ENDBRANCH  13  14
ENDBRANCH  12  13
ENDBRANCH   1  12
TORSDOF 16
ENDMDL
MODEL 8
REMARK VINA RESULT:    -3.776      2.179      6.352
REMARK INTER + INTRA:          -9.252
REMARK INTER:                  -7.016
REMARK INTRA:                  -2.236
REMARK UNBOUND:                -1.943
REMARK SMILES CCCCCCCCCCCCCCCCCC(=O)[O-]
REMARK SMILES IDX 10 1 11 2 12 3 13 4 14 5 15 6 16 7 17 8 18 9 19 10 20 11
REMARK SMILES IDX 9 12 8 13 7 14 6 15 5 16 4 17 3 18 2 19 1 20
REMARK H PARENT
REMARK Flexibility Score: inf
ROOT
ATOM      1  C   UNL     1       9.967  63.452   8.705  1.00  0.00     0.000 C 
ENDROOT
BRANCH   1   2
ATOM      2  C   UNL     1       9.838  64.819   8.012  1.00  0.00     0.000 C 
BRANCH   2   3
ATOM      3  C   UNL     1       9.993  65.994   8.995  1.00  0.00     0.000 C 
BRANCH   3   4
ATOM      4  C   UNL     1       8.644  66.488   9.541  1.00  0.00     0.000 C 
BRANCH   4   5
ATOM      5  C   UNL     1       7.496  66.317   8.529  1.00  0.00     0.000 C 
BRANCH   5   6
ATOM      6  C   UNL     1       6.309  65.532   9.110  1.00  0.00     0.000 C 
BRANCH   6   7
ATOM      7  C   UNL     1       5.266  65.164   8.041  1.00  0.00     0.006 C 
BRANCH   7   8
ATOM      8  C   UNL     1       4.445  66.380   7.590  1.00  0.00     0.053 C 
BRANCH   8   9
ATOM      9  C   UNL     1       4.674  66.700   6.145  1.00  0.00     0.041 C 
ATOM     10  O   UNL     1       5.603  67.480   5.806  1.00  0.00    -0.550 OA
ATOM     11  O   UNL     1       3.843  66.158   5.172  1.00  0.00    -0.550 OA
ENDBRANCH   8   9
ENDBRANCH   7   8
ENDBRANCH   6   7
ENDBRANCH   5   6
ENDBRANCH   4   5
ENDBRANCH   3   4
ENDBRANCH   2   3
ENDBRANCH   1   2
BRANCH   1  12
ATOM     12  C   UNL     1      11.431  62.993   8.828  1.00  0.00     0.000 C 
BRANCH  12  13
ATOM     13  C   UNL     1      11.882  62.111   7.649  1.00  0.00    -0.000 C 
BRANCH  13  14
ATOM     14  C   UNL     1      12.868  62.780   6.674  1.00  0.00    -0.000 C 
BRANCH  14  15
ATOM     15  C   UNL     1      13.495  64.093   7.182  1.00  0.00    -0.000 C 
BRANCH  15  16
ATOM     16  C   UNL     1      13.089  65.334   6.355  1.00  0.00    -0.000 C 
BRANCH  16  17
ATOM     17  C   UNL     1      12.399  64.956   5.034  1.00  0.00    -0.000 C 
BRANCH  17  18
ATOM     18  C   UNL     1      11.276  65.934   4.643  1.00  0.00    -0.000 C 
BRANCH  18  19
ATOM     19  C   UNL     1      11.135  67.159   5.564  1.00  0.00    -0.003 C 
ATOM     20  C   UNL     1       9.702  67.685   5.644  1.00  0.00     0.004 C 
ENDBRANCH  18  19
ENDBRANCH  17  18
ENDBRANCH  16  17
ENDBRANCH  15  16
ENDBRANCH  14  15
ENDBRANCH  13  14
ENDBRANCH  12  13
ENDBRANCH   1  12
TORSDOF 16
ENDMDL
MODEL 9
REMARK VINA RESULT:    -3.732      3.499      5.386
REMARK INTER + INTRA:          -9.166
REMARK INTER:                  -6.381
REMARK INTRA:                  -2.785
REMARK UNBOUND:                -1.943
REMARK SMILES CCCCCCCCCCCCCCCCCC(=O)[O-]
REMARK SMILES IDX 10 1 11 2 12 3 13 4 14 5 15 6 16 7 17 8 18 9 19 10 20 11
REMARK SMILES IDX 9 12 8 13 7 14 6 15 5 16 4 17 3 18 2 19 1 20
REMARK H PARENT
REMARK Flexibility Score: inf
ROOT
ATOM      1  C   UNL     1      13.086  65.266   6.250  1.00  0.00     0.000 C 
ENDROOT
BRANCH   1   2
ATOM      2  C   UNL     1      13.410  64.052   7.137  1.00  0.00     0.000 C 
BRANCH   2   3
ATOM      3  C   UNL     1      12.808  62.745   6.589  1.00  0.00     0.000 C 
BRANCH   3   4
ATOM      4  C   UNL     1      11.874  62.058   7.598  1.00  0.00     0.000 C 
BRANCH   4   5
ATOM      5  C   UNL     1      11.359  63.022   8.682  1.00  0.00     0.000 C 
BRANCH   5   6
ATOM      6  C   UNL     1       9.909  63.467   8.436  1.00  0.00     0.000 C 
BRANCH   6   7
ATOM      7  C   UNL     1       9.698  64.966   8.705  1.00  0.00     0.006 C 
BRANCH   7   8
ATOM      8  C   UNL     1      10.902  65.602   9.413  1.00  0.00     0.053 C 
BRANCH   8   9
ATOM      9  C   UNL     1      10.510  66.822  10.190  1.00  0.00     0.041 C 
ATOM     10  O   UNL     1       9.294  67.100  10.365  1.00  0.00    -0.550 OA
ATOM     11  O   UNL     1      11.488  67.667  10.697  1.00  0.00    -0.550 OA
ENDBRANCH   8   9
ENDBRANCH   7   8
ENDBRANCH   6   7
ENDBRANCH   5   6
ENDBRANCH   4   5
ENDBRANCH   3   4
ENDBRANCH   2   3
ENDBRANCH   1   2
BRANCH   1  12
ATOM     12  C   UNL     1      11.888  65.009   5.319  1.00  0.00     0.000 C 
BRANCH  12  13
ATOM     13  C   UNL     1      12.254  65.131   3.828  1.00  0.00    -0.000 C 
BRANCH  13  14
ATOM     14  C   UNL     1      11.391  66.120   3.023  1.00  0.00    -0.000 C 
BRANCH  14  15
ATOM     15  C   UNL     1       9.874  65.854   3.079  1.00  0.00    -0.000 C 
BRANCH  15  16
ATOM     16  C   UNL     1       9.019  67.140   3.100  1.00  0.00    -0.000 C 
BRANCH  16  17
ATOM     17  C   UNL     1       9.495  68.141   4.167  1.00  0.00    -0.000 C 
BRANCH  17  18
ATOM     18  C   UNL     1       9.213  67.666   5.603  1.00  0.00    -0.000 C 
BRANCH  18  19
ATOM     19  C   UNL     1      10.310  68.009   6.626  1.00  0.00    -0.003 C 
ATOM     20  C   UNL     1      11.539  68.659   5.989  1.00  0.00     0.004 C 
ENDBRANCH  18  19
ENDBRANCH  17  18
ENDBRANCH  16  17
ENDBRANCH  15  16
ENDBRANCH  14  15
ENDBRANCH  13  14
ENDBRANCH  12  13
ENDBRANCH   1  12
TORSDOF 16
ENDMDL
