MODEL 1
REMARK VINA RESULT:    -4.675      0.000      0.000
REMARK INTER + INTRA:          -7.141
REMARK INTER:                  -7.135
REMARK INTRA:                  -0.006
REMARK UNBOUND:                -0.006
REMARK SMILES CC1=CCC[C@@H](C)C(=O)C[C@H](C(C)C)C(=O)C1
REMARK SMILES IDX 8 1 9 2 6 3 7 4 5 5 4 6 3 7 2 8 1 9 10 11 11 12 15 13 16 14
REMARK SMILES IDX 17 15 12 17 13 18 14 19
REMARK H PARENT
REMARK Flexibility Score: 70.00
ROOT
ATOM      1  C   UNL     1     -18.869 -36.613  -4.060  1.00  0.00     0.136 C 
ATOM      2  O   UNL     1     -19.089 -35.427  -4.263  1.00  0.00    -0.299 OA
ENDROOT
BRANCH   1   3
ATOM      3  C   UNL     1     -17.503 -37.055  -3.579  1.00  0.00     0.053 C 
ATOM      4  C   UNL     1     -16.437 -36.105  -4.135  1.00  0.00     0.016 C 
BRANCH   3   5
ATOM      5  C   UNL     1     -17.189 -38.512  -3.990  1.00  0.00     0.015 C 
BRANCH   5   6
ATOM      6  C   UNL     1     -16.906 -38.672  -5.491  1.00  0.00     0.028 C 
BRANCH   6   7
ATOM      7  C   UNL     1     -17.283 -40.051  -5.977  1.00  0.00    -0.028 C 
ATOM      8  C   UNL     1     -18.319 -40.345  -6.794  1.00  0.00    -0.070 CG0
ATOM      9  C   UNL     1     -18.539 -41.790  -7.163  1.00  0.00     0.039 C 
ATOM     10  G   UNL     1     -19.289 -39.305  -7.321  1.00  0.00     0.000 G0
ENDBRANCH   6   7
ENDBRANCH   5   6
ENDBRANCH   3   5
ENDBRANCH   1   3
BRANCH   1  11
ATOM     11  C   UNL     1     -19.984 -37.606  -4.257  1.00  0.00     0.087 C 
BRANCH  11  12
ATOM     12  C   UNL     1     -20.510 -37.601  -5.715  1.00  0.00     0.066 C 
BRANCH  12  13
ATOM     13  C   UNL     1     -20.358 -38.994  -6.307  1.00  0.00     0.140 C 
ATOM     14  O   UNL     1     -21.166 -39.864  -6.010  1.00  0.00    -0.299 OA
BRANCH  13  15
ATOM     15  C   UNL     1     -19.289 -39.307  -7.322  1.00  0.00     0.106 CG0
ATOM     16  G   UNL     1     -18.313 -40.338  -6.789  1.00  0.00     0.000 G0
ENDBRANCH  13  15
ENDBRANCH  12  13
BRANCH  12  17
ATOM     17  C   UNL     1     -21.999 -37.130  -5.809  1.00  0.00    -0.006 C 
ATOM     18  C   UNL     1     -22.484 -36.469  -4.503  1.00  0.00     0.008 C 
ATOM     19  C   UNL     1     -22.204 -36.132  -6.967  1.00  0.00     0.008 C 
ENDBRANCH  12  17
ENDBRANCH  11  12
ENDBRANCH   1  11
TORSDOF 1
ENDMDL
MODEL 2
REMARK VINA RESULT:    -4.632      2.130      5.478
REMARK INTER + INTRA:          -7.074
REMARK INTER:                  -7.052
REMARK INTRA:                  -0.023
REMARK UNBOUND:                -0.006
REMARK SMILES CC1=CCC[C@@H](C)C(=O)C[C@H](C(C)C)C(=O)C1
REMARK SMILES IDX 8 1 9 2 6 3 7 4 5 5 4 6 3 7 2 8 1 9 10 11 11 12 15 13 16 14
REMARK SMILES IDX 17 15 12 17 13 18 14 19
REMARK H PARENT
REMARK Flexibility Score: 70.00
ROOT
ATOM      1  C   UNL     1     -19.450 -39.508  -6.366  1.00  0.00     0.136 C 
ATOM      2  O   UNL     1     -18.984 -39.304  -7.478  1.00  0.00    -0.299 OA
ENDROOT
BRANCH   1   3
ATOM      3  C   UNL     1     -20.949 -39.623  -6.186  1.00  0.00     0.053 C 
ATOM      4  C   UNL     1     -21.526 -40.519  -7.287  1.00  0.00     0.016 C 
BRANCH   3   5
ATOM      5  C   UNL     1     -21.641 -38.240  -6.204  1.00  0.00     0.015 C 
BRANCH   5   6
ATOM      6  C   UNL     1     -21.671 -37.559  -4.828  1.00  0.00     0.028 C 
BRANCH   6   7
ATOM      7  C   UNL     1     -20.799 -36.327  -4.805  1.00  0.00    -0.028 C 
ATOM      8  C   UNL     1     -19.576 -36.235  -4.238  1.00  0.00    -0.070 CG0
ATOM      9  C   UNL     1     -18.860 -34.909  -4.313  1.00  0.00     0.039 C 
ATOM     10  G   UNL     1     -18.909 -37.379  -3.499  1.00  0.00     0.000 G0
ENDBRANCH   6   7
ENDBRANCH   5   6
ENDBRANCH   3   5
ENDBRANCH   1   3
BRANCH   1  11
ATOM     11  C   UNL     1     -18.510 -39.683  -5.202  1.00  0.00     0.087 C 
BRANCH  11  12
ATOM     12  C   UNL     1     -17.356 -38.647  -5.232  1.00  0.00     0.066 C 
BRANCH  12  13
ATOM     13  C   UNL     1     -17.533 -37.668  -4.081  1.00  0.00     0.140 C 
ATOM     14  O   UNL     1     -16.560 -37.058  -3.658  1.00  0.00    -0.299 OA
BRANCH  13  15
ATOM     15  C   UNL     1     -18.892 -37.362  -3.508  1.00  0.00     0.106 CG0
ATOM     16  G   UNL     1     -19.552 -36.215  -4.250  1.00  0.00     0.000 G0
ENDBRANCH  13  15
ENDBRANCH  12  13
BRANCH  12  17
ATOM     17  C   UNL     1     -15.948 -39.325  -5.159  1.00  0.00    -0.006 C 
ATOM     18  C   UNL     1     -16.024 -40.850  -5.366  1.00  0.00     0.008 C 
ATOM     19  C   UNL     1     -14.984 -38.737  -6.211  1.00  0.00     0.008 C 
ENDBRANCH  12  17
ENDBRANCH  11  12
ENDBRANCH   1  11
TORSDOF 1
ENDMDL
MODEL 3
REMARK VINA RESULT:    -4.611      1.098      1.250
REMARK INTER + INTRA:          -7.043
REMARK INTER:                  -7.243
REMARK INTRA:                   0.200
REMARK UNBOUND:                -0.006
REMARK SMILES CC1=CCC[C@@H](C)C(=O)C[C@H](C(C)C)C(=O)C1
REMARK SMILES IDX 8 1 9 2 6 3 7 4 5 5 4 6 3 7 2 8 1 9 10 11 11 12 15 13 16 14
REMARK SMILES IDX 17 15 12 17 13 18 14 19
REMARK H PARENT
REMARK Flexibility Score: 70.00
ROOT
ATOM      1  C   UNL     1     -18.645 -37.061  -4.267  1.00  0.00     0.136 C 
ATOM      2  O   UNL     1     -19.009 -35.894  -4.236  1.00  0.00    -0.299 OA
ENDROOT
BRANCH   1   3
ATOM      3  C   UNL     1     -17.198 -37.408  -3.987  1.00  0.00     0.053 C 
ATOM      4  C   UNL     1     -16.398 -36.119  -3.776  1.00  0.00     0.016 C 
BRANCH   3   5
ATOM      5  C   UNL     1     -16.573 -38.245  -5.128  1.00  0.00     0.015 C 
BRANCH   5   6
ATOM      6  C   UNL     1     -16.305 -39.704  -4.733  1.00  0.00     0.028 C 
BRANCH   6   7
ATOM      7  C   UNL     1     -16.540 -40.640  -5.895  1.00  0.00    -0.028 C 
ATOM      8  C   UNL     1     -17.746 -41.048  -6.349  1.00  0.00    -0.070 CG0
ATOM      9  C   UNL     1     -17.774 -41.995  -7.522  1.00  0.00     0.039 C 
ATOM     10  G   UNL     1     -19.061 -40.635  -5.717  1.00  0.00     0.000 G0
ENDBRANCH   6   7
ENDBRANCH   5   6
ENDBRANCH   3   5
ENDBRANCH   1   3
BRANCH   1  11
ATOM     11  C   UNL     1     -19.663 -38.136  -4.547  1.00  0.00     0.087 C 
BRANCH  11  12
ATOM     12  C   UNL     1     -20.039 -38.197  -6.050  1.00  0.00     0.066 C 
BRANCH  12  13
ATOM     13  C   UNL     1     -19.783 -39.602  -6.573  1.00  0.00     0.140 C 
ATOM     14  O   UNL     1     -20.085 -39.877  -7.726  1.00  0.00    -0.299 OA
BRANCH  13  15
ATOM     15  C   UNL     1     -19.081 -40.639  -5.736  1.00  0.00     0.106 CG0
ATOM     16  G   UNL     1     -17.752 -41.031  -6.352  1.00  0.00     0.000 G0
ENDBRANCH  13  15
ENDBRANCH  12  13
BRANCH  12  17
ATOM     17  C   UNL     1     -21.525 -37.783  -6.308  1.00  0.00    -0.006 C 
ATOM     18  C   UNL     1     -22.500 -38.473  -5.333  1.00  0.00     0.008 C 
ATOM     19  C   UNL     1     -21.715 -36.256  -6.189  1.00  0.00     0.008 C 
ENDBRANCH  12  17
ENDBRANCH  11  12
ENDBRANCH   1  11
TORSDOF 1
ENDMDL
MODEL 4
REMARK VINA RESULT:    -4.528      2.166      4.492
REMARK INTER + INTRA:          -6.917
REMARK INTER:                  -6.954
REMARK INTRA:                   0.038
REMARK UNBOUND:                -0.006
REMARK SMILES CC1=CCC[C@@H](C)C(=O)C[C@H](C(C)C)C(=O)C1
REMARK SMILES IDX 8 1 9 2 6 3 7 4 5 5 4 6 3 7 2 8 1 9 10 11 11 12 15 13 16 14
REMARK SMILES IDX 17 15 12 17 13 18 14 19
REMARK H PARENT
REMARK Flexibility Score: 70.00
ROOT
ATOM      1  C   UNL     1     -16.780 -40.153  -8.061  1.00  0.00     0.136 C 
ATOM      2  O   UNL     1     -16.478 -40.664  -9.130  1.00  0.00    -0.299 OA
ENDROOT
BRANCH   1   3
ATOM      3  C   UNL     1     -15.848 -40.279  -6.875  1.00  0.00     0.053 C 
ATOM      4  C   UNL     1     -16.318 -41.428  -5.978  1.00  0.00     0.016 C 
BRANCH   3   5
ATOM      5  C   UNL     1     -15.765 -38.965  -6.063  1.00  0.00     0.015 C 
BRANCH   5   6
ATOM      6  C   UNL     1     -16.355 -39.086  -4.650  1.00  0.00     0.028 C 
BRANCH   6   7
ATOM      7  C   UNL     1     -17.161 -37.863  -4.284  1.00  0.00    -0.028 C 
ATOM      8  C   UNL     1     -18.510 -37.782  -4.268  1.00  0.00    -0.070 CG0
ATOM      9  C   UNL     1     -19.133 -36.464  -3.881  1.00  0.00     0.039 C 
ATOM     10  G   UNL     1     -19.421 -38.930  -4.656  1.00  0.00     0.000 G0
ENDBRANCH   6   7
ENDBRANCH   5   6
ENDBRANCH   3   5
ENDBRANCH   1   3
BRANCH   1  11
ATOM     11  C   UNL     1     -18.065 -39.373  -7.962  1.00  0.00     0.087 C 
BRANCH  11  12
ATOM     12  C   UNL     1     -19.079 -40.049  -7.004  1.00  0.00     0.066 C 
BRANCH  12  13
ATOM     13  C   UNL     1     -19.716 -38.988  -6.120  1.00  0.00     0.140 C 
ATOM     14  O   UNL     1     -20.520 -38.205  -6.608  1.00  0.00    -0.299 OA
BRANCH  13  15
ATOM     15  C   UNL     1     -19.453 -38.935  -4.637  1.00  0.00     0.106 CG0
ATOM     16  G   UNL     1     -18.508 -37.800  -4.291  1.00  0.00     0.000 G0
ENDBRANCH  13  15
ENDBRANCH  12  13
BRANCH  12  17
ATOM     17  C   UNL     1     -20.180 -40.850  -7.773  1.00  0.00    -0.006 C 
ATOM     18  C   UNL     1     -19.578 -41.912  -8.715  1.00  0.00     0.008 C 
ATOM     19  C   UNL     1     -21.149 -41.555  -6.801  1.00  0.00     0.008 C 
ENDBRANCH  12  17
ENDBRANCH  11  12
ENDBRANCH   1  11
TORSDOF 1
ENDMDL
MODEL 5
REMARK VINA RESULT:    -4.528      2.476      5.827
REMARK INTER + INTRA:          -6.916
REMARK INTER:                  -7.021
REMARK INTRA:                   0.105
REMARK UNBOUND:                -0.006
REMARK SMILES CC1=CCC[C@@H](C)C(=O)C[C@H](C(C)C)C(=O)C1
REMARK SMILES IDX 8 1 9 2 6 3 7 4 5 5 4 6 3 7 2 8 1 9 10 11 11 12 15 13 16 14
REMARK SMILES IDX 17 15 12 17 13 18 14 19
REMARK H PARENT
REMARK Flexibility Score: 70.00
ROOT
ATOM      1  C   UNL     1     -16.981 -40.279  -7.828  1.00  0.00     0.136 C 
ATOM      2  O   UNL     1     -16.400 -39.799  -8.791  1.00  0.00    -0.299 OA
ENDROOT
BRANCH   1   3
ATOM      3  C   UNL     1     -18.380 -40.833  -7.991  1.00  0.00     0.053 C 
ATOM      4  C   UNL     1     -18.547 -41.383  -9.411  1.00  0.00     0.016 C 
BRANCH   3   5
ATOM      5  C   UNL     1     -19.462 -39.767  -7.699  1.00  0.00     0.015 C 
BRANCH   5   6
ATOM      6  C   UNL     1     -19.992 -39.818  -6.259  1.00  0.00     0.028 C 
BRANCH   6   7
ATOM      7  C   UNL     1     -19.858 -38.478  -5.576  1.00  0.00    -0.028 C 
ATOM      8  C   UNL     1     -18.828 -38.091  -4.793  1.00  0.00    -0.070 CG0
ATOM      9  C   UNL     1     -18.879 -36.709  -4.190  1.00  0.00     0.039 C 
ATOM     10  G   UNL     1     -17.649 -38.985  -4.458  1.00  0.00     0.000 G0
ENDBRANCH   6   7
ENDBRANCH   5   6
ENDBRANCH   3   5
ENDBRANCH   1   3
BRANCH   1  11
ATOM     11  C   UNL     1     -16.267 -40.344  -6.502  1.00  0.00     0.087 C 
BRANCH  11  12
ATOM     12  C   UNL     1     -15.621 -38.985  -6.128  1.00  0.00     0.066 C 
BRANCH  12  13
ATOM     13  C   UNL     1     -16.344 -38.401  -4.925  1.00  0.00     0.140 C 
ATOM     14  O   UNL     1     -15.900 -37.394  -4.389  1.00  0.00    -0.299 OA
BRANCH  13  15
ATOM     15  C   UNL     1     -17.645 -38.978  -4.431  1.00  0.00     0.106 CG0
ATOM     16  G   UNL     1     -18.814 -38.085  -4.800  1.00  0.00     0.000 G0
ENDBRANCH  13  15
ENDBRANCH  12  13
BRANCH  12  17
ATOM     17  C   UNL     1     -14.090 -39.117  -5.833  1.00  0.00    -0.006 C 
ATOM     18  C   UNL     1     -13.677 -40.572  -5.538  1.00  0.00     0.008 C 
ATOM     19  C   UNL     1     -13.241 -38.597  -7.011  1.00  0.00     0.008 C 
ENDBRANCH  12  17
ENDBRANCH  11  12
ENDBRANCH   1  11
TORSDOF 1
ENDMDL
MODEL 6
REMARK VINA RESULT:    -4.464      2.170      4.419
REMARK INTER + INTRA:          -6.818
REMARK INTER:                  -6.837
REMARK INTRA:                   0.019
REMARK UNBOUND:                -0.006
REMARK SMILES CC1=CCC[C@@H](C)C(=O)C[C@H](C(C)C)C(=O)C1
REMARK SMILES IDX 8 1 9 2 6 3 7 4 5 5 4 6 3 7 2 8 1 9 10 11 11 12 15 13 16 14
REMARK SMILES IDX 17 15 12 17 13 18 14 19
REMARK H PARENT
REMARK Flexibility Score: 70.00
ROOT
ATOM      1  C   UNL     1     -16.100 -39.922  -6.648  1.00  0.00     0.136 C 
ATOM      2  O   UNL     1     -16.010 -41.120  -6.418  1.00  0.00    -0.299 OA
ENDROOT
BRANCH   1   3
ATOM      3  C   UNL     1     -15.013 -38.979  -6.177  1.00  0.00     0.053 C 
ATOM      4  C   UNL     1     -13.753 -39.783  -5.844  1.00  0.00     0.016 C 
BRANCH   3   5
ATOM      5  C   UNL     1     -15.459 -38.150  -4.949  1.00  0.00     0.015 C 
BRANCH   5   6
ATOM      6  C   UNL     1     -16.642 -38.773  -4.193  1.00  0.00     0.028 C 
BRANCH   6   7
ATOM      7  C   UNL     1     -17.758 -37.775  -4.001  1.00  0.00    -0.028 C 
ATOM      8  C   UNL     1     -19.064 -37.987  -4.278  1.00  0.00    -0.070 CG0
ATOM      9  C   UNL     1     -20.031 -36.858  -4.024  1.00  0.00     0.039 C 
ATOM     10  G   UNL     1     -19.595 -39.280  -4.864  1.00  0.00     0.000 G0
ENDBRANCH   6   7
ENDBRANCH   5   6
ENDBRANCH   3   5
ENDBRANCH   1   3
BRANCH   1  11
ATOM     11  C   UNL     1     -17.281 -39.417  -7.436  1.00  0.00     0.087 C 
BRANCH  11  12
ATOM     12  C   UNL     1     -18.573 -40.210  -7.111  1.00  0.00     0.066 C 
BRANCH  12  13
ATOM     13  C   UNL     1     -19.542 -39.304  -6.367  1.00  0.00     0.140 C 
ATOM     14  O   UNL     1     -20.335 -38.623  -7.003  1.00  0.00    -0.299 OA
BRANCH  13  15
ATOM     15  C   UNL     1     -19.613 -39.292  -4.862  1.00  0.00     0.106 CG0
ATOM     16  G   UNL     1     -19.058 -37.998  -4.298  1.00  0.00     0.000 G0
ENDBRANCH  13  15
ENDBRANCH  12  13
BRANCH  12  17
ATOM     17  C   UNL     1     -19.251 -40.795  -8.394  1.00  0.00    -0.006 C 
ATOM     18  C   UNL     1     -18.218 -41.201  -9.464  1.00  0.00     0.008 C 
ATOM     19  C   UNL     1     -20.120 -42.025  -8.062  1.00  0.00     0.008 C 
ENDBRANCH  12  17
ENDBRANCH  11  12
ENDBRANCH   1  11
TORSDOF 1
ENDMDL
MODEL 7
REMARK VINA RESULT:    -4.431      2.084      4.284
REMARK INTER + INTRA:          -6.768
REMARK INTER:                  -6.795
REMARK INTRA:                   0.027
REMARK UNBOUND:                -0.006
REMARK SMILES CC1=CCC[C@@H](C)C(=O)C[C@H](C(C)C)C(=O)C1
REMARK SMILES IDX 8 1 9 2 6 3 7 4 5 5 4 6 3 7 2 8 1 9 10 11 11 12 15 13 16 14
REMARK SMILES IDX 17 15 12 17 13 18 14 19
REMARK H PARENT
REMARK Flexibility Score: 70.00
ROOT
ATOM      1  C   UNL     1     -17.880 -39.697  -6.298  1.00  0.00     0.136 C 
ATOM      2  O   UNL     1     -17.262 -40.737  -6.479  1.00  0.00    -0.299 OA
ENDROOT
BRANCH   1   3
ATOM      3  C   UNL     1     -17.345 -38.660  -5.333  1.00  0.00     0.053 C 
ATOM      4  C   UNL     1     -16.023 -39.154  -4.737  1.00  0.00     0.016 C 
BRANCH   3   5
ATOM      5  C   UNL     1     -18.356 -38.343  -4.206  1.00  0.00     0.015 C 
BRANCH   5   6
ATOM      6  C   UNL     1     -18.799 -36.873  -4.184  1.00  0.00     0.028 C 
BRANCH   6   7
ATOM      7  C   UNL     1     -20.266 -36.747  -3.850  1.00  0.00    -0.028 C 
ATOM      8  C   UNL     1     -21.293 -37.023  -4.684  1.00  0.00    -0.070 CG0
ATOM      9  C   UNL     1     -22.696 -36.826  -4.167  1.00  0.00     0.039 C 
ATOM     10  G   UNL     1     -21.106 -37.479  -6.118  1.00  0.00     0.000 G0
ENDBRANCH   6   7
ENDBRANCH   5   6
ENDBRANCH   3   5
ENDBRANCH   1   3
BRANCH   1  11
ATOM     11  C   UNL     1     -19.147 -39.456  -7.076  1.00  0.00     0.087 C 
BRANCH  11  12
ATOM     12  C   UNL     1     -20.390 -40.028  -6.347  1.00  0.00     0.066 C 
BRANCH  12  13
ATOM     13  C   UNL     1     -21.471 -38.960  -6.288  1.00  0.00     0.140 C 
ATOM     14  O   UNL     1     -22.647 -39.296  -6.291  1.00  0.00    -0.299 OA
BRANCH  13  15
ATOM     15  C   UNL     1     -21.130 -37.500  -6.133  1.00  0.00     0.106 CG0
ATOM     16  G   UNL     1     -21.291 -37.051  -4.694  1.00  0.00     0.000 G0
ENDBRANCH  13  15
ENDBRANCH  12  13
BRANCH  12  17
ATOM     17  C   UNL     1     -20.939 -41.321  -7.033  1.00  0.00    -0.006 C 
ATOM     18  C   UNL     1     -20.632 -41.355  -8.544  1.00  0.00     0.008 C 
ATOM     19  C   UNL     1     -20.355 -42.595  -6.388  1.00  0.00     0.008 C 
ENDBRANCH  12  17
ENDBRANCH  11  12
ENDBRANCH   1  11
TORSDOF 1
ENDMDL
MODEL 8
REMARK VINA RESULT:    -4.362      1.734      2.726
REMARK INTER + INTRA:          -6.663
REMARK INTER:                  -6.416
REMARK INTRA:                  -0.247
REMARK UNBOUND:                -0.006
REMARK SMILES CC1=CCC[C@@H](C)C(=O)C[C@H](C(C)C)C(=O)C1
REMARK SMILES IDX 8 1 9 2 6 3 7 4 5 5 4 6 3 7 2 8 1 9 10 11 11 12 15 13 16 14
REMARK SMILES IDX 17 15 12 17 13 18 14 19
REMARK H PARENT
REMARK Flexibility Score: 70.00
ROOT
ATOM      1  C   UNL     1     -16.956 -39.138  -5.249  1.00  0.00     0.136 C 
ATOM      2  O   UNL     1     -16.290 -38.134  -5.035  1.00  0.00    -0.299 OA
ENDROOT
BRANCH   1   3
ATOM      3  C   UNL     1     -16.381 -40.259  -6.087  1.00  0.00     0.053 C 
ATOM      4  C   UNL     1     -15.166 -40.857  -5.371  1.00  0.00     0.016 C 
BRANCH   3   5
ATOM      5  C   UNL     1     -15.985 -39.779  -7.503  1.00  0.00     0.015 C 
BRANCH   5   6
ATOM      6  C   UNL     1     -17.127 -39.890  -8.523  1.00  0.00     0.028 C 
BRANCH   6   7
ATOM      7  C   UNL     1     -17.860 -41.203  -8.387  1.00  0.00    -0.028 C 
ATOM      8  C   UNL     1     -19.158 -41.352  -8.042  1.00  0.00    -0.070 CG0
ATOM      9  C   UNL     1     -19.708 -42.753  -7.951  1.00  0.00     0.039 C 
ATOM     10  G   UNL     1     -20.072 -40.189  -7.705  1.00  0.00     0.000 G0
ENDBRANCH   6   7
ENDBRANCH   5   6
ENDBRANCH   3   5
ENDBRANCH   1   3
BRANCH   1  11
ATOM     11  C   UNL     1     -18.327 -39.248  -4.634  1.00  0.00     0.087 C 
BRANCH  11  12
ATOM     12  C   UNL     1     -19.432 -38.736  -5.592  1.00  0.00     0.066 C 
BRANCH  12  13
ATOM     13  C   UNL     1     -20.141 -39.925  -6.221  1.00  0.00     0.140 C 
ATOM     14  O   UNL     1     -20.830 -40.653  -5.519  1.00  0.00    -0.299 OA
BRANCH  13  15
ATOM     15  C   UNL     1     -20.090 -40.179  -7.706  1.00  0.00     0.106 CG0
ATOM     16  G   UNL     1     -19.170 -41.340  -8.031  1.00  0.00     0.000 G0
ENDBRANCH  13  15
ENDBRANCH  12  13
BRANCH  12  17
ATOM     17  C   UNL     1     -20.463 -37.809  -4.868  1.00  0.00    -0.006 C 
ATOM     18  C   UNL     1     -19.786 -36.859  -3.861  1.00  0.00     0.008 C 
ATOM     19  C   UNL     1     -21.265 -36.960  -5.876  1.00  0.00     0.008 C 
ENDBRANCH  12  17
ENDBRANCH  11  12
ENDBRANCH   1  11
TORSDOF 1
ENDMDL
MODEL 9
REMARK VINA RESULT:    -4.271      2.053      5.213
REMARK INTER + INTRA:          -6.523
REMARK INTER:                  -7.112
REMARK INTRA:                   0.589
REMARK UNBOUND:                -0.006
REMARK SMILES CC1=CCC[C@@H](C)C(=O)C[C@H](C(C)C)C(=O)C1
REMARK SMILES IDX 8 1 9 2 6 3 7 4 5 5 4 6 3 7 2 8 1 9 10 11 11 12 15 13 16 14
REMARK SMILES IDX 17 15 12 17 13 18 14 19
REMARK H PARENT
REMARK Flexibility Score: 70.00
ROOT
ATOM      1  C   UNL     1     -18.769 -40.240  -6.008  1.00  0.00     0.136 C 
ATOM      2  O   UNL     1     -18.267 -40.040  -7.105  1.00  0.00    -0.299 OA
ENDROOT
BRANCH   1   3
ATOM      3  C   UNL     1     -20.078 -40.992  -5.902  1.00  0.00     0.053 C 
ATOM      4  C   UNL     1     -20.044 -42.204  -6.837  1.00  0.00     0.016 C 
BRANCH   3   5
ATOM      5  C   UNL     1     -21.290 -40.091  -6.237  1.00  0.00     0.015 C 
BRANCH   5   6
ATOM      6  C   UNL     1     -20.920 -38.610  -6.401  1.00  0.00     0.028 C 
BRANCH   6   7
ATOM      7  C   UNL     1     -21.743 -37.733  -5.488  1.00  0.00    -0.028 C 
ATOM      8  C   UNL     1     -21.261 -36.766  -4.676  1.00  0.00    -0.070 CG0
ATOM      9  C   UNL     1     -22.247 -35.999  -3.830  1.00  0.00     0.039 C 
ATOM     10  G   UNL     1     -19.786 -36.442  -4.545  1.00  0.00     0.000 G0
ENDBRANCH   6   7
ENDBRANCH   5   6
ENDBRANCH   3   5
ENDBRANCH   1   3
BRANCH   1  11
ATOM     11  C   UNL     1     -18.042 -39.763  -4.777  1.00  0.00     0.087 C 
BRANCH  11  12
ATOM     12  C   UNL     1     -17.860 -38.223  -4.774  1.00  0.00     0.066 C 
BRANCH  12  13
ATOM     13  C   UNL     1     -18.991 -37.587  -3.982  1.00  0.00     0.140 C 
ATOM     14  O   UNL     1     -19.223 -37.978  -2.846  1.00  0.00    -0.299 OA
BRANCH  13  15
ATOM     15  C   UNL     1     -19.777 -36.422  -4.526  1.00  0.00     0.106 CG0
ATOM     16  G   UNL     1     -21.245 -36.773  -4.672  1.00  0.00     0.000 G0
ENDBRANCH  13  15
ENDBRANCH  12  13
BRANCH  12  17
ATOM     17  C   UNL     1     -16.475 -37.790  -4.189  1.00  0.00    -0.006 C 
ATOM     18  C   UNL     1     -15.300 -38.251  -5.074  1.00  0.00     0.008 C 
ATOM     19  C   UNL     1     -16.388 -36.260  -4.020  1.00  0.00     0.008 C 
ENDBRANCH  12  17
ENDBRANCH  11  12
ENDBRANCH   1  11
TORSDOF 1
ENDMDL
