MODEL 1
REMARK VINA RESULT:    -6.414      0.000      0.000
REMARK INTER + INTRA:          -6.789
REMARK INTER:                  -6.789
REMARK INTRA:                   0.000
REMARK UNBOUND:                 0.000
REMARK SMILES O=c1ccc2cc(O)c(O)cc2o1
REMARK SMILES IDX 4 1 3 2 2 3 1 4 13 5 12 6 11 7 9 8 7 9 6 10 5 11 8 12 10 14
REMARK H PARENT 8 13 10 15
REMARK Flexibility Score: inf
ROOT
ATOM      1  C   UNL     1      72.931  41.251  -3.964  1.00  0.00     0.019 A 
ATOM      2  C   UNL     1      73.372  40.811  -5.211  1.00  0.00     0.094 A 
ATOM      3  C   UNL     1      74.168  41.660  -5.987  1.00  0.00     0.336 A 
ATOM      4  O   UNL     1      74.577  41.283  -7.116  1.00  0.00    -0.246 OA
ATOM      5  O   UNL     1      74.500  42.869  -5.538  1.00  0.00    -0.423 OA
ATOM      6  C   UNL     1      74.101  43.327  -4.354  1.00  0.00     0.142 A 
ATOM      7  C   UNL     1      74.481  44.606  -3.935  1.00  0.00     0.098 A 
ATOM      8  C   UNL     1      74.063  45.093  -2.687  1.00  0.00     0.161 A 
ATOM      9  C   UNL     1      73.262  44.296  -1.856  1.00  0.00     0.158 A 
ATOM     10  C   UNL     1      72.877  43.012  -2.271  1.00  0.00     0.062 A 
ATOM     11  C   UNL     1      73.294  42.525  -3.517  1.00  0.00     0.022 A 
ENDROOT
BRANCH   9  12
ATOM     12  O   UNL     1      72.851  44.789  -0.619  1.00  0.00    -0.504 OA
ATOM     13  H   UNL     1      71.943  45.223  -0.496  1.00  0.00     0.293 HD
ENDBRANCH   9  12
BRANCH   8  14
ATOM     14  O   UNL     1      74.440  46.367  -2.267  1.00  0.00    -0.504 OA
ATOM     15  H   UNL     1      74.442  46.623  -1.287  1.00  0.00     0.293 HD
ENDBRANCH   8  14
TORSDOF 2
ENDMDL
MODEL 2
REMARK VINA RESULT:    -6.262      1.191      5.014
REMARK INTER + INTRA:          -6.628
REMARK INTER:                  -6.628
REMARK INTRA:                   0.000
REMARK UNBOUND:                 0.000
REMARK SMILES O=c1ccc2cc(O)c(O)cc2o1
REMARK SMILES IDX 4 1 3 2 2 3 1 4 13 5 12 6 11 7 9 8 7 9 6 10 5 11 8 12 10 14
REMARK H PARENT 8 13 10 15
REMARK Flexibility Score: inf
ROOT
ATOM      1  C   UNL     1      74.199  45.133  -3.477  1.00  0.00     0.019 A 
ATOM      2  C   UNL     1      73.624  45.438  -2.244  1.00  0.00     0.094 A 
ATOM      3  C   UNL     1      72.885  44.455  -1.579  1.00  0.00     0.336 A 
ATOM      4  O   UNL     1      72.357  44.709  -0.465  1.00  0.00    -0.246 OA
ATOM      5  O   UNL     1      72.733  43.246  -2.117  1.00  0.00    -0.423 OA
ATOM      6  C   UNL     1      73.265  42.914  -3.291  1.00  0.00     0.142 A 
ATOM      7  C   UNL     1      73.073  41.628  -3.807  1.00  0.00     0.098 A 
ATOM      8  C   UNL     1      73.632  41.273  -5.043  1.00  0.00     0.161 A 
ATOM      9  C   UNL     1      74.386  42.209  -5.767  1.00  0.00     0.158 A 
ATOM     10  C   UNL     1      74.582  43.500  -5.255  1.00  0.00     0.062 A 
ATOM     11  C   UNL     1      74.024  43.856  -4.019  1.00  0.00     0.022 A 
ENDROOT
BRANCH   9  12
ATOM     12  O   UNL     1      74.937  41.847  -6.995  1.00  0.00    -0.504 OA
ATOM     13  H   UNL     1      75.488  41.003  -7.101  1.00  0.00     0.293 HD
ENDBRANCH   9  12
BRANCH   8  14
ATOM     14  O   UNL     1      73.442  39.993  -5.560  1.00  0.00    -0.504 OA
ATOM     15  H   UNL     1      72.818  39.824  -6.341  1.00  0.00     0.293 HD
ENDBRANCH   8  14
TORSDOF 2
ENDMDL
MODEL 3
REMARK VINA RESULT:    -6.198      1.344      2.326
REMARK INTER + INTRA:          -6.561
REMARK INTER:                  -6.561
REMARK INTRA:                   0.000
REMARK UNBOUND:                 0.000
REMARK SMILES O=c1ccc2cc(O)c(O)cc2o1
REMARK SMILES IDX 4 1 3 2 2 3 1 4 13 5 12 6 11 7 9 8 7 9 6 10 5 11 8 12 10 14
REMARK H PARENT 8 13 10 15
REMARK Flexibility Score: inf
ROOT
ATOM      1  C   UNL     1      74.422  42.563  -5.363  1.00  0.00     0.019 A 
ATOM      2  C   UNL     1      73.859  41.325  -5.670  1.00  0.00     0.094 A 
ATOM      3  C   UNL     1      72.888  40.792  -4.817  1.00  0.00     0.336 A 
ATOM      4  O   UNL     1      72.368  39.675  -5.076  1.00  0.00    -0.246 OA
ATOM      5  O   UNL     1      72.508  41.458  -3.728  1.00  0.00    -0.423 OA
ATOM      6  C   UNL     1      73.020  42.641  -3.400  1.00  0.00     0.142 A 
ATOM      7  C   UNL     1      72.581  43.295  -2.244  1.00  0.00     0.098 A 
ATOM      8  C   UNL     1      73.117  44.543  -1.893  1.00  0.00     0.161 A 
ATOM      9  C   UNL     1      74.096  45.140  -2.702  1.00  0.00     0.158 A 
ATOM     10  C   UNL     1      74.539  44.488  -3.862  1.00  0.00     0.062 A 
ATOM     11  C   UNL     1      74.005  43.241  -4.215  1.00  0.00     0.022 A 
ENDROOT
BRANCH   9  12
ATOM     12  O   UNL     1      74.623  46.379  -2.344  1.00  0.00    -0.504 OA
ATOM     13  H   UNL     1      74.332  47.232  -2.808  1.00  0.00     0.293 HD
ENDBRANCH   9  12
BRANCH   8  14
ATOM     14  O   UNL     1      72.682  45.197  -0.741  1.00  0.00    -0.504 OA
ATOM     15  H   UNL     1      72.655  44.728   0.156  1.00  0.00     0.293 HD
ENDBRANCH   8  14
TORSDOF 2
ENDMDL
MODEL 4
REMARK VINA RESULT:    -5.985      3.096      4.397
REMARK INTER + INTRA:          -6.334
REMARK INTER:                  -6.334
REMARK INTRA:                   0.000
REMARK UNBOUND:                 0.000
REMARK SMILES O=c1ccc2cc(O)c(O)cc2o1
REMARK SMILES IDX 4 1 3 2 2 3 1 4 13 5 12 6 11 7 9 8 7 9 6 10 5 11 8 12 10 14
REMARK H PARENT 8 13 10 15
REMARK Flexibility Score: inf
ROOT
ATOM      1  C   UNL     1      71.912  38.922  -7.907  1.00  0.00     0.019 A 
ATOM      2  C   UNL     1      72.801  38.933  -8.982  1.00  0.00     0.094 A 
ATOM      3  C   UNL     1      74.008  39.628  -8.856  1.00  0.00     0.336 A 
ATOM      4  O   UNL     1      74.824  39.651  -9.814  1.00  0.00    -0.246 OA
ATOM      5  O   UNL     1      74.302  40.268  -7.726  1.00  0.00    -0.423 OA
ATOM      6  C   UNL     1      73.483  40.282  -6.677  1.00  0.00     0.142 A 
ATOM      7  C   UNL     1      73.846  40.971  -5.516  1.00  0.00     0.098 A 
ATOM      8  C   UNL     1      72.986  40.988  -4.408  1.00  0.00     0.161 A 
ATOM      9  C   UNL     1      71.757  40.313  -4.462  1.00  0.00     0.158 A 
ATOM     10  C   UNL     1      71.388  39.620  -5.625  1.00  0.00     0.062 A 
ATOM     11  C   UNL     1      72.246  39.602  -6.733  1.00  0.00     0.022 A 
ENDROOT
BRANCH   9  12
ATOM     12  O   UNL     1      70.909  40.337  -3.357  1.00  0.00    -0.504 OA
ATOM     13  H   UNL     1      70.980  41.061  -2.651  1.00  0.00     0.293 HD
ENDBRANCH   9  12
BRANCH   8  14
ATOM     14  O   UNL     1      73.345  41.674  -3.249  1.00  0.00    -0.504 OA
ATOM     15  H   UNL     1      72.667  41.881  -2.524  1.00  0.00     0.293 HD
ENDBRANCH   8  14
TORSDOF 2
ENDMDL
MODEL 5
REMARK VINA RESULT:    -5.971      2.763      6.046
REMARK INTER + INTRA:          -6.320
REMARK INTER:                  -6.320
REMARK INTRA:                   0.000
REMARK UNBOUND:                 0.000
REMARK SMILES O=c1ccc2cc(O)c(O)cc2o1
REMARK SMILES IDX 4 1 3 2 2 3 1 4 13 5 12 6 11 7 9 8 7 9 6 10 5 11 8 12 10 14
REMARK H PARENT 8 13 10 15
REMARK Flexibility Score: inf
ROOT
ATOM      1  C   UNL     1      71.455  39.827  -5.162  1.00  0.00     0.019 A 
ATOM      2  C   UNL     1      71.713  40.613  -4.040  1.00  0.00     0.094 A 
ATOM      3  C   UNL     1      72.866  41.404  -4.017  1.00  0.00     0.336 A 
ATOM      4  O   UNL     1      73.118  42.120  -3.013  1.00  0.00    -0.246 OA
ATOM      5  O   UNL     1      73.704  41.404  -5.052  1.00  0.00    -0.423 OA
ATOM      6  C   UNL     1      73.494  40.669  -6.142  1.00  0.00     0.142 A 
ATOM      7  C   UNL     1      74.409  40.711  -7.199  1.00  0.00     0.098 A 
ATOM      8  C   UNL     1      74.193  39.938  -8.350  1.00  0.00     0.161 A 
ATOM      9  C   UNL     1      73.056  39.121  -8.443  1.00  0.00     0.158 A 
ATOM     10  C   UNL     1      72.136  39.075  -7.386  1.00  0.00     0.062 A 
ATOM     11  C   UNL     1      72.350  39.846  -6.235  1.00  0.00     0.022 A 
ENDROOT
BRANCH   9  12
ATOM     12  O   UNL     1      72.851  38.356  -9.590  1.00  0.00    -0.504 OA
ATOM     13  H   UNL     1      73.457  38.440 -10.398  1.00  0.00     0.293 HD
ENDBRANCH   9  12
BRANCH   8  14
ATOM     14  O   UNL     1      75.103  39.977  -9.405  1.00  0.00    -0.504 OA
ATOM     15  H   UNL     1      74.796  39.939 -10.370  1.00  0.00     0.293 HD
ENDBRANCH   8  14
TORSDOF 2
ENDMDL
MODEL 6
REMARK VINA RESULT:    -5.950      2.408      6.131
REMARK INTER + INTRA:          -6.297
REMARK INTER:                  -6.297
REMARK INTRA:                   0.000
REMARK UNBOUND:                 0.000
REMARK SMILES O=c1ccc2cc(O)c(O)cc2o1
REMARK SMILES IDX 4 1 3 2 2 3 1 4 13 5 12 6 11 7 9 8 7 9 6 10 5 11 8 12 10 14
REMARK H PARENT 8 13 10 15
REMARK Flexibility Score: inf
ROOT
ATOM      1  C   UNL     1      74.976  42.198  -6.025  1.00  0.00     0.019 A 
ATOM      2  C   UNL     1      74.742  42.690  -4.741  1.00  0.00     0.094 A 
ATOM      3  C   UNL     1      73.727  42.116  -3.970  1.00  0.00     0.336 A 
ATOM      4  O   UNL     1      73.500  42.545  -2.808  1.00  0.00    -0.246 OA
ATOM      5  O   UNL     1      72.996  41.115  -4.455  1.00  0.00    -0.423 OA
ATOM      6  C   UNL     1      73.186  40.616  -5.674  1.00  0.00     0.142 A 
ATOM      7  C   UNL     1      72.387  39.562  -6.131  1.00  0.00     0.098 A 
ATOM      8  C   UNL     1      72.584  39.033  -7.415  1.00  0.00     0.161 A 
ATOM      9  C   UNL     1      73.585  39.559  -8.245  1.00  0.00     0.158 A 
ATOM     10  C   UNL     1      74.389  40.616  -7.792  1.00  0.00     0.062 A 
ATOM     11  C   UNL     1      74.194  41.146  -6.510  1.00  0.00     0.022 A 
ENDROOT
BRANCH   9  12
ATOM     12  O   UNL     1      73.772  39.027  -9.520  1.00  0.00    -0.504 OA
ATOM     13  H   UNL     1      73.251  38.218  -9.837  1.00  0.00     0.293 HD
ENDBRANCH   9  12
BRANCH   8  14
ATOM     14  O   UNL     1      71.789  37.984  -7.873  1.00  0.00    -0.504 OA
ATOM     15  H   UNL     1      70.803  38.112  -8.069  1.00  0.00     0.293 HD
ENDBRANCH   8  14
TORSDOF 2
ENDMDL
MODEL 7
REMARK VINA RESULT:    -5.792      2.868      4.452
REMARK INTER + INTRA:          -6.130
REMARK INTER:                  -6.130
REMARK INTRA:                   0.000
REMARK UNBOUND:                 0.000
REMARK SMILES O=c1ccc2cc(O)c(O)cc2o1
REMARK SMILES IDX 4 1 3 2 2 3 1 4 13 5 12 6 11 7 9 8 7 9 6 10 5 11 8 12 10 14
REMARK H PARENT 8 13 10 15
REMARK Flexibility Score: inf
ROOT
ATOM      1  C   UNL     1      74.875  40.972  -7.415  1.00  0.00     0.019 A 
ATOM      2  C   UNL     1      74.728  40.250  -8.599  1.00  0.00     0.094 A 
ATOM      3  C   UNL     1      73.625  39.402  -8.742  1.00  0.00     0.336 A 
ATOM      4  O   UNL     1      73.474  38.740  -9.803  1.00  0.00    -0.246 OA
ATOM      5  O   UNL     1      72.730  39.288  -7.763  1.00  0.00    -0.423 OA
ATOM      6  C   UNL     1      72.834  39.960  -6.618  1.00  0.00     0.142 A 
ATOM      7  C   UNL     1      71.862  39.800  -5.625  1.00  0.00     0.098 A 
ATOM      8  C   UNL     1      71.966  40.506  -4.417  1.00  0.00     0.161 A 
ATOM      9  C   UNL     1      73.047  41.375  -4.203  1.00  0.00     0.158 A 
ATOM     10  C   UNL     1      74.024  41.538  -5.196  1.00  0.00     0.062 A 
ATOM     11  C   UNL     1      73.921  40.834  -6.403  1.00  0.00     0.022 A 
ENDROOT
BRANCH   9  12
ATOM     12  O   UNL     1      73.142  42.071  -2.999  1.00  0.00    -0.504 OA
ATOM     13  H   UNL     1      72.348  42.160  -2.375  1.00  0.00     0.293 HD
ENDBRANCH   9  12
BRANCH   8  14
ATOM     14  O   UNL     1      71.000  40.349  -3.425  1.00  0.00    -0.504 OA
ATOM     15  H   UNL     1      70.054  40.063  -3.647  1.00  0.00     0.293 HD
ENDBRANCH   8  14
TORSDOF 2
ENDMDL
MODEL 8
REMARK VINA RESULT:    -5.745      1.250      4.483
REMARK INTER + INTRA:          -6.081
REMARK INTER:                  -6.081
REMARK INTRA:                   0.000
REMARK UNBOUND:                 0.000
REMARK SMILES O=c1ccc2cc(O)c(O)cc2o1
REMARK SMILES IDX 4 1 3 2 2 3 1 4 13 5 12 6 11 7 9 8 7 9 6 10 5 11 8 12 10 14
REMARK H PARENT 8 13 10 15
REMARK Flexibility Score: inf
ROOT
ATOM      1  C   UNL     1      72.702  43.512  -2.250  1.00  0.00     0.019 A 
ATOM      2  C   UNL     1      73.238  44.776  -2.007  1.00  0.00     0.094 A 
ATOM      3  C   UNL     1      74.172  45.301  -2.906  1.00  0.00     0.336 A 
ATOM      4  O   UNL     1      74.668  46.440  -2.705  1.00  0.00    -0.246 OA
ATOM      5  O   UNL     1      74.542  44.602  -3.977  1.00  0.00    -0.423 OA
ATOM      6  C   UNL     1      74.055  43.393  -4.246  1.00  0.00     0.142 A 
ATOM      7  C   UNL     1      74.481  42.706  -5.387  1.00  0.00     0.098 A 
ATOM      8  C   UNL     1      73.971  41.431  -5.675  1.00  0.00     0.161 A 
ATOM      9  C   UNL     1      73.030  40.842  -4.817  1.00  0.00     0.158 A 
ATOM     10  C   UNL     1      72.599  41.527  -3.671  1.00  0.00     0.062 A 
ATOM     11  C   UNL     1      73.108  42.800  -3.382  1.00  0.00     0.022 A 
ENDROOT
BRANCH   9  12
ATOM     12  O   UNL     1      72.530  39.575  -5.111  1.00  0.00    -0.504 OA
ATOM     13  H   UNL     1      71.560  39.336  -4.940  1.00  0.00     0.293 HD
ENDBRANCH   9  12
BRANCH   8  14
ATOM     14  O   UNL     1      74.394  40.743  -6.811  1.00  0.00    -0.504 OA
ATOM     15  H   UNL     1      75.199  40.129  -6.789  1.00  0.00     0.293 HD
ENDBRANCH   8  14
TORSDOF 2
ENDMDL
MODEL 9
REMARK VINA RESULT:    -5.008     11.009     13.152
REMARK INTER + INTRA:          -5.301
REMARK INTER:                  -5.301
REMARK INTRA:                   0.000
REMARK UNBOUND:                 0.000
REMARK SMILES O=c1ccc2cc(O)c(O)cc2o1
REMARK SMILES IDX 4 1 3 2 2 3 1 4 13 5 12 6 11 7 9 8 7 9 6 10 5 11 8 12 10 14
REMARK H PARENT 8 13 10 15
REMARK Flexibility Score: inf
ROOT
ATOM      1  C   UNL     1      72.910  49.118   8.208  1.00  0.00     0.019 A 
ATOM      2  C   UNL     1      73.756  48.533   7.266  1.00  0.00     0.094 A 
ATOM      3  C   UNL     1      73.197  47.794   6.219  1.00  0.00     0.336 A 
ATOM      4  O   UNL     1      73.943  47.257   5.358  1.00  0.00    -0.246 OA
ATOM      5  O   UNL     1      71.876  47.651   6.125  1.00  0.00    -0.423 OA
ATOM      6  C   UNL     1      71.034  48.193   7.001  1.00  0.00     0.142 A 
ATOM      7  C   UNL     1      69.656  48.011   6.851  1.00  0.00     0.098 A 
ATOM      8  C   UNL     1      68.764  48.580   7.772  1.00  0.00     0.161 A 
ATOM      9  C   UNL     1      69.254  49.335   8.849  1.00  0.00     0.158 A 
ATOM     10  C   UNL     1      70.636  49.521   9.004  1.00  0.00     0.062 A 
ATOM     11  C   UNL     1      71.528  48.953   8.085  1.00  0.00     0.022 A 
ENDROOT
BRANCH   9  12
ATOM     12  O   UNL     1      68.360  49.895   9.759  1.00  0.00    -0.504 OA
ATOM     13  H   UNL     1      68.677  50.290  10.637  1.00  0.00     0.293 HD
ENDBRANCH   9  12
BRANCH   8  14
ATOM     14  O   UNL     1      67.390  48.399   7.626  1.00  0.00    -0.504 OA
ATOM     15  H   UNL     1      66.770  48.375   8.427  1.00  0.00     0.293 HD
ENDBRANCH   8  14
TORSDOF 2
ENDMDL
