MODEL 1
REMARK VINA RESULT:    -3.095      0.000      0.000
REMARK INTER + INTRA:          -3.948
REMARK INTER:                  -3.819
REMARK INTRA:                  -0.129
REMARK UNBOUND:                -0.129
REMARK SMILES CCCCCC(=O)[O-]
REMARK SMILES IDX 4 1 5 2 6 3 7 4 8 5 3 6 2 7 1 8
REMARK H PARENT
REMARK Flexibility Score: inf
ROOT
ATOM      1  C   UNL     1      28.954  13.659 -17.057  1.00  0.00     0.006 C 
ENDROOT
BRANCH   1   2
ATOM      2  C   UNL     1      29.695  14.877 -16.498  1.00  0.00     0.053 C 
BRANCH   2   3
ATOM      3  C   UNL     1      29.944  14.712 -15.032  1.00  0.00     0.041 C 
ATOM      4  O   UNL     1      29.408  15.495 -14.206  1.00  0.00    -0.550 OA
ATOM      5  O   UNL     1      30.808  13.722 -14.581  1.00  0.00    -0.550 OA
ENDBRANCH   2   3
ENDBRANCH   1   2
BRANCH   1   6
ATOM      6  C   UNL     1      29.621  13.151 -18.340  1.00  0.00     0.000 C 
BRANCH   6   7
ATOM      7  C   UNL     1      30.831  12.266 -18.019  1.00  0.00    -0.003 C 
ATOM      8  C   UNL     1      30.770  10.948 -18.785  1.00  0.00     0.004 C 
ENDBRANCH   6   7
ENDBRANCH   1   6
TORSDOF 4
ENDMDL
MODEL 2
REMARK VINA RESULT:    -3.069      1.098      1.501
REMARK INTER + INTRA:          -3.917
REMARK INTER:                  -3.706
REMARK INTRA:                  -0.211
REMARK UNBOUND:                -0.129
REMARK SMILES CCCCCC(=O)[O-]
REMARK SMILES IDX 4 1 5 2 6 3 7 4 8 5 3 6 2 7 1 8
REMARK H PARENT
REMARK Flexibility Score: inf
ROOT
ATOM      1  C   UNL     1      28.892  12.297 -16.068  1.00  0.00     0.006 C 
ENDROOT
BRANCH   1   2
ATOM      2  C   UNL     1      28.601  12.964 -14.720  1.00  0.00     0.053 C 
BRANCH   2   3
ATOM      3  C   UNL     1      29.581  14.063 -14.458  1.00  0.00     0.041 C 
ATOM      4  O   UNL     1      29.183  15.178 -14.030  1.00  0.00    -0.550 OA
ATOM      5  O   UNL     1      30.929  13.873 -14.733  1.00  0.00    -0.550 OA
ENDBRANCH   2   3
ENDBRANCH   1   2
BRANCH   1   6
ATOM      6  C   UNL     1      28.559  13.240 -17.231  1.00  0.00     0.000 C 
BRANCH   6   7
ATOM      7  C   UNL     1      29.693  13.264 -18.262  1.00  0.00    -0.003 C 
ATOM      8  C   UNL     1      30.439  11.933 -18.293  1.00  0.00     0.004 C 
ENDBRANCH   6   7
ENDBRANCH   1   6
TORSDOF 4
ENDMDL
MODEL 3
REMARK VINA RESULT:    -3.068      1.320      1.908
REMARK INTER + INTRA:          -3.914
REMARK INTER:                  -3.774
REMARK INTRA:                  -0.141
REMARK UNBOUND:                -0.129
REMARK SMILES CCCCCC(=O)[O-]
REMARK SMILES IDX 4 1 5 2 6 3 7 4 8 5 3 6 2 7 1 8
REMARK H PARENT
REMARK Flexibility Score: inf
ROOT
ATOM      1  C   UNL     1      29.595  13.118 -18.414  1.00  0.00     0.006 C 
ENDROOT
BRANCH   1   2
ATOM      2  C   UNL     1      28.873  13.546 -17.133  1.00  0.00     0.053 C 
BRANCH   2   3
ATOM      3  C   UNL     1      29.569  14.713 -16.505  1.00  0.00     0.041 C 
ATOM      4  O   UNL     1      29.853  14.697 -15.279  1.00  0.00    -0.550 OA
ATOM      5  O   UNL     1      29.860  15.839 -17.264  1.00  0.00    -0.550 OA
ENDBRANCH   2   3
ENDBRANCH   1   2
BRANCH   1   6
ATOM      6  C   UNL     1      30.849  12.298 -18.091  1.00  0.00     0.000 C 
BRANCH   6   7
ATOM      7  C   UNL     1      30.838  10.959 -18.837  1.00  0.00    -0.003 C 
ATOM      8  C   UNL     1      30.558   9.800 -17.885  1.00  0.00     0.004 C 
ENDBRANCH   6   7
ENDBRANCH   1   6
TORSDOF 4
ENDMDL
MODEL 4
REMARK VINA RESULT:    -3.019     20.650     21.099
REMARK INTER + INTRA:          -3.855
REMARK INTER:                  -3.688
REMARK INTRA:                  -0.167
REMARK UNBOUND:                -0.129
REMARK SMILES CCCCCC(=O)[O-]
REMARK SMILES IDX 4 1 5 2 6 3 7 4 8 5 3 6 2 7 1 8
REMARK H PARENT
REMARK Flexibility Score: inf
ROOT
ATOM      1  C   UNL     1      16.084   0.175 -12.985  1.00  0.00     0.006 C 
ENDROOT
BRANCH   1   2
ATOM      2  C   UNL     1      14.938  -0.127 -12.014  1.00  0.00     0.053 C 
BRANCH   2   3
ATOM      3  C   UNL     1      13.734  -0.610 -12.761  1.00  0.00     0.041 C 
ATOM      4  O   UNL     1      12.586  -0.207 -12.440  1.00  0.00    -0.550 OA
ATOM      5  O   UNL     1      13.876  -1.544 -13.779  1.00  0.00    -0.550 OA
ENDBRANCH   2   3
ENDBRANCH   1   2
BRANCH   1   6
ATOM      6  C   UNL     1      17.213  -0.852 -12.838  1.00  0.00     0.000 C 
BRANCH   6   7
ATOM      7  C   UNL     1      17.101  -1.607 -11.508  1.00  0.00    -0.003 C 
ATOM      8  C   UNL     1      18.447  -1.666 -10.793  1.00  0.00     0.004 C 
ENDBRANCH   6   7
ENDBRANCH   1   6
TORSDOF 4
ENDMDL
MODEL 5
REMARK VINA RESULT:    -3.017     20.807     21.320
REMARK INTER + INTRA:          -3.851
REMARK INTER:                  -3.684
REMARK INTRA:                  -0.168
REMARK UNBOUND:                -0.129
REMARK SMILES CCCCCC(=O)[O-]
REMARK SMILES IDX 4 1 5 2 6 3 7 4 8 5 3 6 2 7 1 8
REMARK H PARENT
REMARK Flexibility Score: inf
ROOT
ATOM      1  C   UNL     1      14.310  -0.157 -12.291  1.00  0.00     0.006 C 
ENDROOT
BRANCH   1   2
ATOM      2  C   UNL     1      14.170  -1.251 -13.354  1.00  0.00     0.053 C 
BRANCH   2   3
ATOM      3  C   UNL     1      14.068  -0.645 -14.718  1.00  0.00     0.041 C 
ATOM      4  O   UNL     1      15.106  -0.273 -15.325  1.00  0.00    -0.550 OA
ATOM      5  O   UNL     1      12.822  -0.447 -15.299  1.00  0.00    -0.550 OA
ENDBRANCH   2   3
ENDBRANCH   1   2
BRANCH   1   6
ATOM      6  C   UNL     1      15.718  -0.158 -11.683  1.00  0.00     0.000 C 
BRANCH   6   7
ATOM      7  C   UNL     1      16.431  -1.488 -11.951  1.00  0.00    -0.003 C 
ATOM      8  C   UNL     1      17.775  -1.547 -11.230  1.00  0.00     0.004 C 
ENDBRANCH   6   7
ENDBRANCH   1   6
TORSDOF 4
ENDMDL
MODEL 6
REMARK VINA RESULT:    -3.004      6.255      6.781
REMARK INTER + INTRA:          -3.836
REMARK INTER:                  -3.722
REMARK INTRA:                  -0.114
REMARK UNBOUND:                -0.129
REMARK SMILES CCCCCC(=O)[O-]
REMARK SMILES IDX 4 1 5 2 6 3 7 4 8 5 3 6 2 7 1 8
REMARK H PARENT
REMARK Flexibility Score: inf
ROOT
ATOM      1  C   UNL     1      26.984  12.078 -10.757  1.00  0.00     0.006 C 
ENDROOT
BRANCH   1   2
ATOM      2  C   UNL     1      26.916  13.318 -11.654  1.00  0.00     0.053 C 
BRANCH   2   3
ATOM      3  C   UNL     1      25.753  14.178 -11.271  1.00  0.00     0.041 C 
ATOM      4  O   UNL     1      25.382  14.243 -10.071  1.00  0.00    -0.550 OA
ATOM      5  O   UNL     1      25.049  14.869 -12.248  1.00  0.00    -0.550 OA
ENDBRANCH   2   3
ENDBRANCH   1   2
BRANCH   1   6
ATOM      6  C   UNL     1      28.363  11.412 -10.843  1.00  0.00     0.000 C 
BRANCH   6   7
ATOM      7  C   UNL     1      29.450  12.440 -11.176  1.00  0.00    -0.003 C 
ATOM      8  C   UNL     1      30.732  12.158 -10.399  1.00  0.00     0.004 C 
ENDBRANCH   6   7
ENDBRANCH   1   6
TORSDOF 4
ENDMDL
MODEL 7
REMARK VINA RESULT:    -2.989      3.299      4.915
REMARK INTER + INTRA:          -3.817
REMARK INTER:                  -3.652
REMARK INTRA:                  -0.166
REMARK UNBOUND:                -0.129
REMARK SMILES CCCCCC(=O)[O-]
REMARK SMILES IDX 4 1 5 2 6 3 7 4 8 5 3 6 2 7 1 8
REMARK H PARENT
REMARK Flexibility Score: inf
ROOT
ATOM      1  C   UNL     1      30.596  11.851 -17.761  1.00  0.00     0.006 C 
ENDROOT
BRANCH   1   2
ATOM      2  C   UNL     1      30.917  10.824 -18.851  1.00  0.00     0.053 C 
BRANCH   2   3
ATOM      3  C   UNL     1      30.556   9.446 -18.394  1.00  0.00     0.041 C 
ATOM      4  O   UNL     1      30.797   8.452 -19.128  1.00  0.00    -0.550 OA
ATOM      5  O   UNL     1      29.907   9.264 -17.180  1.00  0.00    -0.550 OA
ENDBRANCH   2   3
ENDBRANCH   1   2
BRANCH   1   6
ATOM      6  C   UNL     1      29.722  12.984 -18.313  1.00  0.00     0.000 C 
BRANCH   6   7
ATOM      7  C   UNL     1      28.745  13.494 -17.247  1.00  0.00    -0.003 C 
ATOM      8  C   UNL     1      28.535  12.456 -16.149  1.00  0.00     0.004 C 
ENDBRANCH   6   7
ENDBRANCH   1   6
TORSDOF 4
ENDMDL
MODEL 8
REMARK VINA RESULT:    -2.938      1.348      1.875
REMARK INTER + INTRA:          -3.754
REMARK INTER:                  -3.627
REMARK INTRA:                  -0.127
REMARK UNBOUND:                -0.129
REMARK SMILES CCCCCC(=O)[O-]
REMARK SMILES IDX 4 1 5 2 6 3 7 4 8 5 3 6 2 7 1 8
REMARK H PARENT
REMARK Flexibility Score: inf
ROOT
ATOM      1  C   UNL     1      29.658  14.007 -16.027  1.00  0.00     0.006 C 
ENDROOT
BRANCH   1   2
ATOM      2  C   UNL     1      30.243  15.315 -16.567  1.00  0.00     0.053 C 
BRANCH   2   3
ATOM      3  C   UNL     1      30.165  16.391 -15.530  1.00  0.00     0.041 C 
ATOM      4  O   UNL     1      29.394  16.265 -14.543  1.00  0.00    -0.550 OA
ATOM      5  O   UNL     1      30.907  17.555 -15.679  1.00  0.00    -0.550 OA
ENDBRANCH   2   3
ENDBRANCH   1   2
BRANCH   1   6
ATOM      6  C   UNL     1      28.780  13.322 -17.080  1.00  0.00     0.000 C 
BRANCH   6   7
ATOM      7  C   UNL     1      29.531  13.168 -18.408  1.00  0.00    -0.003 C 
ATOM      8  C   UNL     1      30.422  11.929 -18.397  1.00  0.00     0.004 C 
ENDBRANCH   6   7
ENDBRANCH   1   6
TORSDOF 4
ENDMDL
MODEL 9
REMARK VINA RESULT:    -2.899     20.830     21.326
REMARK INTER + INTRA:          -3.706
REMARK INTER:                  -3.495
REMARK INTRA:                  -0.211
REMARK UNBOUND:                -0.129
REMARK SMILES CCCCCC(=O)[O-]
REMARK SMILES IDX 4 1 5 2 6 3 7 4 8 5 3 6 2 7 1 8
REMARK H PARENT
REMARK Flexibility Score: inf
ROOT
ATOM      1  C   UNL     1      14.247  -0.157 -12.441  1.00  0.00     0.006 C 
ENDROOT
BRANCH   1   2
ATOM      2  C   UNL     1      13.995  -1.353 -13.364  1.00  0.00     0.053 C 
BRANCH   2   3
ATOM      3  C   UNL     1      13.343  -0.906 -14.634  1.00  0.00     0.041 C 
ATOM      4  O   UNL     1      12.177  -1.286 -14.916  1.00  0.00    -0.550 OA
ATOM      5  O   UNL     1      14.041  -0.107 -15.531  1.00  0.00    -0.550 OA
ENDBRANCH   2   3
ENDBRANCH   1   2
BRANCH   1   6
ATOM      6  C   UNL     1      15.703  -0.132 -11.959  1.00  0.00     0.000 C 
BRANCH   6   7
ATOM      7  C   UNL     1      16.659  -0.570 -13.074  1.00  0.00    -0.003 C 
ATOM      8  C   UNL     1      17.098   0.620 -13.923  1.00  0.00     0.004 C 
ENDBRANCH   6   7
ENDBRANCH   1   6
TORSDOF 4
ENDMDL
