MODEL 1
REMARK VINA RESULT:    -3.532      0.000      0.000
REMARK INTER + INTRA:          -3.635
REMARK INTER:                  -3.635
REMARK INTRA:                   0.000
REMARK UNBOUND:                 0.000
REMARK SMILES Nc1ncnc2nc[nH]c12
REMARK SMILES IDX 8 1 7 2 6 3 5 4 4 5 3 6 2 7 10 8 9 9 1 11
REMARK H PARENT 9 10 1 12 1 13
REMARK Flexibility Score: inf
ROOT
ATOM      1  C   UNL     1     -15.251 -20.458 -35.307  1.00  0.00     0.199 A 
ATOM      2  N   UNL     1     -16.351 -21.043 -35.857  1.00  0.00    -0.217 NA
ATOM      3  C   UNL     1     -16.263 -20.664 -37.143  1.00  0.00     0.182 A 
ATOM      4  N   UNL     1     -17.125 -20.981 -38.139  1.00  0.00    -0.215 NA
ATOM      5  C   UNL     1     -16.867 -20.500 -39.393  1.00  0.00     0.226 A 
ATOM      6  N   UNL     1     -15.763 -19.718 -39.625  1.00  0.00    -0.217 NA
ATOM      7  C   UNL     1     -14.892 -19.397 -38.622  1.00  0.00     0.152 A 
ATOM      8  C   UNL     1     -15.169 -19.896 -37.351  1.00  0.00     0.127 A 
ATOM      9  N   UNL     1     -14.509 -19.750 -36.196  1.00  0.00    -0.340 N 
ATOM     10  H   UNL     1     -13.629 -19.219 -36.009  1.00  0.00     0.168 HD
ENDROOT
BRANCH   7  11
ATOM     11  N   UNL     1     -13.750 -18.583 -38.887  1.00  0.00    -0.382 N 
ATOM     12  H   UNL     1     -13.874 -17.586 -39.171  1.00  0.00     0.158 HD
ATOM     13  H   UNL     1     -12.781 -18.961 -38.803  1.00  0.00     0.158 HD
ENDBRANCH   7  11
TORSDOF 1
ENDMDL
MODEL 2
REMARK VINA RESULT:    -3.346      1.195      3.089
REMARK INTER + INTRA:          -3.444
REMARK INTER:                  -3.444
REMARK INTRA:                   0.000
REMARK UNBOUND:                 0.000
REMARK SMILES Nc1ncnc2nc[nH]c12
REMARK SMILES IDX 8 1 7 2 6 3 5 4 4 5 3 6 2 7 10 8 9 9 1 11
REMARK H PARENT 9 10 1 12 1 13
REMARK Flexibility Score: inf
ROOT
ATOM      1  C   UNL     1     -14.506 -18.928 -39.577  1.00  0.00     0.199 A 
ATOM      2  N   UNL     1     -14.968 -20.134 -40.007  1.00  0.00    -0.217 NA
ATOM      3  C   UNL     1     -15.379 -20.706 -38.862  1.00  0.00     0.182 A 
ATOM      4  N   UNL     1     -15.931 -21.936 -38.727  1.00  0.00    -0.215 NA
ATOM      5  C   UNL     1     -16.288 -22.348 -37.473  1.00  0.00     0.226 A 
ATOM      6  N   UNL     1     -16.088 -21.532 -36.388  1.00  0.00    -0.217 NA
ATOM      7  C   UNL     1     -15.531 -20.291 -36.523  1.00  0.00     0.152 A 
ATOM      8  C   UNL     1     -15.173 -19.886 -37.807  1.00  0.00     0.127 A 
ATOM      9  N   UNL     1     -14.618 -18.747 -38.237  1.00  0.00    -0.340 N 
ATOM     10  H   UNL     1     -14.333 -17.909 -37.683  1.00  0.00     0.168 HD
ENDROOT
BRANCH   7  11
ATOM     11  N   UNL     1     -15.332 -19.459 -35.380  1.00  0.00    -0.382 N 
ATOM     12  H   UNL     1     -14.823 -18.552 -35.476  1.00  0.00     0.158 HD
ATOM     13  H   UNL     1     -15.689 -19.734 -34.438  1.00  0.00     0.158 HD
ENDBRANCH   7  11
TORSDOF 1
ENDMDL
MODEL 3
REMARK VINA RESULT:    -3.300      1.470      2.954
REMARK INTER + INTRA:          -3.396
REMARK INTER:                  -3.396
REMARK INTRA:                   0.000
REMARK UNBOUND:                 0.000
REMARK SMILES Nc1ncnc2nc[nH]c12
REMARK SMILES IDX 8 1 7 2 6 3 5 4 4 5 3 6 2 7 10 8 9 9 1 11
REMARK H PARENT 9 10 1 12 1 13
REMARK Flexibility Score: inf
ROOT
ATOM      1  C   UNL     1     -16.198 -22.714 -38.625  1.00  0.00     0.199 A 
ATOM      2  N   UNL     1     -15.890 -22.021 -39.755  1.00  0.00    -0.217 NA
ATOM      3  C   UNL     1     -15.411 -20.867 -39.260  1.00  0.00     0.182 A 
ATOM      4  N   UNL     1     -14.956 -19.810 -39.974  1.00  0.00    -0.215 NA
ATOM      5  C   UNL     1     -14.503 -18.716 -39.290  1.00  0.00     0.226 A 
ATOM      6  N   UNL     1     -14.515 -18.699 -37.917  1.00  0.00    -0.217 NA
ATOM      7  C   UNL     1     -14.974 -19.765 -37.195  1.00  0.00     0.152 A 
ATOM      8  C   UNL     1     -15.431 -20.871 -37.908  1.00  0.00     0.127 A 
ATOM      9  N   UNL     1     -15.929 -22.037 -37.479  1.00  0.00    -0.340 N 
ATOM     10  H   UNL     1     -16.079 -22.362 -36.498  1.00  0.00     0.168 HD
ENDROOT
BRANCH   7  11
ATOM     11  N   UNL     1     -14.976 -19.725 -35.768  1.00  0.00    -0.382 N 
ATOM     12  H   UNL     1     -15.867 -19.871 -35.243  1.00  0.00     0.158 HD
ATOM     13  H   UNL     1     -14.100 -19.554 -35.227  1.00  0.00     0.158 HD
ENDBRANCH   7  11
TORSDOF 1
ENDMDL
MODEL 4
REMARK VINA RESULT:    -3.206      1.481      2.916
REMARK INTER + INTRA:          -3.300
REMARK INTER:                  -3.300
REMARK INTRA:                   0.000
REMARK UNBOUND:                 0.000
REMARK SMILES Nc1ncnc2nc[nH]c12
REMARK SMILES IDX 8 1 7 2 6 3 5 4 4 5 3 6 2 7 10 8 9 9 1 11
REMARK H PARENT 9 10 1 12 1 13
REMARK Flexibility Score: inf
ROOT
ATOM      1  C   UNL     1     -15.521 -22.432 -40.104  1.00  0.00     0.199 A 
ATOM      2  N   UNL     1     -16.053 -22.747 -38.891  1.00  0.00    -0.217 NA
ATOM      3  C   UNL     1     -15.730 -21.673 -38.151  1.00  0.00     0.182 A 
ATOM      4  N   UNL     1     -16.027 -21.474 -36.844  1.00  0.00    -0.215 NA
ATOM      5  C   UNL     1     -15.612 -20.311 -36.258  1.00  0.00     0.226 A 
ATOM      6  N   UNL     1     -14.912 -19.378 -36.981  1.00  0.00    -0.217 NA
ATOM      7  C   UNL     1     -14.611 -19.577 -38.299  1.00  0.00     0.152 A 
ATOM      8  C   UNL     1     -15.042 -20.767 -38.881  1.00  0.00     0.127 A 
ATOM      9  N   UNL     1     -14.896 -21.228 -40.129  1.00  0.00    -0.340 N 
ATOM     10  H   UNL     1     -14.416 -20.777 -40.940  1.00  0.00     0.168 HD
ENDROOT
BRANCH   7  11
ATOM     11  N   UNL     1     -13.882 -18.592 -39.032  1.00  0.00    -0.382 N 
ATOM     12  H   UNL     1     -14.041 -18.481 -40.058  1.00  0.00     0.158 HD
ATOM     13  H   UNL     1     -13.187 -17.970 -38.564  1.00  0.00     0.158 HD
ENDBRANCH   7  11
TORSDOF 1
ENDMDL
MODEL 5
REMARK VINA RESULT:    -3.201      1.351      2.373
REMARK INTER + INTRA:          -3.295
REMARK INTER:                  -3.295
REMARK INTRA:                   0.000
REMARK UNBOUND:                 0.000
REMARK SMILES Nc1ncnc2nc[nH]c12
REMARK SMILES IDX 8 1 7 2 6 3 5 4 4 5 3 6 2 7 10 8 9 9 1 11
REMARK H PARENT 9 10 1 12 1 13
REMARK Flexibility Score: inf
ROOT
ATOM      1  C   UNL     1     -15.954 -21.241 -35.957  1.00  0.00     0.199 A 
ATOM      2  N   UNL     1     -15.443 -19.979 -35.981  1.00  0.00    -0.217 NA
ATOM      3  C   UNL     1     -15.199 -19.795 -37.289  1.00  0.00     0.182 A 
ATOM      4  N   UNL     1     -14.677 -18.685 -37.864  1.00  0.00    -0.215 NA
ATOM      5  C   UNL     1     -14.501 -18.683 -39.220  1.00  0.00     0.226 A 
ATOM      6  N   UNL     1     -14.846 -19.781 -39.969  1.00  0.00    -0.217 NA
ATOM      7  C   UNL     1     -15.372 -20.901 -39.390  1.00  0.00     0.152 A 
ATOM      8  C   UNL     1     -15.545 -20.887 -38.008  1.00  0.00     0.127 A 
ATOM      9  N   UNL     1     -16.028 -21.822 -37.182  1.00  0.00    -0.340 N 
ATOM     10  H   UNL     1     -16.383 -22.777 -37.412  1.00  0.00     0.168 HD
ENDROOT
BRANCH   7  11
ATOM     11  N   UNL     1     -15.723 -22.031 -40.189  1.00  0.00    -0.382 N 
ATOM     12  H   UNL     1     -16.045 -21.895 -41.173  1.00  0.00     0.158 HD
ATOM     13  H   UNL     1     -15.666 -23.003 -39.812  1.00  0.00     0.158 HD
ENDBRANCH   7  11
TORSDOF 1
ENDMDL
MODEL 6
REMARK VINA RESULT:    -3.140      1.205      3.576
REMARK INTER + INTRA:          -3.232
REMARK INTER:                  -3.232
REMARK INTRA:                   0.000
REMARK UNBOUND:                 0.000
REMARK SMILES Nc1ncnc2nc[nH]c12
REMARK SMILES IDX 8 1 7 2 6 3 5 4 4 5 3 6 2 7 10 8 9 9 1 11
REMARK H PARENT 9 10 1 12 1 13
REMARK Flexibility Score: inf
ROOT
ATOM      1  C   UNL     1     -14.623 -19.261 -39.682  1.00  0.00     0.199 A 
ATOM      2  N   UNL     1     -14.560 -18.642 -38.471  1.00  0.00    -0.217 NA
ATOM      3  C   UNL     1     -15.051 -19.581 -37.645  1.00  0.00     0.182 A 
ATOM      4  N   UNL     1     -15.208 -19.473 -36.304  1.00  0.00    -0.215 NA
ATOM      5  C   UNL     1     -15.728 -20.542 -35.628  1.00  0.00     0.226 A 
ATOM      6  N   UNL     1     -16.078 -21.687 -36.298  1.00  0.00    -0.217 NA
ATOM      7  C   UNL     1     -15.920 -21.797 -37.651  1.00  0.00     0.152 A 
ATOM      8  C   UNL     1     -15.389 -20.700 -38.325  1.00  0.00     0.127 A 
ATOM      9  N   UNL     1     -15.126 -20.520 -39.625  1.00  0.00    -0.340 N 
ATOM     10  H   UNL     1     -15.270 -21.184 -40.418  1.00  0.00     0.168 HD
ENDROOT
BRANCH   7  11
ATOM     11  N   UNL     1     -16.291 -22.998 -38.328  1.00  0.00    -0.382 N 
ATOM     12  H   UNL     1     -16.461 -23.873 -37.784  1.00  0.00     0.158 HD
ATOM     13  H   UNL     1     -16.401 -23.027 -39.366  1.00  0.00     0.158 HD
ENDBRANCH   7  11
TORSDOF 1
ENDMDL
MODEL 7
REMARK VINA RESULT:    -2.841      1.811      3.307
REMARK INTER + INTRA:          -2.924
REMARK INTER:                  -2.924
REMARK INTRA:                   0.000
REMARK UNBOUND:                 0.000
REMARK SMILES Nc1ncnc2nc[nH]c12
REMARK SMILES IDX 8 1 7 2 6 3 5 4 4 5 3 6 2 7 10 8 9 9 1 11
REMARK H PARENT 9 10 1 12 1 13
REMARK Flexibility Score: inf
ROOT
ATOM      1  C   UNL     1     -14.554 -18.978 -38.403  1.00  0.00     0.199 A 
ATOM      2  N   UNL     1     -14.564 -19.335 -39.716  1.00  0.00    -0.217 NA
ATOM      3  C   UNL     1     -15.086 -20.572 -39.672  1.00  0.00     0.182 A 
ATOM      4  N   UNL     1     -15.316 -21.389 -40.728  1.00  0.00    -0.215 NA
ATOM      5  C   UNL     1     -15.858 -22.621 -40.484  1.00  0.00     0.226 A 
ATOM      6  N   UNL     1     -16.155 -23.009 -39.202  1.00  0.00    -0.217 NA
ATOM      7  C   UNL     1     -15.924 -22.186 -38.136  1.00  0.00     0.152 A 
ATOM      8  C   UNL     1     -15.372 -20.935 -38.401  1.00  0.00     0.127 A 
ATOM      9  N   UNL     1     -15.042 -19.936 -37.574  1.00  0.00    -0.340 N 
ATOM     10  H   UNL     1     -15.133 -19.892 -36.535  1.00  0.00     0.168 HD
ENDROOT
BRANCH   7  11
ATOM     11  N   UNL     1     -16.242 -22.611 -36.810  1.00  0.00    -0.382 N 
ATOM     12  H   UNL     1     -16.698 -23.538 -36.655  1.00  0.00     0.158 HD
ATOM     13  H   UNL     1     -16.028 -22.014 -35.981  1.00  0.00     0.158 HD
ENDBRANCH   7  11
TORSDOF 1
ENDMDL
MODEL 8
REMARK VINA RESULT:    -2.785      7.761      8.443
REMARK INTER + INTRA:          -2.867
REMARK INTER:                  -2.867
REMARK INTRA:                   0.000
REMARK UNBOUND:                 0.000
REMARK SMILES Nc1ncnc2nc[nH]c12
REMARK SMILES IDX 8 1 7 2 6 3 5 4 4 5 3 6 2 7 10 8 9 9 1 11
REMARK H PARENT 9 10 1 12 1 13
REMARK Flexibility Score: inf
ROOT
ATOM      1  C   UNL     1      -9.375 -26.408 -36.356  1.00  0.00     0.199 A 
ATOM      2  N   UNL     1     -10.651 -26.876 -36.279  1.00  0.00    -0.217 NA
ATOM      3  C   UNL     1     -11.118 -26.254 -35.184  1.00  0.00     0.182 A 
ATOM      4  N   UNL     1     -12.360 -26.373 -34.656  1.00  0.00    -0.215 NA
ATOM      5  C   UNL     1     -12.653 -25.655 -33.530  1.00  0.00     0.226 A 
ATOM      6  N   UNL     1     -11.709 -24.840 -32.958  1.00  0.00    -0.217 NA
ATOM      7  C   UNL     1     -10.456 -24.719 -33.489  1.00  0.00     0.152 A 
ATOM      8  C   UNL     1     -10.173 -25.457 -34.636  1.00  0.00     0.127 A 
ATOM      9  N   UNL     1      -9.053 -25.538 -35.365  1.00  0.00    -0.340 N 
ATOM     10  H   UNL     1      -8.141 -25.052 -35.216  1.00  0.00     0.168 HD
ENDROOT
BRANCH   7  11
ATOM     11  N   UNL     1      -9.489 -23.865 -32.876  1.00  0.00    -0.382 N 
ATOM     12  H   UNL     1      -9.777 -23.215 -32.112  1.00  0.00     0.158 HD
ATOM     13  H   UNL     1      -8.489 -23.873 -33.175  1.00  0.00     0.158 HD
ENDBRANCH   7  11
TORSDOF 1
ENDMDL
MODEL 9
REMARK VINA RESULT:    -2.594     10.774     11.585
REMARK INTER + INTRA:          -2.670
REMARK INTER:                  -2.670
REMARK INTRA:                   0.000
REMARK UNBOUND:                 0.000
REMARK SMILES Nc1ncnc2nc[nH]c12
REMARK SMILES IDX 8 1 7 2 6 3 5 4 4 5 3 6 2 7 10 8 9 9 1 11
REMARK H PARENT 9 10 1 12 1 13
REMARK Flexibility Score: inf
ROOT
ATOM      1  C   UNL     1      -5.474 -28.857 -34.473  1.00  0.00     0.199 A 
ATOM      2  N   UNL     1      -6.465 -29.048 -33.560  1.00  0.00    -0.217 NA
ATOM      3  C   UNL     1      -7.446 -28.263 -34.035  1.00  0.00     0.182 A 
ATOM      4  N   UNL     1      -8.674 -28.085 -33.490  1.00  0.00    -0.215 NA
ATOM      5  C   UNL     1      -9.544 -27.241 -34.122  1.00  0.00     0.226 A 
ATOM      6  N   UNL     1      -9.175 -26.595 -35.275  1.00  0.00    -0.217 NA
ATOM      7  C   UNL     1      -7.937 -26.773 -35.826  1.00  0.00     0.152 A 
ATOM      8  C   UNL     1      -7.063 -27.637 -35.170  1.00  0.00     0.127 A 
ATOM      9  N   UNL     1      -5.810 -27.999 -35.470  1.00  0.00    -0.340 N 
ATOM     10  H   UNL     1      -5.218 -27.700 -36.277  1.00  0.00     0.168 HD
ENDROOT
BRANCH   7  11
ATOM     11  N   UNL     1      -7.575 -26.091 -37.027  1.00  0.00    -0.382 N 
ATOM     12  H   UNL     1      -8.316 -25.757 -37.682  1.00  0.00     0.158 HD
ATOM     13  H   UNL     1      -6.575 -25.915 -37.272  1.00  0.00     0.158 HD
ENDBRANCH   7  11
TORSDOF 1
ENDMDL
