MODEL 1
REMARK VINA RESULT:    -5.727      0.000      0.000
REMARK INTER + INTRA:          -6.804
REMARK INTER:                  -7.066
REMARK INTRA:                   0.262
REMARK UNBOUND:                 0.262
REMARK SMILES C=C1[C@@H]2CC[C@H]3[C@H]2C(C)(C)CCC[C@@]13C
REMARK SMILES IDX 14 1 6 2 7 3 3 4 2 5 1 6 4 7 5 8 15 9 8 10 9 11 10 12 11 13
REMARK SMILES IDX 13 15 12 16
REMARK H PARENT
REMARK Flexibility Score: 80.00
ROOT
ATOM      1  C   UNL     1     110.561 111.551 111.133  1.00  0.00    -0.008 C 
ATOM      2  C   UNL     1     110.618 112.155 112.533  1.00  0.00     0.003 C 
ATOM      3  C   UNL     1     110.905 110.859 113.307  1.00  0.00     0.006 C 
ATOM      4  C   UNL     1     109.545 110.249 113.004  1.00  0.00     0.019 C 
ATOM      5  C   UNL     1     109.613 110.383 111.464  1.00  0.00    -0.068 C 
ATOM      6  C   UNL     1     109.014 109.572 110.587  1.00  0.00     0.009 C 
ATOM      7  C   UNL     1     108.565 111.298 113.501  1.00  0.00     0.008 C 
ATOM      8  C   UNL     1     109.257 112.608 113.123  1.00  0.00     0.005 C 
ATOM      9  C   UNL     1     109.976 112.513 110.080  1.00  0.00     0.016 C 
ENDROOT
BRANCH   3  10
ATOM     10  C   UNL     1     112.175 110.978 114.176  1.00  0.00    -0.032 C 
ATOM     11  C   UNL     1     112.273 109.752 115.118  1.00  0.00     0.011 C 
ATOM     12  C   UNL     1     112.173 112.242 115.071  1.00  0.00     0.011 C 
BRANCH  10  13
ATOM     13  C   UNL     1     113.421 110.997 113.165  1.00  0.00     0.007 CG0
ATOM     14  G   UNL     1     113.238 111.589 111.698  1.00  0.00     0.000 G0
ENDBRANCH  10  13
ENDBRANCH   3  10
BRANCH   1  15
ATOM     15  C   UNL     1     112.051 111.096 110.754  1.00  0.00     0.011 C 
BRANCH  15  16
ATOM     16  C   UNL     1     113.242 111.594 111.696  1.00  0.00     0.001 CG0
ATOM     17  G   UNL     1     113.425 111.001 113.164  1.00  0.00     0.000 G0
ENDBRANCH  15  16
ENDBRANCH   1  15
TORSDOF 0
ENDMDL
MODEL 2
REMARK VINA RESULT:    -5.707      1.957      3.693
REMARK INTER + INTRA:          -6.779
REMARK INTER:                  -7.049
REMARK INTRA:                   0.270
REMARK UNBOUND:                 0.262
REMARK SMILES C=C1[C@@H]2CC[C@H]3[C@H]2C(C)(C)CCC[C@@]13C
REMARK SMILES IDX 14 1 6 2 7 3 3 4 2 5 1 6 4 7 5 8 15 9 8 10 9 11 10 12 11 13
REMARK SMILES IDX 13 15 12 16
REMARK H PARENT
REMARK Flexibility Score: 80.00
ROOT
ATOM      1  C   UNL     1     111.607 110.627 111.211  1.00  0.00    -0.008 C 
ATOM      2  C   UNL     1     111.531 110.022 112.609  1.00  0.00     0.003 C 
ATOM      3  C   UNL     1     111.314 111.328 113.389  1.00  0.00     0.006 C 
ATOM      4  C   UNL     1     112.700 111.871 113.077  1.00  0.00     0.019 C 
ATOM      5  C   UNL     1     112.613 111.747 111.537  1.00  0.00    -0.068 C 
ATOM      6  C   UNL     1     113.245 112.530 110.658  1.00  0.00     0.009 C 
ATOM      7  C   UNL     1     113.632 110.774 113.563  1.00  0.00     0.008 C 
ATOM      8  C   UNL     1     112.873 109.501 113.187  1.00  0.00     0.005 C 
ATOM      9  C   UNL     1     112.136 109.641 110.150  1.00  0.00     0.016 C 
ENDROOT
BRANCH   3  10
ATOM     10  C   UNL     1     110.046 111.268 114.269  1.00  0.00    -0.032 C 
ATOM     11  C   UNL     1     110.016 112.495 115.214  1.00  0.00     0.011 C 
ATOM     12  C   UNL     1     109.995 110.003 115.161  1.00  0.00     0.011 C 
BRANCH  10  13
ATOM     13  C   UNL     1     108.794 111.313 113.268  1.00  0.00     0.007 CG0
ATOM     14  G   UNL     1     108.936 110.716 111.798  1.00  0.00     0.000 G0
ENDBRANCH  10  13
ENDBRANCH   3  10
BRANCH   1  15
ATOM     15  C   UNL     1     110.137 111.155 110.845  1.00  0.00     0.011 C 
BRANCH  15  16
ATOM     16  C   UNL     1     108.932 110.714 111.796  1.00  0.00     0.001 CG0
ATOM     17  G   UNL     1     108.790 111.311 113.267  1.00  0.00     0.000 G0
ENDBRANCH  15  16
ENDBRANCH   1  15
TORSDOF 0
ENDMDL
MODEL 3
REMARK VINA RESULT:    -5.703      3.843      6.043
REMARK INTER + INTRA:          -6.775
REMARK INTER:                  -7.043
REMARK INTRA:                   0.268
REMARK UNBOUND:                 0.262
REMARK SMILES C=C1[C@@H]2CC[C@H]3[C@H]2C(C)(C)CCC[C@@]13C
REMARK SMILES IDX 14 1 6 2 7 3 3 4 2 5 1 6 4 7 5 8 15 9 8 10 9 11 10 12 11 13
REMARK SMILES IDX 13 15 12 16
REMARK H PARENT
REMARK Flexibility Score: 80.00
ROOT
ATOM      1  C   UNL     1     111.598 110.641 106.342  1.00  0.00    -0.008 C 
ATOM      2  C   UNL     1     111.533 110.073 107.756  1.00  0.00     0.003 C 
ATOM      3  C   UNL     1     111.340 111.402 108.505  1.00  0.00     0.006 C 
ATOM      4  C   UNL     1     112.728 111.921 108.162  1.00  0.00     0.019 C 
ATOM      5  C   UNL     1     112.621 111.757 106.627  1.00  0.00    -0.068 C 
ATOM      6  C   UNL     1     113.250 112.510 105.720  1.00  0.00     0.009 C 
ATOM      7  C   UNL     1     113.653 110.826 108.665  1.00  0.00     0.008 C 
ATOM      8  C   UNL     1     112.876 109.552 108.332  1.00  0.00     0.005 C 
ATOM      9  C   UNL     1     112.102 109.622 105.301  1.00  0.00     0.016 C 
ENDROOT
BRANCH   3  10
ATOM     10  C   UNL     1     110.083 111.379 109.401  1.00  0.00    -0.032 C 
ATOM     11  C   UNL     1     110.076 112.632 110.312  1.00  0.00     0.011 C 
ATOM     12  C   UNL     1     110.030 110.141 110.329  1.00  0.00     0.011 C 
BRANCH  10  13
ATOM     13  C   UNL     1     108.819 111.409 108.415  1.00  0.00     0.007 CG0
ATOM     14  G   UNL     1     108.937 110.772 106.959  1.00  0.00     0.000 G0
ENDBRANCH  10  13
ENDBRANCH   3  10
BRANCH   1  15
ATOM     15  C   UNL     1     110.130 111.177 105.981  1.00  0.00     0.011 C 
BRANCH  15  16
ATOM     16  C   UNL     1     108.931 110.775 106.958  1.00  0.00     0.001 CG0
ATOM     17  G   UNL     1     108.814 111.413 108.413  1.00  0.00     0.000 G0
ENDBRANCH  15  16
ENDBRANCH   1  15
TORSDOF 0
ENDMDL
MODEL 4
REMARK VINA RESULT:    -5.673      3.359      4.717
REMARK INTER + INTRA:          -6.738
REMARK INTER:                  -6.998
REMARK INTRA:                   0.260
REMARK UNBOUND:                 0.262
REMARK SMILES C=C1[C@@H]2CC[C@H]3[C@H]2C(C)(C)CCC[C@@]13C
REMARK SMILES IDX 14 1 6 2 7 3 3 4 2 5 1 6 4 7 5 8 15 9 8 10 9 11 10 12 11 13
REMARK SMILES IDX 13 15 12 16
REMARK H PARENT
REMARK Flexibility Score: 80.00
ROOT
ATOM      1  C   UNL     1     110.645 111.510 106.374  1.00  0.00    -0.008 C 
ATOM      2  C   UNL     1     110.617 112.131 107.768  1.00  0.00     0.003 C 
ATOM      3  C   UNL     1     110.812 110.838 108.576  1.00  0.00     0.006 C 
ATOM      4  C   UNL     1     109.462 110.260 108.182  1.00  0.00     0.019 C 
ATOM      5  C   UNL     1     109.644 110.371 106.649  1.00  0.00    -0.068 C 
ATOM      6  C   UNL     1     109.088 109.565 105.741  1.00  0.00     0.009 C 
ATOM      7  C   UNL     1     108.477 111.342 108.594  1.00  0.00     0.008 C 
ATOM      8  C   UNL     1     109.230 112.627 108.253  1.00  0.00     0.005 C 
ATOM      9  C   UNL     1     110.164 112.473 105.271  1.00  0.00     0.016 C 
ENDROOT
BRANCH   3  10
ATOM     10  C   UNL     1     112.019 110.936 109.533  1.00  0.00    -0.032 C 
ATOM     11  C   UNL     1     112.018 109.717 110.490  1.00  0.00     0.011 C 
ATOM     12  C   UNL     1     111.984 112.208 110.415  1.00  0.00     0.011 C 
BRANCH  10  13
ATOM     13  C   UNL     1     113.334 110.913 108.615  1.00  0.00     0.007 CG0
ATOM     14  G   UNL     1     113.273 111.494 107.133  1.00  0.00     0.000 G0
ENDBRANCH  10  13
ENDBRANCH   3  10
BRANCH   1  15
ATOM     15  C   UNL     1     112.146 111.011 106.110  1.00  0.00     0.011 C 
BRANCH  15  16
ATOM     16  C   UNL     1     113.279 111.491 107.130  1.00  0.00     0.001 CG0
ATOM     17  G   UNL     1     113.341 110.912 108.613  1.00  0.00     0.000 G0
ENDBRANCH  15  16
ENDBRANCH   1  15
TORSDOF 0
ENDMDL
MODEL 5
REMARK VINA RESULT:    -5.626      1.330      3.934
REMARK INTER + INTRA:          -6.679
REMARK INTER:                  -6.950
REMARK INTRA:                   0.271
REMARK UNBOUND:                 0.262
REMARK SMILES C=C1[C@@H]2CC[C@H]3[C@H]2C(C)(C)CCC[C@@]13C
REMARK SMILES IDX 14 1 6 2 7 3 3 4 2 5 1 6 4 7 5 8 15 9 8 10 9 11 10 12 11 13
REMARK SMILES IDX 13 15 12 16
REMARK H PARENT
REMARK Flexibility Score: 80.00
ROOT
ATOM      1  C   UNL     1     112.144 110.380 114.697  1.00  0.00    -0.008 C 
ATOM      2  C   UNL     1     110.741 110.243 114.114  1.00  0.00     0.003 C 
ATOM      3  C   UNL     1     110.713 111.561 113.324  1.00  0.00     0.006 C 
ATOM      4  C   UNL     1     110.730 112.433 114.570  1.00  0.00     0.019 C 
ATOM      5  C   UNL     1     111.999 111.824 115.214  1.00  0.00    -0.068 C 
ATOM      6  C   UNL     1     112.851 112.472 116.013  1.00  0.00     0.009 C 
ATOM      7  C   UNL     1     109.539 111.935 115.371  1.00  0.00     0.008 C 
ATOM      8  C   UNL     1     109.576 110.427 115.121  1.00  0.00     0.005 C 
ATOM      9  C   UNL     1     112.435 109.370 115.824  1.00  0.00     0.016 C 
ENDROOT
BRANCH   3  10
ATOM     10  C   UNL     1     110.385 111.331 111.834  1.00  0.00    -0.032 C 
ATOM     11  C   UNL     1     110.112 112.694 111.149  1.00  0.00     0.011 C 
ATOM     12  C   UNL     1     109.124 110.456 111.625  1.00  0.00     0.011 C 
BRANCH  10  13
ATOM     13  C   UNL     1     111.676 110.637 111.183  1.00  0.00     0.007 CG0
ATOM     14  G   UNL     1     112.609 109.708 112.079  1.00  0.00     0.000 G0
ENDBRANCH  10  13
ENDBRANCH   3  10
BRANCH   1  15
ATOM     15  C   UNL     1     113.178 110.223 113.481  1.00  0.00     0.011 C 
BRANCH  15  16
ATOM     16  C   UNL     1     112.606 109.701 112.083  1.00  0.00     0.001 CG0
ATOM     17  G   UNL     1     111.677 110.631 111.182  1.00  0.00     0.000 G0
ENDBRANCH  15  16
ENDBRANCH   1  15
TORSDOF 0
ENDMDL
MODEL 6
REMARK VINA RESULT:    -5.623      1.781      3.822
REMARK INTER + INTRA:          -6.675
REMARK INTER:                  -6.945
REMARK INTRA:                   0.270
REMARK UNBOUND:                 0.262
REMARK SMILES C=C1[C@@H]2CC[C@H]3[C@H]2C(C)(C)CCC[C@@]13C
REMARK SMILES IDX 14 1 6 2 7 3 3 4 2 5 1 6 4 7 5 8 15 9 8 10 9 11 10 12 11 13
REMARK SMILES IDX 13 15 12 16
REMARK H PARENT
REMARK Flexibility Score: 80.00
ROOT
ATOM      1  C   UNL     1     110.146 111.932 114.705  1.00  0.00    -0.008 C 
ATOM      2  C   UNL     1     111.521 112.101 114.067  1.00  0.00     0.003 C 
ATOM      3  C   UNL     1     111.548 110.783 113.277  1.00  0.00     0.006 C 
ATOM      4  C   UNL     1     111.600 109.912 114.523  1.00  0.00     0.019 C 
ATOM      5  C   UNL     1     110.344 110.493 115.216  1.00  0.00    -0.068 C 
ATOM      6  C   UNL     1     109.538 109.825 116.048  1.00  0.00     0.009 C 
ATOM      7  C   UNL     1     112.809 110.439 115.277  1.00  0.00     0.008 C 
ATOM      8  C   UNL     1     112.729 111.945 115.028  1.00  0.00     0.005 C 
ATOM      9  C   UNL     1     109.876 112.937 115.842  1.00  0.00     0.016 C 
ENDROOT
BRANCH   3  10
ATOM     10  C   UNL     1     111.812 111.019 111.775  1.00  0.00    -0.032 C 
ATOM     11  C   UNL     1     112.079 109.661 111.079  1.00  0.00     0.011 C 
ATOM     12  C   UNL     1     113.049 111.915 111.517  1.00  0.00     0.011 C 
BRANCH  10  13
ATOM     13  C   UNL     1     110.485 111.692 111.177  1.00  0.00     0.007 CG0
ATOM     14  G   UNL     1     109.573 112.605 112.112  1.00  0.00     0.000 G0
ENDBRANCH  10  13
ENDBRANCH   3  10
BRANCH   1  15
ATOM     15  C   UNL     1     109.062 112.065 113.530  1.00  0.00     0.011 C 
BRANCH  15  16
ATOM     16  C   UNL     1     109.566 112.600 112.112  1.00  0.00     0.001 CG0
ATOM     17  G   UNL     1     110.488 111.698 111.178  1.00  0.00     0.000 G0
ENDBRANCH  15  16
ENDBRANCH   1  15
TORSDOF 0
ENDMDL
MODEL 7
REMARK VINA RESULT:    -5.613      3.168      5.597
REMARK INTER + INTRA:          -6.664
REMARK INTER:                  -6.926
REMARK INTRA:                   0.262
REMARK UNBOUND:                 0.262
REMARK SMILES C=C1[C@@H]2CC[C@H]3[C@H]2C(C)(C)CCC[C@@]13C
REMARK SMILES IDX 14 1 6 2 7 3 3 4 2 5 1 6 4 7 5 8 15 9 8 10 9 11 10 12 11 13
REMARK SMILES IDX 13 15 12 16
REMARK H PARENT
REMARK Flexibility Score: 80.00
ROOT
ATOM      1  C   UNL     1     112.178 110.367 109.728  1.00  0.00    -0.008 C 
ATOM      2  C   UNL     1     110.772 110.193 109.162  1.00  0.00     0.003 C 
ATOM      3  C   UNL     1     110.715 111.492 108.342  1.00  0.00     0.006 C 
ATOM      4  C   UNL     1     110.729 112.392 109.567  1.00  0.00     0.019 C 
ATOM      5  C   UNL     1     112.014 111.820 110.213  1.00  0.00    -0.068 C 
ATOM      6  C   UNL     1     112.862 112.501 110.988  1.00  0.00     0.009 C 
ATOM      7  C   UNL     1     109.554 111.893 110.391  1.00  0.00     0.008 C 
ATOM      8  C   UNL     1     109.614 110.381 110.175  1.00  0.00     0.005 C 
ATOM      9  C   UNL     1     112.497 109.388 110.875  1.00  0.00     0.016 C 
ENDROOT
BRANCH   3  10
ATOM     10  C   UNL     1     110.377 111.221 106.860  1.00  0.00    -0.032 C 
ATOM     11  C   UNL     1     110.083 112.564 106.145  1.00  0.00     0.011 C 
ATOM     12  C   UNL     1     109.125 110.327 106.684  1.00  0.00     0.011 C 
BRANCH  10  13
ATOM     13  C   UNL     1     111.671 110.526 106.216  1.00  0.00     0.007 CG0
ATOM     14  G   UNL     1     112.624 109.634 107.127  1.00  0.00     0.000 G0
ENDBRANCH  10  13
ENDBRANCH   3  10
BRANCH   1  15
ATOM     15  C   UNL     1     113.203 110.199 108.506  1.00  0.00     0.011 C 
BRANCH  15  16
ATOM     16  C   UNL     1     112.628 109.632 107.127  1.00  0.00     0.001 CG0
ATOM     17  G   UNL     1     111.674 110.521 106.212  1.00  0.00     0.000 G0
ENDBRANCH  15  16
ENDBRANCH   1  15
TORSDOF 0
ENDMDL
MODEL 8
REMARK VINA RESULT:    -5.602      3.447      5.560
REMARK INTER + INTRA:          -6.650
REMARK INTER:                  -6.920
REMARK INTRA:                   0.270
REMARK UNBOUND:                 0.262
REMARK SMILES C=C1[C@@H]2CC[C@H]3[C@H]2C(C)(C)CCC[C@@]13C
REMARK SMILES IDX 14 1 6 2 7 3 3 4 2 5 1 6 4 7 5 8 15 9 8 10 9 11 10 12 11 13
REMARK SMILES IDX 13 15 12 16
REMARK H PARENT
REMARK Flexibility Score: 80.00
ROOT
ATOM      1  C   UNL     1     110.088 111.982 109.719  1.00  0.00    -0.008 C 
ATOM      2  C   UNL     1     111.470 112.093 109.081  1.00  0.00     0.003 C 
ATOM      3  C   UNL     1     111.426 110.794 108.261  1.00  0.00     0.006 C 
ATOM      4  C   UNL     1     111.434 109.894 109.487  1.00  0.00     0.019 C 
ATOM      5  C   UNL     1     110.212 110.523 110.197  1.00  0.00    -0.068 C 
ATOM      6  C   UNL     1     109.374 109.880 111.016  1.00  0.00     0.009 C 
ATOM      7  C   UNL     1     112.672 110.339 110.248  1.00  0.00     0.008 C 
ATOM      8  C   UNL     1     112.669 111.852 110.034  1.00  0.00     0.005 C 
ATOM      9  C   UNL     1     109.874 112.973 110.880  1.00  0.00     0.016 C 
ENDROOT
BRANCH   3  10
ATOM     10  C   UNL     1     111.699 111.051 106.764  1.00  0.00    -0.032 C 
ATOM     11  C   UNL     1     111.895 109.697 106.036  1.00  0.00     0.011 C 
ATOM     12  C   UNL     1     112.979 111.888 106.522  1.00  0.00     0.011 C 
BRANCH  10  13
ATOM     13  C   UNL     1     110.407 111.804 106.186  1.00  0.00     0.007 CG0
ATOM     14  G   UNL     1     109.541 112.736 107.145  1.00  0.00     0.000 G0
ENDBRANCH  10  13
ENDBRANCH   3  10
BRANCH   1  15
ATOM     15  C   UNL     1     109.010 112.198 108.551  1.00  0.00     0.011 C 
BRANCH  15  16
ATOM     16  C   UNL     1     109.539 112.738 107.144  1.00  0.00     0.001 CG0
ATOM     17  G   UNL     1     110.404 111.807 106.183  1.00  0.00     0.000 G0
ENDBRANCH  15  16
ENDBRANCH   1  15
TORSDOF 0
ENDMDL
MODEL 9
REMARK VINA RESULT:    -5.577      1.517      2.572
REMARK INTER + INTRA:          -6.619
REMARK INTER:                  -6.898
REMARK INTRA:                   0.280
REMARK UNBOUND:                 0.262
REMARK SMILES C=C1[C@@H]2CC[C@H]3[C@H]2C(C)(C)CCC[C@@]13C
REMARK SMILES IDX 14 1 6 2 7 3 3 4 2 5 1 6 4 7 5 8 15 9 8 10 9 11 10 12 11 13
REMARK SMILES IDX 13 15 12 16
REMARK H PARENT
REMARK Flexibility Score: 80.00
ROOT
ATOM      1  C   UNL     1     112.367 111.196 112.250  1.00  0.00    -0.008 C 
ATOM      2  C   UNL     1     111.176 111.903 112.889  1.00  0.00     0.003 C 
ATOM      3  C   UNL     1     110.430 110.651 113.380  1.00  0.00     0.006 C 
ATOM      4  C   UNL     1     110.115 110.157 111.976  1.00  0.00     0.019 C 
ATOM      5  C   UNL     1     111.567 110.158 111.441  1.00  0.00    -0.068 C 
ATOM      6  C   UNL     1     112.046 109.342 110.498  1.00  0.00     0.009 C 
ATOM      7  C   UNL     1     109.401 111.335 111.335  1.00  0.00     0.008 C 
ATOM      8  C   UNL     1     110.162 112.535 111.900  1.00  0.00     0.005 C 
ATOM      9  C   UNL     1     113.215 112.123 111.356  1.00  0.00     0.016 C 
ENDROOT
BRANCH   3  10
ATOM     10  C   UNL     1     110.137 110.715 114.894  1.00  0.00    -0.032 C 
ATOM     11  C   UNL     1     109.163 109.573 115.279  1.00  0.00     0.011 C 
ATOM     12  C   UNL     1     109.471 112.046 115.321  1.00  0.00     0.011 C 
BRANCH  10  13
ATOM     13  C   UNL     1     111.542 110.514 115.640  1.00  0.00     0.007 CG0
ATOM     14  G   UNL     1     112.886 111.007 114.940  1.00  0.00     0.000 G0
ENDBRANCH  10  13
ENDBRANCH   3  10
BRANCH   1  15
ATOM     15  C   UNL     1     113.237 110.567 113.441  1.00  0.00     0.011 C 
BRANCH  15  16
ATOM     16  C   UNL     1     112.882 111.011 114.935  1.00  0.00     0.001 CG0
ATOM     17  G   UNL     1     111.541 110.517 115.638  1.00  0.00     0.000 G0
ENDBRANCH  15  16
ENDBRANCH   1  15
TORSDOF 0
ENDMDL
