MODEL 1
REMARK VINA RESULT:    -8.250      0.000      0.000
REMARK INTER + INTRA:         -11.989
REMARK INTER:                 -11.143
REMARK INTRA:                  -0.846
REMARK UNBOUND:                -0.846
REMARK SMILES CC[C@H](CC[C@H](C)[C@@H]1CC[C@H]2[C@H]3CC(=O)C4=CC(=O)CC[C@@]4(C)[C@@H]3CC[C@]21C)C(C)C
REMARK SMILES IDX 4 1 3 2 2 3 1 4 29 5 30 6 31 7 5 8 6 9 7 10 8 11 9 12 27 13
REMARK SMILES IDX 10 14 11 15 26 16 28 17 12 18 25 19 24 20 13 21 22 22 14 23
REMARK SMILES IDX 16 24 21 25 23 26 15 27 17 28 20 29 18 30 19 31
REMARK H PARENT
REMARK Flexibility Score: inf
ROOT
ATOM      1  C   UNL     1       0.677   4.056  19.421  1.00  0.00     0.004 C 
ENDROOT
BRANCH   1   2
ATOM      2  C   UNL     1      -0.139   5.005  18.498  1.00  0.00    -0.009 C 
BRANCH   2   3
ATOM      3  C   UNL     1      -1.210   5.771  19.323  1.00  0.00     0.000 C 
ATOM      4  C   UNL     1      -2.644   5.351  18.989  1.00  0.00     0.004 C 
ENDBRANCH   2   3
BRANCH   2   5
ATOM      5  C   UNL     1       0.767   5.970  17.657  1.00  0.00    -0.014 C 
ATOM      6  C   UNL     1       0.244   7.417  17.656  1.00  0.00     0.007 C 
ATOM      7  C   UNL     1       2.246   5.942  18.073  1.00  0.00     0.007 C 
ENDBRANCH   2   5
ENDBRANCH   1   2
BRANCH   1   8
ATOM      8  C   UNL     1       0.515   2.560  19.078  1.00  0.00     0.004 C 
BRANCH   8   9
ATOM      9  C   UNL     1      -0.541   2.307  17.963  1.00  0.00    -0.011 C 
ATOM     10  C   UNL     1      -1.741   1.540  18.547  1.00  0.00     0.008 C 
BRANCH   9  11
ATOM     11  C   UNL     1       0.005   1.565  16.689  1.00  0.00    -0.002 C 
ATOM     12  C   UNL     1      -0.846   0.401  16.151  1.00  0.00     0.005 C 
ATOM     13  C   UNL     1       1.476   1.052  16.742  1.00  0.00    -0.026 C 
ATOM     14  C   UNL     1       0.134  -0.606  15.551  1.00  0.00     0.005 C 
ATOM     15  C   UNL     1       1.522   0.079  15.514  1.00  0.00    -0.001 C 
ATOM     16  C   UNL     1       2.502   2.236  16.701  1.00  0.00     0.007 C 
ATOM     17  C   UNL     1       1.761   0.235  18.035  1.00  0.00     0.012 C 
ATOM     18  C   UNL     1       1.947   0.709  14.111  1.00  0.00     0.004 C 
ATOM     19  C   UNL     1       3.392   2.243  15.466  1.00  0.00     0.005 C 
ATOM     20  C   UNL     1       2.513   2.155  14.209  1.00  0.00     0.003 C 
ATOM     21  C   UNL     1       0.888   0.642  12.993  1.00  0.00     0.085 C 
ATOM     22  C   UNL     1       3.224   2.646  12.887  1.00  0.00    -0.000 C 
ATOM     23  C   UNL     1       1.373   1.234  11.703  1.00  0.00     0.159 C 
ATOM     24  C   UNL     1       2.303   2.389  11.687  1.00  0.00     0.005 C 
ATOM     25  C   UNL     1       3.500   4.184  12.987  1.00  0.00     0.020 C 
ATOM     26  C   UNL     1       4.561   1.898  12.648  1.00  0.00     0.017 C 
ATOM     27  O   UNL     1       0.912   0.776  10.621  1.00  0.00    -0.295 OA
ATOM     28  C   UNL     1       2.368   3.156  10.581  1.00  0.00     0.055 C 
ATOM     29  C   UNL     1       4.027   4.797  11.682  1.00  0.00     0.081 C 
ATOM     30  C   UNL     1       3.214   4.356  10.508  1.00  0.00     0.156 C 
ATOM     31  O   UNL     1       3.276   5.006   9.431  1.00  0.00    -0.295 OA
ENDBRANCH   9  11
ENDBRANCH   8   9
ENDBRANCH   1   8
TORSDOF 6
ENDMDL
MODEL 2
REMARK VINA RESULT:    -7.995      0.417      1.455
REMARK INTER + INTRA:         -11.645
REMARK INTER:                 -11.054
REMARK INTRA:                  -0.592
REMARK UNBOUND:                -0.846
REMARK SMILES CC[C@H](CC[C@H](C)[C@@H]1CC[C@H]2[C@H]3CC(=O)C4=CC(=O)CC[C@@]4(C)[C@@H]3CC[C@]21C)C(C)C
REMARK SMILES IDX 4 1 3 2 2 3 1 4 29 5 30 6 31 7 5 8 6 9 7 10 8 11 9 12 27 13
REMARK SMILES IDX 10 14 11 15 26 16 28 17 12 18 25 19 24 20 13 21 22 22 14 23
REMARK SMILES IDX 16 24 21 25 23 26 15 27 17 28 20 29 18 30 19 31
REMARK H PARENT
REMARK Flexibility Score: inf
ROOT
ATOM      1  C   UNL     1      -0.069   4.198  19.650  1.00  0.00     0.004 C 
ENDROOT
BRANCH   1   2
ATOM      2  C   UNL     1       0.409   5.602  19.179  1.00  0.00    -0.009 C 
BRANCH   2   3
ATOM      3  C   UNL     1       1.224   5.480  17.861  1.00  0.00     0.000 C 
ATOM      4  C   UNL     1       2.681   5.926  18.010  1.00  0.00     0.004 C 
ENDBRANCH   2   3
BRANCH   2   5
ATOM      5  C   UNL     1      -0.760   6.640  19.062  1.00  0.00    -0.014 C 
ATOM      6  C   UNL     1      -0.549   7.637  17.910  1.00  0.00     0.007 C 
ATOM      7  C   UNL     1      -2.149   5.990  18.952  1.00  0.00     0.007 C 
ENDBRANCH   2   5
ENDBRANCH   1   2
BRANCH   1   8
ATOM      8  C   UNL     1       0.476   3.034  18.797  1.00  0.00     0.004 C 
BRANCH   8   9
ATOM      9  C   UNL     1      -0.611   2.392  17.889  1.00  0.00    -0.011 C 
ATOM     10  C   UNL     1      -1.499   1.451  18.724  1.00  0.00     0.008 C 
BRANCH   9  11
ATOM     11  C   UNL     1      -0.057   1.631  16.628  1.00  0.00    -0.002 C 
ATOM     12  C   UNL     1      -0.909   0.466  16.096  1.00  0.00     0.005 C 
ATOM     13  C   UNL     1       1.410   1.110  16.702  1.00  0.00    -0.026 C 
ATOM     14  C   UNL     1       0.071  -0.553  15.517  1.00  0.00     0.005 C 
ATOM     15  C   UNL     1       1.463   0.122  15.486  1.00  0.00    -0.001 C 
ATOM     16  C   UNL     1       2.444   2.288  16.657  1.00  0.00     0.007 C 
ATOM     17  C   UNL     1       1.678   0.307  18.008  1.00  0.00     0.012 C 
ATOM     18  C   UNL     1       1.906   0.734  14.080  1.00  0.00     0.004 C 
ATOM     19  C   UNL     1       3.346   2.275  15.432  1.00  0.00     0.005 C 
ATOM     20  C   UNL     1       2.479   2.178  14.167  1.00  0.00     0.003 C 
ATOM     21  C   UNL     1       0.857   0.660  12.953  1.00  0.00     0.085 C 
ATOM     22  C   UNL     1       3.205   2.649  12.846  1.00  0.00    -0.000 C 
ATOM     23  C   UNL     1       1.358   1.234  11.661  1.00  0.00     0.159 C 
ATOM     24  C   UNL     1       2.295   2.383  11.640  1.00  0.00     0.005 C 
ATOM     25  C   UNL     1       3.490   4.186  12.932  1.00  0.00     0.020 C 
ATOM     26  C   UNL     1       4.541   1.891  12.630  1.00  0.00     0.017 C 
ATOM     27  O   UNL     1       0.906   0.766  10.579  1.00  0.00    -0.295 OA
ATOM     28  C   UNL     1       2.376   3.137  10.526  1.00  0.00     0.055 C 
ATOM     29  C   UNL     1       4.033   4.781  11.625  1.00  0.00     0.081 C 
ATOM     30  C   UNL     1       3.229   4.331  10.447  1.00  0.00     0.156 C 
ATOM     31  O   UNL     1       3.306   4.968   9.364  1.00  0.00    -0.295 OA
ENDBRANCH   9  11
ENDBRANCH   8   9
ENDBRANCH   1   8
TORSDOF 6
ENDMDL
MODEL 3
REMARK VINA RESULT:    -7.837     10.779     13.630
REMARK INTER + INTRA:         -11.432
REMARK INTER:                  -9.570
REMARK INTRA:                  -1.862
REMARK UNBOUND:                -0.846
REMARK SMILES CC[C@H](CC[C@H](C)[C@@H]1CC[C@H]2[C@H]3CC(=O)C4=CC(=O)CC[C@@]4(C)[C@@H]3CC[C@]21C)C(C)C
REMARK SMILES IDX 4 1 3 2 2 3 1 4 29 5 30 6 31 7 5 8 6 9 7 10 8 11 9 12 27 13
REMARK SMILES IDX 10 14 11 15 26 16 28 17 12 18 25 19 24 20 13 21 22 22 14 23
REMARK SMILES IDX 16 24 21 25 23 26 15 27 17 28 20 29 18 30 19 31
REMARK H PARENT
REMARK Flexibility Score: inf
ROOT
ATOM      1  C   UNL     1       0.985  -5.396   9.965  1.00  0.00     0.004 C 
ENDROOT
BRANCH   1   2
ATOM      2  C   UNL     1       1.591  -6.780  10.336  1.00  0.00    -0.009 C 
BRANCH   2   3
ATOM      3  C   UNL     1       0.458  -7.814  10.594  1.00  0.00     0.000 C 
ATOM      4  C   UNL     1       0.742  -8.735  11.783  1.00  0.00     0.004 C 
ENDBRANCH   2   3
BRANCH   2   5
ATOM      5  C   UNL     1       2.636  -7.292   9.286  1.00  0.00    -0.014 C 
ATOM      6  C   UNL     1       2.047  -8.347   8.335  1.00  0.00     0.007 C 
ATOM      7  C   UNL     1       3.300  -6.164   8.480  1.00  0.00     0.007 C 
ENDBRANCH   2   5
ENDBRANCH   1   2
BRANCH   1   8
ATOM      8  C   UNL     1      -0.503  -5.454   9.562  1.00  0.00     0.004 C 
BRANCH   8   9
ATOM      9  C   UNL     1      -0.883  -4.383   8.500  1.00  0.00    -0.011 C 
ATOM     10  C   UNL     1      -2.241  -3.751   8.858  1.00  0.00     0.008 C 
BRANCH   9  11
ATOM     11  C   UNL     1      -0.905  -4.900   7.014  1.00  0.00    -0.002 C 
ATOM     12  C   UNL     1      -0.539  -6.378   6.793  1.00  0.00     0.005 C 
ATOM     13  C   UNL     1      -0.093  -4.080   5.966  1.00  0.00    -0.026 C 
ATOM     14  C   UNL     1       0.147  -6.451   5.430  1.00  0.00     0.005 C 
ATOM     15  C   UNL     1      -0.040  -5.072   4.753  1.00  0.00    -0.001 C 
ATOM     16  C   UNL     1      -0.764  -2.693   5.672  1.00  0.00     0.007 C 
ATOM     17  C   UNL     1       1.361  -3.801   6.444  1.00  0.00     0.012 C 
ATOM     18  C   UNL     1      -1.228  -4.975   3.692  1.00  0.00     0.004 C 
ATOM     19  C   UNL     1      -1.251  -2.531   4.240  1.00  0.00     0.005 C 
ATOM     20  C   UNL     1      -2.140  -3.727   3.871  1.00  0.00     0.003 C 
ATOM     21  C   UNL     1      -2.100  -6.237   3.540  1.00  0.00     0.085 C 
ATOM     22  C   UNL     1      -3.100  -3.466   2.643  1.00  0.00    -0.000 C 
ATOM     23  C   UNL     1      -3.177  -6.073   2.509  1.00  0.00     0.159 C 
ATOM     24  C   UNL     1      -3.836  -4.763   2.285  1.00  0.00     0.005 C 
ATOM     25  C   UNL     1      -4.157  -2.379   3.034  1.00  0.00     0.020 C 
ATOM     26  C   UNL     1      -2.311  -2.990   1.395  1.00  0.00     0.017 C 
ATOM     27  O   UNL     1      -3.571  -7.096   1.883  1.00  0.00    -0.295 OA
ATOM     28  C   UNL     1      -5.052  -4.737   1.704  1.00  0.00     0.055 C 
ATOM     29  C   UNL     1      -5.248  -2.179   1.973  1.00  0.00     0.081 C 
ATOM     30  C   UNL     1      -5.800  -3.488   1.507  1.00  0.00     0.156 C 
ATOM     31  O   UNL     1      -6.909  -3.517   0.911  1.00  0.00    -0.295 OA
ENDBRANCH   9  11
ENDBRANCH   8   9
ENDBRANCH   1   8
TORSDOF 6
ENDMDL
MODEL 4
REMARK VINA RESULT:    -7.758      2.757      6.893
REMARK INTER + INTRA:         -11.325
REMARK INTER:                 -11.386
REMARK INTRA:                   0.061
REMARK UNBOUND:                -0.846
REMARK SMILES CC[C@H](CC[C@H](C)[C@@H]1CC[C@H]2[C@H]3CC(=O)C4=CC(=O)CC[C@@]4(C)[C@@H]3CC[C@]21C)C(C)C
REMARK SMILES IDX 4 1 3 2 2 3 1 4 29 5 30 6 31 7 5 8 6 9 7 10 8 11 9 12 27 13
REMARK SMILES IDX 10 14 11 15 26 16 28 17 12 18 25 19 24 20 13 21 22 22 14 23
REMARK SMILES IDX 16 24 21 25 23 26 15 27 17 28 20 29 18 30 19 31
REMARK H PARENT
REMARK Flexibility Score: inf
ROOT
ATOM      1  C   UNL     1       2.877   2.635  11.525  1.00  0.00     0.004 C 
ENDROOT
BRANCH   1   2
ATOM      2  C   UNL     1       2.377   3.872  10.726  1.00  0.00    -0.009 C 
BRANCH   2   3
ATOM      3  C   UNL     1       1.090   4.451  11.377  1.00  0.00     0.000 C 
ATOM      4  C   UNL     1      -0.165   4.240  10.525  1.00  0.00     0.004 C 
ENDBRANCH   2   3
BRANCH   2   5
ATOM      5  C   UNL     1       3.486   4.963  10.528  1.00  0.00    -0.014 C 
ATOM      6  C   UNL     1       2.897   6.356  10.247  1.00  0.00     0.007 C 
ATOM      7  C   UNL     1       4.489   5.036  11.690  1.00  0.00     0.007 C 
ENDBRANCH   2   5
ENDBRANCH   1   2
BRANCH   1   8
ATOM      8  C   UNL     1       1.977   1.391  11.378  1.00  0.00     0.004 C 
BRANCH   8   9
ATOM      9  C   UNL     1       1.696   0.685  12.736  1.00  0.00    -0.011 C 
ATOM     10  C   UNL     1       0.189   0.403  12.875  1.00  0.00     0.008 C 
BRANCH   9  11
ATOM     11  C   UNL     1       2.220   1.453  14.004  1.00  0.00    -0.002 C 
ATOM     12  C   UNL     1       3.591   2.139  13.879  1.00  0.00     0.005 C 
ATOM     13  C   UNL     1       2.238   0.669  15.351  1.00  0.00    -0.026 C 
ATOM     14  C   UNL     1       4.230   2.078  15.265  1.00  0.00     0.005 C 
ATOM     15  C   UNL     1       3.139   1.587  16.247  1.00  0.00    -0.001 C 
ATOM     16  C   UNL     1       0.787   0.417  15.892  1.00  0.00     0.007 C 
ATOM     17  C   UNL     1       2.927  -0.719  15.208  1.00  0.00     0.012 C 
ATOM     18  C   UNL     1       2.399   2.724  17.087  1.00  0.00     0.004 C 
ATOM     19  C   UNL     1       0.491   1.105  17.216  1.00  0.00     0.005 C 
ATOM     20  C   UNL     1       0.848   2.595  17.103  1.00  0.00     0.003 C 
ATOM     21  C   UNL     1       2.794   4.175  16.752  1.00  0.00     0.085 C 
ATOM     22  C   UNL     1       0.150   3.512  18.183  1.00  0.00    -0.000 C 
ATOM     23  C   UNL     1       2.073   5.180  17.599  1.00  0.00     0.159 C 
ATOM     24  C   UNL     1       0.681   4.945  18.056  1.00  0.00     0.005 C 
ATOM     25  C   UNL     1      -1.395   3.525  17.931  1.00  0.00     0.020 C 
ATOM     26  C   UNL     1       0.431   3.010  19.623  1.00  0.00     0.017 C 
ATOM     27  O   UNL     1       2.648   6.274  17.857  1.00  0.00    -0.295 OA
ATOM     28  C   UNL     1      -0.072   6.003  18.417  1.00  0.00     0.055 C 
ATOM     29  C   UNL     1      -2.151   4.527  18.814  1.00  0.00     0.081 C 
ATOM     30  C   UNL     1      -1.479   5.863  18.817  1.00  0.00     0.156 C 
ATOM     31  O   UNL     1      -2.120   6.879  19.195  1.00  0.00    -0.295 OA
ENDBRANCH   9  11
ENDBRANCH   8   9
ENDBRANCH   1   8
TORSDOF 6
ENDMDL
MODEL 5
REMARK VINA RESULT:    -7.710     10.917     13.554
REMARK INTER + INTRA:         -11.260
REMARK INTER:                  -9.637
REMARK INTRA:                  -1.623
REMARK UNBOUND:                -0.846
REMARK SMILES CC[C@H](CC[C@H](C)[C@@H]1CC[C@H]2[C@H]3CC(=O)C4=CC(=O)CC[C@@]4(C)[C@@H]3CC[C@]21C)C(C)C
REMARK SMILES IDX 4 1 3 2 2 3 1 4 29 5 30 6 31 7 5 8 6 9 7 10 8 11 9 12 27 13
REMARK SMILES IDX 10 14 11 15 26 16 28 17 12 18 25 19 24 20 13 21 22 22 14 23
REMARK SMILES IDX 16 24 21 25 23 26 15 27 17 28 20 29 18 30 19 31
REMARK H PARENT
REMARK Flexibility Score: inf
ROOT
ATOM      1  C   UNL     1       0.624  -6.290   9.821  1.00  0.00     0.004 C 
ENDROOT
BRANCH   1   2
ATOM      2  C   UNL     1       1.198  -7.684   9.434  1.00  0.00    -0.009 C 
BRANCH   2   3
ATOM      3  C   UNL     1       2.416  -7.521   8.482  1.00  0.00     0.000 C 
ATOM      4  C   UNL     1       3.171  -6.206   8.687  1.00  0.00     0.004 C 
ENDBRANCH   2   3
BRANCH   2   5
ATOM      5  C   UNL     1       1.531  -8.576  10.679  1.00  0.00    -0.014 C 
ATOM      6  C   UNL     1       1.670  -7.755  11.972  1.00  0.00     0.007 C 
ATOM      7  C   UNL     1       0.539  -9.731  10.890  1.00  0.00     0.007 C 
ENDBRANCH   2   5
ENDBRANCH   1   2
BRANCH   1   8
ATOM      8  C   UNL     1      -0.799  -6.031   9.286  1.00  0.00     0.004 C 
BRANCH   8   9
ATOM      9  C   UNL     1      -0.897  -4.735   8.432  1.00  0.00    -0.011 C 
ATOM     10  C   UNL     1      -2.111  -3.903   8.884  1.00  0.00     0.008 C 
BRANCH   9  11
ATOM     11  C   UNL     1      -0.953  -4.967   6.877  1.00  0.00    -0.002 C 
ATOM     12  C   UNL     1      -0.691  -6.401   6.384  1.00  0.00     0.005 C 
ATOM     13  C   UNL     1      -0.084  -4.027   5.988  1.00  0.00    -0.026 C 
ATOM     14  C   UNL     1      -0.009  -6.269   5.023  1.00  0.00     0.005 C 
ATOM     15  C   UNL     1      -0.099  -4.779   4.613  1.00  0.00    -0.001 C 
ATOM     16  C   UNL     1      -0.657  -2.567   5.962  1.00  0.00     0.007 C 
ATOM     17  C   UNL     1       1.385  -3.940   6.493  1.00  0.00     0.012 C 
ATOM     18  C   UNL     1      -1.276  -4.408   3.601  1.00  0.00     0.004 C 
ATOM     19  C   UNL     1      -1.129  -2.110   4.589  1.00  0.00     0.005 C 
ATOM     20  C   UNL     1      -2.100  -3.155   4.016  1.00  0.00     0.003 C 
ATOM     21  C   UNL     1      -2.234  -5.557   3.230  1.00  0.00     0.085 C 
ATOM     22  C   UNL     1      -3.036  -2.606   2.869  1.00  0.00    -0.000 C 
ATOM     23  C   UNL     1      -3.295  -5.133   2.259  1.00  0.00     0.159 C 
ATOM     24  C   UNL     1      -3.861  -3.762   2.287  1.00  0.00     0.005 C 
ATOM     25  C   UNL     1      -4.016  -1.540   3.464  1.00  0.00     0.020 C 
ATOM     26  C   UNL     1      -2.214  -1.964   1.721  1.00  0.00     0.017 C 
ATOM     27  O   UNL     1      -3.758  -5.993   1.460  1.00  0.00    -0.295 OA
ATOM     28  C   UNL     1      -5.071  -3.546   1.735  1.00  0.00     0.055 C 
ATOM     29  C   UNL     1      -5.089  -1.074   2.470  1.00  0.00     0.081 C 
ATOM     30  C   UNL     1      -5.730  -2.234   1.778  1.00  0.00     0.156 C 
ATOM     31  O   UNL     1      -6.837  -2.076   1.200  1.00  0.00    -0.295 OA
ENDBRANCH   9  11
ENDBRANCH   8   9
ENDBRANCH   1   8
TORSDOF 6
ENDMDL
MODEL 6
REMARK VINA RESULT:    -7.657      1.664      3.644
REMARK INTER + INTRA:         -11.189
REMARK INTER:                  -9.151
REMARK INTRA:                  -2.037
REMARK UNBOUND:                -0.846
REMARK SMILES CC[C@H](CC[C@H](C)[C@@H]1CC[C@H]2[C@H]3CC(=O)C4=CC(=O)CC[C@@]4(C)[C@@H]3CC[C@]21C)C(C)C
REMARK SMILES IDX 4 1 3 2 2 3 1 4 29 5 30 6 31 7 5 8 6 9 7 10 8 11 9 12 27 13
REMARK SMILES IDX 10 14 11 15 26 16 28 17 12 18 25 19 24 20 13 21 22 22 14 23
REMARK SMILES IDX 16 24 21 25 23 26 15 27 17 28 20 29 18 30 19 31
REMARK H PARENT
REMARK Flexibility Score: inf
ROOT
ATOM      1  C   UNL     1      -2.187   0.566  18.953  1.00  0.00     0.004 C 
ENDROOT
BRANCH   1   2
ATOM      2  C   UNL     1      -1.148  -0.570  19.173  1.00  0.00    -0.009 C 
BRANCH   2   3
ATOM      3  C   UNL     1      -0.683  -0.598  20.656  1.00  0.00     0.000 C 
ATOM      4  C   UNL     1       0.679   0.064  20.875  1.00  0.00     0.004 C 
ENDBRANCH   2   3
BRANCH   2   5
ATOM      5  C   UNL     1      -1.656  -1.969  18.681  1.00  0.00    -0.014 C 
ATOM      6  C   UNL     1      -2.822  -1.855  17.685  1.00  0.00     0.007 C 
ATOM      7  C   UNL     1      -0.545  -2.855  18.097  1.00  0.00     0.007 C 
ENDBRANCH   2   5
ENDBRANCH   1   2
BRANCH   1   8
ATOM      8  C   UNL     1      -1.740   1.634  17.934  1.00  0.00     0.004 C 
BRANCH   8   9
ATOM      9  C   UNL     1      -0.203   1.629  17.689  1.00  0.00    -0.011 C 
ATOM     10  C   UNL     1       0.364   3.044  17.905  1.00  0.00     0.008 C 
BRANCH   9  11
ATOM     11  C   UNL     1       0.243   1.078  16.285  1.00  0.00    -0.002 C 
ATOM     12  C   UNL     1      -0.682   0.041  15.624  1.00  0.00     0.005 C 
ATOM     13  C   UNL     1       1.692   0.514  16.173  1.00  0.00    -0.026 C 
ATOM     14  C   UNL     1       0.222  -0.891  14.820  1.00  0.00     0.005 C 
ATOM     15  C   UNL     1       1.633  -0.256  14.808  1.00  0.00    -0.001 C 
ATOM     16  C   UNL     1       2.764   1.655  16.256  1.00  0.00     0.007 C 
ATOM     17  C   UNL     1       2.010  -0.505  17.305  1.00  0.00     0.012 C 
ATOM     18  C   UNL     1       2.011   0.573  13.498  1.00  0.00     0.004 C 
ATOM     19  C   UNL     1       3.587   1.826  14.988  1.00  0.00     0.005 C 
ATOM     20  C   UNL     1       2.641   1.966  13.786  1.00  0.00     0.003 C 
ATOM     21  C   UNL     1       0.893   0.717  12.446  1.00  0.00     0.085 C 
ATOM     22  C   UNL     1       3.302   2.634  12.516  1.00  0.00    -0.000 C 
ATOM     23  C   UNL     1       1.334   1.487  11.238  1.00  0.00     0.159 C 
ATOM     24  C   UNL     1       2.310   2.599  11.346  1.00  0.00     0.005 C 
ATOM     25  C   UNL     1       3.647   4.127  12.837  1.00  0.00     0.020 C 
ATOM     26  C   UNL     1       4.593   1.889  12.087  1.00  0.00     0.017 C 
ATOM     27  O   UNL     1       0.799   1.220  10.126  1.00  0.00    -0.295 OA
ATOM     28  C   UNL     1       2.349   3.528  10.371  1.00  0.00     0.055 C 
ATOM     29  C   UNL     1       4.131   4.919  11.614  1.00  0.00     0.081 C 
ATOM     30  C   UNL     1       3.240   4.695  10.435  1.00  0.00     0.156 C 
ATOM     31  O   UNL     1       3.273   5.504   9.470  1.00  0.00    -0.295 OA
ENDBRANCH   9  11
ENDBRANCH   8   9
ENDBRANCH   1   8
TORSDOF 6
ENDMDL
MODEL 7
REMARK VINA RESULT:    -7.555     10.077     12.662
REMARK INTER + INTRA:         -11.050
REMARK INTER:                  -9.798
REMARK INTRA:                  -1.252
REMARK UNBOUND:                -0.846
REMARK SMILES CC[C@H](CC[C@H](C)[C@@H]1CC[C@H]2[C@H]3CC(=O)C4=CC(=O)CC[C@@]4(C)[C@@H]3CC[C@]21C)C(C)C
REMARK SMILES IDX 4 1 3 2 2 3 1 4 29 5 30 6 31 7 5 8 6 9 7 10 8 11 9 12 27 13
REMARK SMILES IDX 10 14 11 15 26 16 28 17 12 18 25 19 24 20 13 21 22 22 14 23
REMARK SMILES IDX 16 24 21 25 23 26 15 27 17 28 20 29 18 30 19 31
REMARK H PARENT
REMARK Flexibility Score: inf
ROOT
ATOM      1  C   UNL     1       1.812  -7.537   8.671  1.00  0.00     0.004 C 
ENDROOT
BRANCH   1   2
ATOM      2  C   UNL     1       1.364  -8.695   9.608  1.00  0.00    -0.009 C 
BRANCH   2   3
ATOM      3  C   UNL     1       1.984 -10.041   9.138  1.00  0.00     0.000 C 
ATOM      4  C   UNL     1       3.263  -9.862   8.317  1.00  0.00     0.004 C 
ENDBRANCH   2   3
BRANCH   2   5
ATOM      5  C   UNL     1       1.649  -8.404  11.122  1.00  0.00    -0.014 C 
ATOM      6  C   UNL     1       1.651  -6.900  11.442  1.00  0.00     0.007 C 
ATOM      7  C   UNL     1       0.703  -9.148  12.078  1.00  0.00     0.007 C 
ENDBRANCH   2   5
ENDBRANCH   1   2
BRANCH   1   8
ATOM      8  C   UNL     1       0.726  -7.085   7.673  1.00  0.00     0.004 C 
BRANCH   8   9
ATOM      9  C   UNL     1       0.133  -5.689   8.018  1.00  0.00    -0.011 C 
ATOM     10  C   UNL     1      -0.963  -5.838   9.089  1.00  0.00     0.008 C 
BRANCH   9  11
ATOM     11  C   UNL     1      -0.421  -4.881   6.788  1.00  0.00    -0.002 C 
ATOM     12  C   UNL     1      -0.611  -5.664   5.477  1.00  0.00     0.005 C 
ATOM     13  C   UNL     1       0.319  -3.562   6.413  1.00  0.00    -0.026 C 
ATOM     14  C   UNL     1      -0.346  -4.675   4.343  1.00  0.00     0.005 C 
ATOM     15  C   UNL     1      -0.250  -3.268   4.982  1.00  0.00    -0.001 C 
ATOM     16  C   UNL     1       0.072  -2.438   7.478  1.00  0.00     0.007 C 
ATOM     17  C   UNL     1       1.857  -3.768   6.304  1.00  0.00     0.012 C 
ATOM     18  C   UNL     1      -1.571  -2.378   4.901  1.00  0.00     0.004 C 
ATOM     19  C   UNL     1      -0.681  -1.229   6.941  1.00  0.00     0.005 C 
ATOM     20  C   UNL     1      -1.966  -1.702   6.246  1.00  0.00     0.003 C 
ATOM     21  C   UNL     1      -2.807  -3.060   4.281  1.00  0.00     0.085 C 
ATOM     22  C   UNL     1      -3.067  -0.580   6.090  1.00  0.00    -0.000 C 
ATOM     23  C   UNL     1      -3.998  -2.150   4.221  1.00  0.00     0.159 C 
ATOM     24  C   UNL     1      -4.242  -1.129   5.269  1.00  0.00     0.005 C 
ATOM     25  C   UNL     1      -3.593  -0.169   7.506  1.00  0.00     0.020 C 
ATOM     26  C   UNL     1      -2.506   0.672   5.366  1.00  0.00     0.017 C 
ATOM     27  O   UNL     1      -4.838  -2.321   3.295  1.00  0.00    -0.295 OA
ATOM     28  C   UNL     1      -5.491  -0.651   5.434  1.00  0.00     0.055 C 
ATOM     29  C   UNL     1      -4.793   0.787   7.458  1.00  0.00     0.081 C 
ATOM     30  C   UNL     1      -5.829   0.311   6.491  1.00  0.00     0.156 C 
ATOM     31  O   UNL     1      -7.001   0.764   6.566  1.00  0.00    -0.295 OA
ENDBRANCH   9  11
ENDBRANCH   8   9
ENDBRANCH   1   8
TORSDOF 6
ENDMDL
MODEL 8
REMARK VINA RESULT:    -7.478     10.678     15.191
REMARK INTER + INTRA:         -10.947
REMARK INTER:                  -9.857
REMARK INTRA:                  -1.090
REMARK UNBOUND:                -0.846
REMARK SMILES CC[C@H](CC[C@H](C)[C@@H]1CC[C@H]2[C@H]3CC(=O)C4=CC(=O)CC[C@@]4(C)[C@@H]3CC[C@]21C)C(C)C
REMARK SMILES IDX 4 1 3 2 2 3 1 4 29 5 30 6 31 7 5 8 6 9 7 10 8 11 9 12 27 13
REMARK SMILES IDX 10 14 11 15 26 16 28 17 12 18 25 19 24 20 13 21 22 22 14 23
REMARK SMILES IDX 16 24 21 25 23 26 15 27 17 28 20 29 18 30 19 31
REMARK H PARENT
REMARK Flexibility Score: inf
ROOT
ATOM      1  C   UNL     1      -4.091  -6.198   1.182  1.00  0.00     0.004 C 
ENDROOT
BRANCH   1   2
ATOM      2  C   UNL     1      -4.861  -6.816   2.384  1.00  0.00    -0.009 C 
BRANCH   2   3
ATOM      3  C   UNL     1      -6.147  -7.535   1.889  1.00  0.00     0.000 C 
ATOM      4  C   UNL     1      -7.407  -6.676   2.018  1.00  0.00     0.004 C 
ENDBRANCH   2   3
BRANCH   2   5
ATOM      5  C   UNL     1      -3.965  -7.744   3.274  1.00  0.00    -0.014 C 
ATOM      6  C   UNL     1      -4.604  -9.122   3.517  1.00  0.00     0.007 C 
ATOM      7  C   UNL     1      -2.533  -7.910   2.740  1.00  0.00     0.007 C 
ENDBRANCH   2   5
ENDBRANCH   1   2
BRANCH   1   8
ATOM      8  C   UNL     1      -4.059  -4.656   1.187  1.00  0.00     0.004 C 
BRANCH   8   9
ATOM      9  C   UNL     1      -4.916  -4.038   2.330  1.00  0.00    -0.011 C 
ATOM     10  C   UNL     1      -5.905  -3.014   1.744  1.00  0.00     0.008 C 
BRANCH   9  11
ATOM     11  C   UNL     1      -4.091  -3.382   3.497  1.00  0.00    -0.002 C 
ATOM     12  C   UNL     1      -4.740  -2.186   4.214  1.00  0.00     0.005 C 
ATOM     13  C   UNL     1      -2.622  -2.965   3.181  1.00  0.00    -0.026 C 
ATOM     14  C   UNL     1      -3.596  -1.269   4.644  1.00  0.00     0.005 C 
ATOM     15  C   UNL     1      -2.279  -2.045   4.403  1.00  0.00    -0.001 C 
ATOM     16  C   UNL     1      -1.694  -4.216   2.999  1.00  0.00     0.007 C 
ATOM     17  C   UNL     1      -2.524  -2.120   1.878  1.00  0.00     0.012 C 
ATOM     18  C   UNL     1      -1.646  -2.755   5.684  1.00  0.00     0.004 C 
ATOM     19  C   UNL     1      -0.593  -4.328   4.044  1.00  0.00     0.005 C 
ATOM     20  C   UNL     1      -1.214  -4.230   5.445  1.00  0.00     0.003 C 
ATOM     21  C   UNL     1      -2.471  -2.661   6.983  1.00  0.00     0.085 C 
ATOM     22  C   UNL     1      -0.307  -4.817   6.597  1.00  0.00    -0.000 C 
ATOM     23  C   UNL     1      -1.799  -3.332   8.143  1.00  0.00     0.159 C 
ATOM     24  C   UNL     1      -0.968  -4.545   7.955  1.00  0.00     0.005 C 
ATOM     25  C   UNL     1      -0.166  -6.365   6.408  1.00  0.00     0.020 C 
ATOM     26  C   UNL     1       1.102  -4.169   6.599  1.00  0.00     0.017 C 
ATOM     27  O   UNL     1      -2.016  -2.886   9.304  1.00  0.00    -0.295 OA
ATOM     28  C   UNL     1      -0.753  -5.357   9.010  1.00  0.00     0.055 C 
ATOM     29  C   UNL     1       0.549  -7.060   7.575  1.00  0.00     0.081 C 
ATOM     30  C   UNL     1       0.002  -6.611   8.892  1.00  0.00     0.156 C 
ATOM     31  O   UNL     1       0.217  -7.305   9.921  1.00  0.00    -0.295 OA
ENDBRANCH   9  11
ENDBRANCH   8   9
ENDBRANCH   1   8
TORSDOF 6
ENDMDL
MODEL 9
REMARK VINA RESULT:    -7.406     10.096     14.156
REMARK INTER + INTRA:         -10.850
REMARK INTER:                  -9.826
REMARK INTRA:                  -1.023
REMARK UNBOUND:                -0.846
REMARK SMILES CC[C@H](CC[C@H](C)[C@@H]1CC[C@H]2[C@H]3CC(=O)C4=CC(=O)CC[C@@]4(C)[C@@H]3CC[C@]21C)C(C)C
REMARK SMILES IDX 4 1 3 2 2 3 1 4 29 5 30 6 31 7 5 8 6 9 7 10 8 11 9 12 27 13
REMARK SMILES IDX 10 14 11 15 26 16 28 17 12 18 25 19 24 20 13 21 22 22 14 23
REMARK SMILES IDX 16 24 21 25 23 26 15 27 17 28 20 29 18 30 19 31
REMARK H PARENT
REMARK Flexibility Score: inf
ROOT
ATOM      1  C   UNL     1      -2.243  -5.410   2.752  1.00  0.00     0.004 C 
ENDROOT
BRANCH   1   2
ATOM      2  C   UNL     1      -3.739  -5.838   2.754  1.00  0.00    -0.009 C 
BRANCH   2   3
ATOM      3  C   UNL     1      -4.621  -4.721   2.128  1.00  0.00     0.000 C 
ATOM      4  C   UNL     1      -5.784  -4.296   3.026  1.00  0.00     0.004 C 
ENDBRANCH   2   3
BRANCH   2   5
ATOM      5  C   UNL     1      -3.979  -7.233   2.081  1.00  0.00    -0.014 C 
ATOM      6  C   UNL     1      -2.864  -8.242   2.405  1.00  0.00     0.007 C 
ATOM      7  C   UNL     1      -5.353  -7.841   2.403  1.00  0.00     0.007 C 
ENDBRANCH   2   5
ENDBRANCH   1   2
BRANCH   1   8
ATOM      8  C   UNL     1      -1.868  -4.443   3.894  1.00  0.00     0.004 C 
BRANCH   8   9
ATOM      9  C   UNL     1      -0.744  -5.001   4.813  1.00  0.00    -0.011 C 
ATOM     10  C   UNL     1      -0.644  -6.528   4.646  1.00  0.00     0.008 C 
BRANCH   9  11
ATOM     11  C   UNL     1      -0.889  -4.634   6.336  1.00  0.00    -0.002 C 
ATOM     12  C   UNL     1      -1.933  -3.562   6.691  1.00  0.00     0.005 C 
ATOM     13  C   UNL     1       0.415  -4.254   7.101  1.00  0.00    -0.026 C 
ATOM     14  C   UNL     1      -1.387  -2.817   7.908  1.00  0.00     0.005 C 
ATOM     15  C   UNL     1      -0.157  -3.609   8.411  1.00  0.00    -0.001 C 
ATOM     16  C   UNL     1       1.343  -5.500   7.314  1.00  0.00     0.007 C 
ATOM     17  C   UNL     1       1.246  -3.181   6.339  1.00  0.00     0.012 C 
ATOM     18  C   UNL     1      -0.419  -4.591   9.641  1.00  0.00     0.004 C 
ATOM     19  C   UNL     1       1.547  -5.878   8.774  1.00  0.00     0.005 C 
ATOM     20  C   UNL     1       0.178  -6.016   9.456  1.00  0.00     0.003 C 
ATOM     21  C   UNL     1      -1.880  -4.699  10.118  1.00  0.00     0.085 C 
ATOM     22  C   UNL     1       0.201  -6.868  10.786  1.00  0.00    -0.000 C 
ATOM     23  C   UNL     1      -2.038  -5.621  11.290  1.00  0.00     0.159 C 
ATOM     24  C   UNL     1      -1.184  -6.824  11.444  1.00  0.00     0.005 C 
ATOM     25  C   UNL     1       0.547  -8.355  10.442  1.00  0.00     0.020 C 
ATOM     26  C   UNL     1       1.242  -6.319  11.797  1.00  0.00     0.017 C 
ATOM     27  O   UNL     1      -2.970  -5.395  12.111  1.00  0.00    -0.295 OA
ATOM     28  C   UNL     1      -1.619  -7.835  12.222  1.00  0.00     0.055 C 
ATOM     29  C   UNL     1       0.420  -9.305  11.642  1.00  0.00     0.081 C 
ATOM     30  C   UNL     1      -0.865  -9.087  12.374  1.00  0.00     0.156 C 
ATOM     31  O   UNL     1      -1.293  -9.978  13.154  1.00  0.00    -0.295 OA
ENDBRANCH   9  11
ENDBRANCH   8   9
ENDBRANCH   1   8
TORSDOF 6
ENDMDL
