MODEL 1
REMARK VINA RESULT:    -4.346      0.000      0.000
REMARK INTER + INTRA:          -4.617
REMARK INTER:                  -4.601
REMARK INTRA:                  -0.016
REMARK UNBOUND:                -0.016
REMARK SMILES O=C([O-])c1cccnc1
REMARK SMILES IDX 4 1 5 2 9 3 6 4 8 5 7 6 2 7 1 8 3 9
REMARK H PARENT
REMARK Flexibility Score: inf
ROOT
ATOM      1  C   UNL     1      -2.910  37.324  17.520  1.00  0.00     0.016 A 
ATOM      2  C   UNL     1      -3.925  36.452  17.945  1.00  0.00     0.013 A 
ATOM      3  C   UNL     1      -2.203  38.052  18.494  1.00  0.00     0.120 A 
ATOM      4  C   UNL     1      -4.213  36.321  19.306  1.00  0.00     0.021 A 
ATOM      5  N   UNL     1      -2.503  37.906  19.812  1.00  0.00    -0.264 NA
ATOM      6  C   UNL     1      -3.484  37.064  20.233  1.00  0.00     0.111 A 
ENDROOT
BRANCH   1   7
ATOM      7  C   UNL     1      -2.596  37.470  16.083  1.00  0.00     0.073 C 
ATOM      8  O   UNL     1      -1.619  36.858  15.575  1.00  0.00    -0.545 OA
ATOM      9  O   UNL     1      -3.375  38.287  15.271  1.00  0.00    -0.545 OA
ENDBRANCH   1   7
TORSDOF 1
ENDMDL
MODEL 2
REMARK VINA RESULT:    -4.325      2.717      3.529
REMARK INTER + INTRA:          -4.594
REMARK INTER:                  -4.572
REMARK INTRA:                  -0.022
REMARK UNBOUND:                -0.016
REMARK SMILES O=C([O-])c1cccnc1
REMARK SMILES IDX 4 1 5 2 9 3 6 4 8 5 7 6 2 7 1 8 3 9
REMARK H PARENT
REMARK Flexibility Score: inf
ROOT
ATOM      1  C   UNL     1      -3.884  36.728  19.069  1.00  0.00     0.016 A 
ATOM      2  C   UNL     1      -3.445  36.857  17.742  1.00  0.00     0.013 A 
ATOM      3  C   UNL     1      -3.153  37.376  20.081  1.00  0.00     0.120 A 
ATOM      4  C   UNL     1      -2.309  37.615  17.449  1.00  0.00     0.021 A 
ATOM      5  N   UNL     1      -2.050  38.109  19.769  1.00  0.00    -0.264 NA
ATOM      6  C   UNL     1      -1.618  38.240  18.487  1.00  0.00     0.111 A 
ENDROOT
BRANCH   1   7
ATOM      7  C   UNL     1      -5.084  35.928  19.391  1.00  0.00     0.073 C 
ATOM      8  O   UNL     1      -5.731  36.141  20.451  1.00  0.00    -0.545 OA
ATOM      9  O   UNL     1      -5.518  34.929  18.527  1.00  0.00    -0.545 OA
ENDBRANCH   1   7
TORSDOF 1
ENDMDL
MODEL 3
REMARK VINA RESULT:    -4.301      1.031      1.805
REMARK INTER + INTRA:          -4.569
REMARK INTER:                  -4.551
REMARK INTRA:                  -0.018
REMARK UNBOUND:                -0.016
REMARK SMILES O=C([O-])c1cccnc1
REMARK SMILES IDX 4 1 5 2 9 3 6 4 8 5 7 6 2 7 1 8 3 9
REMARK H PARENT
REMARK Flexibility Score: inf
ROOT
ATOM      1  C   UNL     1      -2.457  37.619  17.185  1.00  0.00     0.016 A 
ATOM      2  C   UNL     1      -1.266  38.064  17.779  1.00  0.00     0.013 A 
ATOM      3  C   UNL     1      -3.532  37.270  18.023  1.00  0.00     0.120 A 
ATOM      4  C   UNL     1      -1.165  38.154  19.169  1.00  0.00     0.021 A 
ATOM      5  N   UNL     1      -3.408  37.367  19.374  1.00  0.00    -0.264 NA
ATOM      6  C   UNL     1      -2.259  37.797  19.958  1.00  0.00     0.111 A 
ENDROOT
BRANCH   1   7
ATOM      7  C   UNL     1      -2.575  37.520  15.715  1.00  0.00     0.073 C 
ATOM      8  O   UNL     1      -1.807  36.766  15.060  1.00  0.00    -0.545 OA
ATOM      9  O   UNL     1      -3.536  38.259  15.034  1.00  0.00    -0.545 OA
ENDBRANCH   1   7
TORSDOF 1
ENDMDL
MODEL 4
REMARK VINA RESULT:    -4.254      3.232      4.254
REMARK INTER + INTRA:          -4.519
REMARK INTER:                  -4.502
REMARK INTRA:                  -0.016
REMARK UNBOUND:                -0.016
REMARK SMILES O=C([O-])c1cccnc1
REMARK SMILES IDX 4 1 5 2 9 3 6 4 8 5 7 6 2 7 1 8 3 9
REMARK H PARENT
REMARK Flexibility Score: inf
ROOT
ATOM      1  C   UNL     1      -3.498  37.060  19.585  1.00  0.00     0.016 A 
ATOM      2  C   UNL     1      -2.364  37.866  19.775  1.00  0.00     0.013 A 
ATOM      3  C   UNL     1      -3.810  36.643  18.278  1.00  0.00     0.120 A 
ATOM      4  C   UNL     1      -1.575  38.235  18.683  1.00  0.00     0.021 A 
ATOM      5  N   UNL     1      -3.025  37.017  17.232  1.00  0.00    -0.264 NA
ATOM      6  C   UNL     1      -1.925  37.796  17.407  1.00  0.00     0.111 A 
ENDROOT
BRANCH   1   7
ATOM      7  C   UNL     1      -4.340  36.662  20.732  1.00  0.00     0.073 C 
ATOM      8  O   UNL     1      -5.462  37.204  20.921  1.00  0.00    -0.545 OA
ATOM      9  O   UNL     1      -3.907  35.684  21.619  1.00  0.00    -0.545 OA
ENDBRANCH   1   7
TORSDOF 1
ENDMDL
MODEL 5
REMARK VINA RESULT:    -4.119      2.011      2.508
REMARK INTER + INTRA:          -4.376
REMARK INTER:                  -4.356
REMARK INTRA:                  -0.020
REMARK UNBOUND:                -0.016
REMARK SMILES O=C([O-])c1cccnc1
REMARK SMILES IDX 4 1 5 2 9 3 6 4 8 5 7 6 2 7 1 8 3 9
REMARK H PARENT
REMARK Flexibility Score: inf
ROOT
ATOM      1  C   UNL     1      -3.648  37.269  18.782  1.00  0.00     0.016 A 
ATOM      2  C   UNL     1      -4.099  37.873  19.967  1.00  0.00     0.013 A 
ATOM      3  C   UNL     1      -4.243  36.059  18.380  1.00  0.00     0.120 A 
ATOM      4  C   UNL     1      -5.115  37.276  20.716  1.00  0.00     0.021 A 
ATOM      5  N   UNL     1      -5.231  35.498  19.129  1.00  0.00    -0.264 NA
ATOM      6  C   UNL     1      -5.674  36.076  20.276  1.00  0.00     0.111 A 
ENDROOT
BRANCH   1   7
ATOM      7  C   UNL     1      -2.573  37.891  17.981  1.00  0.00     0.073 C 
ATOM      8  O   UNL     1      -1.524  38.316  18.535  1.00  0.00    -0.545 OA
ATOM      9  O   UNL     1      -2.705  38.017  16.603  1.00  0.00    -0.545 OA
ENDBRANCH   1   7
TORSDOF 1
ENDMDL
MODEL 6
REMARK VINA RESULT:    -4.095      1.892      2.236
REMARK INTER + INTRA:          -4.350
REMARK INTER:                  -4.331
REMARK INTRA:                  -0.019
REMARK UNBOUND:                -0.016
REMARK SMILES O=C([O-])c1cccnc1
REMARK SMILES IDX 4 1 5 2 9 3 6 4 8 5 7 6 2 7 1 8 3 9
REMARK H PARENT
REMARK Flexibility Score: inf
ROOT
ATOM      1  C   UNL     1      -3.724  37.260  18.826  1.00  0.00     0.016 A 
ATOM      2  C   UNL     1      -4.211  36.005  18.427  1.00  0.00     0.013 A 
ATOM      3  C   UNL     1      -4.283  37.862  19.968  1.00  0.00     0.120 A 
ATOM      4  C   UNL     1      -5.226  35.382  19.158  1.00  0.00     0.021 A 
ATOM      5  N   UNL     1      -5.270  37.234  20.662  1.00  0.00    -0.264 NA
ATOM      6  C   UNL     1      -5.747  36.019  20.283  1.00  0.00     0.111 A 
ENDROOT
BRANCH   1   7
ATOM      7  C   UNL     1      -2.651  37.929  18.061  1.00  0.00     0.073 C 
ATOM      8  O   UNL     1      -1.661  38.434  18.654  1.00  0.00    -0.545 OA
ATOM      9  O   UNL     1      -2.718  38.010  16.675  1.00  0.00    -0.545 OA
ENDBRANCH   1   7
TORSDOF 1
ENDMDL
MODEL 7
REMARK VINA RESULT:    -3.899      2.035      2.469
REMARK INTER + INTRA:          -4.143
REMARK INTER:                  -4.126
REMARK INTRA:                  -0.018
REMARK UNBOUND:                -0.016
REMARK SMILES O=C([O-])c1cccnc1
REMARK SMILES IDX 4 1 5 2 9 3 6 4 8 5 7 6 2 7 1 8 3 9
REMARK H PARENT
REMARK Flexibility Score: inf
ROOT
ATOM      1  C   UNL     1      -3.927  37.222  19.310  1.00  0.00     0.016 A 
ATOM      2  C   UNL     1      -3.908  36.058  20.094  1.00  0.00     0.013 A 
ATOM      3  C   UNL     1      -4.695  38.314  19.753  1.00  0.00     0.120 A 
ATOM      4  C   UNL     1      -4.638  36.001  21.283  1.00  0.00     0.021 A 
ATOM      5  N   UNL     1      -5.398  38.233  20.916  1.00  0.00    -0.264 NA
ATOM      6  C   UNL     1      -5.384  37.110  21.681  1.00  0.00     0.111 A 
ENDROOT
BRANCH   1   7
ATOM      7  C   UNL     1      -3.158  37.294  18.049  1.00  0.00     0.073 C 
ATOM      8  O   UNL     1      -2.267  38.170  17.892  1.00  0.00    -0.545 OA
ATOM      9  O   UNL     1      -3.408  36.395  17.019  1.00  0.00    -0.545 OA
ENDBRANCH   1   7
TORSDOF 1
ENDMDL
MODEL 8
REMARK VINA RESULT:    -3.627      4.599      5.621
REMARK INTER + INTRA:          -3.856
REMARK INTER:                  -3.831
REMARK INTRA:                  -0.024
REMARK UNBOUND:                -0.016
REMARK SMILES O=C([O-])c1cccnc1
REMARK SMILES IDX 4 1 5 2 9 3 6 4 8 5 7 6 2 7 1 8 3 9
REMARK H PARENT
REMARK Flexibility Score: inf
ROOT
ATOM      1  C   UNL     1      -5.009  36.585  21.597  1.00  0.00     0.016 A 
ATOM      2  C   UNL     1      -5.389  37.889  21.243  1.00  0.00     0.013 A 
ATOM      3  C   UNL     1      -4.237  35.843  20.685  1.00  0.00     0.120 A 
ATOM      4  C   UNL     1      -5.002  38.423  20.011  1.00  0.00     0.021 A 
ATOM      5  N   UNL     1      -3.873  36.386  19.493  1.00  0.00    -0.264 NA
ATOM      6  C   UNL     1      -4.236  37.648  19.141  1.00  0.00     0.111 A 
ENDROOT
BRANCH   1   7
ATOM      7  C   UNL     1      -5.414  36.010  22.897  1.00  0.00     0.073 C 
ATOM      8  O   UNL     1      -6.125  36.674  23.698  1.00  0.00    -0.545 OA
ATOM      9  O   UNL     1      -5.015  34.727  23.255  1.00  0.00    -0.545 OA
ENDBRANCH   1   7
TORSDOF 1
ENDMDL
MODEL 9
REMARK VINA RESULT:    -3.591      2.758      3.453
REMARK INTER + INTRA:          -3.817
REMARK INTER:                  -3.801
REMARK INTRA:                  -0.016
REMARK UNBOUND:                -0.016
REMARK SMILES O=C([O-])c1cccnc1
REMARK SMILES IDX 4 1 5 2 9 3 6 4 8 5 7 6 2 7 1 8 3 9
REMARK H PARENT
REMARK Flexibility Score: inf
ROOT
ATOM      1  C   UNL     1      -3.976  36.726  20.422  1.00  0.00     0.016 A 
ATOM      2  C   UNL     1      -5.201  37.265  20.846  1.00  0.00     0.013 A 
ATOM      3  C   UNL     1      -3.393  35.704  21.193  1.00  0.00     0.120 A 
ATOM      4  C   UNL     1      -5.814  36.787  22.006  1.00  0.00     0.021 A 
ATOM      5  N   UNL     1      -4.011  35.256  22.319  1.00  0.00    -0.264 NA
ATOM      6  C   UNL     1      -5.197  35.772  22.737  1.00  0.00     0.111 A 
ENDROOT
BRANCH   1   7
ATOM      7  C   UNL     1      -3.319  37.224  19.195  1.00  0.00     0.073 C 
ATOM      8  O   UNL     1      -2.444  38.129  19.260  1.00  0.00    -0.545 OA
ATOM      9  O   UNL     1      -3.656  36.700  17.953  1.00  0.00    -0.545 OA
ENDBRANCH   1   7
TORSDOF 1
ENDMDL
