MODEL 1
REMARK VINA RESULT:    -4.644      0.000      0.000
REMARK INTER + INTRA:          -6.068
REMARK INTER:                  -5.730
REMARK INTRA:                  -0.337
REMARK UNBOUND:                -0.337
REMARK SMILES C=CCc1ccc(OC)c(OC)c1
REMARK SMILES IDX 7 1 10 2 13 3 4 4 5 5 6 6 8 7 9 8 11 9 12 10 3 11 2 12 1 13
REMARK H PARENT
REMARK Flexibility Score: inf
ROOT
ATOM      1  C   UNL     1       6.564 -10.866  42.779  1.00  0.00     0.160 A 
ATOM      2  C   UNL     1       6.595 -10.311  41.489  1.00  0.00     0.160 A 
ATOM      3  C   UNL     1       7.262  -9.089  41.273  1.00  0.00     0.054 A 
ATOM      4  C   UNL     1       7.899  -8.426  42.332  1.00  0.00    -0.040 A 
ATOM      5  C   UNL     1       7.854  -8.981  43.618  1.00  0.00     0.008 A 
ATOM      6  C   UNL     1       7.195 -10.191  43.841  1.00  0.00     0.051 A 
ENDROOT
BRANCH   1   7
ATOM      7  O   UNL     1       5.893 -12.085  42.965  1.00  0.00    -0.493 OA
ATOM      8  C   UNL     1       6.537 -13.345  43.119  1.00  0.00     0.278 C 
ENDBRANCH   1   7
BRANCH   2   9
ATOM      9  O   UNL     1       5.953 -11.004  40.451  1.00  0.00    -0.493 OA
ATOM     10  C   UNL     1       6.625 -11.650  39.374  1.00  0.00     0.278 C 
ENDBRANCH   2   9
BRANCH   4  11
ATOM     11  C   UNL     1       8.584  -7.106  42.096  1.00  0.00     0.062 C 
BRANCH  11  12
ATOM     12  C   UNL     1       7.575  -6.000  41.957  1.00  0.00    -0.030 C 
ATOM     13  C   UNL     1       7.268  -5.197  42.980  1.00  0.00     0.004 C 
ENDBRANCH  11  12
ENDBRANCH   4  11
TORSDOF 4
ENDMDL
MODEL 2
REMARK VINA RESULT:    -4.435      6.593      9.067
REMARK INTER + INTRA:          -5.809
REMARK INTER:                  -5.554
REMARK INTRA:                  -0.255
REMARK UNBOUND:                -0.337
REMARK SMILES C=CCc1ccc(OC)c(OC)c1
REMARK SMILES IDX 7 1 10 2 13 3 4 4 5 5 6 6 8 7 9 8 11 9 12 10 3 11 2 12 1 13
REMARK H PARENT
REMARK Flexibility Score: inf
ROOT
ATOM      1  C   UNL     1       6.716  -2.387  35.943  1.00  0.00     0.160 A 
ATOM      2  C   UNL     1       7.456  -3.537  36.262  1.00  0.00     0.160 A 
ATOM      3  C   UNL     1       7.821  -3.782  37.600  1.00  0.00     0.054 A 
ATOM      4  C   UNL     1       7.447  -2.891  38.616  1.00  0.00    -0.040 A 
ATOM      5  C   UNL     1       6.717  -1.740  38.289  1.00  0.00     0.008 A 
ATOM      6  C   UNL     1       6.352  -1.490  36.966  1.00  0.00     0.051 A 
ENDROOT
BRANCH   1   7
ATOM      7  O   UNL     1       6.365  -2.169  34.602  1.00  0.00    -0.493 OA
ATOM      8  C   UNL     1       5.544  -1.099  34.146  1.00  0.00     0.278 C 
ENDBRANCH   1   7
BRANCH   2   9
ATOM      9  O   UNL     1       7.809  -4.411  35.220  1.00  0.00    -0.493 OA
ATOM     10  C   UNL     1       9.095  -4.462  34.611  1.00  0.00     0.278 C 
ENDBRANCH   2   9
BRANCH   4  11
ATOM     11  C   UNL     1       7.867  -3.147  40.040  1.00  0.00     0.062 C 
BRANCH  11  12
ATOM     12  C   UNL     1       8.231  -4.593  40.236  1.00  0.00    -0.030 C 
ATOM     13  C   UNL     1       7.783  -5.294  41.281  1.00  0.00     0.004 C 
ENDBRANCH  11  12
ENDBRANCH   4  11
TORSDOF 4
ENDMDL
MODEL 3
REMARK VINA RESULT:    -4.348      5.352      8.155
REMARK INTER + INTRA:          -5.702
REMARK INTER:                  -5.431
REMARK INTRA:                  -0.271
REMARK UNBOUND:                -0.337
REMARK SMILES C=CCc1ccc(OC)c(OC)c1
REMARK SMILES IDX 7 1 10 2 13 3 4 4 5 5 6 6 8 7 9 8 11 9 12 10 3 11 2 12 1 13
REMARK H PARENT
REMARK Flexibility Score: inf
ROOT
ATOM      1  C   UNL     1       8.632  -2.196  42.175  1.00  0.00     0.160 A 
ATOM      2  C   UNL     1       8.314  -3.503  41.770  1.00  0.00     0.160 A 
ATOM      3  C   UNL     1       7.884  -3.736  40.449  1.00  0.00     0.054 A 
ATOM      4  C   UNL     1       7.776  -2.678  39.535  1.00  0.00    -0.040 A 
ATOM      5  C   UNL     1       8.085  -1.376  39.950  1.00  0.00     0.008 A 
ATOM      6  C   UNL     1       8.512  -1.136  41.256  1.00  0.00     0.051 A 
ENDROOT
BRANCH   1   7
ATOM      7  O   UNL     1       9.059  -1.992  43.496  1.00  0.00    -0.493 OA
ATOM      8  C   UNL     1       9.271  -0.715  44.088  1.00  0.00     0.278 C 
ENDBRANCH   1   7
BRANCH   2   9
ATOM      9  O   UNL     1       8.439  -4.540  42.708  1.00  0.00    -0.493 OA
ATOM     10  C   UNL     1       7.538  -5.637  42.823  1.00  0.00     0.278 C 
ENDBRANCH   2   9
BRANCH   4  11
ATOM     11  C   UNL     1       7.287  -2.935  38.134  1.00  0.00     0.062 C 
BRANCH  11  12
ATOM     12  C   UNL     1       5.954  -2.278  37.906  1.00  0.00    -0.030 C 
ATOM     13  C   UNL     1       5.786  -1.337  36.972  1.00  0.00     0.004 C 
ENDBRANCH  11  12
ENDBRANCH   4  11
TORSDOF 4
ENDMDL
MODEL 4
REMARK VINA RESULT:    -4.324      7.549      9.545
REMARK INTER + INTRA:          -5.672
REMARK INTER:                  -5.352
REMARK INTRA:                  -0.320
REMARK UNBOUND:                -0.337
REMARK SMILES C=CCc1ccc(OC)c(OC)c1
REMARK SMILES IDX 7 1 10 2 13 3 4 4 5 5 6 6 8 7 9 8 11 9 12 10 3 11 2 12 1 13
REMARK H PARENT
REMARK Flexibility Score: inf
ROOT
ATOM      1  C   UNL     1       7.716  -3.253  37.568  1.00  0.00     0.160 A 
ATOM      2  C   UNL     1       7.830  -3.517  36.194  1.00  0.00     0.160 A 
ATOM      3  C   UNL     1       7.033  -2.802  35.279  1.00  0.00     0.054 A 
ATOM      4  C   UNL     1       6.132  -1.826  35.728  1.00  0.00    -0.040 A 
ATOM      5  C   UNL     1       6.016  -1.575  37.102  1.00  0.00     0.008 A 
ATOM      6  C   UNL     1       6.802  -2.279  38.015  1.00  0.00     0.051 A 
ENDROOT
BRANCH   1   7
ATOM      7  O   UNL     1       8.523  -3.980  38.458  1.00  0.00    -0.493 OA
ATOM      8  C   UNL     1       8.370  -3.977  39.873  1.00  0.00     0.278 C 
ENDBRANCH   1   7
BRANCH   2   9
ATOM      9  O   UNL     1       8.747  -4.496  35.779  1.00  0.00    -0.493 OA
ATOM     10  C   UNL     1       9.534  -4.414  34.595  1.00  0.00     0.278 C 
ENDBRANCH   2   9
BRANCH   4  11
ATOM     11  C   UNL     1       5.264  -1.087  34.743  1.00  0.00     0.062 C 
BRANCH  11  12
ATOM     12  C   UNL     1       5.345   0.397  34.969  1.00  0.00    -0.030 C 
ATOM     13  C   UNL     1       6.359   1.125  34.493  1.00  0.00     0.004 C 
ENDBRANCH  11  12
ENDBRANCH   4  11
TORSDOF 4
ENDMDL
MODEL 5
REMARK VINA RESULT:    -4.305      4.436      7.148
REMARK INTER + INTRA:          -5.649
REMARK INTER:                  -5.326
REMARK INTRA:                  -0.323
REMARK UNBOUND:                -0.337
REMARK SMILES C=CCc1ccc(OC)c(OC)c1
REMARK SMILES IDX 7 1 10 2 13 3 4 4 5 5 6 6 8 7 9 8 11 9 12 10 3 11 2 12 1 13
REMARK H PARENT
REMARK Flexibility Score: inf
ROOT
ATOM      1  C   UNL     1       9.255  -3.421  42.718  1.00  0.00     0.160 A 
ATOM      2  C   UNL     1      10.179  -4.393  42.305  1.00  0.00     0.160 A 
ATOM      3  C   UNL     1       9.727  -5.681  41.956  1.00  0.00     0.054 A 
ATOM      4  C   UNL     1       8.362  -5.997  42.012  1.00  0.00    -0.040 A 
ATOM      5  C   UNL     1       7.446  -5.025  42.435  1.00  0.00     0.008 A 
ATOM      6  C   UNL     1       7.886  -3.747  42.782  1.00  0.00     0.051 A 
ENDROOT
BRANCH   1   7
ATOM      7  O   UNL     1       9.733  -2.146  43.059  1.00  0.00    -0.493 OA
ATOM      8  C   UNL     1       9.006  -1.188  43.820  1.00  0.00     0.278 C 
ENDBRANCH   1   7
BRANCH   2   9
ATOM      9  O   UNL     1      11.538  -4.041  42.255  1.00  0.00    -0.493 OA
ATOM     10  C   UNL     1      12.254  -3.758  41.057  1.00  0.00     0.278 C 
ENDBRANCH   2   9
BRANCH   4  11
ATOM     11  C   UNL     1       7.892  -7.386  41.664  1.00  0.00     0.062 C 
BRANCH  11  12
ATOM     12  C   UNL     1       8.516  -8.403  42.579  1.00  0.00    -0.030 C 
ATOM     13  C   UNL     1       8.065  -8.600  43.822  1.00  0.00     0.004 C 
ENDBRANCH  11  12
ENDBRANCH   4  11
TORSDOF 4
ENDMDL
MODEL 6
REMARK VINA RESULT:    -4.266     15.137     15.982
REMARK INTER + INTRA:          -5.601
REMARK INTER:                  -5.343
REMARK INTRA:                  -0.258
REMARK UNBOUND:                -0.337
REMARK SMILES C=CCc1ccc(OC)c(OC)c1
REMARK SMILES IDX 7 1 10 2 13 3 4 4 5 5 6 6 8 7 9 8 11 9 12 10 3 11 2 12 1 13
REMARK H PARENT
REMARK Flexibility Score: inf
ROOT
ATOM      1  C   UNL     1      23.049 -12.601  46.908  1.00  0.00     0.160 A 
ATOM      2  C   UNL     1      22.351 -13.752  46.510  1.00  0.00     0.160 A 
ATOM      3  C   UNL     1      21.174 -13.624  45.748  1.00  0.00     0.054 A 
ATOM      4  C   UNL     1      20.696 -12.358  45.379  1.00  0.00    -0.040 A 
ATOM      5  C   UNL     1      21.392 -11.213  45.790  1.00  0.00     0.008 A 
ATOM      6  C   UNL     1      22.559 -11.331  46.545  1.00  0.00     0.051 A 
ENDROOT
BRANCH   1   7
ATOM      7  O   UNL     1      24.220 -12.758  47.666  1.00  0.00    -0.493 OA
ATOM      8  C   UNL     1      25.115 -11.702  47.998  1.00  0.00     0.278 C 
ENDBRANCH   1   7
BRANCH   2   9
ATOM      9  O   UNL     1      22.860 -15.004  46.891  1.00  0.00    -0.493 OA
ATOM     10  C   UNL     1      23.676 -15.829  46.065  1.00  0.00     0.278 C 
ENDBRANCH   2   9
BRANCH   4  11
ATOM     11  C   UNL     1      19.420 -12.231  44.589  1.00  0.00     0.062 C 
BRANCH  11  12
ATOM     12  C   UNL     1      19.103 -10.787  44.317  1.00  0.00    -0.030 C 
ATOM     13  C   UNL     1      18.124 -10.428  43.482  1.00  0.00     0.004 C 
ENDBRANCH  11  12
ENDBRANCH   4  11
TORSDOF 4
ENDMDL
MODEL 7
REMARK VINA RESULT:    -4.235      0.947      2.524
REMARK INTER + INTRA:          -5.563
REMARK INTER:                  -5.364
REMARK INTRA:                  -0.199
REMARK UNBOUND:                -0.337
REMARK SMILES C=CCc1ccc(OC)c(OC)c1
REMARK SMILES IDX 7 1 10 2 13 3 4 4 5 5 6 6 8 7 9 8 11 9 12 10 3 11 2 12 1 13
REMARK H PARENT
REMARK Flexibility Score: inf
ROOT
ATOM      1  C   UNL     1       6.055 -10.744  41.534  1.00  0.00     0.160 A 
ATOM      2  C   UNL     1       6.188 -10.881  42.925  1.00  0.00     0.160 A 
ATOM      3  C   UNL     1       7.080 -10.045  43.624  1.00  0.00     0.054 A 
ATOM      4  C   UNL     1       7.831  -9.074  42.944  1.00  0.00    -0.040 A 
ATOM      5  C   UNL     1       7.700  -8.951  41.555  1.00  0.00     0.008 A 
ATOM      6  C   UNL     1       6.818  -9.776  40.854  1.00  0.00     0.051 A 
ENDROOT
BRANCH   1   7
ATOM      7  O   UNL     1       5.158 -11.590  40.862  1.00  0.00    -0.493 OA
ATOM      8  C   UNL     1       5.535 -12.554  39.885  1.00  0.00     0.278 C 
ENDBRANCH   1   7
BRANCH   2   9
ATOM      9  O   UNL     1       5.418 -11.859  43.574  1.00  0.00    -0.493 OA
ATOM     10  C   UNL     1       5.724 -13.250  43.588  1.00  0.00     0.278 C 
ENDBRANCH   2   9
BRANCH   4  11
ATOM     11  C   UNL     1       8.803  -8.205  43.698  1.00  0.00     0.062 C 
BRANCH  11  12
ATOM     12  C   UNL     1       8.818  -6.811  43.135  1.00  0.00    -0.030 C 
ATOM     13  C   UNL     1       7.844  -5.936  43.402  1.00  0.00     0.004 C 
ENDBRANCH  11  12
ENDBRANCH   4  11
TORSDOF 4
ENDMDL
MODEL 8
REMARK VINA RESULT:    -4.176     15.393     16.190
REMARK INTER + INTRA:          -5.490
REMARK INTER:                  -5.223
REMARK INTRA:                  -0.267
REMARK UNBOUND:                -0.337
REMARK SMILES C=CCc1ccc(OC)c(OC)c1
REMARK SMILES IDX 7 1 10 2 13 3 4 4 5 5 6 6 8 7 9 8 11 9 12 10 3 11 2 12 1 13
REMARK H PARENT
REMARK Flexibility Score: inf
ROOT
ATOM      1  C   UNL     1      22.645 -14.232  46.625  1.00  0.00     0.160 A 
ATOM      2  C   UNL     1      23.093 -12.926  46.879  1.00  0.00     0.160 A 
ATOM      3  C   UNL     1      22.351 -11.830  46.397  1.00  0.00     0.054 A 
ATOM      4  C   UNL     1      21.168 -12.031  45.672  1.00  0.00    -0.040 A 
ATOM      5  C   UNL     1      20.733 -13.338  45.414  1.00  0.00     0.008 A 
ATOM      6  C   UNL     1      21.462 -14.430  45.887  1.00  0.00     0.051 A 
ENDROOT
BRANCH   1   7
ATOM      7  O   UNL     1      23.403 -15.306  47.118  1.00  0.00    -0.493 OA
ATOM      8  C   UNL     1      24.044 -16.282  46.304  1.00  0.00     0.278 C 
ENDBRANCH   1   7
BRANCH   2   9
ATOM      9  O   UNL     1      24.279 -12.760  47.612  1.00  0.00    -0.493 OA
ATOM     10  C   UNL     1      25.031 -11.551  47.668  1.00  0.00     0.278 C 
ENDBRANCH   2   9
BRANCH   4  11
ATOM     11  C   UNL     1      20.399 -10.852  45.136  1.00  0.00     0.062 C 
BRANCH  11  12
ATOM     12  C   UNL     1      19.212 -11.311  44.334  1.00  0.00    -0.030 C 
ATOM     13  C   UNL     1      18.286 -10.452  43.897  1.00  0.00     0.004 C 
ENDBRANCH  11  12
ENDBRANCH   4  11
TORSDOF 4
ENDMDL
MODEL 9
REMARK VINA RESULT:    -4.039      7.495      9.284
REMARK INTER + INTRA:          -5.321
REMARK INTER:                  -5.000
REMARK INTRA:                  -0.321
REMARK UNBOUND:                -0.337
REMARK SMILES C=CCc1ccc(OC)c(OC)c1
REMARK SMILES IDX 7 1 10 2 13 3 4 4 5 5 6 6 8 7 9 8 11 9 12 10 3 11 2 12 1 13
REMARK H PARENT
REMARK Flexibility Score: inf
ROOT
ATOM      1  C   UNL     1       8.427  -3.579  38.335  1.00  0.00     0.160 A 
ATOM      2  C   UNL     1       7.673  -2.600  39.003  1.00  0.00     0.160 A 
ATOM      3  C   UNL     1       6.757  -1.812  38.279  1.00  0.00     0.054 A 
ATOM      4  C   UNL     1       6.588  -2.000  36.900  1.00  0.00    -0.040 A 
ATOM      5  C   UNL     1       7.351  -2.971  36.238  1.00  0.00     0.008 A 
ATOM      6  C   UNL     1       8.261  -3.756  36.948  1.00  0.00     0.051 A 
ENDROOT
BRANCH   1   7
ATOM      7  O   UNL     1       9.331  -4.350  39.081  1.00  0.00    -0.493 OA
ATOM      8  C   UNL     1      10.737  -4.131  39.121  1.00  0.00     0.278 C 
ENDBRANCH   1   7
BRANCH   2   9
ATOM      9  O   UNL     1       7.864  -2.443  40.385  1.00  0.00    -0.493 OA
ATOM     10  C   UNL     1       8.584  -1.370  40.983  1.00  0.00     0.278 C 
ENDBRANCH   2   9
BRANCH   4  11
ATOM     11  C   UNL     1       5.627  -1.132  36.130  1.00  0.00     0.062 C 
BRANCH  11  12
ATOM     12  C   UNL     1       5.998  -1.088  34.674  1.00  0.00    -0.030 C 
ATOM     13  C   UNL     1       5.070  -1.072  33.713  1.00  0.00     0.004 C 
ENDBRANCH  11  12
ENDBRANCH   4  11
TORSDOF 4
ENDMDL
