MODEL 1
REMARK VINA RESULT:    -3.941      0.000      0.000
REMARK INTER + INTRA:         -15.857
REMARK INTER:                 -10.393
REMARK INTRA:                  -5.464
REMARK UNBOUND:                -5.464
REMARK SMILES CCCCCCCCCCCCCCCCCCCCCCCCCCCCCC(=O)[O-]
REMARK SMILES IDX 16 1 17 2 18 3 19 4 20 5 21 6 22 7 23 8 24 9 25 10 26 11
REMARK SMILES IDX 27 12 28 13 29 14 30 15 31 16 32 17 15 18 14 19 13 20 12 21
REMARK SMILES IDX 11 22 10 23 9 24 8 25 7 26 6 27 5 28 4 29 3 30 2 31 1 32
REMARK H PARENT
REMARK Flexibility Score: inf
ROOT
ATOM      1  C   UNL     1      25.822  27.272 -14.096  1.00  0.00     0.000 C 
ENDROOT
BRANCH   1   2
ATOM      2  C   UNL     1      26.945  26.820 -13.145  1.00  0.00     0.000 C 
BRANCH   2   3
ATOM      3  C   UNL     1      27.295  25.329 -13.296  1.00  0.00     0.000 C 
BRANCH   3   4
ATOM      4  C   UNL     1      26.325  24.516 -14.174  1.00  0.00     0.000 C 
BRANCH   4   5
ATOM      5  C   UNL     1      26.682  23.021 -14.234  1.00  0.00     0.000 C 
BRANCH   5   6
ATOM      6  C   UNL     1      25.664  22.128 -13.499  1.00  0.00     0.000 C 
BRANCH   6   7
ATOM      7  C   UNL     1      26.253  21.258 -12.373  1.00  0.00     0.000 C 
BRANCH   7   8
ATOM      8  C   UNL     1      27.492  21.886 -11.711  1.00  0.00     0.000 C 
BRANCH   8   9
ATOM      9  C   UNL     1      27.333  22.051 -10.192  1.00  0.00     0.000 C 
BRANCH   9  10
ATOM     10  C   UNL     1      25.968  22.643  -9.801  1.00  0.00     0.000 C 
BRANCH  10  11
ATOM     11  C   UNL     1      25.858  24.147 -10.106  1.00  0.00     0.000 C 
BRANCH  11  12
ATOM     12  C   UNL     1      24.602  24.522 -10.922  1.00  0.00     0.000 C 
BRANCH  12  13
ATOM     13  C   UNL     1      24.095  25.934 -10.593  1.00  0.00     0.006 C 
BRANCH  13  14
ATOM     14  C   UNL     1      22.984  25.885  -9.539  1.00  0.00     0.053 C 
BRANCH  14  15
ATOM     15  C   UNL     1      23.402  26.616  -8.303  1.00  0.00     0.041 C 
ATOM     16  O   UNL     1      24.410  26.234  -7.650  1.00  0.00    -0.550 OA
ATOM     17  O   UNL     1      22.715  27.755  -7.903  1.00  0.00    -0.550 OA
ENDBRANCH  14  15
ENDBRANCH  13  14
ENDBRANCH  12  13
ENDBRANCH  11  12
ENDBRANCH  10  11
ENDBRANCH   9  10
ENDBRANCH   8   9
ENDBRANCH   7   8
ENDBRANCH   6   7
ENDBRANCH   5   6
ENDBRANCH   4   5
ENDBRANCH   3   4
ENDBRANCH   2   3
ENDBRANCH   1   2
BRANCH   1  18
ATOM     18  C   UNL     1      25.601  28.794 -14.054  1.00  0.00     0.000 C 
BRANCH  18  19
ATOM     19  C   UNL     1      26.268  29.512 -15.242  1.00  0.00     0.000 C 
BRANCH  19  20
ATOM     20  C   UNL     1      27.386  30.478 -14.797  1.00  0.00     0.000 C 
BRANCH  20  21
ATOM     21  C   UNL     1      27.619  30.507 -13.274  1.00  0.00     0.000 C 
BRANCH  21  22
ATOM     22  C   UNL     1      29.044  30.141 -12.828  1.00  0.00     0.000 C 
BRANCH  22  23
ATOM     23  C   UNL     1      29.215  30.181 -11.299  1.00  0.00     0.000 C 
BRANCH  23  24
ATOM     24  C   UNL     1      27.880  30.348 -10.554  1.00  0.00    -0.000 C 
BRANCH  24  25
ATOM     25  C   UNL     1      27.446  29.060  -9.829  1.00  0.00    -0.000 C 
BRANCH  25  26
ATOM     26  C   UNL     1      25.917  28.888  -9.778  1.00  0.00    -0.000 C 
BRANCH  26  27
ATOM     27  C   UNL     1      25.122  29.744 -10.787  1.00  0.00    -0.000 C 
BRANCH  27  28
ATOM     28  C   UNL     1      23.694  30.118 -10.349  1.00  0.00    -0.000 C 
BRANCH  28  29
ATOM     29  C   UNL     1      23.200  31.428 -10.980  1.00  0.00    -0.000 C 
BRANCH  29  30
ATOM     30  C   UNL     1      23.474  31.446 -12.488  1.00  0.00    -0.000 C 
BRANCH  30  31
ATOM     31  C   UNL     1      24.342  32.649 -12.877  1.00  0.00    -0.003 C 
ATOM     32  C   UNL     1      24.527  32.729 -14.389  1.00  0.00     0.004 C 
ENDBRANCH  30  31
ENDBRANCH  29  30
ENDBRANCH  28  29
ENDBRANCH  27  28
ENDBRANCH  26  27
ENDBRANCH  25  26
ENDBRANCH  24  25
ENDBRANCH  23  24
ENDBRANCH  22  23
ENDBRANCH  21  22
ENDBRANCH  20  21
ENDBRANCH  19  20
ENDBRANCH  18  19
ENDBRANCH   1  18
TORSDOF 28
ENDMDL
MODEL 2
REMARK VINA RESULT:    -3.938      1.614      7.277
REMARK INTER + INTRA:         -15.848
REMARK INTER:                  -9.779
REMARK INTRA:                  -6.069
REMARK UNBOUND:                -5.464
REMARK SMILES CCCCCCCCCCCCCCCCCCCCCCCCCCCCCC(=O)[O-]
REMARK SMILES IDX 16 1 17 2 18 3 19 4 20 5 21 6 22 7 23 8 24 9 25 10 26 11
REMARK SMILES IDX 27 12 28 13 29 14 30 15 31 16 32 17 15 18 14 19 13 20 12 21
REMARK SMILES IDX 11 22 10 23 9 24 8 25 7 26 6 27 5 28 4 29 3 30 2 31 1 32
REMARK H PARENT
REMARK Flexibility Score: inf
ROOT
ATOM      1  C   UNL     1      25.532  27.404  -9.664  1.00  0.00     0.000 C 
ENDROOT
BRANCH   1   2
ATOM      2  C   UNL     1      26.028  28.591  -8.820  1.00  0.00     0.000 C 
BRANCH   2   3
ATOM      3  C   UNL     1      27.459  29.028  -9.183  1.00  0.00     0.000 C 
BRANCH   3   4
ATOM      4  C   UNL     1      27.558  30.056 -10.327  1.00  0.00     0.000 C 
BRANCH   4   5
ATOM      5  C   UNL     1      28.892  29.977 -11.088  1.00  0.00     0.000 C 
BRANCH   5   6
ATOM      6  C   UNL     1      28.729  30.151 -12.610  1.00  0.00     0.000 C 
BRANCH   6   7
ATOM      7  C   UNL     1      27.280  30.348 -13.092  1.00  0.00     0.000 C 
BRANCH   7   8
ATOM      8  C   UNL     1      27.171  30.519 -14.618  1.00  0.00     0.000 C 
BRANCH   8   9
ATOM      9  C   UNL     1      25.738  30.316 -15.136  1.00  0.00     0.000 C 
BRANCH   9  10
ATOM     10  C   UNL     1      24.674  30.613 -14.066  1.00  0.00     0.000 C 
BRANCH  10  11
ATOM     11  C   UNL     1      24.293  32.102 -13.998  1.00  0.00     0.000 C 
BRANCH  11  12
ATOM     12  C   UNL     1      24.328  32.685 -12.569  1.00  0.00     0.000 C 
BRANCH  12  13
ATOM     13  C   UNL     1      24.187  31.597 -11.494  1.00  0.00     0.006 C 
BRANCH  13  14
ATOM     14  C   UNL     1      22.719  31.408 -11.095  1.00  0.00     0.053 C 
BRANCH  14  15
ATOM     15  C   UNL     1      22.579  31.399  -9.606  1.00  0.00     0.041 C 
ATOM     16  O   UNL     1      22.967  30.405  -8.937  1.00  0.00    -0.550 OA
ATOM     17  O   UNL     1      22.072  32.513  -8.949  1.00  0.00    -0.550 OA
ENDBRANCH  14  15
ENDBRANCH  13  14
ENDBRANCH  12  13
ENDBRANCH  11  12
ENDBRANCH  10  11
ENDBRANCH   9  10
ENDBRANCH   8   9
ENDBRANCH   7   8
ENDBRANCH   6   7
ENDBRANCH   5   6
ENDBRANCH   4   5
ENDBRANCH   3   4
ENDBRANCH   2   3
ENDBRANCH   1   2
BRANCH   1  18
ATOM     18  C   UNL     1      24.582  27.847 -10.791  1.00  0.00     0.000 C 
BRANCH  18  19
ATOM     19  C   UNL     1      25.183  27.611 -12.188  1.00  0.00     0.000 C 
BRANCH  19  20
ATOM     20  C   UNL     1      26.574  26.944 -12.128  1.00  0.00     0.000 C 
BRANCH  20  21
ATOM     21  C   UNL     1      27.001  26.268 -13.445  1.00  0.00     0.000 C 
BRANCH  21  22
ATOM     22  C   UNL     1      26.291  26.793 -14.705  1.00  0.00     0.000 C 
BRANCH  22  23
ATOM     23  C   UNL     1      25.163  25.861 -15.181  1.00  0.00     0.000 C 
BRANCH  23  24
ATOM     24  C   UNL     1      25.498  24.373 -14.991  1.00  0.00    -0.000 C 
BRANCH  24  25
ATOM     25  C   UNL     1      24.424  23.626 -14.179  1.00  0.00    -0.000 C 
BRANCH  25  26
ATOM     26  C   UNL     1      23.515  24.574 -13.375  1.00  0.00    -0.000 C 
BRANCH  26  27
ATOM     27  C   UNL     1      23.461  24.305 -11.855  1.00  0.00    -0.000 C 
BRANCH  27  28
ATOM     28  C   UNL     1      24.381  23.177 -11.354  1.00  0.00    -0.000 C 
BRANCH  28  29
ATOM     29  C   UNL     1      25.648  23.702 -10.664  1.00  0.00    -0.000 C 
BRANCH  29  30
ATOM     30  C   UNL     1      26.904  23.285 -11.438  1.00  0.00    -0.000 C 
BRANCH  30  31
ATOM     31  C   UNL     1      26.727  21.900 -12.073  1.00  0.00    -0.003 C 
ATOM     32  C   UNL     1      27.239  20.800 -11.149  1.00  0.00     0.004 C 
ENDBRANCH  30  31
ENDBRANCH  29  30
ENDBRANCH  28  29
ENDBRANCH  27  28
ENDBRANCH  26  27
ENDBRANCH  25  26
ENDBRANCH  24  25
ENDBRANCH  23  24
ENDBRANCH  22  23
ENDBRANCH  21  22
ENDBRANCH  20  21
ENDBRANCH  19  20
ENDBRANCH  18  19
ENDBRANCH   1  18
TORSDOF 28
ENDMDL
MODEL 3
REMARK VINA RESULT:    -3.936      1.719      3.493
REMARK INTER + INTRA:         -15.842
REMARK INTER:                 -10.883
REMARK INTRA:                  -4.959
REMARK UNBOUND:                -5.464
REMARK SMILES CCCCCCCCCCCCCCCCCCCCCCCCCCCCCC(=O)[O-]
REMARK SMILES IDX 16 1 17 2 18 3 19 4 20 5 21 6 22 7 23 8 24 9 25 10 26 11
REMARK SMILES IDX 27 12 28 13 29 14 30 15 31 16 32 17 15 18 14 19 13 20 12 21
REMARK SMILES IDX 11 22 10 23 9 24 8 25 7 26 6 27 5 28 4 29 3 30 2 31 1 32
REMARK H PARENT
REMARK Flexibility Score: inf
ROOT
ATOM      1  C   UNL     1      26.305  28.330 -10.833  1.00  0.00     0.000 C 
ENDROOT
BRANCH   1   2
ATOM      2  C   UNL     1      27.015  27.301 -11.730  1.00  0.00     0.000 C 
BRANCH   2   3
ATOM      3  C   UNL     1      26.069  26.641 -12.750  1.00  0.00     0.000 C 
BRANCH   3   4
ATOM      4  C   UNL     1      26.748  25.677 -13.741  1.00  0.00     0.000 C 
BRANCH   4   5
ATOM      5  C   UNL     1      25.743  24.944 -14.646  1.00  0.00     0.000 C 
BRANCH   5   6
ATOM      6  C   UNL     1      26.022  23.433 -14.758  1.00  0.00     0.000 C 
BRANCH   6   7
ATOM      7  C   UNL     1      26.669  22.796 -13.514  1.00  0.00     0.000 C 
BRANCH   7   8
ATOM      8  C   UNL     1      25.999  21.475 -13.096  1.00  0.00     0.000 C 
BRANCH   8   9
ATOM      9  C   UNL     1      26.734  20.778 -11.941  1.00  0.00     0.000 C 
BRANCH   9  10
ATOM     10  C   UNL     1      27.590  21.750 -11.112  1.00  0.00     0.000 C 
BRANCH  10  11
ATOM     11  C   UNL     1      27.279  21.688  -9.606  1.00  0.00     0.000 C 
BRANCH  11  12
ATOM     12  C   UNL     1      26.684  22.997  -9.044  1.00  0.00     0.000 C 
BRANCH  12  13
ATOM     13  C   UNL     1      26.277  23.976 -10.156  1.00  0.00     0.006 C 
BRANCH  13  14
ATOM     14  C   UNL     1      24.807  24.383 -10.016  1.00  0.00     0.053 C 
BRANCH  14  15
ATOM     15  C   UNL     1      23.950  23.573 -10.938  1.00  0.00     0.041 C 
ATOM     16  O   UNL     1      23.631  22.393 -10.634  1.00  0.00    -0.550 OA
ATOM     17  O   UNL     1      23.456  24.141 -12.105  1.00  0.00    -0.550 OA
ENDBRANCH  14  15
ENDBRANCH  13  14
ENDBRANCH  12  13
ENDBRANCH  11  12
ENDBRANCH  10  11
ENDBRANCH   9  10
ENDBRANCH   8   9
ENDBRANCH   7   8
ENDBRANCH   6   7
ENDBRANCH   5   6
ENDBRANCH   4   5
ENDBRANCH   3   4
ENDBRANCH   2   3
ENDBRANCH   1   2
BRANCH   1  18
ATOM     18  C   UNL     1      27.289  29.089  -9.925  1.00  0.00     0.000 C 
BRANCH  18  19
ATOM     19  C   UNL     1      27.821  30.373 -10.587  1.00  0.00     0.000 C 
BRANCH  19  20
ATOM     20  C   UNL     1      29.186  30.162 -11.275  1.00  0.00     0.000 C 
BRANCH  20  21
ATOM     21  C   UNL     1      29.126  30.215 -12.814  1.00  0.00     0.000 C 
BRANCH  21  22
ATOM     22  C   UNL     1      27.741  30.536 -13.400  1.00  0.00     0.000 C 
BRANCH  22  23
ATOM     23  C   UNL     1      27.647  30.222 -14.903  1.00  0.00     0.000 C 
BRANCH  23  24
ATOM     24  C   UNL     1      26.359  29.467 -15.275  1.00  0.00    -0.000 C 
BRANCH  24  25
ATOM     25  C   UNL     1      25.170  29.853 -14.378  1.00  0.00    -0.000 C 
BRANCH  25  26
ATOM     26  C   UNL     1      24.371  31.050 -14.925  1.00  0.00    -0.000 C 
BRANCH  26  27
ATOM     27  C   UNL     1      24.686  32.411 -14.267  1.00  0.00    -0.000 C 
BRANCH  27  28
ATOM     28  C   UNL     1      24.023  32.648 -12.898  1.00  0.00    -0.000 C 
BRANCH  28  29
ATOM     29  C   UNL     1      24.757  31.941 -11.749  1.00  0.00    -0.000 C 
BRANCH  29  30
ATOM     30  C   UNL     1      23.817  30.983 -11.008  1.00  0.00    -0.000 C 
BRANCH  30  31
ATOM     31  C   UNL     1      22.361  31.195 -11.439  1.00  0.00    -0.003 C 
ATOM     32  C   UNL     1      21.522  31.749 -10.292  1.00  0.00     0.004 C 
ENDBRANCH  30  31
ENDBRANCH  29  30
ENDBRANCH  28  29
ENDBRANCH  27  28
ENDBRANCH  26  27
ENDBRANCH  25  26
ENDBRANCH  24  25
ENDBRANCH  23  24
ENDBRANCH  22  23
ENDBRANCH  21  22
ENDBRANCH  20  21
ENDBRANCH  19  20
ENDBRANCH  18  19
ENDBRANCH   1  18
TORSDOF 28
ENDMDL
MODEL 4
REMARK VINA RESULT:    -3.916      2.511      5.427
REMARK INTER + INTRA:         -15.790
REMARK INTER:                 -10.678
REMARK INTRA:                  -5.112
REMARK UNBOUND:                -5.464
REMARK SMILES CCCCCCCCCCCCCCCCCCCCCCCCCCCCCC(=O)[O-]
REMARK SMILES IDX 16 1 17 2 18 3 19 4 20 5 21 6 22 7 23 8 24 9 25 10 26 11
REMARK SMILES IDX 27 12 28 13 29 14 30 15 31 16 32 17 15 18 14 19 13 20 12 21
REMARK SMILES IDX 11 22 10 23 9 24 8 25 7 26 6 27 5 28 4 29 3 30 2 31 1 32
REMARK H PARENT
REMARK Flexibility Score: inf
ROOT
ATOM      1  C   UNL     1      27.677  30.452 -13.290  1.00  0.00     0.000 C 
ENDROOT
BRANCH   1   2
ATOM      2  C   UNL     1      29.103  30.162 -12.786  1.00  0.00     0.000 C 
BRANCH   2   3
ATOM      3  C   UNL     1      29.203  30.143 -11.250  1.00  0.00     0.000 C 
BRANCH   3   4
ATOM      4  C   UNL     1      27.872  30.361 -10.506  1.00  0.00     0.000 C 
BRANCH   4   5
ATOM      5  C   UNL     1      27.728  29.466  -9.263  1.00  0.00     0.000 C 
BRANCH   5   6
ATOM      6  C   UNL     1      26.680  28.351  -9.441  1.00  0.00     0.000 C 
BRANCH   6   7
ATOM      7  C   UNL     1      26.197  28.135 -10.887  1.00  0.00     0.000 C 
BRANCH   7   8
ATOM      8  C   UNL     1      26.911  26.967 -11.592  1.00  0.00     0.000 C 
BRANCH   8   9
ATOM      9  C   UNL     1      25.929  25.979 -12.243  1.00  0.00     0.000 C 
BRANCH   9  10
ATOM     10  C   UNL     1      26.472  25.381 -13.552  1.00  0.00     0.000 C 
BRANCH  10  11
ATOM     11  C   UNL     1      27.388  24.167 -13.321  1.00  0.00     0.000 C 
BRANCH  11  12
ATOM     12  C   UNL     1      27.003  23.329 -12.082  1.00  0.00     0.000 C 
BRANCH  12  13
ATOM     13  C   UNL     1      25.966  22.245 -12.413  1.00  0.00     0.006 C 
BRANCH  13  14
ATOM     14  C   UNL     1      26.625  20.865 -12.501  1.00  0.00     0.053 C 
BRANCH  14  15
ATOM     15  C   UNL     1      26.374  20.085 -11.249  1.00  0.00     0.041 C 
ATOM     16  O   UNL     1      25.769  18.982 -11.299  1.00  0.00    -0.550 OA
ATOM     17  O   UNL     1      26.860  20.548 -10.033  1.00  0.00    -0.550 OA
ENDBRANCH  14  15
ENDBRANCH  13  14
ENDBRANCH  12  13
ENDBRANCH  11  12
ENDBRANCH  10  11
ENDBRANCH   9  10
ENDBRANCH   8   9
ENDBRANCH   7   8
ENDBRANCH   6   7
ENDBRANCH   5   6
ENDBRANCH   4   5
ENDBRANCH   3   4
ENDBRANCH   2   3
ENDBRANCH   1   2
BRANCH   1  18
ATOM     18  C   UNL     1      27.588  30.431 -14.826  1.00  0.00     0.000 C 
BRANCH  18  19
ATOM     19  C   UNL     1      26.337  29.687 -15.328  1.00  0.00     0.000 C 
BRANCH  19  20
ATOM     20  C   UNL     1      25.549  29.017 -14.183  1.00  0.00     0.000 C 
BRANCH  20  21
ATOM     21  C   UNL     1      24.019  29.097 -14.344  1.00  0.00     0.000 C 
BRANCH  21  22
ATOM     22  C   UNL     1      23.535  29.934 -15.541  1.00  0.00     0.000 C 
BRANCH  22  23
ATOM     23  C   UNL     1      22.902  31.269 -15.112  1.00  0.00     0.000 C 
BRANCH  23  24
ATOM     24  C   UNL     1      23.795  32.481 -15.429  1.00  0.00    -0.000 C 
BRANCH  24  25
ATOM     25  C   UNL     1      24.800  32.783 -14.303  1.00  0.00    -0.000 C 
BRANCH  25  26
ATOM     26  C   UNL     1      24.148  32.805 -12.908  1.00  0.00    -0.000 C 
BRANCH  26  27
ATOM     27  C   UNL     1      24.799  31.878 -11.859  1.00  0.00    -0.000 C 
BRANCH  27  28
ATOM     28  C   UNL     1      23.825  30.955 -11.104  1.00  0.00    -0.000 C 
BRANCH  28  29
ATOM     29  C   UNL     1      22.462  31.612 -10.842  1.00  0.00    -0.000 C 
BRANCH  29  30
ATOM     30  C   UNL     1      21.323  30.604 -11.038  1.00  0.00    -0.000 C 
BRANCH  30  31
ATOM     31  C   UNL     1      20.585  30.855 -12.358  1.00  0.00    -0.003 C 
ATOM     32  C   UNL     1      20.387  29.557 -13.135  1.00  0.00     0.004 C 
ENDBRANCH  30  31
ENDBRANCH  29  30
ENDBRANCH  28  29
ENDBRANCH  27  28
ENDBRANCH  26  27
ENDBRANCH  25  26
ENDBRANCH  24  25
ENDBRANCH  23  24
ENDBRANCH  22  23
ENDBRANCH  21  22
ENDBRANCH  20  21
ENDBRANCH  19  20
ENDBRANCH  18  19
ENDBRANCH   1  18
TORSDOF 28
ENDMDL
MODEL 5
REMARK VINA RESULT:    -3.866      2.415      4.926
REMARK INTER + INTRA:         -15.658
REMARK INTER:                 -10.737
REMARK INTRA:                  -4.922
REMARK UNBOUND:                -5.464
REMARK SMILES CCCCCCCCCCCCCCCCCCCCCCCCCCCCCC(=O)[O-]
REMARK SMILES IDX 16 1 17 2 18 3 19 4 20 5 21 6 22 7 23 8 24 9 25 10 26 11
REMARK SMILES IDX 27 12 28 13 29 14 30 15 31 16 32 17 15 18 14 19 13 20 12 21
REMARK SMILES IDX 11 22 10 23 9 24 8 25 7 26 6 27 5 28 4 29 3 30 2 31 1 32
REMARK H PARENT
REMARK Flexibility Score: inf
ROOT
ATOM      1  C   UNL     1      26.296  28.537 -10.345  1.00  0.00     0.000 C 
ENDROOT
BRANCH   1   2
ATOM      2  C   UNL     1      26.640  27.426 -11.353  1.00  0.00     0.000 C 
BRANCH   2   3
ATOM      3  C   UNL     1      25.471  27.089 -12.296  1.00  0.00     0.000 C 
BRANCH   3   4
ATOM      4  C   UNL     1      24.129  27.754 -11.936  1.00  0.00     0.000 C 
BRANCH   4   5
ATOM      5  C   UNL     1      23.105  27.694 -13.083  1.00  0.00     0.000 C 
BRANCH   5   6
ATOM      6  C   UNL     1      22.988  26.293 -13.714  1.00  0.00     0.000 C 
BRANCH   6   7
ATOM      7  C   UNL     1      23.108  26.256 -15.248  1.00  0.00     0.000 C 
BRANCH   7   8
ATOM      8  C   UNL     1      24.445  25.667 -15.734  1.00  0.00     0.000 C 
BRANCH   8   9
ATOM      9  C   UNL     1      24.614  24.188 -15.352  1.00  0.00     0.000 C 
BRANCH   9  10
ATOM     10  C   UNL     1      25.403  24.001 -14.045  1.00  0.00     0.000 C 
BRANCH  10  11
ATOM     11  C   UNL     1      26.662  23.135 -14.224  1.00  0.00     0.000 C 
BRANCH  11  12
ATOM     12  C   UNL     1      27.756  23.410 -13.170  1.00  0.00     0.000 C 
BRANCH  12  13
ATOM     13  C   UNL     1      27.322  22.992 -11.757  1.00  0.00     0.006 C 
BRANCH  13  14
ATOM     14  C   UNL     1      27.913  21.628 -11.384  1.00  0.00     0.053 C 
BRANCH  14  15
ATOM     15  C   UNL     1      27.078  20.967 -10.333  1.00  0.00     0.041 C 
ATOM     16  O   UNL     1      27.385  21.076  -9.117  1.00  0.00    -0.550 OA
ATOM     17  O   UNL     1      25.927  20.277 -10.693  1.00  0.00    -0.550 OA
ENDBRANCH  14  15
ENDBRANCH  13  14
ENDBRANCH  12  13
ENDBRANCH  11  12
ENDBRANCH  10  11
ENDBRANCH   9  10
ENDBRANCH   8   9
ENDBRANCH   7   8
ENDBRANCH   6   7
ENDBRANCH   5   6
ENDBRANCH   4   5
ENDBRANCH   3   4
ENDBRANCH   2   3
ENDBRANCH   1   2
BRANCH   1  18
ATOM     18  C   UNL     1      27.553  29.160  -9.714  1.00  0.00     0.000 C 
BRANCH  18  19
ATOM     19  C   UNL     1      28.027  30.412 -10.474  1.00  0.00     0.000 C 
BRANCH  19  20
ATOM     20  C   UNL     1      29.230  30.123 -11.398  1.00  0.00     0.000 C 
BRANCH  20  21
ATOM     21  C   UNL     1      28.913  30.260 -12.899  1.00  0.00     0.000 C 
BRANCH  21  22
ATOM     22  C   UNL     1      27.433  30.517 -13.230  1.00  0.00     0.000 C 
BRANCH  22  23
ATOM     23  C   UNL     1      27.123  30.350 -14.728  1.00  0.00     0.000 C 
BRANCH  23  24
ATOM     24  C   UNL     1      26.296  29.090 -15.030  1.00  0.00    -0.000 C 
BRANCH  24  25
ATOM     25  C   UNL     1      24.956  29.416 -15.714  1.00  0.00    -0.000 C 
BRANCH  25  26
ATOM     26  C   UNL     1      24.447  30.833 -15.392  1.00  0.00    -0.000 C 
BRANCH  26  27
ATOM     27  C   UNL     1      22.979  30.917 -14.920  1.00  0.00    -0.000 C 
BRANCH  27  28
ATOM     28  C   UNL     1      22.764  31.619 -13.567  1.00  0.00    -0.000 C 
BRANCH  28  29
ATOM     29  C   UNL     1      24.053  32.230 -13.000  1.00  0.00    -0.000 C 
BRANCH  29  30
ATOM     30  C   UNL     1      24.354  31.673 -11.603  1.00  0.00    -0.000 C 
BRANCH  30  31
ATOM     31  C   UNL     1      23.131  30.953 -11.022  1.00  0.00    -0.003 C 
ATOM     32  C   UNL     1      22.491  31.768  -9.902  1.00  0.00     0.004 C 
ENDBRANCH  30  31
ENDBRANCH  29  30
ENDBRANCH  28  29
ENDBRANCH  27  28
ENDBRANCH  26  27
ENDBRANCH  25  26
ENDBRANCH  24  25
ENDBRANCH  23  24
ENDBRANCH  22  23
ENDBRANCH  21  22
ENDBRANCH  20  21
ENDBRANCH  19  20
ENDBRANCH  18  19
ENDBRANCH   1  18
TORSDOF 28
ENDMDL
MODEL 6
REMARK VINA RESULT:    -3.845      1.575      3.670
REMARK INTER + INTRA:         -15.603
REMARK INTER:                  -9.921
REMARK INTRA:                  -5.682
REMARK UNBOUND:                -5.464
REMARK SMILES CCCCCCCCCCCCCCCCCCCCCCCCCCCCCC(=O)[O-]
REMARK SMILES IDX 16 1 17 2 18 3 19 4 20 5 21 6 22 7 23 8 24 9 25 10 26 11
REMARK SMILES IDX 27 12 28 13 29 14 30 15 31 16 32 17 15 18 14 19 13 20 12 21
REMARK SMILES IDX 11 22 10 23 9 24 8 25 7 26 6 27 5 28 4 29 3 30 2 31 1 32
REMARK H PARENT
REMARK Flexibility Score: inf
ROOT
ATOM      1  C   UNL     1      26.408  27.693 -11.580  1.00  0.00     0.000 C 
ENDROOT
BRANCH   1   2
ATOM      2  C   UNL     1      27.293  26.993 -12.627  1.00  0.00     0.000 C 
BRANCH   2   3
ATOM      3  C   UNL     1      26.530  25.939 -13.449  1.00  0.00     0.000 C 
BRANCH   3   4
ATOM      4  C   UNL     1      27.220  24.566 -13.553  1.00  0.00     0.000 C 
BRANCH   4   5
ATOM      5  C   UNL     1      26.360  23.518 -14.280  1.00  0.00     0.000 C 
BRANCH   5   6
ATOM      6  C   UNL     1      25.980  22.323 -13.383  1.00  0.00     0.000 C 
BRANCH   6   7
ATOM      7  C   UNL     1      24.467  22.098 -13.204  1.00  0.00     0.000 C 
BRANCH   7   8
ATOM      8  C   UNL     1      23.645  23.391 -13.346  1.00  0.00     0.000 C 
BRANCH   8   9
ATOM      9  C   UNL     1      23.027  23.850 -12.016  1.00  0.00     0.000 C 
BRANCH   9  10
ATOM     10  C   UNL     1      23.796  25.020 -11.379  1.00  0.00     0.000 C 
BRANCH  10  11
ATOM     11  C   UNL     1      24.462  24.645 -10.044  1.00  0.00     0.000 C 
BRANCH  11  12
ATOM     12  C   UNL     1      25.934  24.201 -10.191  1.00  0.00     0.000 C 
BRANCH  12  13
ATOM     13  C   UNL     1      26.189  22.820  -9.569  1.00  0.00     0.006 C 
BRANCH  13  14
ATOM     14  C   UNL     1      27.156  22.923  -8.385  1.00  0.00     0.053 C 
BRANCH  14  15
ATOM     15  C   UNL     1      26.446  23.439  -7.173  1.00  0.00     0.041 C 
ATOM     16  O   UNL     1      25.553  22.746  -6.618  1.00  0.00    -0.550 OA
ATOM     17  O   UNL     1      26.810  24.661  -6.622  1.00  0.00    -0.550 OA
ENDBRANCH  14  15
ENDBRANCH  13  14
ENDBRANCH  12  13
ENDBRANCH  11  12
ENDBRANCH  10  11
ENDBRANCH   9  10
ENDBRANCH   8   9
ENDBRANCH   7   8
ENDBRANCH   6   7
ENDBRANCH   5   6
ENDBRANCH   4   5
ENDBRANCH   3   4
ENDBRANCH   2   3
ENDBRANCH   1   2
BRANCH   1  18
ATOM     18  C   UNL     1      27.239  28.444 -10.525  1.00  0.00     0.000 C 
BRANCH  18  19
ATOM     19  C   UNL     1      27.516  29.903 -10.931  1.00  0.00     0.000 C 
BRANCH  19  20
ATOM     20  C   UNL     1      28.890  30.075 -11.613  1.00  0.00     0.000 C 
BRANCH  20  21
ATOM     21  C   UNL     1      28.806  30.379 -13.122  1.00  0.00     0.000 C 
BRANCH  21  22
ATOM     22  C   UNL     1      27.379  30.486 -13.685  1.00  0.00     0.000 C 
BRANCH  22  23
ATOM     23  C   UNL     1      27.296  30.086 -15.168  1.00  0.00     0.000 C 
BRANCH  23  24
ATOM     24  C   UNL     1      26.145  29.108 -15.460  1.00  0.00    -0.000 C 
BRANCH  24  25
ATOM     25  C   UNL     1      24.968  29.276 -14.481  1.00  0.00    -0.000 C 
BRANCH  25  26
ATOM     26  C   UNL     1      23.632  29.555 -15.194  1.00  0.00    -0.000 C 
BRANCH  26  27
ATOM     27  C   UNL     1      23.077  30.985 -15.020  1.00  0.00    -0.000 C 
BRANCH  27  28
ATOM     28  C   UNL     1      24.050  32.118 -15.395  1.00  0.00    -0.000 C 
BRANCH  28  29
ATOM     29  C   UNL     1      24.624  32.843 -14.169  1.00  0.00    -0.000 C 
BRANCH  29  30
ATOM     30  C   UNL     1      23.791  32.541 -12.917  1.00  0.00    -0.000 C 
BRANCH  30  31
ATOM     31  C   UNL     1      24.658  31.920 -11.814  1.00  0.00    -0.003 C 
ATOM     32  C   UNL     1      23.988  30.687 -11.216  1.00  0.00     0.004 C 
ENDBRANCH  30  31
ENDBRANCH  29  30
ENDBRANCH  28  29
ENDBRANCH  27  28
ENDBRANCH  26  27
ENDBRANCH  25  26
ENDBRANCH  24  25
ENDBRANCH  23  24
ENDBRANCH  22  23
ENDBRANCH  21  22
ENDBRANCH  20  21
ENDBRANCH  19  20
ENDBRANCH  18  19
ENDBRANCH   1  18
TORSDOF 28
ENDMDL
MODEL 7
REMARK VINA RESULT:    -3.841      1.855      4.005
REMARK INTER + INTRA:         -15.594
REMARK INTER:                 -10.504
REMARK INTRA:                  -5.090
REMARK UNBOUND:                -5.464
REMARK SMILES CCCCCCCCCCCCCCCCCCCCCCCCCCCCCC(=O)[O-]
REMARK SMILES IDX 16 1 17 2 18 3 19 4 20 5 21 6 22 7 23 8 24 9 25 10 26 11
REMARK SMILES IDX 27 12 28 13 29 14 30 15 31 16 32 17 15 18 14 19 13 20 12 21
REMARK SMILES IDX 11 22 10 23 9 24 8 25 7 26 6 27 5 28 4 29 3 30 2 31 1 32
REMARK H PARENT
REMARK Flexibility Score: inf
ROOT
ATOM      1  C   UNL     1      26.035  27.267 -10.345  1.00  0.00     0.000 C 
ENDROOT
BRANCH   1   2
ATOM      2  C   UNL     1      26.137  26.406 -11.616  1.00  0.00     0.000 C 
BRANCH   2   3
ATOM      3  C   UNL     1      26.991  27.061 -12.717  1.00  0.00     0.000 C 
BRANCH   3   4
ATOM      4  C   UNL     1      26.540  26.761 -14.159  1.00  0.00     0.000 C 
BRANCH   4   5
ATOM      5  C   UNL     1      25.032  26.984 -14.372  1.00  0.00     0.000 C 
BRANCH   5   6
ATOM      6  C   UNL     1      24.418  26.011 -15.397  1.00  0.00     0.000 C 
BRANCH   6   7
ATOM      7  C   UNL     1      23.777  24.748 -14.793  1.00  0.00     0.000 C 
BRANCH   7   8
ATOM      8  C   UNL     1      24.628  23.483 -15.000  1.00  0.00     0.000 C 
BRANCH   8   9
ATOM      9  C   UNL     1      25.333  23.026 -13.712  1.00  0.00     0.000 C 
BRANCH   9  10
ATOM     10  C   UNL     1      26.866  23.073 -13.828  1.00  0.00     0.000 C 
BRANCH  10  11
ATOM     11  C   UNL     1      27.567  23.150 -12.461  1.00  0.00     0.000 C 
BRANCH  11  12
ATOM     12  C   UNL     1      27.710  21.781 -11.761  1.00  0.00     0.000 C 
BRANCH  12  13
ATOM     13  C   UNL     1      26.633  21.563 -10.687  1.00  0.00     0.006 C 
BRANCH  13  14
ATOM     14  C   UNL     1      27.240  21.627  -9.282  1.00  0.00     0.053 C 
BRANCH  14  15
ATOM     15  C   UNL     1      26.916  22.934  -8.632  1.00  0.00     0.041 C 
ATOM     16  O   UNL     1      27.392  23.216  -7.500  1.00  0.00    -0.550 OA
ATOM     17  O   UNL     1      26.135  23.868  -9.300  1.00  0.00    -0.550 OA
ENDBRANCH  14  15
ENDBRANCH  13  14
ENDBRANCH  12  13
ENDBRANCH  11  12
ENDBRANCH  10  11
ENDBRANCH   9  10
ENDBRANCH   8   9
ENDBRANCH   7   8
ENDBRANCH   6   7
ENDBRANCH   5   6
ENDBRANCH   4   5
ENDBRANCH   3   4
ENDBRANCH   2   3
ENDBRANCH   1   2
BRANCH   1  18
ATOM     18  C   UNL     1      26.250  28.763 -10.636  1.00  0.00     0.000 C 
BRANCH  18  19
ATOM     19  C   UNL     1      27.374  29.369  -9.776  1.00  0.00     0.000 C 
BRANCH  19  20
ATOM     20  C   UNL     1      28.132  30.499 -10.504  1.00  0.00     0.000 C 
BRANCH  20  21
ATOM     21  C   UNL     1      29.376  30.022 -11.277  1.00  0.00     0.000 C 
BRANCH  21  22
ATOM     22  C   UNL     1      29.241  30.049 -12.809  1.00  0.00     0.000 C 
BRANCH  22  23
ATOM     23  C   UNL     1      27.962  30.764 -13.278  1.00  0.00     0.000 C 
BRANCH  23  24
ATOM     24  C   UNL     1      27.454  30.250 -14.635  1.00  0.00    -0.000 C 
BRANCH  24  25
ATOM     25  C   UNL     1      25.940  30.465 -14.817  1.00  0.00    -0.000 C 
BRANCH  25  26
ATOM     26  C   UNL     1      25.200  30.669 -13.483  1.00  0.00    -0.000 C 
BRANCH  26  27
ATOM     27  C   UNL     1      24.292  31.916 -13.415  1.00  0.00    -0.000 C 
BRANCH  27  28
ATOM     28  C   UNL     1      24.121  32.528 -12.012  1.00  0.00    -0.000 C 
BRANCH  28  29
ATOM     29  C   UNL     1      23.226  31.680 -11.097  1.00  0.00    -0.000 C 
BRANCH  29  30
ATOM     30  C   UNL     1      21.925  31.294 -11.810  1.00  0.00    -0.000 C 
BRANCH  30  31
ATOM     31  C   UNL     1      21.509  29.859 -11.461  1.00  0.00    -0.003 C 
ATOM     32  C   UNL     1      22.689  28.900 -11.576  1.00  0.00     0.004 C 
ENDBRANCH  30  31
ENDBRANCH  29  30
ENDBRANCH  28  29
ENDBRANCH  27  28
ENDBRANCH  26  27
ENDBRANCH  25  26
ENDBRANCH  24  25
ENDBRANCH  23  24
ENDBRANCH  22  23
ENDBRANCH  21  22
ENDBRANCH  20  21
ENDBRANCH  19  20
ENDBRANCH  18  19
ENDBRANCH   1  18
TORSDOF 28
ENDMDL
MODEL 8
REMARK VINA RESULT:    -3.814      2.110      7.518
REMARK INTER + INTRA:         -15.523
REMARK INTER:                  -9.997
REMARK INTRA:                  -5.526
REMARK UNBOUND:                -5.464
REMARK SMILES CCCCCCCCCCCCCCCCCCCCCCCCCCCCCC(=O)[O-]
REMARK SMILES IDX 16 1 17 2 18 3 19 4 20 5 21 6 22 7 23 8 24 9 25 10 26 11
REMARK SMILES IDX 27 12 28 13 29 14 30 15 31 16 32 17 15 18 14 19 13 20 12 21
REMARK SMILES IDX 11 22 10 23 9 24 8 25 7 26 6 27 5 28 4 29 3 30 2 31 1 32
REMARK H PARENT
REMARK Flexibility Score: inf
ROOT
ATOM      1  C   UNL     1      26.999  27.108 -12.359  1.00  0.00     0.000 C 
ENDROOT
BRANCH   1   2
ATOM      2  C   UNL     1      25.635  27.456 -11.737  1.00  0.00     0.000 C 
BRANCH   2   3
ATOM      3  C   UNL     1      25.675  28.734 -10.880  1.00  0.00     0.000 C 
BRANCH   3   4
ATOM      4  C   UNL     1      26.365  28.582  -9.512  1.00  0.00     0.000 C 
BRANCH   4   5
ATOM      5  C   UNL     1      27.669  29.392  -9.407  1.00  0.00     0.000 C 
BRANCH   5   6
ATOM      6  C   UNL     1      27.867  30.370 -10.581  1.00  0.00     0.000 C 
BRANCH   6   7
ATOM      7  C   UNL     1      29.118  30.111 -11.441  1.00  0.00     0.000 C 
BRANCH   7   8
ATOM      8  C   UNL     1      28.851  30.256 -12.950  1.00  0.00     0.000 C 
BRANCH   8   9
ATOM      9  C   UNL     1      27.377  30.558 -13.265  1.00  0.00     0.000 C 
BRANCH   9  10
ATOM     10  C   UNL     1      27.079  30.538 -14.774  1.00  0.00     0.000 C 
BRANCH  10  11
ATOM     11  C   UNL     1      26.393  29.239 -15.232  1.00  0.00     0.000 C 
BRANCH  11  12
ATOM     12  C   UNL     1      24.894  29.170 -14.868  1.00  0.00     0.000 C 
BRANCH  12  13
ATOM     13  C   UNL     1      24.177  30.508 -15.101  1.00  0.00     0.006 C 
BRANCH  13  14
ATOM     14  C   UNL     1      23.345  30.904 -13.877  1.00  0.00     0.053 C 
BRANCH  14  15
ATOM     15  C   UNL     1      24.056  31.950 -13.078  1.00  0.00     0.041 C 
ATOM     16  O   UNL     1      24.623  32.915 -13.657  1.00  0.00    -0.550 OA
ATOM     17  O   UNL     1      24.044  31.893 -11.691  1.00  0.00    -0.550 OA
ENDBRANCH  14  15
ENDBRANCH  13  14
ENDBRANCH  12  13
ENDBRANCH  11  12
ENDBRANCH  10  11
ENDBRANCH   9  10
ENDBRANCH   8   9
ENDBRANCH   7   8
ENDBRANCH   6   7
ENDBRANCH   5   6
ENDBRANCH   4   5
ENDBRANCH   3   4
ENDBRANCH   2   3
ENDBRANCH   1   2
BRANCH   1  18
ATOM     18  C   UNL     1      26.927  25.863 -13.260  1.00  0.00     0.000 C 
BRANCH  18  19
ATOM     19  C   UNL     1      27.064  24.555 -12.459  1.00  0.00     0.000 C 
BRANCH  19  20
ATOM     20  C   UNL     1      27.466  23.358 -13.346  1.00  0.00     0.000 C 
BRANCH  20  21
ATOM     21  C   UNL     1      26.353  22.306 -13.520  1.00  0.00     0.000 C 
BRANCH  21  22
ATOM     22  C   UNL     1      26.163  21.356 -12.326  1.00  0.00     0.000 C 
BRANCH  22  23
ATOM     23  C   UNL     1      27.482  21.053 -11.594  1.00  0.00     0.000 C 
BRANCH  23  24
ATOM     24  C   UNL     1      27.337  21.089 -10.064  1.00  0.00    -0.000 C 
BRANCH  24  25
ATOM     25  C   UNL     1      25.866  21.120  -9.612  1.00  0.00    -0.000 C 
BRANCH  25  26
ATOM     26  C   UNL     1      25.562  22.276  -8.641  1.00  0.00    -0.000 C 
BRANCH  26  27
ATOM     27  C   UNL     1      26.258  23.614  -8.968  1.00  0.00    -0.000 C 
BRANCH  27  28
ATOM     28  C   UNL     1      25.312  24.781  -9.306  1.00  0.00    -0.000 C 
BRANCH  28  29
ATOM     29  C   UNL     1      23.900  24.314  -9.686  1.00  0.00    -0.000 C 
BRANCH  29  30
ATOM     30  C   UNL     1      23.607  24.604 -11.163  1.00  0.00    -0.000 C 
BRANCH  30  31
ATOM     31  C   UNL     1      23.141  23.338 -11.892  1.00  0.00    -0.003 C 
ATOM     32  C   UNL     1      22.568  22.317 -10.915  1.00  0.00     0.004 C 
ENDBRANCH  30  31
ENDBRANCH  29  30
ENDBRANCH  28  29
ENDBRANCH  27  28
ENDBRANCH  26  27
ENDBRANCH  25  26
ENDBRANCH  24  25
ENDBRANCH  23  24
ENDBRANCH  22  23
ENDBRANCH  21  22
ENDBRANCH  20  21
ENDBRANCH  19  20
ENDBRANCH  18  19
ENDBRANCH   1  18
TORSDOF 28
ENDMDL
MODEL 9
REMARK VINA RESULT:    -3.758      1.377      6.366
REMARK INTER + INTRA:         -15.372
REMARK INTER:                  -9.061
REMARK INTRA:                  -6.312
REMARK UNBOUND:                -5.464
REMARK SMILES CCCCCCCCCCCCCCCCCCCCCCCCCCCCCC(=O)[O-]
REMARK SMILES IDX 16 1 17 2 18 3 19 4 20 5 21 6 22 7 23 8 24 9 25 10 26 11
REMARK SMILES IDX 27 12 28 13 29 14 30 15 31 16 32 17 15 18 14 19 13 20 12 21
REMARK SMILES IDX 11 22 10 23 9 24 8 25 7 26 6 27 5 28 4 29 3 30 2 31 1 32
REMARK H PARENT
REMARK Flexibility Score: inf
ROOT
ATOM      1  C   UNL     1      23.699  31.611 -11.977  1.00  0.00     0.000 C 
ENDROOT
BRANCH   1   2
ATOM      2  C   UNL     1      22.914  31.568 -13.300  1.00  0.00     0.000 C 
BRANCH   2   3
ATOM      3  C   UNL     1      23.611  32.336 -14.437  1.00  0.00     0.000 C 
BRANCH   3   4
ATOM      4  C   UNL     1      25.144  32.196 -14.476  1.00  0.00     0.000 C 
BRANCH   4   5
ATOM      5  C   UNL     1      25.607  30.845 -15.049  1.00  0.00     0.000 C 
BRANCH   5   6
ATOM      6  C   UNL     1      27.025  30.451 -14.594  1.00  0.00     0.000 C 
BRANCH   6   7
ATOM      7  C   UNL     1      27.256  30.490 -13.072  1.00  0.00     0.000 C 
BRANCH   7   8
ATOM      8  C   UNL     1      28.697  30.127 -12.672  1.00  0.00     0.000 C 
BRANCH   8   9
ATOM      9  C   UNL     1      28.829  29.781 -11.180  1.00  0.00     0.000 C 
BRANCH   9  10
ATOM     10  C   UNL     1      27.603  29.027 -10.637  1.00  0.00     0.000 C 
BRANCH  10  11
ATOM     11  C   UNL     1      27.427  29.186  -9.117  1.00  0.00     0.000 C 
BRANCH  11  12
ATOM     12  C   UNL     1      26.182  28.461  -8.560  1.00  0.00     0.000 C 
BRANCH  12  13
ATOM     13  C   UNL     1      25.758  27.276  -9.439  1.00  0.00     0.006 C 
BRANCH  13  14
ATOM     14  C   UNL     1      24.707  26.415  -8.729  1.00  0.00     0.053 C 
BRANCH  14  15
ATOM     15  C   UNL     1      25.310  25.724  -7.548  1.00  0.00     0.041 C 
ATOM     16  O   UNL     1      26.153  24.803  -7.713  1.00  0.00    -0.550 OA
ATOM     17  O   UNL     1      24.984  26.135  -6.261  1.00  0.00    -0.550 OA
ENDBRANCH  14  15
ENDBRANCH  13  14
ENDBRANCH  12  13
ENDBRANCH  11  12
ENDBRANCH  10  11
ENDBRANCH   9  10
ENDBRANCH   8   9
ENDBRANCH   7   8
ENDBRANCH   6   7
ENDBRANCH   5   6
ENDBRANCH   4   5
ENDBRANCH   3   4
ENDBRANCH   2   3
ENDBRANCH   1   2
BRANCH   1  18
ATOM     18  C   UNL     1      24.081  30.205 -11.480  1.00  0.00     0.000 C 
BRANCH  18  19
ATOM     19  C   UNL     1      23.538  29.095 -12.398  1.00  0.00     0.000 C 
BRANCH  19  20
ATOM     20  C   UNL     1      24.552  27.951 -12.606  1.00  0.00     0.000 C 
BRANCH  20  21
ATOM     21  C   UNL     1      24.728  27.530 -14.078  1.00  0.00     0.000 C 
BRANCH  21  22
ATOM     22  C   UNL     1      25.946  26.633 -14.356  1.00  0.00     0.000 C 
BRANCH  22  23
ATOM     23  C   UNL     1      26.974  26.658 -13.212  1.00  0.00     0.000 C 
BRANCH  23  24
ATOM     24  C   UNL     1      26.987  25.357 -12.393  1.00  0.00    -0.000 C 
BRANCH  24  25
ATOM     25  C   UNL     1      27.268  24.117 -13.261  1.00  0.00    -0.000 C 
BRANCH  25  26
ATOM     26  C   UNL     1      27.154  22.797 -12.476  1.00  0.00    -0.000 C 
BRANCH  26  27
ATOM     27  C   UNL     1      26.966  22.950 -10.951  1.00  0.00    -0.000 C 
BRANCH  27  28
ATOM     28  C   UNL     1      25.588  22.522 -10.413  1.00  0.00    -0.000 C 
BRANCH  28  29
ATOM     29  C   UNL     1      24.483  22.593 -11.478  1.00  0.00    -0.000 C 
BRANCH  29  30
ATOM     30  C   UNL     1      23.666  23.882 -11.332  1.00  0.00    -0.000 C 
BRANCH  30  31
ATOM     31  C   UNL     1      23.331  24.481 -12.704  1.00  0.00    -0.003 C 
ATOM     32  C   UNL     1      23.678  23.511 -13.829  1.00  0.00     0.004 C 
ENDBRANCH  30  31
ENDBRANCH  29  30
ENDBRANCH  28  29
ENDBRANCH  27  28
ENDBRANCH  26  27
ENDBRANCH  25  26
ENDBRANCH  24  25
ENDBRANCH  23  24
ENDBRANCH  22  23
ENDBRANCH  21  22
ENDBRANCH  20  21
ENDBRANCH  19  20
ENDBRANCH  18  19
ENDBRANCH   1  18
TORSDOF 28
ENDMDL
