MODEL 1
REMARK VINA RESULT:    -7.499      0.000      0.000
REMARK INTER + INTRA:          -9.369
REMARK INTER:                  -9.034
REMARK INTRA:                  -0.335
REMARK UNBOUND:                -0.335
REMARK SMILES Oc1cc(O)c2cc(O)c(-c3ccc(O)c(O)c3)[o+]c2c1
REMARK SMILES IDX 10 1 19 2 20 3 21 4 2 5 3 6 4 7 6 8 7 9 8 10 11 11 12 12
REMARK SMILES IDX 13 13 14 14 18 15 16 16 15 17 17 19 9 21 1 23 5 25
REMARK H PARENT 15 18 17 20 9 22 1 24 5 26
REMARK Flexibility Score: inf
ROOT
ATOM      1  C   UNL     1      21.611  47.733   3.670  1.00  0.00     0.402 A 
ATOM      2  O   UNL     1      21.643  48.517   4.744  1.00  0.00    -0.202 OA
ATOM      3  C   UNL     1      21.265  48.115   5.953  1.00  0.00     0.368 A 
ATOM      4  C   UNL     1      21.339  49.012   7.021  1.00  0.00     0.162 A 
ATOM      5  C   UNL     1      20.950  48.614   8.304  1.00  0.00     0.128 A 
ATOM      6  C   UNL     1      20.489  47.314   8.519  1.00  0.00     0.093 A 
ATOM      7  C   UNL     1      20.405  46.395   7.465  1.00  0.00     0.136 A 
ATOM      8  C   UNL     1      20.795  46.796   6.160  1.00  0.00     0.125 A 
ATOM      9  C   UNL     1      20.733  45.948   5.042  1.00  0.00     0.078 A 
ATOM     10  C   UNL     1      21.131  46.415   3.786  1.00  0.00     0.223 A 
ENDROOT
BRANCH   1  11
ATOM     11  C   UNL     1      22.068  48.295   2.378  1.00  0.00     0.087 A 
ATOM     12  C   UNL     1      21.207  49.049   1.562  1.00  0.00     0.022 A 
ATOM     13  C   UNL     1      21.654  49.550   0.336  1.00  0.00     0.051 A 
ATOM     14  C   UNL     1      22.958  49.296  -0.098  1.00  0.00     0.157 A 
ATOM     15  C   UNL     1      23.371  48.024   1.929  1.00  0.00     0.068 A 
ATOM     16  C   UNL     1      23.821  48.527   0.700  1.00  0.00     0.158 A 
BRANCH  14  17
ATOM     17  O   UNL     1      23.377  49.811  -1.325  1.00  0.00    -0.504 OA
ATOM     18  H   UNL     1      22.761  49.860  -2.127  1.00  0.00     0.293 HD
ENDBRANCH  14  17
BRANCH  16  19
ATOM     19  O   UNL     1      25.121  48.262   0.269  1.00  0.00    -0.504 OA
ATOM     20  H   UNL     1      25.384  47.357  -0.101  1.00  0.00     0.293 HD
ENDBRANCH  16  19
ENDBRANCH   1  11
BRANCH  10  21
ATOM     21  O   UNL     1      21.024  45.589   2.666  1.00  0.00    -0.500 OA
ATOM     22  H   UNL     1      21.471  45.822   1.788  1.00  0.00     0.294 HD
ENDBRANCH  10  21
BRANCH   5  23
ATOM     23  O   UNL     1      21.021  49.503   9.375  1.00  0.00    -0.507 OA
ATOM     24  H   UNL     1      21.624  50.318   9.348  1.00  0.00     0.293 HD
ENDBRANCH   5  23
BRANCH   7  25
ATOM     25  O   UNL     1      19.936  45.113   7.763  1.00  0.00    -0.507 OA
ATOM     26  H   UNL     1      19.033  44.916   8.167  1.00  0.00     0.293 HD
ENDBRANCH   7  25
TORSDOF 6
ENDMDL
MODEL 2
REMARK VINA RESULT:    -7.357      1.507      2.255
REMARK INTER + INTRA:          -9.198
REMARK INTER:                  -8.850
REMARK INTRA:                  -0.348
REMARK UNBOUND:                -0.335
REMARK SMILES Oc1cc(O)c2cc(O)c(-c3ccc(O)c(O)c3)[o+]c2c1
REMARK SMILES IDX 10 1 19 2 20 3 21 4 2 5 3 6 4 7 6 8 7 9 8 10 11 11 12 12
REMARK SMILES IDX 13 13 14 14 18 15 16 16 15 17 17 19 9 21 1 23 5 25
REMARK H PARENT 15 18 17 20 9 22 1 24 5 26
REMARK Flexibility Score: inf
ROOT
ATOM      1  C   UNL     1      21.505  47.600   5.166  1.00  0.00     0.402 A 
ATOM      2  O   UNL     1      21.871  48.535   6.039  1.00  0.00    -0.202 OA
ATOM      3  C   UNL     1      21.574  48.482   7.333  1.00  0.00     0.368 A 
ATOM      4  C   UNL     1      22.007  49.511   8.172  1.00  0.00     0.162 A 
ATOM      5  C   UNL     1      21.711  49.479   9.539  1.00  0.00     0.128 A 
ATOM      6  C   UNL     1      20.981  48.412  10.066  1.00  0.00     0.093 A 
ATOM      7  C   UNL     1      20.535  47.368   9.246  1.00  0.00     0.136 A 
ATOM      8  C   UNL     1      20.831  47.398   7.859  1.00  0.00     0.125 A 
ATOM      9  C   UNL     1      20.414  46.402   6.959  1.00  0.00     0.078 A 
ATOM     10  C   UNL     1      20.740  46.503   5.603  1.00  0.00     0.223 A 
ENDROOT
BRANCH   1  11
ATOM     11  C   UNL     1      21.906  47.768   3.750  1.00  0.00     0.087 A 
ATOM     12  C   UNL     1      23.147  47.305   3.281  1.00  0.00     0.022 A 
ATOM     13  C   UNL     1      23.514  47.495   1.945  1.00  0.00     0.051 A 
ATOM     14  C   UNL     1      22.656  48.160   1.065  1.00  0.00     0.157 A 
ATOM     15  C   UNL     1      21.055  48.454   2.867  1.00  0.00     0.068 A 
ATOM     16  C   UNL     1      21.421  48.645   1.527  1.00  0.00     0.158 A 
BRANCH  14  17
ATOM     17  O   UNL     1      23.047  48.334  -0.263  1.00  0.00    -0.504 OA
ATOM     18  H   UNL     1      23.998  48.575  -0.516  1.00  0.00     0.293 HD
ENDBRANCH  14  17
BRANCH  16  19
ATOM     19  O   UNL     1      20.563  49.316   0.656  1.00  0.00    -0.504 OA
ATOM     20  H   UNL     1      20.912  49.811  -0.156  1.00  0.00     0.293 HD
ENDBRANCH  16  19
ENDBRANCH   1  11
BRANCH  10  21
ATOM     21  O   UNL     1      20.285  45.540   4.702  1.00  0.00    -0.500 OA
ATOM     22  H   UNL     1      20.134  45.756   3.724  1.00  0.00     0.294 HD
ENDBRANCH  10  21
BRANCH   5  23
ATOM     23  O   UNL     1      22.140  50.502  10.382  1.00  0.00    -0.507 OA
ATOM     24  H   UNL     1      22.566  51.346  10.017  1.00  0.00     0.293 HD
ENDBRANCH   5  23
BRANCH   7  25
ATOM     25  O   UNL     1      19.814  46.336   9.852  1.00  0.00    -0.507 OA
ATOM     26  H   UNL     1      20.106  45.371   9.871  1.00  0.00     0.293 HD
ENDBRANCH   7  25
TORSDOF 6
ENDMDL
MODEL 3
REMARK VINA RESULT:    -6.462      1.882      3.641
REMARK INTER + INTRA:          -8.120
REMARK INTER:                  -8.104
REMARK INTRA:                  -0.016
REMARK UNBOUND:                -0.335
REMARK SMILES Oc1cc(O)c2cc(O)c(-c3ccc(O)c(O)c3)[o+]c2c1
REMARK SMILES IDX 10 1 19 2 20 3 21 4 2 5 3 6 4 7 6 8 7 9 8 10 11 11 12 12
REMARK SMILES IDX 13 13 14 14 18 15 16 16 15 17 17 19 9 21 1 23 5 25
REMARK H PARENT 15 18 17 20 9 22 1 24 5 26
REMARK Flexibility Score: inf
ROOT
ATOM      1  C   UNL     1      21.097  47.553   6.179  1.00  0.00     0.402 A 
ATOM      2  O   UNL     1      21.128  46.433   6.896  1.00  0.00    -0.202 OA
ATOM      3  C   UNL     1      20.896  46.397   8.204  1.00  0.00     0.368 A 
ATOM      4  C   UNL     1      20.948  45.170   8.870  1.00  0.00     0.162 A 
ATOM      5  C   UNL     1      20.704  45.103  10.245  1.00  0.00     0.128 A 
ATOM      6  C   UNL     1      20.406  46.267  10.956  1.00  0.00     0.093 A 
ATOM      7  C   UNL     1      20.348  47.509  10.312  1.00  0.00     0.136 A 
ATOM      8  C   UNL     1      20.597  47.583   8.917  1.00  0.00     0.125 A 
ATOM      9  C   UNL     1      20.573  48.785   8.191  1.00  0.00     0.078 A 
ATOM     10  C   UNL     1      20.834  48.780   6.817  1.00  0.00     0.223 A 
ENDROOT
BRANCH   1  11
ATOM     11  C   UNL     1      21.364  47.462   4.725  1.00  0.00     0.087 A 
ATOM     12  C   UNL     1      20.686  46.536   3.913  1.00  0.00     0.022 A 
ATOM     13  C   UNL     1      20.971  46.453   2.547  1.00  0.00     0.051 A 
ATOM     14  C   UNL     1      21.943  47.279   1.976  1.00  0.00     0.157 A 
ATOM     15  C   UNL     1      22.355  48.276   4.152  1.00  0.00     0.068 A 
ATOM     16  C   UNL     1      22.642  48.193   2.782  1.00  0.00     0.158 A 
BRANCH  14  17
ATOM     17  O   UNL     1      22.205  47.174   0.610  1.00  0.00    -0.504 OA
ATOM     18  H   UNL     1      22.723  46.396   0.220  1.00  0.00     0.293 HD
ENDBRANCH  14  17
BRANCH  16  19
ATOM     19  O   UNL     1      23.619  49.015   2.220  1.00  0.00    -0.504 OA
ATOM     20  H   UNL     1      23.721  49.984   2.497  1.00  0.00     0.293 HD
ENDBRANCH  16  19
ENDBRANCH   1  11
BRANCH  10  21
ATOM     21  O   UNL     1      20.858  49.979   6.105  1.00  0.00    -0.500 OA
ATOM     22  H   UNL     1      20.956  50.873   6.571  1.00  0.00     0.294 HD
ENDBRANCH  10  21
BRANCH   5  23
ATOM     23  O   UNL     1      20.755  43.882  10.916  1.00  0.00    -0.507 OA
ATOM     24  H   UNL     1      21.163  43.059  10.489  1.00  0.00     0.293 HD
ENDBRANCH   5  23
BRANCH   7  25
ATOM     25  O   UNL     1      20.039  48.626  11.093  1.00  0.00    -0.507 OA
ATOM     26  H   UNL     1      20.716  49.302  11.413  1.00  0.00     0.293 HD
ENDBRANCH   7  25
TORSDOF 6
ENDMDL
