MODEL 1
REMARK VINA RESULT:    -4.895      0.000      0.000
REMARK INTER + INTRA:          -5.279
REMARK INTER:                  -5.181
REMARK INTRA:                  -0.098
REMARK UNBOUND:                -0.098
REMARK SMILES C=C(C)[C@@H]1CC=C(C)C(=O)C1
REMARK SMILES IDX 8 1 7 2 6 3 5 4 4 5 11 6 9 7 10 8 2 9 1 10 3 11
REMARK H PARENT
REMARK Flexibility Score: inf
ROOT
ATOM      1  C   UNL     1     -11.549 -22.819  20.437  1.00  0.00     0.048 C 
ATOM      2  C   UNL     1     -12.764 -22.247  21.113  1.00  0.00    -0.012 C 
ATOM      3  C   UNL     1     -12.691 -21.823  22.387  1.00  0.00    -0.019 C 
ATOM      4  C   UNL     1     -13.858 -21.169  23.080  1.00  0.00     0.036 C 
ATOM      5  C   UNL     1     -15.197 -21.703  22.539  1.00  0.00     0.025 C 
ATOM      6  C   UNL     1     -15.260 -21.539  21.009  1.00  0.00     0.089 C 
ATOM      7  C   UNL     1     -14.037 -22.128  20.361  1.00  0.00     0.158 C 
ATOM      8  O   UNL     1     -14.092 -22.480  19.152  1.00  0.00    -0.295 OA
ENDROOT
BRANCH   5   9
ATOM      9  C   UNL     1     -16.381 -21.030  23.220  1.00  0.00    -0.077 C 
ATOM     10  C   UNL     1     -17.594 -21.060  22.644  1.00  0.00     0.008 C 
ATOM     11  C   UNL     1     -16.228 -20.318  24.541  1.00  0.00     0.039 C 
ENDBRANCH   5   9
TORSDOF 1
ENDMDL
MODEL 2
REMARK VINA RESULT:    -4.816     10.061     11.418
REMARK INTER + INTRA:          -5.195
REMARK INTER:                  -5.097
REMARK INTRA:                  -0.098
REMARK UNBOUND:                -0.098
REMARK SMILES C=C(C)[C@@H]1CC=C(C)C(=O)C1
REMARK SMILES IDX 8 1 7 2 6 3 5 4 4 5 11 6 9 7 10 8 2 9 1 10 3 11
REMARK H PARENT
REMARK Flexibility Score: inf
ROOT
ATOM      1  C   UNL     1     -23.099 -28.516  25.618  1.00  0.00     0.048 C 
ATOM      2  C   UNL     1     -21.692 -29.047  25.657  1.00  0.00    -0.012 C 
ATOM      3  C   UNL     1     -20.653 -28.199  25.759  1.00  0.00    -0.019 C 
ATOM      4  C   UNL     1     -19.234 -28.687  25.883  1.00  0.00     0.036 C 
ATOM      5  C   UNL     1     -19.042 -30.031  25.155  1.00  0.00     0.025 C 
ATOM      6  C   UNL     1     -20.060 -31.066  25.666  1.00  0.00     0.089 C 
ATOM      7  C   UNL     1     -21.457 -30.511  25.607  1.00  0.00     0.158 C 
ATOM      8  O   UNL     1     -22.433 -31.307  25.560  1.00  0.00    -0.295 OA
ENDROOT
BRANCH   5   9
ATOM      9  C   UNL     1     -17.613 -30.540  25.294  1.00  0.00    -0.077 C 
ATOM     10  C   UNL     1     -16.870 -30.179  26.353  1.00  0.00     0.008 C 
ATOM     11  C   UNL     1     -16.998 -31.450  24.260  1.00  0.00     0.039 C 
ENDBRANCH   5   9
TORSDOF 1
ENDMDL
MODEL 3
REMARK VINA RESULT:    -4.814      1.772      2.610
REMARK INTER + INTRA:          -5.193
REMARK INTER:                  -5.098
REMARK INTRA:                  -0.095
REMARK UNBOUND:                -0.098
REMARK SMILES C=C(C)[C@@H]1CC=C(C)C(=O)C1
REMARK SMILES IDX 8 1 7 2 6 3 5 4 4 5 11 6 9 7 10 8 2 9 1 10 3 11
REMARK H PARENT
REMARK Flexibility Score: inf
ROOT
ATOM      1  C   UNL     1     -10.382 -22.879  19.155  1.00  0.00     0.048 C 
ATOM      2  C   UNL     1     -11.649 -22.599  19.917  1.00  0.00    -0.012 C 
ATOM      3  C   UNL     1     -12.822 -22.512  19.267  1.00  0.00    -0.019 C 
ATOM      4  C   UNL     1     -14.126 -22.314  19.995  1.00  0.00     0.036 C 
ATOM      5  C   UNL     1     -13.922 -21.511  21.293  1.00  0.00     0.025 C 
ATOM      6  C   UNL     1     -12.857 -22.185  22.178  1.00  0.00     0.089 C 
ATOM      7  C   UNL     1     -11.601 -22.445  21.391  1.00  0.00     0.158 C 
ATOM      8  O   UNL     1     -10.508 -22.575  22.006  1.00  0.00    -0.295 OA
ENDROOT
BRANCH   5   9
ATOM      9  C   UNL     1     -15.233 -21.326  22.046  1.00  0.00    -0.077 C 
ATOM     10  C   UNL     1     -16.356 -21.019  21.376  1.00  0.00     0.008 C 
ATOM     11  C   UNL     1     -15.307 -21.476  23.545  1.00  0.00     0.039 C 
ENDBRANCH   5   9
TORSDOF 1
ENDMDL
MODEL 4
REMARK VINA RESULT:    -4.809      9.626     11.035
REMARK INTER + INTRA:          -5.188
REMARK INTER:                  -5.095
REMARK INTRA:                  -0.092
REMARK UNBOUND:                -0.098
REMARK SMILES C=C(C)[C@@H]1CC=C(C)C(=O)C1
REMARK SMILES IDX 8 1 7 2 6 3 5 4 4 5 11 6 9 7 10 8 2 9 1 10 3 11
REMARK H PARENT
REMARK Flexibility Score: inf
ROOT
ATOM      1  C   UNL     1     -22.934 -28.591  25.629  1.00  0.00     0.048 C 
ATOM      2  C   UNL     1     -21.519 -29.080  25.484  1.00  0.00    -0.012 C 
ATOM      3  C   UNL     1     -21.278 -30.346  25.103  1.00  0.00    -0.019 C 
ATOM      4  C   UNL     1     -19.880 -30.857  24.867  1.00  0.00     0.036 C 
ATOM      5  C   UNL     1     -18.864 -30.135  25.770  1.00  0.00     0.025 C 
ATOM      6  C   UNL     1     -18.967 -28.610  25.581  1.00  0.00     0.089 C 
ATOM      7  C   UNL     1     -20.391 -28.151  25.739  1.00  0.00     0.158 C 
ATOM      8  O   UNL     1     -20.617 -26.950  26.049  1.00  0.00    -0.295 OA
ENDROOT
BRANCH   5   9
ATOM      9  C   UNL     1     -17.445 -30.631  25.521  1.00  0.00    -0.077 C 
ATOM     10  C   UNL     1     -16.482 -30.400  26.428  1.00  0.00     0.008 C 
ATOM     11  C   UNL     1     -17.085 -31.384  24.264  1.00  0.00     0.039 C 
ENDBRANCH   5   9
TORSDOF 1
ENDMDL
MODEL 5
REMARK VINA RESULT:    -4.787      1.581      2.362
REMARK INTER + INTRA:          -5.164
REMARK INTER:                  -5.072
REMARK INTRA:                  -0.093
REMARK UNBOUND:                -0.098
REMARK SMILES C=C(C)[C@@H]1CC=C(C)C(=O)C1
REMARK SMILES IDX 8 1 7 2 6 3 5 4 4 5 11 6 9 7 10 8 2 9 1 10 3 11
REMARK H PARENT
REMARK Flexibility Score: inf
ROOT
ATOM      1  C   UNL     1     -11.555 -22.525  20.788  1.00  0.00     0.048 C 
ATOM      2  C   UNL     1     -12.938 -22.250  21.311  1.00  0.00    -0.012 C 
ATOM      3  C   UNL     1     -13.916 -21.870  20.469  1.00  0.00    -0.019 C 
ATOM      4  C   UNL     1     -15.333 -21.663  20.934  1.00  0.00     0.036 C 
ATOM      5  C   UNL     1     -15.375 -21.191  22.399  1.00  0.00     0.025 C 
ATOM      6  C   UNL     1     -14.605 -22.174  23.300  1.00  0.00     0.089 C 
ATOM      7  C   UNL     1     -13.225 -22.423  22.756  1.00  0.00     0.158 C 
ATOM      8  O   UNL     1     -12.321 -22.825  23.537  1.00  0.00    -0.295 OA
ENDROOT
BRANCH   5   9
ATOM      9  C   UNL     1     -16.807 -21.000  22.882  1.00  0.00    -0.077 C 
ATOM     10  C   UNL     1     -17.049 -20.341  24.027  1.00  0.00     0.008 C 
ATOM     11  C   UNL     1     -17.980 -21.539  22.100  1.00  0.00     0.039 C 
ENDBRANCH   5   9
TORSDOF 1
ENDMDL
MODEL 6
REMARK VINA RESULT:    -4.771      2.078      4.784
REMARK INTER + INTRA:          -5.147
REMARK INTER:                  -5.050
REMARK INTRA:                  -0.098
REMARK UNBOUND:                -0.098
REMARK SMILES C=C(C)[C@@H]1CC=C(C)C(=O)C1
REMARK SMILES IDX 8 1 7 2 6 3 5 4 4 5 11 6 9 7 10 8 2 9 1 10 3 11
REMARK H PARENT
REMARK Flexibility Score: inf
ROOT
ATOM      1  C   UNL     1     -17.814 -20.673  23.293  1.00  0.00     0.048 C 
ATOM      2  C   UNL     1     -16.438 -21.017  22.793  1.00  0.00    -0.012 C 
ATOM      3  C   UNL     1     -16.246 -21.310  21.494  1.00  0.00    -0.019 C 
ATOM      4  C   UNL     1     -14.875 -21.580  20.932  1.00  0.00     0.036 C 
ATOM      5  C   UNL     1     -13.953 -22.211  21.992  1.00  0.00     0.025 C 
ATOM      6  C   UNL     1     -13.902 -21.327  23.251  1.00  0.00     0.089 C 
ATOM      7  C   UNL     1     -15.291 -21.007  23.732  1.00  0.00     0.158 C 
ATOM      8  O   UNL     1     -15.463 -20.686  24.939  1.00  0.00    -0.295 OA
ENDROOT
BRANCH   5   9
ATOM      9  C   UNL     1     -12.559 -22.468  21.435  1.00  0.00    -0.077 C 
ATOM     10  C   UNL     1     -11.537 -22.721  22.270  1.00  0.00     0.008 C 
ATOM     11  C   UNL     1     -12.287 -22.443  19.951  1.00  0.00     0.039 C 
ENDBRANCH   5   9
TORSDOF 1
ENDMDL
MODEL 7
REMARK VINA RESULT:    -4.745      1.653      4.342
REMARK INTER + INTRA:          -5.120
REMARK INTER:                  -5.025
REMARK INTRA:                  -0.095
REMARK UNBOUND:                -0.098
REMARK SMILES C=C(C)[C@@H]1CC=C(C)C(=O)C1
REMARK SMILES IDX 8 1 7 2 6 3 5 4 4 5 11 6 9 7 10 8 2 9 1 10 3 11
REMARK H PARENT
REMARK Flexibility Score: inf
ROOT
ATOM      1  C   UNL     1     -15.976 -20.392  24.729  1.00  0.00     0.048 C 
ATOM      2  C   UNL     1     -15.254 -20.988  23.551  1.00  0.00    -0.012 C 
ATOM      3  C   UNL     1     -13.985 -21.413  23.682  1.00  0.00    -0.019 C 
ATOM      4  C   UNL     1     -13.250 -22.090  22.554  1.00  0.00     0.036 C 
ATOM      5  C   UNL     1     -13.736 -21.578  21.186  1.00  0.00     0.025 C 
ATOM      6  C   UNL     1     -15.263 -21.740  21.066  1.00  0.00     0.089 C 
ATOM      7  C   UNL     1     -15.956 -21.128  22.252  1.00  0.00     0.158 C 
ATOM      8  O   UNL     1     -17.161 -20.774  22.144  1.00  0.00    -0.295 OA
ENDROOT
BRANCH   5   9
ATOM      9  C   UNL     1     -13.011 -22.273  20.041  1.00  0.00    -0.077 C 
ATOM     10  C   UNL     1     -11.673 -22.382  20.060  1.00  0.00     0.008 C 
ATOM     11  C   UNL     1     -13.765 -22.848  18.867  1.00  0.00     0.039 C 
ENDBRANCH   5   9
TORSDOF 1
ENDMDL
MODEL 8
REMARK VINA RESULT:    -4.733      2.061      5.423
REMARK INTER + INTRA:          -5.107
REMARK INTER:                  -5.012
REMARK INTRA:                  -0.095
REMARK UNBOUND:                -0.098
REMARK SMILES C=C(C)[C@@H]1CC=C(C)C(=O)C1
REMARK SMILES IDX 8 1 7 2 6 3 5 4 4 5 11 6 9 7 10 8 2 9 1 10 3 11
REMARK H PARENT
REMARK Flexibility Score: inf
ROOT
ATOM      1  C   UNL     1     -15.543 -21.846  21.488  1.00  0.00     0.048 C 
ATOM      2  C   UNL     1     -14.108 -21.968  21.051  1.00  0.00    -0.012 C 
ATOM      3  C   UNL     1     -13.813 -22.428  19.823  1.00  0.00    -0.019 C 
ATOM      4  C   UNL     1     -12.398 -22.491  19.313  1.00  0.00     0.036 C 
ATOM      5  C   UNL     1     -11.401 -22.721  20.463  1.00  0.00     0.025 C 
ATOM      6  C   UNL     1     -11.581 -21.645  21.551  1.00  0.00     0.089 C 
ATOM      7  C   UNL     1     -13.022 -21.553  21.972  1.00  0.00     0.158 C 
ATOM      8  O   UNL     1     -13.301 -21.076  23.105  1.00  0.00    -0.295 OA
ENDROOT
BRANCH   5   9
ATOM      9  C   UNL     1      -9.965 -22.764  19.957  1.00  0.00    -0.077 C 
ATOM     10  C   UNL     1      -8.954 -22.974  20.816  1.00  0.00     0.008 C 
ATOM     11  C   UNL     1      -9.640 -22.572  18.496  1.00  0.00     0.039 C 
ENDBRANCH   5   9
TORSDOF 1
ENDMDL
MODEL 9
REMARK VINA RESULT:    -4.726      1.903      5.250
REMARK INTER + INTRA:          -5.100
REMARK INTER:                  -5.002
REMARK INTRA:                  -0.098
REMARK UNBOUND:                -0.098
REMARK SMILES C=C(C)[C@@H]1CC=C(C)C(=O)C1
REMARK SMILES IDX 8 1 7 2 6 3 5 4 4 5 11 6 9 7 10 8 2 9 1 10 3 11
REMARK H PARENT
REMARK Flexibility Score: inf
ROOT
ATOM      1  C   UNL     1     -15.178 -21.377  20.948  1.00  0.00     0.048 C 
ATOM      2  C   UNL     1     -13.734 -21.763  20.778  1.00  0.00    -0.012 C 
ATOM      3  C   UNL     1     -12.832 -21.438  21.721  1.00  0.00    -0.019 C 
ATOM      4  C   UNL     1     -11.393 -21.873  21.634  1.00  0.00     0.036 C 
ATOM      5  C   UNL     1     -10.938 -21.999  20.168  1.00  0.00     0.025 C 
ATOM      6  C   UNL     1     -11.879 -22.940  19.394  1.00  0.00     0.089 C 
ATOM      7  C   UNL     1     -13.313 -22.525  19.576  1.00  0.00     0.158 C 
ATOM      8  O   UNL     1     -14.167 -22.871  18.716  1.00  0.00    -0.295 OA
ENDROOT
BRANCH   5   9
ATOM      9  C   UNL     1      -9.489 -22.459  20.072  1.00  0.00    -0.077 C 
ATOM     10  C   UNL     1      -8.828 -22.836  21.179  1.00  0.00     0.008 C 
ATOM     11  C   UNL     1      -8.763 -22.500  18.750  1.00  0.00     0.039 C 
ENDBRANCH   5   9
TORSDOF 1
ENDMDL
