MODEL 1
REMARK VINA RESULT:    -8.009      0.000      0.000
REMARK INTER + INTRA:         -18.146
REMARK INTER:                 -15.267
REMARK INTRA:                  -2.879
REMARK UNBOUND:                -2.879
REMARK SMILES C[C@@H]1O[C@@H](O[C@@H]2[C@@H](O)[C@H](OCCc3ccc(O)c(O)c3)O[C@@H](CO)[C@H]2OC(=O)C=Cc2ccc(O)c(O)c2)[C@@H](O)[C@@H](O)[C@@H]1O
REMARK SMILES IDX 6 1 7 2 9 3 21 4 22 5 25 6 5 7 4 8 1 9 2 10 43 11 3 12 41 13
REMARK SMILES IDX 39 14 44 15 42 17 40 19 8 21 26 23 27 24 28 25 29 26 30 27
REMARK SMILES IDX 31 28 38 29 32 30 36 31 33 32 34 33 37 34 35 36 10 38 11 39
REMARK SMILES IDX 12 40 13 41 20 42 14 43 18 44 15 45 16 46 19 47 17 49 23 51
REMARK SMILES IDX 24 52
REMARK H PARENT 44 16 42 18 40 20 8 22 37 35 35 37 19 48 17 50 24 53
REMARK Flexibility Score: inf
ROOT
ATOM      1  C   UNL     1      34.234  33.513  -4.821  1.00  0.00     0.199 C 
ATOM      2  C   UNL     1      34.075  32.326  -5.791  1.00  0.00     0.203 C 
ATOM      3  C   UNL     1      35.434  31.906  -6.397  1.00  0.00     0.282 C 
ATOM      4  O   UNL     1      36.096  33.009  -7.005  1.00  0.00    -0.340 OA
ATOM      5  C   UNL     1      36.422  34.019  -6.068  1.00  0.00     0.190 C 
ATOM      6  C   UNL     1      35.141  34.620  -5.409  1.00  0.00     0.240 C 
ENDROOT
BRANCH   1   7
ATOM      7  O   UNL     1      34.813  33.002  -3.625  1.00  0.00    -0.340 OA
BRANCH   7   8
ATOM      8  C   UNL     1      34.002  32.022  -2.992  1.00  0.00     0.282 C 
ATOM      9  C   UNL     1      31.946  34.258  -0.902  1.00  0.00     0.041 C 
ATOM     10  C   UNL     1      33.207  33.543  -1.391  1.00  0.00     0.150 C 
ATOM     11  C   UNL     1      33.930  32.846  -0.223  1.00  0.00     0.174 C 
ATOM     12  O   UNL     1      32.850  32.609  -2.398  1.00  0.00    -0.344 OA
ATOM     13  C   UNL     1      35.198  32.150  -0.750  1.00  0.00     0.179 C 
ATOM     14  C   UNL     1      34.839  31.252  -1.940  1.00  0.00     0.202 C 
BRANCH  11  15
ATOM     15  O   UNL     1      33.069  31.911   0.379  1.00  0.00    -0.388 OA
ATOM     16  H   UNL     1      32.252  32.409   0.655  1.00  0.00     0.211 HD
ENDBRANCH  11  15
BRANCH  13  17
ATOM     17  O   UNL     1      36.151  33.112  -1.133  1.00  0.00    -0.387 OA
ATOM     18  H   UNL     1      36.265  33.728  -0.363  1.00  0.00     0.211 HD
ENDBRANCH  13  17
BRANCH  14  19
ATOM     19  O   UNL     1      36.021  30.762  -2.530  1.00  0.00    -0.385 OA
ATOM     20  H   UNL     1      35.960  30.961  -3.503  1.00  0.00     0.211 HD
ENDBRANCH  14  19
ENDBRANCH   7   8
ENDBRANCH   1   7
BRANCH   2  21
ATOM     21  O   UNL     1      33.173  32.631  -6.824  1.00  0.00    -0.385 OA
ATOM     22  H   UNL     1      33.443  33.516  -7.192  1.00  0.00     0.211 HD
ENDBRANCH   2  21
BRANCH   6  23
ATOM     23  O   UNL     1      34.410  35.546  -6.232  1.00  0.00    -0.453 OA
BRANCH  23  24
ATOM     24  C   UNL     1      34.043  36.867  -5.927  1.00  0.00     0.331 C 
ATOM     25  O   UNL     1      34.471  37.839  -6.601  1.00  0.00    -0.247 OA
BRANCH  24  26
ATOM     26  C   UNL     1      33.182  37.147  -4.770  1.00  0.00     0.094 C 
ATOM     27  C   UNL     1      33.681  37.539  -3.593  1.00  0.00     0.016 C 
BRANCH  27  28
ATOM     28  C   UNL     1      32.830  37.724  -2.400  1.00  0.00    -0.021 A 
ATOM     29  C   UNL     1      31.593  38.376  -2.544  1.00  0.00     0.058 A 
ATOM     30  C   UNL     1      33.270  37.350  -1.119  1.00  0.00     0.012 A 
ATOM     31  C   UNL     1      30.809  38.653  -1.421  1.00  0.00     0.157 A 
ATOM     32  C   UNL     1      32.498  37.657   0.004  1.00  0.00     0.051 A 
ATOM     33  C   UNL     1      31.270  38.313  -0.136  1.00  0.00     0.157 A 
BRANCH  31  34
ATOM     34  O   UNL     1      29.594  39.309  -1.596  1.00  0.00    -0.504 OA
ATOM     35  H   UNL     1      29.019  39.594  -0.811  1.00  0.00     0.293 HD
ENDBRANCH  31  34
BRANCH  33  36
ATOM     36  O   UNL     1      30.519  38.649   0.988  1.00  0.00    -0.504 OA
ATOM     37  H   UNL     1      29.968  39.494   1.040  1.00  0.00     0.293 HD
ENDBRANCH  33  36
ENDBRANCH  27  28
ENDBRANCH  24  26
ENDBRANCH  23  24
ENDBRANCH   6  23
BRANCH   3  38
ATOM     38  O   UNL     1      36.266  31.304  -5.406  1.00  0.00    -0.350 OA
BRANCH  38  39
ATOM     39  C   UNL     1      37.317  30.549  -5.988  1.00  0.00     0.168 C 
BRANCH  39  40
ATOM     40  C   UNL     1      38.197  29.934  -4.895  1.00  0.00     0.064 C 
BRANCH  40  41
ATOM     41  C   UNL     1      39.230  30.917  -4.412  1.00  0.00    -0.042 A 
ATOM     42  C   UNL     1      38.866  32.233  -4.104  1.00  0.00     0.054 A 
ATOM     43  C   UNL     1      40.560  30.506  -4.210  1.00  0.00     0.008 A 
ATOM     44  C   UNL     1      39.811  33.141  -3.616  1.00  0.00     0.157 A 
ATOM     45  C   UNL     1      41.517  31.414  -3.746  1.00  0.00     0.050 A 
ATOM     46  C   UNL     1      41.146  32.732  -3.445  1.00  0.00     0.157 A 
BRANCH  44  47
ATOM     47  O   UNL     1      39.403  34.435  -3.287  1.00  0.00    -0.504 OA
ATOM     48  H   UNL     1      38.624  34.600  -2.660  1.00  0.00     0.293 HD
ENDBRANCH  44  47
BRANCH  46  49
ATOM     49  O   UNL     1      42.103  33.633  -2.978  1.00  0.00    -0.504 OA
ATOM     50  H   UNL     1      41.956  34.166  -2.129  1.00  0.00     0.293 HD
ENDBRANCH  46  49
ENDBRANCH  40  41
ENDBRANCH  39  40
ENDBRANCH  38  39
ENDBRANCH   3  38
BRANCH   5  51
ATOM     51  C   UNL     1      37.282  35.085  -6.768  1.00  0.00     0.192 C 
BRANCH  51  52
ATOM     52  O   UNL     1      38.582  35.106  -6.247  1.00  0.00    -0.394 OA
ATOM     53  H   UNL     1      39.125  35.681  -6.851  1.00  0.00     0.210 HD
ENDBRANCH  51  52
ENDBRANCH   5  51
TORSDOF 20
ENDMDL
MODEL 2
REMARK VINA RESULT:    -7.678      2.796      6.673
REMARK INTER + INTRA:         -17.514
REMARK INTER:                 -14.496
REMARK INTRA:                  -3.018
REMARK UNBOUND:                -2.879
REMARK SMILES C[C@@H]1O[C@@H](O[C@@H]2[C@@H](O)[C@H](OCCc3ccc(O)c(O)c3)O[C@@H](CO)[C@H]2OC(=O)C=Cc2ccc(O)c(O)c2)[C@@H](O)[C@@H](O)[C@@H]1O
REMARK SMILES IDX 6 1 7 2 9 3 21 4 22 5 25 6 5 7 4 8 1 9 2 10 43 11 3 12 41 13
REMARK SMILES IDX 39 14 44 15 42 17 40 19 8 21 26 23 27 24 28 25 29 26 30 27
REMARK SMILES IDX 31 28 38 29 32 30 36 31 33 32 34 33 37 34 35 36 10 38 11 39
REMARK SMILES IDX 12 40 13 41 20 42 14 43 18 44 15 45 16 46 19 47 17 49 23 51
REMARK SMILES IDX 24 52
REMARK H PARENT 44 16 42 18 40 20 8 22 37 35 35 37 19 48 17 50 24 53
REMARK Flexibility Score: inf
ROOT
ATOM      1  C   UNL     1      34.064  33.521  -4.399  1.00  0.00     0.199 C 
ATOM      2  C   UNL     1      33.013  33.083  -5.438  1.00  0.00     0.203 C 
ATOM      3  C   UNL     1      33.198  33.830  -6.779  1.00  0.00     0.282 C 
ATOM      4  O   UNL     1      33.210  35.240  -6.591  1.00  0.00    -0.340 OA
ATOM      5  C   UNL     1      34.301  35.665  -5.795  1.00  0.00     0.190 C 
ATOM      6  C   UNL     1      34.227  35.059  -4.358  1.00  0.00     0.240 C 
ENDROOT
BRANCH   1   7
ATOM      7  O   UNL     1      35.298  32.917  -4.771  1.00  0.00    -0.340 OA
BRANCH   7   8
ATOM      8  C   UNL     1      35.770  31.983  -3.809  1.00  0.00     0.282 C 
ATOM      9  C   UNL     1      39.215  33.245  -3.445  1.00  0.00     0.041 C 
ATOM     10  C   UNL     1      38.010  32.602  -4.135  1.00  0.00     0.150 C 
ATOM     11  C   UNL     1      38.397  31.250  -4.767  1.00  0.00     0.174 C 
ATOM     12  O   UNL     1      36.965  32.441  -3.189  1.00  0.00    -0.344 OA
ATOM     13  C   UNL     1      37.165  30.641  -5.460  1.00  0.00     0.179 C 
ATOM     14  C   UNL     1      35.984  30.604  -4.483  1.00  0.00     0.202 C 
BRANCH  11  15
ATOM     15  O   UNL     1      38.881  30.383  -3.772  1.00  0.00    -0.388 OA
ATOM     16  H   UNL     1      39.353  29.642  -4.242  1.00  0.00     0.211 HD
ENDBRANCH  11  15
BRANCH  13  17
ATOM     17  O   UNL     1      36.832  31.397  -6.600  1.00  0.00    -0.387 OA
ATOM     18  H   UNL     1      35.863  31.256  -6.767  1.00  0.00     0.211 HD
ENDBRANCH  13  17
BRANCH  14  19
ATOM     19  O   UNL     1      34.818  30.217  -5.172  1.00  0.00    -0.385 OA
ATOM     20  H   UNL     1      34.551  30.990  -5.739  1.00  0.00     0.211 HD
ENDBRANCH  14  19
ENDBRANCH   7   8
ENDBRANCH   1   7
BRANCH   2  21
ATOM     21  O   UNL     1      31.709  33.290  -4.959  1.00  0.00    -0.385 OA
ATOM     22  H   UNL     1      31.736  34.104  -4.386  1.00  0.00     0.211 HD
ENDBRANCH   2  21
BRANCH   6  23
ATOM     23  O   UNL     1      33.274  35.686  -3.481  1.00  0.00    -0.453 OA
BRANCH  23  24
ATOM     24  C   UNL     1      33.433  36.005  -2.122  1.00  0.00     0.331 C 
ATOM     25  O   UNL     1      33.931  37.101  -1.759  1.00  0.00    -0.247 OA
BRANCH  24  26
ATOM     26  C   UNL     1      33.060  35.030  -1.087  1.00  0.00     0.094 C 
ATOM     27  C   UNL     1      33.872  34.030  -0.731  1.00  0.00     0.016 C 
BRANCH  27  28
ATOM     28  C   UNL     1      33.463  32.990   0.236  1.00  0.00    -0.021 A 
ATOM     29  C   UNL     1      32.131  32.968   0.683  1.00  0.00     0.058 A 
ATOM     30  C   UNL     1      34.393  32.090   0.784  1.00  0.00     0.012 A 
ATOM     31  C   UNL     1      31.736  32.060   1.669  1.00  0.00     0.157 A 
ATOM     32  C   UNL     1      34.001  31.206   1.792  1.00  0.00     0.051 A 
ATOM     33  C   UNL     1      32.678  31.186   2.245  1.00  0.00     0.157 A 
BRANCH  31  34
ATOM     34  O   UNL     1      30.412  32.069   2.099  1.00  0.00    -0.504 OA
ATOM     35  H   UNL     1      29.896  32.932   2.230  1.00  0.00     0.293 HD
ENDBRANCH  31  34
BRANCH  33  36
ATOM     36  O   UNL     1      32.298  30.328   3.274  1.00  0.00    -0.504 OA
ATOM     37  H   UNL     1      32.968  29.801   3.816  1.00  0.00     0.293 HD
ENDBRANCH  33  36
ENDBRANCH  27  28
ENDBRANCH  24  26
ENDBRANCH  23  24
ENDBRANCH   6  23
BRANCH   3  38
ATOM     38  O   UNL     1      34.389  33.401  -7.437  1.00  0.00    -0.350 OA
BRANCH  38  39
ATOM     39  C   UNL     1      34.108  32.770  -8.678  1.00  0.00     0.168 C 
BRANCH  39  40
ATOM     40  C   UNL     1      33.911  31.265  -8.476  1.00  0.00     0.064 C 
BRANCH  40  41
ATOM     41  C   UNL     1      32.449  30.903  -8.487  1.00  0.00    -0.042 A 
ATOM     42  C   UNL     1      31.941  29.985  -7.560  1.00  0.00     0.054 A 
ATOM     43  C   UNL     1      31.570  31.528  -9.390  1.00  0.00     0.008 A 
ATOM     44  C   UNL     1      30.577  29.674  -7.537  1.00  0.00     0.157 A 
ATOM     45  C   UNL     1      30.210  31.205  -9.389  1.00  0.00     0.050 A 
ATOM     46  C   UNL     1      29.709  30.279  -8.463  1.00  0.00     0.157 A 
BRANCH  44  47
ATOM     47  O   UNL     1      30.101  28.780  -6.576  1.00  0.00    -0.504 OA
ATOM     48  H   UNL     1      29.738  29.104  -5.687  1.00  0.00     0.293 HD
ENDBRANCH  44  47
BRANCH  46  49
ATOM     49  O   UNL     1      28.350  29.964  -8.463  1.00  0.00    -0.504 OA
ATOM     50  H   UNL     1      28.029  29.013  -8.602  1.00  0.00     0.293 HD
ENDBRANCH  46  49
ENDBRANCH  40  41
ENDBRANCH  39  40
ENDBRANCH  38  39
ENDBRANCH   3  38
BRANCH   5  51
ATOM     51  C   UNL     1      34.339  37.202  -5.786  1.00  0.00     0.192 C 
BRANCH  51  52
ATOM     52  O   UNL     1      35.029  37.683  -4.665  1.00  0.00    -0.394 OA
ATOM     53  H   UNL     1      35.553  36.919  -4.301  1.00  0.00     0.210 HD
ENDBRANCH  51  52
ENDBRANCH   5  51
TORSDOF 20
ENDMDL
MODEL 3
REMARK VINA RESULT:    -7.638      2.585      5.652
REMARK INTER + INTRA:         -17.438
REMARK INTER:                 -14.134
REMARK INTRA:                  -3.304
REMARK UNBOUND:                -2.879
REMARK SMILES C[C@@H]1O[C@@H](O[C@@H]2[C@@H](O)[C@H](OCCc3ccc(O)c(O)c3)O[C@@H](CO)[C@H]2OC(=O)C=Cc2ccc(O)c(O)c2)[C@@H](O)[C@@H](O)[C@@H]1O
REMARK SMILES IDX 6 1 7 2 9 3 21 4 22 5 25 6 5 7 4 8 1 9 2 10 43 11 3 12 41 13
REMARK SMILES IDX 39 14 44 15 42 17 40 19 8 21 26 23 27 24 28 25 29 26 30 27
REMARK SMILES IDX 31 28 38 29 32 30 36 31 33 32 34 33 37 34 35 36 10 38 11 39
REMARK SMILES IDX 12 40 13 41 20 42 14 43 18 44 15 45 16 46 19 47 17 49 23 51
REMARK SMILES IDX 24 52
REMARK H PARENT 44 16 42 18 40 20 8 22 37 35 35 37 19 48 17 50 24 53
REMARK Flexibility Score: inf
ROOT
ATOM      1  C   UNL     1      33.641  32.432  -4.164  1.00  0.00     0.199 C 
ATOM      2  C   UNL     1      32.485  31.970  -5.073  1.00  0.00     0.203 C 
ATOM      3  C   UNL     1      32.692  32.441  -6.532  1.00  0.00     0.282 C 
ATOM      4  O   UNL     1      32.899  33.847  -6.601  1.00  0.00    -0.340 OA
ATOM      5  C   UNL     1      34.078  34.247  -5.928  1.00  0.00     0.190 C 
ATOM      6  C   UNL     1      34.006  33.916  -4.404  1.00  0.00     0.240 C 
ENDROOT
BRANCH   1   7
ATOM      7  O   UNL     1      34.762  31.607  -4.460  1.00  0.00    -0.340 OA
BRANCH   7   8
ATOM      8  C   UNL     1      35.711  31.559  -3.402  1.00  0.00     0.282 C 
ATOM      9  C   UNL     1      38.464  33.390  -5.032  1.00  0.00     0.041 C 
ATOM     10  C   UNL     1      37.471  32.252  -4.791  1.00  0.00     0.150 C 
ATOM     11  C   UNL     1      38.199  30.896  -4.714  1.00  0.00     0.174 C 
ATOM     12  O   UNL     1      36.750  32.511  -3.597  1.00  0.00    -0.344 OA
ATOM     13  C   UNL     1      37.168  29.777  -4.483  1.00  0.00     0.179 C 
ATOM     14  C   UNL     1      36.284  30.125  -3.280  1.00  0.00     0.202 C 
BRANCH  11  15
ATOM     15  O   UNL     1      39.140  30.922  -3.670  1.00  0.00    -0.388 OA
ATOM     16  H   UNL     1      39.104  31.834  -3.272  1.00  0.00     0.211 HD
ENDBRANCH  11  15
BRANCH  13  17
ATOM     17  O   UNL     1      36.379  29.604  -5.636  1.00  0.00    -0.387 OA
ATOM     18  H   UNL     1      36.569  28.692  -5.982  1.00  0.00     0.211 HD
ENDBRANCH  13  17
BRANCH  14  19
ATOM     19  O   UNL     1      35.233  29.192  -3.186  1.00  0.00    -0.385 OA
ATOM     20  H   UNL     1      35.052  29.060  -2.217  1.00  0.00     0.211 HD
ENDBRANCH  14  19
ENDBRANCH   7   8
ENDBRANCH   1   7
BRANCH   2  21
ATOM     21  O   UNL     1      31.248  32.437  -4.599  1.00  0.00    -0.385 OA
ATOM     22  H   UNL     1      30.555  32.129  -5.245  1.00  0.00     0.211 HD
ENDBRANCH   2  21
BRANCH   6  23
ATOM     23  O   UNL     1      33.194  34.811  -3.624  1.00  0.00    -0.453 OA
BRANCH  23  24
ATOM     24  C   UNL     1      33.431  35.275  -2.319  1.00  0.00     0.331 C 
ATOM     25  O   UNL     1      34.006  36.373  -2.107  1.00  0.00    -0.247 OA
BRANCH  24  26
ATOM     26  C   UNL     1      33.050  34.452  -1.163  1.00  0.00     0.094 C 
ATOM     27  C   UNL     1      33.832  33.468  -0.705  1.00  0.00     0.016 C 
BRANCH  27  28
ATOM     28  C   UNL     1      33.410  32.574   0.392  1.00  0.00    -0.021 A 
ATOM     29  C   UNL     1      32.107  32.696   0.903  1.00  0.00     0.058 A 
ATOM     30  C   UNL     1      34.308  31.675   0.993  1.00  0.00     0.012 A 
ATOM     31  C   UNL     1      31.709  31.933   2.004  1.00  0.00     0.157 A 
ATOM     32  C   UNL     1      33.917  30.937   2.113  1.00  0.00     0.051 A 
ATOM     33  C   UNL     1      32.622  31.063   2.629  1.00  0.00     0.157 A 
BRANCH  31  34
ATOM     34  O   UNL     1      30.414  32.085   2.494  1.00  0.00    -0.504 OA
ATOM     35  H   UNL     1      29.878  31.300   2.846  1.00  0.00     0.293 HD
ENDBRANCH  31  34
BRANCH  33  36
ATOM     36  O   UNL     1      32.245  30.352   3.766  1.00  0.00    -0.504 OA
ATOM     37  H   UNL     1      32.747  29.537   4.088  1.00  0.00     0.293 HD
ENDBRANCH  33  36
ENDBRANCH  27  28
ENDBRANCH  24  26
ENDBRANCH  23  24
ENDBRANCH   6  23
BRANCH   3  38
ATOM     38  O   UNL     1      33.778  31.743  -7.139  1.00  0.00    -0.350 OA
BRANCH  38  39
ATOM     39  C   UNL     1      33.643  31.684  -8.551  1.00  0.00     0.168 C 
BRANCH  39  40
ATOM     40  C   UNL     1      35.009  31.854  -9.223  1.00  0.00     0.064 C 
BRANCH  40  41
ATOM     41  C   UNL     1      35.416  33.303  -9.268  1.00  0.00    -0.042 A 
ATOM     42  C   UNL     1      36.539  33.745  -8.559  1.00  0.00     0.054 A 
ATOM     43  C   UNL     1      34.705  34.215 -10.069  1.00  0.00     0.008 A 
ATOM     44  C   UNL     1      36.948  35.081  -8.628  1.00  0.00     0.157 A 
ATOM     45  C   UNL     1      35.092  35.557 -10.125  1.00  0.00     0.050 A 
ATOM     46  C   UNL     1      36.214  35.994  -9.407  1.00  0.00     0.157 A 
BRANCH  44  47
ATOM     47  O   UNL     1      38.093  35.478  -7.934  1.00  0.00    -0.504 OA
ATOM     48  H   UNL     1      38.531  36.375  -8.109  1.00  0.00     0.293 HD
ENDBRANCH  44  47
BRANCH  46  49
ATOM     49  O   UNL     1      36.599  37.334  -9.469  1.00  0.00    -0.504 OA
ATOM     50  H   UNL     1      35.930  38.082  -9.334  1.00  0.00     0.293 HD
ENDBRANCH  46  49
ENDBRANCH  40  41
ENDBRANCH  39  40
ENDBRANCH  38  39
ENDBRANCH   3  38
BRANCH   5  51
ATOM     51  C   UNL     1      34.319  35.743  -6.196  1.00  0.00     0.192 C 
BRANCH  51  52
ATOM     52  O   UNL     1      35.017  36.339  -5.137  1.00  0.00    -0.394 OA
ATOM     53  H   UNL     1      35.178  35.626  -4.462  1.00  0.00     0.210 HD
ENDBRANCH  51  52
ENDBRANCH   5  51
TORSDOF 20
ENDMDL
MODEL 4
REMARK VINA RESULT:    -7.637      2.694      7.002
REMARK INTER + INTRA:         -17.435
REMARK INTER:                 -14.239
REMARK INTRA:                  -3.196
REMARK UNBOUND:                -2.879
REMARK SMILES C[C@@H]1O[C@@H](O[C@@H]2[C@@H](O)[C@H](OCCc3ccc(O)c(O)c3)O[C@@H](CO)[C@H]2OC(=O)C=Cc2ccc(O)c(O)c2)[C@@H](O)[C@@H](O)[C@@H]1O
REMARK SMILES IDX 6 1 7 2 9 3 21 4 22 5 25 6 5 7 4 8 1 9 2 10 43 11 3 12 41 13
REMARK SMILES IDX 39 14 44 15 42 17 40 19 8 21 26 23 27 24 28 25 29 26 30 27
REMARK SMILES IDX 31 28 38 29 32 30 36 31 33 32 34 33 37 34 35 36 10 38 11 39
REMARK SMILES IDX 12 40 13 41 20 42 14 43 18 44 15 45 16 46 19 47 17 49 23 51
REMARK SMILES IDX 24 52
REMARK H PARENT 44 16 42 18 40 20 8 22 37 35 35 37 19 48 17 50 24 53
REMARK Flexibility Score: inf
ROOT
ATOM      1  C   UNL     1      34.613  35.522  -4.569  1.00  0.00     0.199 C 
ATOM      2  C   UNL     1      35.107  35.704  -6.018  1.00  0.00     0.203 C 
ATOM      3  C   UNL     1      34.344  34.780  -6.996  1.00  0.00     0.282 C 
ATOM      4  O   UNL     1      34.400  33.421  -6.578  1.00  0.00    -0.340 OA
ATOM      5  C   UNL     1      33.764  33.219  -5.329  1.00  0.00     0.190 C 
ATOM      6  C   UNL     1      34.468  34.028  -4.194  1.00  0.00     0.240 C 
ENDROOT
BRANCH   1   7
ATOM      7  O   UNL     1      33.348  36.167  -4.474  1.00  0.00    -0.340 OA
BRANCH   7   8
ATOM      8  C   UNL     1      33.450  37.539  -4.116  1.00  0.00     0.282 C 
ATOM      9  C   UNL     1      32.619  37.251  -0.537  1.00  0.00     0.041 C 
ATOM     10  C   UNL     1      32.394  37.201  -2.049  1.00  0.00     0.150 C 
ATOM     11  C   UNL     1      31.141  38.008  -2.443  1.00  0.00     0.174 C 
ATOM     12  O   UNL     1      33.548  37.699  -2.707  1.00  0.00    -0.344 OA
ATOM     13  C   UNL     1      30.941  37.924  -3.967  1.00  0.00     0.179 C 
ATOM     14  C   UNL     1      32.238  38.317  -4.684  1.00  0.00     0.202 C 
BRANCH  11  15
ATOM     15  O   UNL     1      31.292  39.345  -2.039  1.00  0.00    -0.388 OA
ATOM     16  H   UNL     1      31.931  39.768  -2.675  1.00  0.00     0.211 HD
ENDBRANCH  11  15
BRANCH  13  17
ATOM     17  O   UNL     1      30.558  36.619  -4.331  1.00  0.00    -0.387 OA
ATOM     18  H   UNL     1      30.258  36.660  -5.278  1.00  0.00     0.211 HD
ENDBRANCH  13  17
BRANCH  14  19
ATOM     19  O   UNL     1      32.105  38.065  -6.063  1.00  0.00    -0.385 OA
ATOM     20  H   UNL     1      32.556  38.815  -6.537  1.00  0.00     0.211 HD
ENDBRANCH  14  19
ENDBRANCH   7   8
ENDBRANCH   1   7
BRANCH   2  21
ATOM     21  O   UNL     1      36.486  35.460  -6.119  1.00  0.00    -0.385 OA
ATOM     22  H   UNL     1      36.950  36.294  -5.834  1.00  0.00     0.211 HD
ENDBRANCH   2  21
BRANCH   6  23
ATOM     23  O   UNL     1      35.702  33.462  -3.717  1.00  0.00    -0.453 OA
BRANCH  23  24
ATOM     24  C   UNL     1      36.155  33.374  -2.391  1.00  0.00     0.331 C 
ATOM     25  O   UNL     1      37.204  33.956  -2.015  1.00  0.00    -0.247 OA
BRANCH  24  26
ATOM     26  C   UNL     1      35.428  32.548  -1.416  1.00  0.00     0.094 C 
ATOM     27  C   UNL     1      34.611  33.083  -0.503  1.00  0.00     0.016 C 
BRANCH  27  28
ATOM     28  C   UNL     1      33.956  32.269   0.541  1.00  0.00    -0.021 A 
ATOM     29  C   UNL     1      32.610  32.524   0.854  1.00  0.00     0.058 A 
ATOM     30  C   UNL     1      34.672  31.316   1.286  1.00  0.00     0.012 A 
ATOM     31  C   UNL     1      31.990  31.839   1.902  1.00  0.00     0.157 A 
ATOM     32  C   UNL     1      34.057  30.656   2.353  1.00  0.00     0.051 A 
ATOM     33  C   UNL     1      32.720  30.914   2.672  1.00  0.00     0.157 A 
BRANCH  31  34
ATOM     34  O   UNL     1      30.659  32.122   2.195  1.00  0.00    -0.504 OA
ATOM     35  H   UNL     1      30.227  31.832   3.065  1.00  0.00     0.293 HD
ENDBRANCH  31  34
BRANCH  33  36
ATOM     36  O   UNL     1      32.120  30.281   3.759  1.00  0.00    -0.504 OA
ATOM     37  H   UNL     1      32.467  29.412   4.139  1.00  0.00     0.293 HD
ENDBRANCH  33  36
ENDBRANCH  27  28
ENDBRANCH  24  26
ENDBRANCH  23  24
ENDBRANCH   6  23
BRANCH   3  38
ATOM     38  O   UNL     1      32.990  35.206  -7.141  1.00  0.00    -0.350 OA
BRANCH  38  39
ATOM     39  C   UNL     1      32.580  35.207  -8.500  1.00  0.00     0.168 C 
BRANCH  39  40
ATOM     40  C   UNL     1      31.268  34.434  -8.661  1.00  0.00     0.064 C 
BRANCH  40  41
ATOM     41  C   UNL     1      31.468  32.964  -8.397  1.00  0.00    -0.042 A 
ATOM     42  C   UNL     1      32.506  32.267  -9.026  1.00  0.00     0.054 A 
ATOM     43  C   UNL     1      30.650  32.292  -7.471  1.00  0.00     0.008 A 
ATOM     44  C   UNL     1      32.724  30.912  -8.756  1.00  0.00     0.157 A 
ATOM     45  C   UNL     1      30.845  30.932  -7.213  1.00  0.00     0.050 A 
ATOM     46  C   UNL     1      31.883  30.238  -7.852  1.00  0.00     0.157 A 
BRANCH  44  47
ATOM     47  O   UNL     1      33.790  30.258  -9.376  1.00  0.00    -0.504 OA
ATOM     48  H   UNL     1      33.715  29.293  -9.675  1.00  0.00     0.293 HD
ENDBRANCH  44  47
BRANCH  46  49
ATOM     49  O   UNL     1      32.076  28.883  -7.588  1.00  0.00    -0.504 OA
ATOM     50  H   UNL     1      33.006  28.485  -7.526  1.00  0.00     0.293 HD
ENDBRANCH  46  49
ENDBRANCH  40  41
ENDBRANCH  39  40
ENDBRANCH  38  39
ENDBRANCH   3  38
BRANCH   5  51
ATOM     51  C   UNL     1      33.717  31.710  -5.036  1.00  0.00     0.192 C 
BRANCH  51  52
ATOM     52  O   UNL     1      34.922  31.089  -5.391  1.00  0.00    -0.394 OA
ATOM     53  H   UNL     1      34.976  31.113  -6.384  1.00  0.00     0.210 HD
ENDBRANCH  51  52
ENDBRANCH   5  51
TORSDOF 20
ENDMDL
MODEL 5
REMARK VINA RESULT:    -7.628      2.871      7.827
REMARK INTER + INTRA:         -17.419
REMARK INTER:                 -14.332
REMARK INTRA:                  -3.087
REMARK UNBOUND:                -2.879
REMARK SMILES C[C@@H]1O[C@@H](O[C@@H]2[C@@H](O)[C@H](OCCc3ccc(O)c(O)c3)O[C@@H](CO)[C@H]2OC(=O)C=Cc2ccc(O)c(O)c2)[C@@H](O)[C@@H](O)[C@@H]1O
REMARK SMILES IDX 6 1 7 2 9 3 21 4 22 5 25 6 5 7 4 8 1 9 2 10 43 11 3 12 41 13
REMARK SMILES IDX 39 14 44 15 42 17 40 19 8 21 26 23 27 24 28 25 29 26 30 27
REMARK SMILES IDX 31 28 38 29 32 30 36 31 33 32 34 33 37 34 35 36 10 38 11 39
REMARK SMILES IDX 12 40 13 41 20 42 14 43 18 44 15 45 16 46 19 47 17 49 23 51
REMARK SMILES IDX 24 52
REMARK H PARENT 44 16 42 18 40 20 8 22 37 35 35 37 19 48 17 50 24 53
REMARK Flexibility Score: inf
ROOT
ATOM      1  C   UNL     1      34.620  35.504  -4.441  1.00  0.00     0.199 C 
ATOM      2  C   UNL     1      35.133  35.785  -5.867  1.00  0.00     0.203 C 
ATOM      3  C   UNL     1      34.316  35.007  -6.924  1.00  0.00     0.282 C 
ATOM      4  O   UNL     1      34.278  33.615  -6.633  1.00  0.00    -0.340 OA
ATOM      5  C   UNL     1      33.623  33.343  -5.407  1.00  0.00     0.190 C 
ATOM      6  C   UNL     1      34.373  33.996  -4.203  1.00  0.00     0.240 C 
ENDROOT
BRANCH   1   7
ATOM      7  O   UNL     1      33.400  36.222  -4.286  1.00  0.00    -0.340 OA
BRANCH   7   8
ATOM      8  C   UNL     1      33.582  37.507  -3.706  1.00  0.00     0.282 C 
ATOM      9  C   UNL     1      32.040  36.864  -0.420  1.00  0.00     0.041 C 
ATOM     10  C   UNL     1      32.110  37.046  -1.937  1.00  0.00     0.150 C 
ATOM     11  C   UNL     1      31.057  38.064  -2.417  1.00  0.00     0.174 C 
ATOM     12  O   UNL     1      33.419  37.463  -2.294  1.00  0.00    -0.344 OA
ATOM     13  C   UNL     1      31.150  38.212  -3.946  1.00  0.00     0.179 C 
ATOM     14  C   UNL     1      32.598  38.514  -4.351  1.00  0.00     0.202 C 
BRANCH  11  15
ATOM     15  O   UNL     1      31.273  39.303  -1.788  1.00  0.00    -0.388 OA
ATOM     16  H   UNL     1      32.108  39.213  -1.254  1.00  0.00     0.211 HD
ENDBRANCH  11  15
BRANCH  13  17
ATOM     17  O   UNL     1      30.704  37.033  -4.572  1.00  0.00    -0.387 OA
ATOM     18  H   UNL     1      30.974  36.276  -3.987  1.00  0.00     0.211 HD
ENDBRANCH  13  17
BRANCH  14  19
ATOM     19  O   UNL     1      32.711  38.468  -5.754  1.00  0.00    -0.385 OA
ATOM     20  H   UNL     1      32.255  37.635  -6.051  1.00  0.00     0.211 HD
ENDBRANCH  14  19
ENDBRANCH   7   8
ENDBRANCH   1   7
BRANCH   2  21
ATOM     21  O   UNL     1      36.494  35.458  -5.991  1.00  0.00    -0.385 OA
ATOM     22  H   UNL     1      36.974  35.936  -5.260  1.00  0.00     0.211 HD
ENDBRANCH   2  21
BRANCH   6  23
ATOM     23  O   UNL     1      35.563  33.307  -3.781  1.00  0.00    -0.453 OA
BRANCH  23  24
ATOM     24  C   UNL     1      36.111  33.244  -2.489  1.00  0.00     0.331 C 
ATOM     25  O   UNL     1      37.194  33.818  -2.206  1.00  0.00    -0.247 OA
BRANCH  24  26
ATOM     26  C   UNL     1      35.445  32.454  -1.443  1.00  0.00     0.094 C 
ATOM     27  C   UNL     1      34.425  32.941  -0.729  1.00  0.00     0.016 C 
BRANCH  27  28
ATOM     28  C   UNL     1      33.818  32.191   0.389  1.00  0.00    -0.021 A 
ATOM     29  C   UNL     1      32.485  32.462   0.743  1.00  0.00     0.058 A 
ATOM     30  C   UNL     1      34.568  31.286   1.160  1.00  0.00     0.012 A 
ATOM     31  C   UNL     1      31.912  31.841   1.855  1.00  0.00     0.157 A 
ATOM     32  C   UNL     1      34.002  30.692   2.290  1.00  0.00     0.051 A 
ATOM     33  C   UNL     1      32.678  30.966   2.649  1.00  0.00     0.157 A 
BRANCH  31  34
ATOM     34  O   UNL     1      30.593  32.139   2.186  1.00  0.00    -0.504 OA
ATOM     35  H   UNL     1      30.300  33.078   2.430  1.00  0.00     0.293 HD
ENDBRANCH  31  34
BRANCH  33  36
ATOM     36  O   UNL     1      32.127  30.399   3.796  1.00  0.00    -0.504 OA
ATOM     37  H   UNL     1      32.666  30.240   4.635  1.00  0.00     0.293 HD
ENDBRANCH  33  36
ENDBRANCH  27  28
ENDBRANCH  24  26
ENDBRANCH  23  24
ENDBRANCH   6  23
BRANCH   3  38
ATOM     38  O   UNL     1      32.994  35.535  -7.030  1.00  0.00    -0.350 OA
BRANCH  38  39
ATOM     39  C   UNL     1      32.476  35.400  -8.344  1.00  0.00     0.168 C 
BRANCH  39  40
ATOM     40  C   UNL     1      31.013  35.853  -8.388  1.00  0.00     0.064 C 
BRANCH  40  41
ATOM     41  C   UNL     1      30.911  37.355  -8.430  1.00  0.00    -0.042 A 
ATOM     42  C   UNL     1      31.920  38.117  -9.029  1.00  0.00     0.054 A 
ATOM     43  C   UNL     1      29.771  38.002  -7.918  1.00  0.00     0.008 A 
ATOM     44  C   UNL     1      31.813  39.510  -9.108  1.00  0.00     0.157 A 
ATOM     45  C   UNL     1      29.667  39.395  -7.971  1.00  0.00     0.050 A 
ATOM     46  C   UNL     1      30.686  40.153  -8.567  1.00  0.00     0.157 A 
BRANCH  44  47
ATOM     47  O   UNL     1      32.823  40.234  -9.744  1.00  0.00    -0.504 OA
ATOM     48  H   UNL     1      33.788  39.922  -9.725  1.00  0.00     0.293 HD
ENDBRANCH  44  47
BRANCH  46  49
ATOM     49  O   UNL     1      30.575  41.542  -8.621  1.00  0.00    -0.504 OA
ATOM     50  H   UNL     1      29.837  41.993  -9.149  1.00  0.00     0.293 HD
ENDBRANCH  46  49
ENDBRANCH  40  41
ENDBRANCH  39  40
ENDBRANCH  38  39
ENDBRANCH   3  38
BRANCH   5  51
ATOM     51  C   UNL     1      33.472  31.820  -5.253  1.00  0.00     0.192 C 
BRANCH  51  52
ATOM     52  O   UNL     1      33.200  31.473  -3.923  1.00  0.00    -0.394 OA
ATOM     53  H   UNL     1      33.544  30.549  -3.791  1.00  0.00     0.210 HD
ENDBRANCH  51  52
ENDBRANCH   5  51
TORSDOF 20
ENDMDL
MODEL 6
REMARK VINA RESULT:    -7.614      2.256      7.831
REMARK INTER + INTRA:         -17.392
REMARK INTER:                 -14.899
REMARK INTRA:                  -2.494
REMARK UNBOUND:                -2.879
REMARK SMILES C[C@@H]1O[C@@H](O[C@@H]2[C@@H](O)[C@H](OCCc3ccc(O)c(O)c3)O[C@@H](CO)[C@H]2OC(=O)C=Cc2ccc(O)c(O)c2)[C@@H](O)[C@@H](O)[C@@H]1O
REMARK SMILES IDX 6 1 7 2 9 3 21 4 22 5 25 6 5 7 4 8 1 9 2 10 43 11 3 12 41 13
REMARK SMILES IDX 39 14 44 15 42 17 40 19 8 21 26 23 27 24 28 25 29 26 30 27
REMARK SMILES IDX 31 28 38 29 32 30 36 31 33 32 34 33 37 34 35 36 10 38 11 39
REMARK SMILES IDX 12 40 13 41 20 42 14 43 18 44 15 45 16 46 19 47 17 49 23 51
REMARK SMILES IDX 24 52
REMARK H PARENT 44 16 42 18 40 20 8 22 37 35 35 37 19 48 17 50 24 53
REMARK Flexibility Score: inf
ROOT
ATOM      1  C   UNL     1      33.579  33.260  -5.144  1.00  0.00     0.199 C 
ATOM      2  C   UNL     1      32.158  32.764  -4.810  1.00  0.00     0.203 C 
ATOM      3  C   UNL     1      32.052  32.304  -3.338  1.00  0.00     0.282 C 
ATOM      4  O   UNL     1      33.045  31.336  -3.022  1.00  0.00    -0.340 OA
ATOM      5  C   UNL     1      34.356  31.858  -3.136  1.00  0.00     0.190 C 
ATOM      6  C   UNL     1      34.666  32.303  -4.600  1.00  0.00     0.240 C 
ENDROOT
BRANCH   1   7
ATOM      7  O   UNL     1      33.725  34.543  -4.545  1.00  0.00    -0.340 OA
BRANCH   7   8
ATOM      8  C   UNL     1      32.924  35.540  -5.167  1.00  0.00     0.282 C 
ATOM      9  C   UNL     1      35.416  36.866  -7.538  1.00  0.00     0.041 C 
ATOM     10  C   UNL     1      34.776  36.563  -6.182  1.00  0.00     0.150 C 
ATOM     11  C   UNL     1      34.662  37.843  -5.331  1.00  0.00     0.174 C 
ATOM     12  O   UNL     1      33.501  35.976  -6.391  1.00  0.00    -0.344 OA
ATOM     13  C   UNL     1      34.027  37.497  -3.973  1.00  0.00     0.179 C 
ATOM     14  C   UNL     1      32.719  36.726  -4.192  1.00  0.00     0.202 C 
BRANCH  11  15
ATOM     15  O   UNL     1      33.884  38.796  -6.010  1.00  0.00    -0.388 OA
ATOM     16  H   UNL     1      32.948  38.457  -6.010  1.00  0.00     0.211 HD
ENDBRANCH  11  15
BRANCH  13  17
ATOM     17  O   UNL     1      34.922  36.730  -3.204  1.00  0.00    -0.387 OA
ATOM     18  H   UNL     1      35.820  36.833  -3.617  1.00  0.00     0.211 HD
ENDBRANCH  13  17
BRANCH  14  19
ATOM     19  O   UNL     1      32.239  36.257  -2.954  1.00  0.00    -0.385 OA
ATOM     20  H   UNL     1      32.742  36.745  -2.248  1.00  0.00     0.211 HD
ENDBRANCH  14  19
ENDBRANCH   7   8
ENDBRANCH   1   7
BRANCH   2  21
ATOM     21  O   UNL     1      31.775  31.713  -5.660  1.00  0.00    -0.385 OA
ATOM     22  H   UNL     1      30.788  31.613  -5.571  1.00  0.00     0.211 HD
ENDBRANCH   2  21
BRANCH   6  23
ATOM     23  O   UNL     1      34.957  31.231  -5.514  1.00  0.00    -0.453 OA
BRANCH  23  24
ATOM     24  C   UNL     1      36.165  30.970  -6.182  1.00  0.00     0.331 C 
ATOM     25  O   UNL     1      36.184  30.590  -7.381  1.00  0.00    -0.247 OA
BRANCH  24  26
ATOM     26  C   UNL     1      37.444  31.089  -5.467  1.00  0.00     0.094 C 
ATOM     27  C   UNL     1      37.809  32.217  -4.851  1.00  0.00     0.016 C 
BRANCH  27  28
ATOM     28  C   UNL     1      39.133  32.375  -4.217  1.00  0.00    -0.021 A 
ATOM     29  C   UNL     1      39.563  33.665  -3.856  1.00  0.00     0.058 A 
ATOM     30  C   UNL     1      40.005  31.285  -4.053  1.00  0.00     0.012 A 
ATOM     31  C   UNL     1      40.848  33.860  -3.344  1.00  0.00     0.157 A 
ATOM     32  C   UNL     1      41.300  31.489  -3.571  1.00  0.00     0.051 A 
ATOM     33  C   UNL     1      41.732  32.772  -3.219  1.00  0.00     0.157 A 
BRANCH  31  34
ATOM     34  O   UNL     1      41.247  35.150  -3.007  1.00  0.00    -0.504 OA
ATOM     35  H   UNL     1      40.610  35.938  -3.049  1.00  0.00     0.293 HD
ENDBRANCH  31  34
BRANCH  33  36
ATOM     36  O   UNL     1      43.035  32.978  -2.771  1.00  0.00    -0.504 OA
ATOM     37  H   UNL     1      43.602  32.234  -2.390  1.00  0.00     0.293 HD
ENDBRANCH  33  36
ENDBRANCH  27  28
ENDBRANCH  24  26
ENDBRANCH  23  24
ENDBRANCH   6  23
BRANCH   3  38
ATOM     38  O   UNL     1      32.137  33.420  -2.452  1.00  0.00    -0.350 OA
BRANCH  38  39
ATOM     39  C   UNL     1      31.307  33.253  -1.313  1.00  0.00     0.168 C 
BRANCH  39  40
ATOM     40  C   UNL     1      32.007  33.793  -0.062  1.00  0.00     0.064 C 
BRANCH  40  41
ATOM     41  C   UNL     1      32.708  32.690   0.686  1.00  0.00    -0.042 A 
ATOM     42  C   UNL     1      32.087  32.067   1.775  1.00  0.00     0.054 A 
ATOM     43  C   UNL     1      33.971  32.236   0.262  1.00  0.00     0.008 A 
ATOM     44  C   UNL     1      32.714  31.014   2.449  1.00  0.00     0.157 A 
ATOM     45  C   UNL     1      34.615  31.201   0.946  1.00  0.00     0.050 A 
ATOM     46  C   UNL     1      33.990  30.585   2.040  1.00  0.00     0.157 A 
BRANCH  44  47
ATOM     47  O   UNL     1      32.049  30.394   3.509  1.00  0.00    -0.504 OA
ATOM     48  H   UNL     1      31.087  30.621   3.733  1.00  0.00     0.293 HD
ENDBRANCH  44  47
BRANCH  46  49
ATOM     49  O   UNL     1      34.635  29.550   2.716  1.00  0.00    -0.504 OA
ATOM     50  H   UNL     1      34.395  28.580   2.548  1.00  0.00     0.293 HD
ENDBRANCH  46  49
ENDBRANCH  40  41
ENDBRANCH  39  40
ENDBRANCH  38  39
ENDBRANCH   3  38
BRANCH   5  51
ATOM     51  C   UNL     1      35.355  30.811  -2.614  1.00  0.00     0.192 C 
BRANCH  51  52
ATOM     52  O   UNL     1      34.958  29.515  -2.971  1.00  0.00    -0.394 OA
ATOM     53  H   UNL     1      35.399  28.893  -2.331  1.00  0.00     0.210 HD
ENDBRANCH  51  52
ENDBRANCH   5  51
TORSDOF 20
ENDMDL
MODEL 7
REMARK VINA RESULT:    -7.556      1.258      7.938
REMARK INTER + INTRA:         -17.281
REMARK INTER:                 -14.800
REMARK INTRA:                  -2.481
REMARK UNBOUND:                -2.879
REMARK SMILES C[C@@H]1O[C@@H](O[C@@H]2[C@@H](O)[C@H](OCCc3ccc(O)c(O)c3)O[C@@H](CO)[C@H]2OC(=O)C=Cc2ccc(O)c(O)c2)[C@@H](O)[C@@H](O)[C@@H]1O
REMARK SMILES IDX 6 1 7 2 9 3 21 4 22 5 25 6 5 7 4 8 1 9 2 10 43 11 3 12 41 13
REMARK SMILES IDX 39 14 44 15 42 17 40 19 8 21 26 23 27 24 28 25 29 26 30 27
REMARK SMILES IDX 31 28 38 29 32 30 36 31 33 32 34 33 37 34 35 36 10 38 11 39
REMARK SMILES IDX 12 40 13 41 20 42 14 43 18 44 15 45 16 46 19 47 17 49 23 51
REMARK SMILES IDX 24 52
REMARK H PARENT 44 16 42 18 40 20 8 22 37 35 35 37 19 48 17 50 24 53
REMARK Flexibility Score: inf
ROOT
ATOM      1  C   UNL     1      35.037  33.563  -4.182  1.00  0.00     0.199 C 
ATOM      2  C   UNL     1      35.176  34.866  -4.993  1.00  0.00     0.203 C 
ATOM      3  C   UNL     1      33.877  35.193  -5.765  1.00  0.00     0.282 C 
ATOM      4  O   UNL     1      33.465  34.098  -6.576  1.00  0.00    -0.340 OA
ATOM      5  C   UNL     1      33.143  32.954  -5.806  1.00  0.00     0.190 C 
ATOM      6  C   UNL     1      34.382  32.434  -5.013  1.00  0.00     0.240 C 
ENDROOT
BRANCH   1   7
ATOM      7  O   UNL     1      34.226  33.858  -3.049  1.00  0.00    -0.340 OA
BRANCH   7   8
ATOM      8  C   UNL     1      33.595  32.708  -2.504  1.00  0.00     0.282 C 
ATOM      9  C   UNL     1      30.675  34.347  -0.962  1.00  0.00     0.041 C 
ATOM     10  C   UNL     1      32.147  33.989  -1.173  1.00  0.00     0.150 C 
ATOM     11  C   UNL     1      32.795  33.532   0.148  1.00  0.00     0.174 C 
ATOM     12  O   UNL     1      32.240  32.976  -2.162  1.00  0.00    -0.344 OA
ATOM     13  C   UNL     1      34.276  33.192  -0.101  1.00  0.00     0.179 C 
ATOM     14  C   UNL     1      34.393  32.210  -1.273  1.00  0.00     0.202 C 
BRANCH  11  15
ATOM     15  O   UNL     1      32.111  32.412   0.651  1.00  0.00    -0.388 OA
ATOM     16  H   UNL     1      32.263  31.669   0.006  1.00  0.00     0.211 HD
ENDBRANCH  11  15
BRANCH  13  17
ATOM     17  O   UNL     1      35.000  34.367  -0.375  1.00  0.00    -0.387 OA
ATOM     18  H   UNL     1      35.357  34.695   0.493  1.00  0.00     0.211 HD
ENDBRANCH  13  17
BRANCH  14  19
ATOM     19  O   UNL     1      35.750  32.045  -1.612  1.00  0.00    -0.385 OA
ATOM     20  H   UNL     1      35.962  32.741  -2.290  1.00  0.00     0.211 HD
ENDBRANCH  14  19
ENDBRANCH   7   8
ENDBRANCH   1   7
BRANCH   2  21
ATOM     21  O   UNL     1      36.252  34.792  -5.892  1.00  0.00    -0.385 OA
ATOM     22  H   UNL     1      36.339  35.690  -6.314  1.00  0.00     0.211 HD
ENDBRANCH   2  21
BRANCH   6  23
ATOM     23  O   UNL     1      35.344  31.703  -5.794  1.00  0.00    -0.453 OA
BRANCH  23  24
ATOM     24  C   UNL     1      36.357  30.846  -5.334  1.00  0.00     0.331 C 
ATOM     25  O   UNL     1      36.167  29.608  -5.218  1.00  0.00    -0.247 OA
BRANCH  24  26
ATOM     26  C   UNL     1      37.659  31.394  -4.928  1.00  0.00     0.094 C 
ATOM     27  C   UNL     1      38.697  30.606  -4.630  1.00  0.00     0.016 C 
BRANCH  27  28
ATOM     28  C   UNL     1      39.976  31.146  -4.126  1.00  0.00    -0.021 A 
ATOM     29  C   UNL     1      40.038  32.499  -3.748  1.00  0.00     0.058 A 
ATOM     30  C   UNL     1      41.146  30.367  -4.104  1.00  0.00     0.012 A 
ATOM     31  C   UNL     1      41.255  33.065  -3.358  1.00  0.00     0.157 A 
ATOM     32  C   UNL     1      42.366  30.945  -3.746  1.00  0.00     0.051 A 
ATOM     33  C   UNL     1      42.432  32.292  -3.376  1.00  0.00     0.157 A 
BRANCH  31  34
ATOM     34  O   UNL     1      41.286  34.409  -3.000  1.00  0.00    -0.504 OA
ATOM     35  H   UNL     1      40.566  35.060  -3.292  1.00  0.00     0.293 HD
ENDBRANCH  31  34
BRANCH  33  36
ATOM     36  O   UNL     1      43.655  32.875  -3.053  1.00  0.00    -0.504 OA
ATOM     37  H   UNL     1      43.746  33.589  -2.344  1.00  0.00     0.293 HD
ENDBRANCH  33  36
ENDBRANCH  27  28
ENDBRANCH  24  26
ENDBRANCH  23  24
ENDBRANCH   6  23
BRANCH   3  38
ATOM     38  O   UNL     1      32.836  35.572  -4.865  1.00  0.00    -0.350 OA
BRANCH  38  39
ATOM     39  C   UNL     1      32.711  36.982  -4.767  1.00  0.00     0.168 C 
BRANCH  39  40
ATOM     40  C   UNL     1      33.599  37.516  -3.639  1.00  0.00     0.064 C 
BRANCH  40  41
ATOM     41  C   UNL     1      32.791  37.797  -2.399  1.00  0.00    -0.042 A 
ATOM     42  C   UNL     1      31.570  38.475  -2.488  1.00  0.00     0.054 A 
ATOM     43  C   UNL     1      33.229  37.330  -1.146  1.00  0.00     0.008 A 
ATOM     44  C   UNL     1      30.794  38.704  -1.347  1.00  0.00     0.157 A 
ATOM     45  C   UNL     1      32.472  37.576   0.003  1.00  0.00     0.050 A 
ATOM     46  C   UNL     1      31.252  38.261  -0.093  1.00  0.00     0.157 A 
BRANCH  44  47
ATOM     47  O   UNL     1      29.565  39.354  -1.480  1.00  0.00    -0.504 OA
ATOM     48  H   UNL     1      29.201  39.950  -0.745  1.00  0.00     0.293 HD
ENDBRANCH  44  47
BRANCH  46  49
ATOM     49  O   UNL     1      30.498  38.500   1.055  1.00  0.00    -0.504 OA
ATOM     50  H   UNL     1      30.439  39.425   1.465  1.00  0.00     0.293 HD
ENDBRANCH  46  49
ENDBRANCH  40  41
ENDBRANCH  39  40
ENDBRANCH  38  39
ENDBRANCH   3  38
BRANCH   5  51
ATOM     51  C   UNL     1      32.546  31.884  -6.736  1.00  0.00     0.192 C 
BRANCH  51  52
ATOM     52  O   UNL     1      32.573  30.620  -6.132  1.00  0.00    -0.394 OA
ATOM     53  H   UNL     1      32.296  29.963  -6.827  1.00  0.00     0.210 HD
ENDBRANCH  51  52
ENDBRANCH   5  51
TORSDOF 20
ENDMDL
MODEL 8
REMARK VINA RESULT:    -7.345      2.591      6.770
REMARK INTER + INTRA:         -16.879
REMARK INTER:                 -13.619
REMARK INTRA:                  -3.261
REMARK UNBOUND:                -2.879
REMARK SMILES C[C@@H]1O[C@@H](O[C@@H]2[C@@H](O)[C@H](OCCc3ccc(O)c(O)c3)O[C@@H](CO)[C@H]2OC(=O)C=Cc2ccc(O)c(O)c2)[C@@H](O)[C@@H](O)[C@@H]1O
REMARK SMILES IDX 6 1 7 2 9 3 21 4 22 5 25 6 5 7 4 8 1 9 2 10 43 11 3 12 41 13
REMARK SMILES IDX 39 14 44 15 42 17 40 19 8 21 26 23 27 24 28 25 29 26 30 27
REMARK SMILES IDX 31 28 38 29 32 30 36 31 33 32 34 33 37 34 35 36 10 38 11 39
REMARK SMILES IDX 12 40 13 41 20 42 14 43 18 44 15 45 16 46 19 47 17 49 23 51
REMARK SMILES IDX 24 52
REMARK H PARENT 44 16 42 18 40 20 8 22 37 35 35 37 19 48 17 50 24 53
REMARK Flexibility Score: inf
ROOT
ATOM      1  C   UNL     1      33.813  33.518  -4.475  1.00  0.00     0.199 C 
ATOM      2  C   UNL     1      33.522  32.315  -3.556  1.00  0.00     0.203 C 
ATOM      3  C   UNL     1      34.662  32.097  -2.534  1.00  0.00     0.282 C 
ATOM      4  O   UNL     1      35.925  31.985  -3.180  1.00  0.00    -0.340 OA
ATOM      5  C   UNL     1      36.283  33.172  -3.863  1.00  0.00     0.190 C 
ATOM      6  C   UNL     1      35.268  33.503  -5.001  1.00  0.00     0.240 C 
ENDROOT
BRANCH   1   7
ATOM      7  O   UNL     1      33.592  34.696  -3.707  1.00  0.00    -0.340 OA
BRANCH   7   8
ATOM      8  C   UNL     1      32.232  35.109  -3.705  1.00  0.00     0.282 C 
ATOM      9  C   UNL     1      32.646  38.412  -5.288  1.00  0.00     0.041 C 
ATOM     10  C   UNL     1      32.784  37.332  -4.214  1.00  0.00     0.150 C 
ATOM     11  C   UNL     1      32.332  37.865  -2.840  1.00  0.00     0.174 C 
ATOM     12  O   UNL     1      32.022  36.198  -4.595  1.00  0.00    -0.344 OA
ATOM     13  C   UNL     1      32.497  36.756  -1.785  1.00  0.00     0.179 C 
ATOM     14  C   UNL     1      31.801  35.476  -2.263  1.00  0.00     0.202 C 
BRANCH  11  15
ATOM     15  O   UNL     1      30.992  38.282  -2.910  1.00  0.00    -0.388 OA
ATOM     16  H   UNL     1      30.562  37.751  -3.635  1.00  0.00     0.211 HD
ENDBRANCH  11  15
BRANCH  13  17
ATOM     17  O   UNL     1      33.863  36.512  -1.553  1.00  0.00    -0.387 OA
ATOM     18  H   UNL     1      34.043  35.578  -1.843  1.00  0.00     0.211 HD
ENDBRANCH  13  17
BRANCH  14  19
ATOM     19  O   UNL     1      32.108  34.420  -1.383  1.00  0.00    -0.385 OA
ATOM     20  H   UNL     1      31.462  34.479  -0.628  1.00  0.00     0.211 HD
ENDBRANCH  14  19
ENDBRANCH   7   8
ENDBRANCH   1   7
BRANCH   2  21
ATOM     21  O   UNL     1      33.327  31.141  -4.302  1.00  0.00    -0.385 OA
ATOM     22  H   UNL     1      32.675  30.583  -3.798  1.00  0.00     0.211 HD
ENDBRANCH   2  21
BRANCH   6  23
ATOM     23  O   UNL     1      35.409  32.711  -6.194  1.00  0.00    -0.453 OA
BRANCH  23  24
ATOM     24  C   UNL     1      35.372  33.147  -7.529  1.00  0.00     0.331 C 
ATOM     25  O   UNL     1      36.018  32.555  -8.431  1.00  0.00    -0.247 OA
BRANCH  24  26
ATOM     26  C   UNL     1      34.606  34.348  -7.892  1.00  0.00     0.094 C 
ATOM     27  C   UNL     1      35.191  35.429  -8.417  1.00  0.00     0.016 C 
BRANCH  27  28
ATOM     28  C   UNL     1      34.444  36.673  -8.691  1.00  0.00    -0.021 A 
ATOM     29  C   UNL     1      35.149  37.888  -8.747  1.00  0.00     0.058 A 
ATOM     30  C   UNL     1      33.043  36.680  -8.804  1.00  0.00     0.012 A 
ATOM     31  C   UNL     1      34.461  39.093  -8.908  1.00  0.00     0.157 A 
ATOM     32  C   UNL     1      32.356  37.889  -8.932  1.00  0.00     0.051 A 
ATOM     33  C   UNL     1      33.055  39.101  -8.980  1.00  0.00     0.157 A 
BRANCH  31  34
ATOM     34  O   UNL     1      35.186  40.281  -8.949  1.00  0.00    -0.504 OA
ATOM     35  H   UNL     1      34.900  41.065  -9.524  1.00  0.00     0.293 HD
ENDBRANCH  31  34
BRANCH  33  36
ATOM     36  O   UNL     1      32.366  40.308  -9.073  1.00  0.00    -0.504 OA
ATOM     37  H   UNL     1      32.831  41.185  -9.256  1.00  0.00     0.293 HD
ENDBRANCH  33  36
ENDBRANCH  27  28
ENDBRANCH  24  26
ENDBRANCH  23  24
ENDBRANCH   6  23
BRANCH   3  38
ATOM     38  O   UNL     1      34.683  33.146  -1.568  1.00  0.00    -0.350 OA
BRANCH  38  39
ATOM     39  C   UNL     1      35.300  32.736  -0.357  1.00  0.00     0.168 C 
BRANCH  39  40
ATOM     40  C   UNL     1      34.682  31.426   0.137  1.00  0.00     0.064 C 
BRANCH  40  41
ATOM     41  C   UNL     1      33.782  31.662   1.322  1.00  0.00    -0.042 A 
ATOM     42  C   UNL     1      32.404  31.828   1.142  1.00  0.00     0.054 A 
ATOM     43  C   UNL     1      34.310  31.660   2.626  1.00  0.00     0.008 A 
ATOM     44  C   UNL     1      31.556  32.008   2.240  1.00  0.00     0.157 A 
ATOM     45  C   UNL     1      33.473  31.863   3.727  1.00  0.00     0.050 A 
ATOM     46  C   UNL     1      32.094  32.035   3.538  1.00  0.00     0.157 A 
BRANCH  44  47
ATOM     47  O   UNL     1      30.182  32.136   2.023  1.00  0.00    -0.504 OA
ATOM     48  H   UNL     1      29.810  32.842   1.400  1.00  0.00     0.293 HD
ENDBRANCH  44  47
BRANCH  46  49
ATOM     49  O   UNL     1      31.263  32.233   4.641  1.00  0.00    -0.504 OA
ATOM     50  H   UNL     1      30.622  31.513   4.954  1.00  0.00     0.293 HD
ENDBRANCH  46  49
ENDBRANCH  40  41
ENDBRANCH  39  40
ENDBRANCH  38  39
ENDBRANCH   3  38
BRANCH   5  51
ATOM     51  C   UNL     1      37.725  33.029  -4.381  1.00  0.00     0.192 C 
BRANCH  51  52
ATOM     52  O   UNL     1      38.033  34.043  -5.298  1.00  0.00    -0.394 OA
ATOM     53  H   UNL     1      39.021  34.034  -5.415  1.00  0.00     0.210 HD
ENDBRANCH  51  52
ENDBRANCH   5  51
TORSDOF 20
ENDMDL
MODEL 9
REMARK VINA RESULT:    -7.284      4.134      7.445
REMARK INTER + INTRA:         -16.764
REMARK INTER:                 -13.128
REMARK INTRA:                  -3.636
REMARK UNBOUND:                -2.879
REMARK SMILES C[C@@H]1O[C@@H](O[C@@H]2[C@@H](O)[C@H](OCCc3ccc(O)c(O)c3)O[C@@H](CO)[C@H]2OC(=O)C=Cc2ccc(O)c(O)c2)[C@@H](O)[C@@H](O)[C@@H]1O
REMARK SMILES IDX 6 1 7 2 9 3 21 4 22 5 25 6 5 7 4 8 1 9 2 10 43 11 3 12 41 13
REMARK SMILES IDX 39 14 44 15 42 17 40 19 8 21 26 23 27 24 28 25 29 26 30 27
REMARK SMILES IDX 31 28 38 29 32 30 36 31 33 32 34 33 37 34 35 36 10 38 11 39
REMARK SMILES IDX 12 40 13 41 20 42 14 43 18 44 15 45 16 46 19 47 17 49 23 51
REMARK SMILES IDX 24 52
REMARK H PARENT 44 16 42 18 40 20 8 22 37 35 35 37 19 48 17 50 24 53
REMARK Flexibility Score: inf
ROOT
ATOM      1  C   UNL     1      31.047  36.092  -3.149  1.00  0.00     0.199 C 
ATOM      2  C   UNL     1      30.178  37.357  -3.288  1.00  0.00     0.203 C 
ATOM      3  C   UNL     1      30.587  38.190  -4.524  1.00  0.00     0.282 C 
ATOM      4  O   UNL     1      31.977  38.494  -4.510  1.00  0.00    -0.340 OA
ATOM      5  C   UNL     1      32.780  37.330  -4.585  1.00  0.00     0.190 C 
ATOM      6  C   UNL     1      32.549  36.399  -3.353  1.00  0.00     0.240 C 
ENDROOT
BRANCH   1   7
ATOM      7  O   UNL     1      30.606  35.170  -4.139  1.00  0.00    -0.340 OA
BRANCH   7   8
ATOM      8  C   UNL     1      30.117  33.955  -3.587  1.00  0.00     0.282 C 
ATOM      9  C   UNL     1      33.279  32.063  -3.501  1.00  0.00     0.041 C 
ATOM     10  C   UNL     1      32.081  32.785  -4.118  1.00  0.00     0.150 C 
ATOM     11  C   UNL     1      31.387  31.897  -5.169  1.00  0.00     0.174 C 
ATOM     12  O   UNL     1      31.178  33.151  -3.086  1.00  0.00    -0.344 OA
ATOM     13  C   UNL     1      30.196  32.661  -5.775  1.00  0.00     0.179 C 
ATOM     14  C   UNL     1      29.294  33.191  -4.654  1.00  0.00     0.202 C 
BRANCH  11  15
ATOM     15  O   UNL     1      30.952  30.703  -4.570  1.00  0.00    -0.388 OA
ATOM     16  H   UNL     1      30.754  30.914  -3.617  1.00  0.00     0.211 HD
ENDBRANCH  11  15
BRANCH  13  17
ATOM     17  O   UNL     1      30.661  33.724  -6.572  1.00  0.00    -0.387 OA
ATOM     18  H   UNL     1      30.573  34.552  -6.029  1.00  0.00     0.211 HD
ENDBRANCH  13  17
BRANCH  14  19
ATOM     19  O   UNL     1      28.312  34.037  -5.204  1.00  0.00    -0.385 OA
ATOM     20  H   UNL     1      27.454  33.534  -5.182  1.00  0.00     0.211 HD
ENDBRANCH  14  19
ENDBRANCH   7   8
ENDBRANCH   1   7
BRANCH   2  21
ATOM     21  O   UNL     1      30.256  38.156  -2.135  1.00  0.00    -0.385 OA
ATOM     22  H   UNL     1      30.023  39.084  -2.410  1.00  0.00     0.211 HD
ENDBRANCH   2  21
BRANCH   6  23
ATOM     23  O   UNL     1      33.190  36.827  -2.138  1.00  0.00    -0.453 OA
BRANCH  23  24
ATOM     24  C   UNL     1      32.916  36.409  -0.825  1.00  0.00     0.331 C 
ATOM     25  O   UNL     1      32.284  37.143  -0.022  1.00  0.00    -0.247 OA
BRANCH  24  26
ATOM     26  C   UNL     1      33.412  35.112  -0.344  1.00  0.00     0.094 C 
ATOM     27  C   UNL     1      32.587  34.097  -0.067  1.00  0.00     0.016 C 
BRANCH  27  28
ATOM     28  C   UNL     1      33.070  32.827   0.511  1.00  0.00    -0.021 A 
ATOM     29  C   UNL     1      32.371  32.266   1.595  1.00  0.00     0.058 A 
ATOM     30  C   UNL     1      34.256  32.219   0.064  1.00  0.00     0.012 A 
ATOM     31  C   UNL     1      32.856  31.118   2.225  1.00  0.00     0.157 A 
ATOM     32  C   UNL     1      34.754  31.090   0.717  1.00  0.00     0.051 A 
ATOM     33  C   UNL     1      34.065  30.535   1.801  1.00  0.00     0.157 A 
BRANCH  31  34
ATOM     34  O   UNL     1      32.148  30.594   3.303  1.00  0.00    -0.504 OA
ATOM     35  H   UNL     1      32.591  30.397   4.193  1.00  0.00     0.293 HD
ENDBRANCH  31  34
BRANCH  33  36
ATOM     36  O   UNL     1      34.582  29.430   2.473  1.00  0.00    -0.504 OA
ATOM     37  H   UNL     1      34.956  29.490   3.409  1.00  0.00     0.293 HD
ENDBRANCH  33  36
ENDBRANCH  27  28
ENDBRANCH  24  26
ENDBRANCH  23  24
ENDBRANCH   6  23
BRANCH   3  38
ATOM     38  O   UNL     1      30.233  37.514  -5.730  1.00  0.00    -0.350 OA
BRANCH  38  39
ATOM     39  C   UNL     1      30.077  38.416  -6.815  1.00  0.00     0.168 C 
BRANCH  39  40
ATOM     40  C   UNL     1      30.461  37.735  -8.131  1.00  0.00     0.064 C 
BRANCH  40  41
ATOM     41  C   UNL     1      31.954  37.579  -8.247  1.00  0.00    -0.042 A 
ATOM     42  C   UNL     1      32.778  38.705  -8.354  1.00  0.00     0.054 A 
ATOM     43  C   UNL     1      32.540  36.301  -8.190  1.00  0.00     0.008 A 
ATOM     44  C   UNL     1      34.169  38.570  -8.421  1.00  0.00     0.157 A 
ATOM     45  C   UNL     1      33.927  36.155  -8.281  1.00  0.00     0.050 A 
ATOM     46  C   UNL     1      34.746  37.288  -8.394  1.00  0.00     0.157 A 
BRANCH  44  47
ATOM     47  O   UNL     1      34.960  39.718  -8.492  1.00  0.00    -0.504 OA
ATOM     48  H   UNL     1      35.927  39.713  -8.187  1.00  0.00     0.293 HD
ENDBRANCH  44  47
BRANCH  46  49
ATOM     49  O   UNL     1      36.130  37.138  -8.479  1.00  0.00    -0.504 OA
ATOM     50  H   UNL     1      36.717  37.183  -7.655  1.00  0.00     0.293 HD
ENDBRANCH  46  49
ENDBRANCH  40  41
ENDBRANCH  39  40
ENDBRANCH  38  39
ENDBRANCH   3  38
BRANCH   5  51
ATOM     51  C   UNL     1      34.251  37.752  -4.740  1.00  0.00     0.192 C 
BRANCH  51  52
ATOM     52  O   UNL     1      34.550  38.849  -3.920  1.00  0.00    -0.394 OA
ATOM     53  H   UNL     1      34.833  38.481  -3.040  1.00  0.00     0.210 HD
ENDBRANCH  51  52
ENDBRANCH   5  51
TORSDOF 20
ENDMDL
