MODEL 1
REMARK VINA RESULT:    -4.539      0.000      0.000
REMARK INTER + INTRA:          -7.037
REMARK INTER:                  -6.928
REMARK INTRA:                  -0.109
REMARK UNBOUND:                -0.109
REMARK SMILES CC1=CCC[C@@H](C)C(=O)C[C@H](C(C)C)C(=O)C1
REMARK SMILES IDX 8 1 9 2 6 3 7 4 5 5 4 6 3 7 2 8 1 9 10 11 11 12 15 13 16 14
REMARK SMILES IDX 17 15 12 17 13 18 14 19
REMARK H PARENT
REMARK Flexibility Score: 70.00
ROOT
ATOM      1  C   UNL     1      28.129 -13.561  31.743  1.00  0.00     0.136 C 
ATOM      2  O   UNL     1      28.841 -14.367  32.325  1.00  0.00    -0.299 OA
ENDROOT
BRANCH   1   3
ATOM      3  C   UNL     1      26.641 -13.828  31.592  1.00  0.00     0.053 C 
ATOM      4  C   UNL     1      26.013 -14.370  32.885  1.00  0.00     0.016 C 
BRANCH   3   5
ATOM      5  C   UNL     1      26.351 -14.745  30.388  1.00  0.00     0.015 C 
BRANCH   5   6
ATOM      6  C   UNL     1      25.598 -14.047  29.235  1.00  0.00     0.028 C 
BRANCH   6   7
ATOM      7  C   UNL     1      26.409 -14.066  27.965  1.00  0.00    -0.028 C 
ATOM      8  C   UNL     1      27.176 -13.040  27.523  1.00  0.00    -0.070 CG0
ATOM      9  C   UNL     1      27.893 -13.207  26.208  1.00  0.00     0.039 C 
ATOM     10  G   UNL     1      27.352 -11.741  28.295  1.00  0.00     0.000 G0
ENDBRANCH   6   7
ENDBRANCH   5   6
ENDBRANCH   3   5
ENDBRANCH   1   3
BRANCH   1  11
ATOM     11  C   UNL     1      28.753 -12.307  31.179  1.00  0.00     0.087 C 
BRANCH  11  12
ATOM     12  C   UNL     1      29.385 -12.546  29.782  1.00  0.00     0.066 C 
BRANCH  12  13
ATOM     13  C   UNL     1      28.788 -11.569  28.783  1.00  0.00     0.140 C 
ATOM     14  O   UNL     1      29.492 -10.690  28.304  1.00  0.00    -0.299 OA
BRANCH  13  15
ATOM     15  C   UNL     1      27.370 -11.738  28.296  1.00  0.00     0.106 CG0
ATOM     16  G   UNL     1      27.171 -13.027  27.512  1.00  0.00     0.000 G0
ENDBRANCH  13  15
ENDBRANCH  12  13
BRANCH  12  17
ATOM     17  C   UNL     1      30.944 -12.429  29.798  1.00  0.00    -0.006 C 
ATOM     18  C   UNL     1      31.594 -13.535  28.945  1.00  0.00     0.008 C 
ATOM     19  C   UNL     1      31.524 -12.501  31.224  1.00  0.00     0.008 C 
ENDBRANCH  12  17
ENDBRANCH  11  12
ENDBRANCH   1  11
TORSDOF 1
ENDMDL
MODEL 2
REMARK VINA RESULT:    -4.442      1.868      3.440
REMARK INTER + INTRA:          -6.888
REMARK INTER:                  -7.195
REMARK INTRA:                   0.307
REMARK UNBOUND:                -0.109
REMARK SMILES CC1=CCC[C@@H](C)C(=O)C[C@H](C(C)C)C(=O)C1
REMARK SMILES IDX 8 1 9 2 6 3 7 4 5 5 4 6 3 7 2 8 1 9 10 11 11 12 15 13 16 14
REMARK SMILES IDX 17 15 12 17 13 18 14 19
REMARK H PARENT
REMARK Flexibility Score: 70.00
ROOT
ATOM      1  C   UNL     1      26.501 -13.463  29.302  1.00  0.00     0.136 C 
ATOM      2  O   UNL     1      26.636 -14.265  30.215  1.00  0.00    -0.299 OA
ENDROOT
BRANCH   1   3
ATOM      3  C   UNL     1      25.750 -13.862  28.043  1.00  0.00     0.053 C 
ATOM      4  C   UNL     1      24.602 -14.840  28.334  1.00  0.00     0.016 C 
BRANCH   3   5
ATOM      5  C   UNL     1      26.707 -14.408  26.964  1.00  0.00     0.015 C 
BRANCH   5   6
ATOM      6  C   UNL     1      27.864 -13.450  26.609  1.00  0.00     0.028 C 
BRANCH   6   7
ATOM      7  C   UNL     1      29.172 -13.944  27.173  1.00  0.00    -0.028 C 
ATOM      8  C   UNL     1      30.020 -13.200  27.923  1.00  0.00    -0.070 CG0
ATOM      9  C   UNL     1      31.309 -13.836  28.375  1.00  0.00     0.039 C 
ATOM     10  G   UNL     1      29.725 -11.765  28.335  1.00  0.00     0.000 G0
ENDBRANCH   6   7
ENDBRANCH   5   6
ENDBRANCH   3   5
ENDBRANCH   1   3
BRANCH   1  11
ATOM     11  C   UNL     1      27.091 -12.081  29.449  1.00  0.00     0.087 C 
BRANCH  11  12
ATOM     12  C   UNL     1      28.245 -12.046  30.485  1.00  0.00     0.066 C 
BRANCH  12  13
ATOM     13  C   UNL     1      29.521 -11.580  29.804  1.00  0.00     0.140 C 
ATOM     14  O   UNL     1      30.436 -11.128  30.481  1.00  0.00    -0.299 OA
BRANCH  13  15
ATOM     15  C   UNL     1      29.714 -11.767  28.320  1.00  0.00     0.106 CG0
ATOM     16  G   UNL     1      30.025 -13.209  27.949  1.00  0.00     0.000 G0
ENDBRANCH  13  15
ENDBRANCH  12  13
BRANCH  12  17
ATOM     17  C   UNL     1      27.920 -11.141  31.718  1.00  0.00    -0.006 C 
ATOM     18  C   UNL     1      27.119 -11.917  32.782  1.00  0.00     0.008 C 
ATOM     19  C   UNL     1      27.126  -9.879  31.328  1.00  0.00     0.008 C 
ENDBRANCH  12  17
ENDBRANCH  11  12
ENDBRANCH   1  11
TORSDOF 1
ENDMDL
MODEL 3
REMARK VINA RESULT:    -4.433      2.124      5.043
REMARK INTER + INTRA:          -6.875
REMARK INTER:                  -6.644
REMARK INTRA:                  -0.232
REMARK UNBOUND:                -0.109
REMARK SMILES CC1=CCC[C@@H](C)C(=O)C[C@H](C(C)C)C(=O)C1
REMARK SMILES IDX 8 1 9 2 6 3 7 4 5 5 4 6 3 7 2 8 1 9 10 11 11 12 15 13 16 14
REMARK SMILES IDX 17 15 12 17 13 18 14 19
REMARK H PARENT
REMARK Flexibility Score: 70.00
ROOT
ATOM      1  C   UNL     1      27.645 -13.213  27.522  1.00  0.00     0.136 C 
ATOM      2  O   UNL     1      27.332 -14.069  26.705  1.00  0.00    -0.299 OA
ENDROOT
BRANCH   1   3
ATOM      3  C   UNL     1      28.957 -12.463  27.375  1.00  0.00     0.053 C 
ATOM      4  C   UNL     1      28.979 -11.565  26.129  1.00  0.00     0.016 C 
BRANCH   3   5
ATOM      5  C   UNL     1      30.163 -13.423  27.410  1.00  0.00     0.015 C 
BRANCH   5   6
ATOM      6  C   UNL     1      30.744 -13.649  28.822  1.00  0.00     0.028 C 
BRANCH   6   7
ATOM      7  C   UNL     1      30.934 -12.343  29.549  1.00  0.00    -0.028 C 
ATOM      8  C   UNL     1      30.265 -11.978  30.670  1.00  0.00    -0.070 CG0
ATOM      9  C   UNL     1      30.546 -10.616  31.250  1.00  0.00     0.039 C 
ATOM     10  G   UNL     1      29.260 -12.881  31.368  1.00  0.00     0.000 G0
ENDBRANCH   6   7
ENDBRANCH   5   6
ENDBRANCH   3   5
ENDBRANCH   1   3
BRANCH   1  11
ATOM     11  C   UNL     1      26.708 -12.922  28.669  1.00  0.00     0.087 C 
BRANCH  11  12
ATOM     12  C   UNL     1      27.145 -13.636  29.976  1.00  0.00     0.066 C 
BRANCH  12  13
ATOM     13  C   UNL     1      27.835 -12.638  30.891  1.00  0.00     0.140 C 
ATOM     14  O   UNL     1      27.212 -11.671  31.309  1.00  0.00    -0.299 OA
BRANCH  13  15
ATOM     15  C   UNL     1      29.243 -12.885  31.374  1.00  0.00     0.106 CG0
ATOM     16  G   UNL     1      30.263 -11.995  30.679  1.00  0.00     0.000 G0
ENDBRANCH  13  15
ENDBRANCH  12  13
BRANCH  12  17
ATOM     17  C   UNL     1      25.950 -14.322  30.716  1.00  0.00    -0.006 C 
ATOM     18  C   UNL     1      26.449 -15.210  31.873  1.00  0.00     0.008 C 
ATOM     19  C   UNL     1      25.091 -15.183  29.770  1.00  0.00     0.008 C 
ENDBRANCH  12  17
ENDBRANCH  11  12
ENDBRANCH   1  11
TORSDOF 1
ENDMDL
MODEL 4
REMARK VINA RESULT:    -4.389      1.836      4.587
REMARK INTER + INTRA:          -6.807
REMARK INTER:                  -7.818
REMARK INTRA:                   1.011
REMARK UNBOUND:                -0.109
REMARK SMILES CC1=CCC[C@@H](C)C(=O)C[C@H](C(C)C)C(=O)C1
REMARK SMILES IDX 8 1 9 2 6 3 7 4 5 5 4 6 3 7 2 8 1 9 10 11 11 12 15 13 16 14
REMARK SMILES IDX 17 15 12 17 13 18 14 19
REMARK H PARENT
REMARK Flexibility Score: 70.00
ROOT
ATOM      1  C   UNL     1      30.377 -11.800  28.857  1.00  0.00     0.136 C 
ATOM      2  O   UNL     1      30.490 -10.719  29.418  1.00  0.00    -0.299 OA
ENDROOT
BRANCH   1   3
ATOM      3  C   UNL     1      31.387 -12.904  29.118  1.00  0.00     0.053 C 
ATOM      4  C   UNL     1      31.093 -14.168  28.295  1.00  0.00     0.016 C 
BRANCH   3   5
ATOM      5  C   UNL     1      31.506 -13.216  30.622  1.00  0.00     0.015 C 
BRANCH   5   6
ATOM      6  C   UNL     1      30.418 -12.548  31.490  1.00  0.00     0.028 C 
BRANCH   6   7
ATOM      7  C   UNL     1      29.224 -13.453  31.657  1.00  0.00    -0.028 C 
ATOM      8  C   UNL     1      27.936 -13.070  31.484  1.00  0.00    -0.070 CG0
ATOM      9  C   UNL     1      26.855 -14.092  31.731  1.00  0.00     0.039 C 
ATOM     10  G   UNL     1      27.536 -11.670  31.044  1.00  0.00     0.000 G0
ENDBRANCH   6   7
ENDBRANCH   5   6
ENDBRANCH   3   5
ENDBRANCH   1   3
BRANCH   1  11
ATOM     11  C   UNL     1      29.224 -12.012  27.905  1.00  0.00     0.087 C 
BRANCH  11  12
ATOM     12  C   UNL     1      27.970 -12.578  28.623  1.00  0.00     0.066 C 
BRANCH  12  13
ATOM     13  C   UNL     1      27.398 -11.520  29.552  1.00  0.00     0.140 C 
ATOM     14  O   UNL     1      26.763 -10.584  29.083  1.00  0.00    -0.299 OA
BRANCH  13  15
ATOM     15  C   UNL     1      27.514 -11.667  31.049  1.00  0.00     0.106 CG0
ATOM     16  G   UNL     1      27.919 -13.072  31.468  1.00  0.00     0.000 G0
ENDBRANCH  13  15
ENDBRANCH  12  13
BRANCH  12  17
ATOM     17  C   UNL     1      26.877 -13.077  27.623  1.00  0.00    -0.006 C 
ATOM     18  C   UNL     1      25.917 -14.075  28.300  1.00  0.00     0.008 C 
ATOM     19  C   UNL     1      27.485 -13.748  26.376  1.00  0.00     0.008 C 
ENDBRANCH  12  17
ENDBRANCH  11  12
ENDBRANCH   1  11
TORSDOF 1
ENDMDL
MODEL 5
REMARK VINA RESULT:    -4.120      1.551      3.772
REMARK INTER + INTRA:          -6.397
REMARK INTER:                  -7.197
REMARK INTRA:                   0.800
REMARK UNBOUND:                -0.109
REMARK SMILES CC1=CCC[C@@H](C)C(=O)C[C@H](C(C)C)C(=O)C1
REMARK SMILES IDX 8 1 9 2 6 3 7 4 5 5 4 6 3 7 2 8 1 9 10 11 11 12 15 13 16 14
REMARK SMILES IDX 17 15 12 17 13 18 14 19
REMARK H PARENT
REMARK Flexibility Score: 70.00
ROOT
ATOM      1  C   UNL     1      30.976 -13.172  29.209  1.00  0.00     0.136 C 
ATOM      2  O   UNL     1      31.617 -14.204  29.069  1.00  0.00    -0.299 OA
ENDROOT
BRANCH   1   3
ATOM      3  C   UNL     1      30.763 -12.590  30.596  1.00  0.00     0.053 C 
ATOM      4  C   UNL     1      32.077 -12.459  31.381  1.00  0.00     0.016 C 
BRANCH   3   5
ATOM      5  C   UNL     1      29.702 -13.382  31.384  1.00  0.00     0.015 C 
BRANCH   5   6
ATOM      6  C   UNL     1      28.285 -12.774  31.314  1.00  0.00     0.028 C 
BRANCH   6   7
ATOM      7  C   UNL     1      27.301 -13.753  30.726  1.00  0.00    -0.028 C 
ATOM      8  C   UNL     1      26.543 -13.520  29.627  1.00  0.00    -0.070 CG0
ATOM      9  C   UNL     1      25.577 -14.592  29.193  1.00  0.00     0.039 C 
ATOM     10  G   UNL     1      26.632 -12.238  28.812  1.00  0.00     0.000 G0
ENDBRANCH   6   7
ENDBRANCH   5   6
ENDBRANCH   3   5
ENDBRANCH   1   3
BRANCH   1  11
ATOM     11  C   UNL     1      30.404 -12.495  27.987  1.00  0.00     0.087 C 
BRANCH  11  12
ATOM     12  C   UNL     1      28.924 -12.889  27.739  1.00  0.00     0.066 C 
BRANCH  12  13
ATOM     13  C   UNL     1      28.012 -11.859  28.385  1.00  0.00     0.140 C 
ATOM     14  O   UNL     1      28.392 -10.700  28.495  1.00  0.00    -0.299 OA
BRANCH  13  15
ATOM     15  C   UNL     1      26.606 -12.225  28.794  1.00  0.00     0.106 CG0
ATOM     16  G   UNL     1      26.551 -13.505  29.614  1.00  0.00     0.000 G0
ENDBRANCH  13  15
ENDBRANCH  12  13
BRANCH  12  17
ATOM     17  C   UNL     1      28.587 -13.043  26.220  1.00  0.00    -0.006 C 
ATOM     18  C   UNL     1      28.262 -11.679  25.581  1.00  0.00     0.008 C 
ATOM     19  C   UNL     1      27.402 -13.997  25.976  1.00  0.00     0.008 C 
ENDBRANCH  12  17
ENDBRANCH  11  12
ENDBRANCH   1  11
TORSDOF 1
ENDMDL
MODEL 6
REMARK VINA RESULT:    -4.061      1.546      3.989
REMARK INTER + INTRA:          -6.308
REMARK INTER:                  -6.347
REMARK INTRA:                   0.039
REMARK UNBOUND:                -0.109
REMARK SMILES CC1=CCC[C@@H](C)C(=O)C[C@H](C(C)C)C(=O)C1
REMARK SMILES IDX 8 1 9 2 6 3 7 4 5 5 4 6 3 7 2 8 1 9 10 11 11 12 15 13 16 14
REMARK SMILES IDX 17 15 12 17 13 18 14 19
REMARK H PARENT
REMARK Flexibility Score: 70.00
ROOT
ATOM      1  C   UNL     1      29.968 -12.930  31.217  1.00  0.00     0.136 C 
ATOM      2  O   UNL     1      29.754 -11.832  31.713  1.00  0.00    -0.299 OA
ENDROOT
BRANCH   1   3
ATOM      3  C   UNL     1      31.310 -13.224  30.569  1.00  0.00     0.053 C 
ATOM      4  C   UNL     1      32.365 -12.158  30.903  1.00  0.00     0.016 C 
BRANCH   3   5
ATOM      5  C   UNL     1      31.170 -13.434  29.049  1.00  0.00     0.015 C 
BRANCH   5   6
ATOM      6  C   UNL     1      30.215 -12.433  28.364  1.00  0.00     0.028 C 
BRANCH   6   7
ATOM      7  C   UNL     1      29.294 -13.134  27.397  1.00  0.00    -0.028 C 
ATOM      8  C   UNL     1      27.951 -13.231  27.542  1.00  0.00    -0.070 CG0
ATOM      9  C   UNL     1      27.180 -14.002  26.502  1.00  0.00     0.039 C 
ATOM     10  G   UNL     1      27.191 -12.592  28.694  1.00  0.00     0.000 G0
ENDBRANCH   6   7
ENDBRANCH   5   6
ENDBRANCH   3   5
ENDBRANCH   1   3
BRANCH   1  11
ATOM     11  C   UNL     1      28.881 -13.976  31.259  1.00  0.00     0.087 C 
BRANCH  11  12
ATOM     12  C   UNL     1      27.463 -13.347  31.204  1.00  0.00     0.066 C 
BRANCH  12  13
ATOM     13  C   UNL     1      26.876 -13.543  29.816  1.00  0.00     0.140 C 
ATOM     14  O   UNL     1      26.073 -14.447  29.623  1.00  0.00    -0.299 OA
BRANCH  13  15
ATOM     15  C   UNL     1      27.189 -12.573  28.705  1.00  0.00     0.106 CG0
ATOM     16  G   UNL     1      27.950 -13.222  27.559  1.00  0.00     0.000 G0
ENDBRANCH  13  15
ENDBRANCH  12  13
BRANCH  12  17
ATOM     17  C   UNL     1      26.503 -13.930  32.293  1.00  0.00    -0.006 C 
ATOM     18  C   UNL     1      26.521 -13.068  33.570  1.00  0.00     0.008 C 
ATOM     19  C   UNL     1      26.858 -15.380  32.672  1.00  0.00     0.008 C 
ENDBRANCH  12  17
ENDBRANCH  11  12
ENDBRANCH   1  11
TORSDOF 1
ENDMDL
MODEL 7
REMARK VINA RESULT:    -4.029      1.989      4.881
REMARK INTER + INTRA:          -6.258
REMARK INTER:                  -7.501
REMARK INTRA:                   1.243
REMARK UNBOUND:                -0.109
REMARK SMILES CC1=CCC[C@@H](C)C(=O)C[C@H](C(C)C)C(=O)C1
REMARK SMILES IDX 8 1 9 2 6 3 7 4 5 5 4 6 3 7 2 8 1 9 10 11 11 12 15 13 16 14
REMARK SMILES IDX 17 15 12 17 13 18 14 19
REMARK H PARENT
REMARK Flexibility Score: 70.00
ROOT
ATOM      1  C   UNL     1      27.587 -13.361  27.100  1.00  0.00     0.136 C 
ATOM      2  O   UNL     1      27.083 -14.176  26.339  1.00  0.00    -0.299 OA
ENDROOT
BRANCH   1   3
ATOM      3  C   UNL     1      28.996 -12.854  26.848  1.00  0.00     0.053 C 
ATOM      4  C   UNL     1      29.985 -13.321  27.927  1.00  0.00     0.016 C 
BRANCH   3   5
ATOM      5  C   UNL     1      29.023 -11.323  26.672  1.00  0.00     0.015 C 
BRANCH   5   6
ATOM      6  C   UNL     1      28.164 -10.559  27.702  1.00  0.00     0.028 C 
BRANCH   6   7
ATOM      7  C   UNL     1      28.990 -10.130  28.888  1.00  0.00    -0.028 C 
ATOM      8  C   UNL     1      28.706 -10.436  30.177  1.00  0.00    -0.070 CG0
ATOM      9  C   UNL     1      29.615  -9.893  31.250  1.00  0.00     0.039 C 
ATOM     10  G   UNL     1      27.527 -11.306  30.585  1.00  0.00     0.000 G0
ENDBRANCH   6   7
ENDBRANCH   5   6
ENDBRANCH   3   5
ENDBRANCH   1   3
BRANCH   1  11
ATOM     11  C   UNL     1      26.788 -12.875  28.285  1.00  0.00     0.087 C 
BRANCH  11  12
ATOM     12  C   UNL     1      27.102 -13.683  29.572  1.00  0.00     0.066 C 
BRANCH  12  13
ATOM     13  C   UNL     1      27.792 -12.779  30.580  1.00  0.00     0.140 C 
ATOM     14  O   UNL     1      28.647 -13.245  31.322  1.00  0.00    -0.299 OA
BRANCH  13  15
ATOM     15  C   UNL     1      27.512 -11.297  30.602  1.00  0.00     0.106 CG0
ATOM     16  G   UNL     1      28.709 -10.469  30.159  1.00  0.00     0.000 G0
ENDBRANCH  13  15
ENDBRANCH  12  13
BRANCH  12  17
ATOM     17  C   UNL     1      25.826 -14.333  30.202  1.00  0.00    -0.006 C 
ATOM     18  C   UNL     1      26.161 -15.042  31.529  1.00  0.00     0.008 C 
ATOM     19  C   UNL     1      25.158 -15.349  29.255  1.00  0.00     0.008 C 
ENDBRANCH  12  17
ENDBRANCH  11  12
ENDBRANCH   1  11
TORSDOF 1
ENDMDL
MODEL 8
REMARK VINA RESULT:    -3.792      2.004      3.940
REMARK INTER + INTRA:          -5.896
REMARK INTER:                  -6.635
REMARK INTRA:                   0.739
REMARK UNBOUND:                -0.109
REMARK SMILES CC1=CCC[C@@H](C)C(=O)C[C@H](C(C)C)C(=O)C1
REMARK SMILES IDX 8 1 9 2 6 3 7 4 5 5 4 6 3 7 2 8 1 9 10 11 11 12 15 13 16 14
REMARK SMILES IDX 17 15 12 17 13 18 14 19
REMARK H PARENT
REMARK Flexibility Score: 70.00
ROOT
ATOM      1  C   UNL     1      26.757 -13.942  29.955  1.00  0.00     0.136 C 
ATOM      2  O   UNL     1      25.631 -14.376  30.156  1.00  0.00    -0.299 OA
ENDROOT
BRANCH   1   3
ATOM      3  C   UNL     1      27.585 -13.405  31.110  1.00  0.00     0.053 C 
ATOM      4  C   UNL     1      27.430 -14.254  32.381  1.00  0.00     0.016 C 
BRANCH   3   5
ATOM      5  C   UNL     1      27.286 -11.917  31.376  1.00  0.00     0.015 C 
BRANCH   5   6
ATOM      6  C   UNL     1      28.480 -10.978  31.100  1.00  0.00     0.028 C 
BRANCH   6   7
ATOM      7  C   UNL     1      29.788 -11.646  31.441  1.00  0.00    -0.028 C 
ATOM      8  C   UNL     1      30.691 -12.084  30.531  1.00  0.00    -0.070 CG0
ATOM      9  C   UNL     1      31.934 -12.768  31.041  1.00  0.00     0.039 C 
ATOM     10  G   UNL     1      30.512 -11.909  29.031  1.00  0.00     0.000 G0
ENDBRANCH   6   7
ENDBRANCH   5   6
ENDBRANCH   3   5
ENDBRANCH   1   3
BRANCH   1  11
ATOM     11  C   UNL     1      27.301 -13.947  28.547  1.00  0.00     0.087 C 
BRANCH  11  12
ATOM     12  C   UNL     1      28.124 -12.670  28.233  1.00  0.00     0.066 C 
BRANCH  12  13
ATOM     13  C   UNL     1      29.603 -12.960  28.427  1.00  0.00     0.140 C 
ATOM     14  O   UNL     1      30.070 -14.014  28.013  1.00  0.00    -0.299 OA
BRANCH  13  15
ATOM     15  C   UNL     1      30.519 -11.921  29.025  1.00  0.00     0.106 CG0
ATOM     16  G   UNL     1      30.692 -12.089  30.527  1.00  0.00     0.000 G0
ENDBRANCH  13  15
ENDBRANCH  12  13
BRANCH  12  17
ATOM     17  C   UNL     1      27.857 -12.119  26.794  1.00  0.00    -0.006 C 
ATOM     18  C   UNL     1      27.894 -13.252  25.749  1.00  0.00     0.008 C 
ATOM     19  C   UNL     1      28.873 -11.036  26.382  1.00  0.00     0.008 C 
ENDBRANCH  12  17
ENDBRANCH  11  12
ENDBRANCH   1  11
TORSDOF 1
ENDMDL
MODEL 9
REMARK VINA RESULT:    -3.779      1.477      3.883
REMARK INTER + INTRA:          -5.877
REMARK INTER:                  -6.916
REMARK INTRA:                   1.039
REMARK UNBOUND:                -0.109
REMARK SMILES CC1=CCC[C@@H](C)C(=O)C[C@H](C(C)C)C(=O)C1
REMARK SMILES IDX 8 1 9 2 6 3 7 4 5 5 4 6 3 7 2 8 1 9 10 11 11 12 15 13 16 14
REMARK SMILES IDX 17 15 12 17 13 18 14 19
REMARK H PARENT
REMARK Flexibility Score: 70.00
ROOT
ATOM      1  C   UNL     1      29.481 -12.797  31.123  1.00  0.00     0.136 C 
ATOM      2  O   UNL     1      29.716 -13.906  31.584  1.00  0.00    -0.299 OA
ENDROOT
BRANCH   1   3
ATOM      3  C   UNL     1      30.556 -12.049  30.354  1.00  0.00     0.053 C 
ATOM      4  C   UNL     1      31.973 -12.488  30.755  1.00  0.00     0.016 C 
BRANCH   3   5
ATOM      5  C   UNL     1      30.376 -10.523  30.472  1.00  0.00     0.015 C 
BRANCH   5   6
ATOM      6  C   UNL     1      29.177  -9.969  29.674  1.00  0.00     0.028 C 
BRANCH   6   7
ATOM      7  C   UNL     1      29.304 -10.290  28.206  1.00  0.00    -0.028 C 
ATOM      8  C   UNL     1      28.440 -11.064  27.507  1.00  0.00    -0.070 CG0
ATOM      9  C   UNL     1      28.736 -11.319  26.051  1.00  0.00     0.039 C 
ATOM     10  G   UNL     1      27.188 -11.674  28.119  1.00  0.00     0.000 G0
ENDBRANCH   6   7
ENDBRANCH   5   6
ENDBRANCH   3   5
ENDBRANCH   1   3
BRANCH   1  11
ATOM     11  C   UNL     1      28.115 -12.192  31.335  1.00  0.00     0.087 C 
BRANCH  11  12
ATOM     12  C   UNL     1      27.032 -12.871  30.455  1.00  0.00     0.066 C 
BRANCH  12  13
ATOM     13  C   UNL     1      27.482 -12.862  29.003  1.00  0.00     0.140 C 
ATOM     14  O   UNL     1      28.013 -13.859  28.529  1.00  0.00    -0.299 OA
BRANCH  13  15
ATOM     15  C   UNL     1      27.185 -11.680  28.113  1.00  0.00     0.106 CG0
ATOM     16  G   UNL     1      28.444 -11.063  27.522  1.00  0.00     0.000 G0
ENDBRANCH  13  15
ENDBRANCH  12  13
BRANCH  12  17
ATOM     17  C   UNL     1      26.706 -14.329  30.918  1.00  0.00    -0.006 C 
ATOM     18  C   UNL     1      25.507 -14.905  30.139  1.00  0.00     0.008 C 
ATOM     19  C   UNL     1      26.399 -14.411  32.425  1.00  0.00     0.008 C 
ENDBRANCH  12  17
ENDBRANCH  11  12
ENDBRANCH   1  11
TORSDOF 1
ENDMDL
