MODEL 1
REMARK VINA RESULT:    -3.695      0.000      0.000
REMARK INTER + INTRA:          -4.847
REMARK INTER:                  -4.667
REMARK INTRA:                  -0.180
REMARK UNBOUND:                -0.180
REMARK SMILES CSCC[C@@H]([NH3+])C(=O)[O-]
REMARK SMILES IDX 4 1 5 2 6 3 7 7 8 8 9 9 3 10 2 11 1 12
REMARK H PARENT 6 4 6 5 6 6
REMARK Flexibility Score: inf
ROOT
ATOM      1  C   UNL     1      21.756  -5.989  16.405  1.00  0.00     0.082 C 
ENDROOT
BRANCH   1   2
ATOM      2  C   UNL     1      21.728  -6.551  17.843  1.00  0.00     0.228 C 
BRANCH   2   3
ATOM      3  N   UNL     1      22.834  -7.495  18.048  1.00  0.00    -0.350 N 
ATOM      4  H   UNL     1      22.489  -8.476  17.936  1.00  0.00     0.345 HD
ATOM      5  H   UNL     1      23.245  -7.381  19.003  1.00  0.00     0.345 HD
ATOM      6  H   UNL     1      23.579  -7.327  17.334  1.00  0.00     0.345 HD
ENDBRANCH   2   3
BRANCH   2   7
ATOM      7  C   UNL     1      21.795  -5.443  18.862  1.00  0.00     0.099 C 
ATOM      8  O   UNL     1      21.176  -4.362  18.674  1.00  0.00    -0.544 OA
ATOM      9  O   UNL     1      22.537  -5.614  20.024  1.00  0.00    -0.544 OA
ENDBRANCH   2   7
ENDBRANCH   1   2
BRANCH   1  10
ATOM     10  C   UNL     1      20.601  -6.520  15.551  1.00  0.00     0.076 C 
BRANCH  10  11
ATOM     11  S   UNL     1      19.322  -7.249  16.629  1.00  0.00    -0.165 SA
ATOM     12  C   UNL     1      19.453  -8.916  15.907  1.00  0.00     0.085 C 
ENDBRANCH  10  11
ENDBRANCH   1  10
TORSDOF 5
ENDMDL
MODEL 2
REMARK VINA RESULT:    -3.613      2.983      4.150
REMARK INTER + INTRA:          -4.743
REMARK INTER:                  -4.708
REMARK INTRA:                  -0.035
REMARK UNBOUND:                -0.180
REMARK SMILES CSCC[C@@H]([NH3+])C(=O)[O-]
REMARK SMILES IDX 4 1 5 2 6 3 7 7 8 8 9 9 3 10 2 11 1 12
REMARK H PARENT 6 4 6 5 6 6
REMARK Flexibility Score: inf
ROOT
ATOM      1  C   UNL     1      21.662  -6.224  16.835  1.00  0.00     0.082 C 
ENDROOT
BRANCH   1   2
ATOM      2  C   UNL     1      21.448  -7.682  16.375  1.00  0.00     0.228 C 
BRANCH   2   3
ATOM      3  N   UNL     1      22.059  -8.618  17.327  1.00  0.00    -0.350 N 
ATOM      4  H   UNL     1      23.059  -8.782  17.071  1.00  0.00     0.345 HD
ATOM      5  H   UNL     1      21.548  -9.531  17.328  1.00  0.00     0.345 HD
ATOM      6  H   UNL     1      22.032  -8.211  18.290  1.00  0.00     0.345 HD
ENDBRANCH   2   3
BRANCH   2   7
ATOM      7  C   UNL     1      19.981  -7.992  16.212  1.00  0.00     0.099 C 
ATOM      8  O   UNL     1      19.109  -7.145  16.539  1.00  0.00    -0.544 OA
ATOM      9  O   UNL     1      19.585  -9.215  15.688  1.00  0.00    -0.544 OA
ENDBRANCH   2   7
ENDBRANCH   1   2
BRANCH   1  10
ATOM     10  C   UNL     1      21.766  -6.107  18.359  1.00  0.00     0.076 C 
BRANCH  10  11
ATOM     11  S   UNL     1      21.454  -4.382  18.868  1.00  0.00    -0.165 SA
ATOM     12  C   UNL     1      22.244  -4.564  20.498  1.00  0.00     0.085 C 
ENDBRANCH  10  11
ENDBRANCH   1  10
TORSDOF 5
ENDMDL
MODEL 3
REMARK VINA RESULT:    -3.607      2.533      2.890
REMARK INTER + INTRA:          -4.736
REMARK INTER:                  -4.616
REMARK INTRA:                  -0.121
REMARK UNBOUND:                -0.180
REMARK SMILES CSCC[C@@H]([NH3+])C(=O)[O-]
REMARK SMILES IDX 4 1 5 2 6 3 7 7 8 8 9 9 3 10 2 11 1 12
REMARK H PARENT 6 4 6 5 6 6
REMARK Flexibility Score: inf
ROOT
ATOM      1  C   UNL     1      21.134  -5.501  18.205  1.00  0.00     0.082 C 
ENDROOT
BRANCH   1   2
ATOM      2  C   UNL     1      21.660  -4.133  18.690  1.00  0.00     0.228 C 
BRANCH   2   3
ATOM      3  N   UNL     1      20.598  -3.121  18.626  1.00  0.00    -0.350 N 
ATOM      4  H   UNL     1      21.000  -2.172  18.797  1.00  0.00     0.345 HD
ATOM      5  H   UNL     1      19.859  -3.316  19.340  1.00  0.00     0.345 HD
ATOM      6  H   UNL     1      20.162  -3.125  17.675  1.00  0.00     0.345 HD
ENDBRANCH   2   3
BRANCH   2   7
ATOM      7  C   UNL     1      22.206  -4.225  20.092  1.00  0.00     0.099 C 
ATOM      8  O   UNL     1      22.412  -5.347  20.625  1.00  0.00    -0.544 OA
ATOM      9  O   UNL     1      22.495  -3.066  20.800  1.00  0.00    -0.544 OA
ENDBRANCH   2   7
ENDBRANCH   1   2
BRANCH   1  10
ATOM     10  C   UNL     1      21.343  -5.704  16.701  1.00  0.00     0.076 C 
BRANCH  10  11
ATOM     11  S   UNL     1      22.050  -7.357  16.394  1.00  0.00    -0.165 SA
ATOM     12  C   UNL     1      22.166  -7.798  18.156  1.00  0.00     0.085 C 
ENDBRANCH  10  11
ENDBRANCH   1  10
TORSDOF 5
ENDMDL
MODEL 4
REMARK VINA RESULT:    -3.384      3.220      4.334
REMARK INTER + INTRA:          -4.454
REMARK INTER:                  -4.399
REMARK INTRA:                  -0.055
REMARK UNBOUND:                -0.180
REMARK SMILES CSCC[C@@H]([NH3+])C(=O)[O-]
REMARK SMILES IDX 4 1 5 2 6 3 7 7 8 8 9 9 3 10 2 11 1 12
REMARK H PARENT 6 4 6 5 6 6
REMARK Flexibility Score: inf
ROOT
ATOM      1  C   UNL     1      21.791  -5.417  19.012  1.00  0.00     0.082 C 
ENDROOT
BRANCH   1   2
ATOM      2  C   UNL     1      21.305  -6.083  17.706  1.00  0.00     0.228 C 
BRANCH   2   3
ATOM      3  N   UNL     1      21.537  -5.196  16.560  1.00  0.00    -0.350 N 
ATOM      4  H   UNL     1      22.441  -5.442  16.097  1.00  0.00     0.345 HD
ATOM      5  H   UNL     1      21.567  -4.196  16.866  1.00  0.00     0.345 HD
ATOM      6  H   UNL     1      20.769  -5.314  15.859  1.00  0.00     0.345 HD
ENDBRANCH   2   3
BRANCH   2   7
ATOM      7  C   UNL     1      21.988  -7.408  17.483  1.00  0.00     0.099 C 
ATOM      8  O   UNL     1      22.154  -7.854  16.316  1.00  0.00    -0.544 OA
ATOM      9  O   UNL     1      22.447  -8.143  18.568  1.00  0.00    -0.544 OA
ENDBRANCH   2   7
ENDBRANCH   1   2
BRANCH   1  10
ATOM     10  C   UNL     1      21.511  -3.912  19.035  1.00  0.00     0.076 C 
BRANCH  10  11
ATOM     11  S   UNL     1      22.419  -3.136  20.415  1.00  0.00    -0.165 SA
ATOM     12  C   UNL     1      22.128  -4.511  21.573  1.00  0.00     0.085 C 
ENDBRANCH  10  11
ENDBRANCH   1  10
TORSDOF 5
ENDMDL
MODEL 5
REMARK VINA RESULT:    -3.379     17.194     18.201
REMARK INTER + INTRA:          -4.448
REMARK INTER:                  -4.356
REMARK INTRA:                  -0.092
REMARK UNBOUND:                -0.180
REMARK SMILES CSCC[C@@H]([NH3+])C(=O)[O-]
REMARK SMILES IDX 4 1 5 2 6 3 7 7 8 8 9 9 3 10 2 11 1 12
REMARK H PARENT 6 4 6 5 6 6
REMARK Flexibility Score: inf
ROOT
ATOM      1  C   UNL     1      14.651  -1.100  33.523  1.00  0.00     0.082 C 
ENDROOT
BRANCH   1   2
ATOM      2  C   UNL     1      13.243  -0.707  34.019  1.00  0.00     0.228 C 
BRANCH   2   3
ATOM      3  N   UNL     1      12.728   0.435  33.253  1.00  0.00    -0.350 N 
ATOM      4  H   UNL     1      13.522   0.959  32.819  1.00  0.00     0.345 HD
ATOM      5  H   UNL     1      12.185   1.081  33.872  1.00  0.00     0.345 HD
ATOM      6  H   UNL     1      12.104   0.094  32.485  1.00  0.00     0.345 HD
ENDBRANCH   2   3
BRANCH   2   7
ATOM      7  C   UNL     1      12.288  -1.869  33.924  1.00  0.00     0.099 C 
ATOM      8  O   UNL     1      11.086  -1.684  33.594  1.00  0.00    -0.544 OA
ATOM      9  O   UNL     1      12.733  -3.157  34.191  1.00  0.00    -0.544 OA
ENDBRANCH   2   7
ENDBRANCH   1   2
BRANCH   1  10
ATOM     10  C   UNL     1      14.746  -1.110  31.995  1.00  0.00     0.076 C 
BRANCH  10  11
ATOM     11  S   UNL     1      16.495  -1.001  31.484  1.00  0.00    -0.165 SA
ATOM     12  C   UNL     1      16.137  -0.153  29.913  1.00  0.00     0.085 C 
ENDBRANCH  10  11
ENDBRANCH   1  10
TORSDOF 5
ENDMDL
MODEL 6
REMARK VINA RESULT:    -3.319     18.340     19.114
REMARK INTER + INTRA:          -4.372
REMARK INTER:                  -4.196
REMARK INTRA:                  -0.176
REMARK UNBOUND:                -0.180
REMARK SMILES CSCC[C@@H]([NH3+])C(=O)[O-]
REMARK SMILES IDX 4 1 5 2 6 3 7 7 8 8 9 9 3 10 2 11 1 12
REMARK H PARENT 6 4 6 5 6 6
REMARK Flexibility Score: inf
ROOT
ATOM      1  C   UNL     1      20.652  10.019  29.102  1.00  0.00     0.082 C 
ENDROOT
BRANCH   1   2
ATOM      2  C   UNL     1      19.700   9.252  28.158  1.00  0.00     0.228 C 
BRANCH   2   3
ATOM      3  N   UNL     1      18.548  10.089  27.799  1.00  0.00    -0.350 N 
ATOM      4  H   UNL     1      18.111   9.734  26.918  1.00  0.00     0.345 HD
ATOM      5  H   UNL     1      18.842  11.084  27.662  1.00  0.00     0.345 HD
ATOM      6  H   UNL     1      17.830  10.048  28.559  1.00  0.00     0.345 HD
ENDBRANCH   2   3
BRANCH   2   7
ATOM      7  C   UNL     1      20.418   8.796  26.913  1.00  0.00     0.099 C 
ATOM      8  O   UNL     1      19.784   8.615  25.839  1.00  0.00    -0.544 OA
ATOM      9  O   UNL     1      21.789   8.581  26.944  1.00  0.00    -0.544 OA
ENDBRANCH   2   7
ENDBRANCH   1   2
BRANCH   1  10
ATOM     10  C   UNL     1      20.978   9.222  30.368  1.00  0.00     0.076 C 
BRANCH  10  11
ATOM     11  S   UNL     1      19.842   7.801  30.514  1.00  0.00    -0.165 SA
ATOM     12  C   UNL     1      21.171   6.558  30.596  1.00  0.00     0.085 C 
ENDBRANCH  10  11
ENDBRANCH   1  10
TORSDOF 5
ENDMDL
MODEL 7
REMARK VINA RESULT:    -3.215     18.459     18.958
REMARK INTER + INTRA:          -4.241
REMARK INTER:                  -4.020
REMARK INTRA:                  -0.221
REMARK UNBOUND:                -0.180
REMARK SMILES CSCC[C@@H]([NH3+])C(=O)[O-]
REMARK SMILES IDX 4 1 5 2 6 3 7 7 8 8 9 9 3 10 2 11 1 12
REMARK H PARENT 6 4 6 5 6 6
REMARK Flexibility Score: inf
ROOT
ATOM      1  C   UNL     1      21.969   8.269  28.766  1.00  0.00     0.082 C 
ENDROOT
BRANCH   1   2
ATOM      2  C   UNL     1      21.598   9.239  27.623  1.00  0.00     0.228 C 
BRANCH   2   3
ATOM      3  N   UNL     1      22.508   9.064  26.484  1.00  0.00    -0.350 N 
ATOM      4  H   UNL     1      22.260   9.736  25.724  1.00  0.00     0.345 HD
ATOM      5  H   UNL     1      22.452   8.087  26.114  1.00  0.00     0.345 HD
ATOM      6  H   UNL     1      23.491   9.258  26.783  1.00  0.00     0.345 HD
ENDBRANCH   2   3
BRANCH   2   7
ATOM      7  C   UNL     1      20.170   9.042  27.182  1.00  0.00     0.099 C 
ATOM      8  O   UNL     1      19.912   8.611  26.027  1.00  0.00    -0.544 OA
ATOM      9  O   UNL     1      19.129   9.327  28.056  1.00  0.00    -0.544 OA
ENDBRANCH   2   7
ENDBRANCH   1   2
BRANCH   1  10
ATOM     10  C   UNL     1      22.159   8.992  30.102  1.00  0.00     0.076 C 
BRANCH  10  11
ATOM     11  S   UNL     1      20.819   8.530  31.251  1.00  0.00    -0.165 SA
ATOM     12  C   UNL     1      20.445   6.955  30.415  1.00  0.00     0.085 C 
ENDBRANCH  10  11
ENDBRANCH   1  10
TORSDOF 5
ENDMDL
MODEL 8
REMARK VINA RESULT:    -3.185     14.193     15.246
REMARK INTER + INTRA:          -4.203
REMARK INTER:                  -4.045
REMARK INTRA:                  -0.158
REMARK UNBOUND:                -0.180
REMARK SMILES CSCC[C@@H]([NH3+])C(=O)[O-]
REMARK SMILES IDX 4 1 5 2 6 3 7 7 8 8 9 9 3 10 2 11 1 12
REMARK H PARENT 6 4 6 5 6 6
REMARK Flexibility Score: inf
ROOT
ATOM      1  C   UNL     1      27.295   4.579  24.647  1.00  0.00     0.082 C 
ENDROOT
BRANCH   1   2
ATOM      2  C   UNL     1      26.959   5.986  25.189  1.00  0.00     0.228 C 
BRANCH   2   3
ATOM      3  N   UNL     1      25.557   6.048  25.620  1.00  0.00    -0.350 N 
ATOM      4  H   UNL     1      25.340   7.003  25.986  1.00  0.00     0.345 HD
ATOM      5  H   UNL     1      25.368   5.341  26.368  1.00  0.00     0.345 HD
ATOM      6  H   UNL     1      24.927   5.860  24.807  1.00  0.00     0.345 HD
ENDBRANCH   2   3
BRANCH   2   7
ATOM      7  C   UNL     1      27.870   6.362  26.329  1.00  0.00     0.099 C 
ATOM      8  O   UNL     1      27.395   6.811  27.406  1.00  0.00    -0.544 OA
ATOM      9  O   UNL     1      29.243   6.207  26.199  1.00  0.00    -0.544 OA
ENDBRANCH   2   7
ENDBRANCH   1   2
BRANCH   1  10
ATOM     10  C   UNL     1      26.988   3.477  25.664  1.00  0.00     0.076 C 
BRANCH  10  11
ATOM     11  S   UNL     1      25.973   2.179  24.881  1.00  0.00    -0.165 SA
ATOM     12  C   UNL     1      24.642   2.264  26.122  1.00  0.00     0.085 C 
ENDBRANCH  10  11
ENDBRANCH   1  10
TORSDOF 5
ENDMDL
MODEL 9
REMARK VINA RESULT:    -3.179     10.926     11.898
REMARK INTER + INTRA:          -4.195
REMARK INTER:                  -3.963
REMARK INTRA:                  -0.231
REMARK UNBOUND:                -0.180
REMARK SMILES CSCC[C@@H]([NH3+])C(=O)[O-]
REMARK SMILES IDX 4 1 5 2 6 3 7 7 8 8 9 9 3 10 2 11 1 12
REMARK H PARENT 6 4 6 5 6 6
REMARK Flexibility Score: inf
ROOT
ATOM      1  C   UNL     1      24.720   4.252  17.519  1.00  0.00     0.082 C 
ENDROOT
BRANCH   1   2
ATOM      2  C   UNL     1      23.895   4.134  16.218  1.00  0.00     0.228 C 
BRANCH   2   3
ATOM      3  N   UNL     1      24.294   5.174  15.261  1.00  0.00    -0.350 N 
ATOM      4  H   UNL     1      23.889   6.094  15.546  1.00  0.00     0.345 HD
ATOM      5  H   UNL     1      23.964   4.935  14.297  1.00  0.00     0.345 HD
ATOM      6  H   UNL     1      25.336   5.265  15.251  1.00  0.00     0.345 HD
ENDBRANCH   2   3
BRANCH   2   7
ATOM      7  C   UNL     1      24.050   2.769  15.597  1.00  0.00     0.099 C 
ATOM      8  O   UNL     1      25.148   2.156  15.667  1.00  0.00    -0.544 OA
ATOM      9  O   UNL     1      22.974   2.177  14.950  1.00  0.00    -0.544 OA
ENDBRANCH   2   7
ENDBRANCH   1   2
BRANCH   1  10
ATOM     10  C   UNL     1      25.749   5.384  17.452  1.00  0.00     0.076 C 
BRANCH  10  11
ATOM     11  S   UNL     1      27.416   4.722  17.788  1.00  0.00    -0.165 SA
ATOM     12  C   UNL     1      27.815   4.431  16.035  1.00  0.00     0.085 C 
ENDBRANCH  10  11
ENDBRANCH   1  10
TORSDOF 5
ENDMDL
