MODEL 1
REMARK VINA RESULT:    -3.974      0.000      0.000
REMARK INTER + INTRA:          -6.159
REMARK INTER:                  -6.064
REMARK INTRA:                  -0.095
REMARK UNBOUND:                -0.095
REMARK SMILES CC1=CCC[C@@H](C)C(=O)C[C@H](C(C)C)C(=O)C1
REMARK SMILES IDX 8 1 9 2 6 3 7 4 5 5 4 6 3 7 2 8 1 9 10 11 11 12 15 13 16 14
REMARK SMILES IDX 17 15 12 17 13 18 14 19
REMARK H PARENT
REMARK Flexibility Score: 70.00
ROOT
ATOM      1  C   UNL     1      15.365  19.638  57.680  1.00  0.00     0.136 C 
ATOM      2  O   UNL     1      16.500  20.082  57.785  1.00  0.00    -0.299 OA
ENDROOT
BRANCH   1   3
ATOM      3  C   UNL     1      15.087  18.634  56.570  1.00  0.00     0.053 C 
ATOM      4  C   UNL     1      16.124  17.502  56.586  1.00  0.00     0.016 C 
BRANCH   3   5
ATOM      5  C   UNL     1      15.010  19.292  55.170  1.00  0.00     0.015 C 
BRANCH   5   6
ATOM      6  C   UNL     1      13.720  20.088  54.873  1.00  0.00     0.028 C 
BRANCH   6   7
ATOM      7  C   UNL     1      13.824  21.596  54.922  1.00  0.00    -0.028 C 
ATOM      8  C   UNL     1      13.302  22.407  55.873  1.00  0.00    -0.070 CG0
ATOM      9  C   UNL     1      13.660  23.871  55.821  1.00  0.00     0.039 C 
ATOM     10  G   UNL     1      12.334  21.941  56.942  1.00  0.00     0.000 G0
ENDBRANCH   6   7
ENDBRANCH   5   6
ENDBRANCH   3   5
ENDBRANCH   1   3
BRANCH   1  11
ATOM     11  C   UNL     1      14.308  20.146  58.647  1.00  0.00     0.087 C 
BRANCH  11  12
ATOM     12  C   UNL     1      14.232  21.694  58.752  1.00  0.00     0.066 C 
BRANCH  12  13
ATOM     13  C   UNL     1      12.874  22.220  58.323  1.00  0.00     0.140 C 
ATOM     14  O   UNL     1      12.187  22.850  59.114  1.00  0.00    -0.299 OA
BRANCH  13  15
ATOM     15  C   UNL     1      12.326  21.935  56.942  1.00  0.00     0.106 CG0
ATOM     16  G   UNL     1      13.311  22.394  55.886  1.00  0.00     0.000 G0
ENDBRANCH  13  15
ENDBRANCH  12  13
BRANCH  12  17
ATOM     17  C   UNL     1      14.666  22.262  60.143  1.00  0.00    -0.006 C 
ATOM     18  C   UNL     1      16.152  22.660  60.147  1.00  0.00     0.008 C 
ATOM     19  C   UNL     1      14.383  21.332  61.337  1.00  0.00     0.008 C 
ENDBRANCH  12  17
ENDBRANCH  11  12
ENDBRANCH   1  11
TORSDOF 1
ENDMDL
MODEL 2
REMARK VINA RESULT:    -3.700      1.843      4.670
REMARK INTER + INTRA:          -5.741
REMARK INTER:                  -5.529
REMARK INTRA:                  -0.213
REMARK UNBOUND:                -0.095
REMARK SMILES CC1=CCC[C@@H](C)C(=O)C[C@H](C(C)C)C(=O)C1
REMARK SMILES IDX 8 1 9 2 6 3 7 4 5 5 4 6 3 7 2 8 1 9 10 11 11 12 15 13 16 14
REMARK SMILES IDX 17 15 12 17 13 18 14 19
REMARK H PARENT
REMARK Flexibility Score: 70.00
ROOT
ATOM      1  C   UNL     1      13.134  22.080  59.042  1.00  0.00     0.136 C 
ATOM      2  O   UNL     1      12.400  22.848  59.648  1.00  0.00    -0.299 OA
ENDROOT
BRANCH   1   3
ATOM      3  C   UNL     1      14.545  21.867  59.572  1.00  0.00     0.053 C 
ATOM      4  C   UNL     1      14.605  22.133  61.083  1.00  0.00     0.016 C 
BRANCH   3   5
ATOM      5  C   UNL     1      15.603  22.711  58.820  1.00  0.00     0.015 C 
BRANCH   5   6
ATOM      6  C   UNL     1      16.721  21.912  58.116  1.00  0.00     0.028 C 
BRANCH   6   7
ATOM      7  C   UNL     1      16.462  20.441  57.879  1.00  0.00    -0.028 C 
ATOM      8  C   UNL     1      15.971  19.884  56.746  1.00  0.00    -0.070 CG0
ATOM      9  C   UNL     1      15.942  18.378  56.659  1.00  0.00     0.039 C 
ATOM     10  G   UNL     1      15.393  20.682  55.594  1.00  0.00     0.000 G0
ENDBRANCH   6   7
ENDBRANCH   5   6
ENDBRANCH   3   5
ENDBRANCH   1   3
BRANCH   1  11
ATOM     11  C   UNL     1      12.592  21.418  57.785  1.00  0.00     0.087 C 
BRANCH  11  12
ATOM     12  C   UNL     1      13.246  21.923  56.468  1.00  0.00     0.066 C 
BRANCH  12  13
ATOM     13  C   UNL     1      13.898  20.790  55.695  1.00  0.00     0.140 C 
ATOM     14  O   UNL     1      13.205  19.918  55.194  1.00  0.00    -0.299 OA
BRANCH  13  15
ATOM     15  C   UNL     1      15.403  20.691  55.574  1.00  0.00     0.106 CG0
ATOM     16  G   UNL     1      15.966  19.889  56.730  1.00  0.00     0.000 G0
ENDBRANCH  13  15
ENDBRANCH  12  13
BRANCH  12  17
ATOM     17  C   UNL     1      12.291  22.772  55.567  1.00  0.00    -0.006 C 
ATOM     18  C   UNL     1      12.413  24.273  55.879  1.00  0.00     0.008 C 
ATOM     19  C   UNL     1      10.808  22.357  55.625  1.00  0.00     0.008 C 
ENDBRANCH  12  17
ENDBRANCH  11  12
ENDBRANCH   1  11
TORSDOF 1
ENDMDL
MODEL 3
REMARK VINA RESULT:    -3.657      1.411      4.142
REMARK INTER + INTRA:          -5.676
REMARK INTER:                  -5.756
REMARK INTRA:                   0.080
REMARK UNBOUND:                -0.095
REMARK SMILES CC1=CCC[C@@H](C)C(=O)C[C@H](C(C)C)C(=O)C1
REMARK SMILES IDX 8 1 9 2 6 3 7 4 5 5 4 6 3 7 2 8 1 9 10 11 11 12 15 13 16 14
REMARK SMILES IDX 17 15 12 17 13 18 14 19
REMARK H PARENT
REMARK Flexibility Score: 70.00
ROOT
ATOM      1  C   UNL     1      14.409  20.605  59.029  1.00  0.00     0.136 C 
ATOM      2  O   UNL     1      13.809  19.860  59.791  1.00  0.00    -0.299 OA
ENDROOT
BRANCH   1   3
ATOM      3  C   UNL     1      14.082  22.091  59.072  1.00  0.00     0.053 C 
ATOM      4  C   UNL     1      14.598  22.725  60.372  1.00  0.00     0.016 C 
BRANCH   3   5
ATOM      5  C   UNL     1      12.574  22.382  58.877  1.00  0.00     0.015 C 
BRANCH   5   6
ATOM      6  C   UNL     1      12.018  22.120  57.460  1.00  0.00     0.028 C 
BRANCH   6   7
ATOM      7  C   UNL     1      12.753  22.769  56.309  1.00  0.00    -0.028 C 
ATOM      8  C   UNL     1      13.265  22.140  55.225  1.00  0.00    -0.070 CG0
ATOM      9  C   UNL     1      13.817  22.995  54.111  1.00  0.00     0.039 C 
ATOM     10  G   UNL     1      13.372  20.634  55.095  1.00  0.00     0.000 G0
ENDBRANCH   6   7
ENDBRANCH   5   6
ENDBRANCH   3   5
ENDBRANCH   1   3
BRANCH   1  11
ATOM     11  C   UNL     1      15.414  19.986  58.071  1.00  0.00     0.087 C 
BRANCH  11  12
ATOM     12  C   UNL     1      14.772  19.251  56.862  1.00  0.00     0.066 C 
BRANCH  12  13
ATOM     13  C   UNL     1      14.710  20.140  55.633  1.00  0.00     0.140 C 
ATOM     14  O   UNL     1      15.744  20.509  55.096  1.00  0.00    -0.299 OA
BRANCH  13  15
ATOM     15  C   UNL     1      13.386  20.625  55.084  1.00  0.00     0.106 CG0
ATOM     16  G   UNL     1      13.274  22.128  55.245  1.00  0.00     0.000 G0
ENDBRANCH  13  15
ENDBRANCH  12  13
BRANCH  12  17
ATOM     17  C   UNL     1      15.414  17.860  56.546  1.00  0.00    -0.006 C 
ATOM     18  C   UNL     1      16.921  17.855  56.855  1.00  0.00     0.008 C 
ATOM     19  C   UNL     1      15.185  17.355  55.109  1.00  0.00     0.008 C 
ENDBRANCH  12  17
ENDBRANCH  11  12
ENDBRANCH   1  11
TORSDOF 1
ENDMDL
MODEL 4
REMARK VINA RESULT:    -3.541      1.760      4.518
REMARK INTER + INTRA:          -5.499
REMARK INTER:                  -5.626
REMARK INTRA:                   0.127
REMARK UNBOUND:                -0.095
REMARK SMILES CC1=CCC[C@@H](C)C(=O)C[C@H](C(C)C)C(=O)C1
REMARK SMILES IDX 8 1 9 2 6 3 7 4 5 5 4 6 3 7 2 8 1 9 10 11 11 12 15 13 16 14
REMARK SMILES IDX 17 15 12 17 13 18 14 19
REMARK H PARENT
REMARK Flexibility Score: 70.00
ROOT
ATOM      1  C   UNL     1      12.532  22.369  59.181  1.00  0.00     0.136 C 
ATOM      2  O   UNL     1      11.913  23.216  59.809  1.00  0.00    -0.299 OA
ENDROOT
BRANCH   1   3
ATOM      3  C   UNL     1      13.622  21.592  59.906  1.00  0.00     0.053 C 
ATOM      4  C   UNL     1      14.943  22.375  59.903  1.00  0.00     0.016 C 
BRANCH   3   5
ATOM      5  C   UNL     1      13.824  20.166  59.338  1.00  0.00     0.015 C 
BRANCH   5   6
ATOM      6  C   UNL     1      15.048  19.980  58.415  1.00  0.00     0.028 C 
BRANCH   6   7
ATOM      7  C   UNL     1      14.856  19.104  57.197  1.00  0.00    -0.028 C 
ATOM      8  C   UNL     1      14.891  19.506  55.904  1.00  0.00    -0.070 CG0
ATOM      9  C   UNL     1      14.839  18.442  54.836  1.00  0.00     0.039 C 
ATOM     10  G   UNL     1      14.913  20.959  55.472  1.00  0.00     0.000 G0
ENDBRANCH   6   7
ENDBRANCH   5   6
ENDBRANCH   3   5
ENDBRANCH   1   3
BRANCH   1  11
ATOM     11  C   UNL     1      12.190  22.177  57.712  1.00  0.00     0.087 C 
BRANCH  11  12
ATOM     12  C   UNL     1      13.314  22.619  56.734  1.00  0.00     0.066 C 
BRANCH  12  13
ATOM     13  C   UNL     1      13.553  21.584  55.649  1.00  0.00     0.140 C 
ATOM     14  O   UNL     1      12.628  21.225  54.936  1.00  0.00    -0.299 OA
BRANCH  13  15
ATOM     15  C   UNL     1      14.912  20.945  55.465  1.00  0.00     0.106 CG0
ATOM     16  G   UNL     1      14.873  19.498  55.915  1.00  0.00     0.000 G0
ENDBRANCH  13  15
ENDBRANCH  12  13
BRANCH  12  17
ATOM     17  C   UNL     1      13.116  24.052  56.140  1.00  0.00    -0.006 C 
ATOM     18  C   UNL     1      11.708  24.225  55.547  1.00  0.00     0.008 C 
ATOM     19  C   UNL     1      14.166  24.468  55.093  1.00  0.00     0.008 C 
ENDBRANCH  12  17
ENDBRANCH  11  12
ENDBRANCH   1  11
TORSDOF 1
ENDMDL
MODEL 5
REMARK VINA RESULT:    -3.398      1.889      3.920
REMARK INTER + INTRA:          -5.280
REMARK INTER:                  -5.530
REMARK INTRA:                   0.250
REMARK UNBOUND:                -0.095
REMARK SMILES CC1=CCC[C@@H](C)C(=O)C[C@H](C(C)C)C(=O)C1
REMARK SMILES IDX 8 1 9 2 6 3 7 4 5 5 4 6 3 7 2 8 1 9 10 11 11 12 15 13 16 14
REMARK SMILES IDX 17 15 12 17 13 18 14 19
REMARK H PARENT
REMARK Flexibility Score: 70.00
ROOT
ATOM      1  C   UNL     1      12.014  22.411  56.352  1.00  0.00     0.136 C 
ATOM      2  O   UNL     1      10.912  22.303  56.869  1.00  0.00    -0.299 OA
ENDROOT
BRANCH   1   3
ATOM      3  C   UNL     1      12.108  22.325  54.835  1.00  0.00     0.053 C 
ATOM      4  C   UNL     1      10.724  22.076  54.218  1.00  0.00     0.016 C 
BRANCH   3   5
ATOM      5  C   UNL     1      13.126  21.261  54.354  1.00  0.00     0.015 C 
BRANCH   5   6
ATOM      6  C   UNL     1      14.594  21.730  54.269  1.00  0.00     0.028 C 
BRANCH   6   7
ATOM      7  C   UNL     1      15.655  20.715  54.632  1.00  0.00    -0.028 C 
ATOM      8  C   UNL     1      16.133  20.459  55.873  1.00  0.00    -0.070 CG0
ATOM      9  C   UNL     1      17.073  19.292  56.038  1.00  0.00     0.039 C 
ATOM     10  G   UNL     1      15.828  21.314  57.087  1.00  0.00     0.000 G0
ENDBRANCH   6   7
ENDBRANCH   5   6
ENDBRANCH   3   5
ENDBRANCH   1   3
BRANCH   1  11
ATOM     11  C   UNL     1      13.217  22.590  57.266  1.00  0.00     0.087 C 
BRANCH  11  12
ATOM     12  C   UNL     1      13.455  21.406  58.243  1.00  0.00     0.066 C 
BRANCH  12  13
ATOM     13  C   UNL     1      14.736  20.659  57.918  1.00  0.00     0.140 C 
ATOM     14  O   UNL     1      14.911  19.531  58.355  1.00  0.00    -0.299 OA
BRANCH  13  15
ATOM     15  C   UNL     1      15.831  21.305  57.097  1.00  0.00     0.106 CG0
ATOM     16  G   UNL     1      16.137  20.458  55.878  1.00  0.00     0.000 G0
ENDBRANCH  13  15
ENDBRANCH  12  13
BRANCH  12  17
ATOM     17  C   UNL     1      13.376  21.800  59.755  1.00  0.00    -0.006 C 
ATOM     18  C   UNL     1      12.161  22.699  60.037  1.00  0.00     0.008 C 
ATOM     19  C   UNL     1      14.647  22.466  60.316  1.00  0.00     0.008 C 
ENDBRANCH  12  17
ENDBRANCH  11  12
ENDBRANCH   1  11
TORSDOF 1
ENDMDL
MODEL 6
REMARK VINA RESULT:    -3.389     12.529     14.068
REMARK INTER + INTRA:          -5.267
REMARK INTER:                  -4.956
REMARK INTRA:                  -0.311
REMARK UNBOUND:                -0.095
REMARK SMILES CC1=CCC[C@@H](C)C(=O)C[C@H](C(C)C)C(=O)C1
REMARK SMILES IDX 8 1 9 2 6 3 7 4 5 5 4 6 3 7 2 8 1 9 10 11 11 12 15 13 16 14
REMARK SMILES IDX 17 15 12 17 13 18 14 19
REMARK H PARENT
REMARK Flexibility Score: 70.00
ROOT
ATOM      1  C   UNL     1       5.777  28.885  53.382  1.00  0.00     0.136 C 
ATOM      2  O   UNL     1       6.540  28.128  53.965  1.00  0.00    -0.299 OA
ENDROOT
BRANCH   1   3
ATOM      3  C   UNL     1       4.707  28.277  52.486  1.00  0.00     0.053 C 
ATOM      4  C   UNL     1       4.236  26.925  53.041  1.00  0.00     0.016 C 
BRANCH   3   5
ATOM      5  C   UNL     1       5.162  28.141  51.013  1.00  0.00     0.015 C 
BRANCH   5   6
ATOM      6  C   UNL     1       4.483  29.099  50.010  1.00  0.00     0.028 C 
BRANCH   6   7
ATOM      7  C   UNL     1       3.509  30.104  50.581  1.00  0.00    -0.028 C 
ATOM      8  C   UNL     1       3.714  31.436  50.716  1.00  0.00    -0.070 CG0
ATOM      9  C   UNL     1       2.549  32.286  51.159  1.00  0.00     0.039 C 
ATOM     10  G   UNL     1       5.057  32.108  50.511  1.00  0.00     0.000 G0
ENDBRANCH   6   7
ENDBRANCH   5   6
ENDBRANCH   3   5
ENDBRANCH   1   3
BRANCH   1  11
ATOM     11  C   UNL     1       5.974  30.381  53.570  1.00  0.00     0.087 C 
BRANCH  11  12
ATOM     12  C   UNL     1       6.645  31.092  52.362  1.00  0.00     0.066 C 
BRANCH  12  13
ATOM     13  C   UNL     1       5.792  32.233  51.837  1.00  0.00     0.140 C 
ATOM     14  O   UNL     1       5.656  33.248  52.503  1.00  0.00    -0.299 OA
BRANCH  13  15
ATOM     15  C   UNL     1       5.058  32.118  50.518  1.00  0.00     0.106 CG0
ATOM     16  G   UNL     1       3.719  31.439  50.725  1.00  0.00     0.000 G0
ENDBRANCH  13  15
ENDBRANCH  12  13
BRANCH  12  17
ATOM     17  C   UNL     1       8.121  31.538  52.623  1.00  0.00    -0.006 C 
ATOM     18  C   UNL     1       9.115  30.697  51.804  1.00  0.00     0.008 C 
ATOM     19  C   UNL     1       8.546  31.531  54.104  1.00  0.00     0.008 C 
ENDBRANCH  12  17
ENDBRANCH  11  12
ENDBRANCH   1  11
TORSDOF 1
ENDMDL
MODEL 7
REMARK VINA RESULT:    -3.385     11.976     13.946
REMARK INTER + INTRA:          -5.260
REMARK INTER:                  -5.234
REMARK INTRA:                  -0.027
REMARK UNBOUND:                -0.095
REMARK SMILES CC1=CCC[C@@H](C)C(=O)C[C@H](C(C)C)C(=O)C1
REMARK SMILES IDX 8 1 9 2 6 3 7 4 5 5 4 6 3 7 2 8 1 9 10 11 11 12 15 13 16 14
REMARK SMILES IDX 17 15 12 17 13 18 14 19
REMARK H PARENT
REMARK Flexibility Score: 70.00
ROOT
ATOM      1  C   UNL     1       4.526  28.496  52.566  1.00  0.00     0.136 C 
ATOM      2  O   UNL     1       3.588  28.328  53.333  1.00  0.00    -0.299 OA
ENDROOT
BRANCH   1   3
ATOM      3  C   UNL     1       4.245  28.463  51.070  1.00  0.00     0.053 C 
ATOM      4  C   UNL     1       5.175  27.466  50.364  1.00  0.00     0.016 C 
BRANCH   3   5
ATOM      5  C   UNL     1       4.332  29.862  50.411  1.00  0.00     0.015 C 
BRANCH   5   6
ATOM      6  C   UNL     1       3.650  31.011  51.184  1.00  0.00     0.028 C 
BRANCH   6   7
ATOM      7  C   UNL     1       4.415  32.311  51.286  1.00  0.00    -0.028 C 
ATOM      8  C   UNL     1       5.143  32.735  52.347  1.00  0.00    -0.070 CG0
ATOM      9  C   UNL     1       5.963  33.990  52.181  1.00  0.00     0.039 C 
ATOM     10  G   UNL     1       5.131  32.059  53.703  1.00  0.00     0.000 G0
ENDBRANCH   6   7
ENDBRANCH   5   6
ENDBRANCH   3   5
ENDBRANCH   1   3
BRANCH   1  11
ATOM     11  C   UNL     1       5.910  28.694  53.164  1.00  0.00     0.087 C 
BRANCH  11  12
ATOM     12  C   UNL     1       6.576  30.048  52.793  1.00  0.00     0.066 C 
BRANCH  12  13
ATOM     13  C   UNL     1       6.311  31.111  53.844  1.00  0.00     0.140 C 
ATOM     14  O   UNL     1       7.028  31.183  54.831  1.00  0.00    -0.299 OA
BRANCH  13  15
ATOM     15  C   UNL     1       5.138  32.059  53.720  1.00  0.00     0.106 CG0
ATOM     16  G   UNL     1       5.137  32.709  52.350  1.00  0.00     0.000 G0
ENDBRANCH  13  15
ENDBRANCH  12  13
BRANCH  12  17
ATOM     17  C   UNL     1       8.096  29.937  52.444  1.00  0.00    -0.006 C 
ATOM     18  C   UNL     1       8.628  31.243  51.831  1.00  0.00     0.008 C 
ATOM     19  C   UNL     1       8.464  28.755  51.527  1.00  0.00     0.008 C 
ENDBRANCH  12  17
ENDBRANCH  11  12
ENDBRANCH   1  11
TORSDOF 1
ENDMDL
MODEL 8
REMARK VINA RESULT:    -3.285      2.275      4.323
REMARK INTER + INTRA:          -5.109
REMARK INTER:                  -4.988
REMARK INTRA:                  -0.120
REMARK UNBOUND:                -0.095
REMARK SMILES CC1=CCC[C@@H](C)C(=O)C[C@H](C(C)C)C(=O)C1
REMARK SMILES IDX 8 1 9 2 6 3 7 4 5 5 4 6 3 7 2 8 1 9 10 11 11 12 15 13 16 14
REMARK SMILES IDX 17 15 12 17 13 18 14 19
REMARK H PARENT
REMARK Flexibility Score: 70.00
ROOT
ATOM      1  C   UNL     1      11.832  22.683  56.858  1.00  0.00     0.136 C 
ATOM      2  O   UNL     1      11.300  21.858  57.588  1.00  0.00    -0.299 OA
ENDROOT
BRANCH   1   3
ATOM      3  C   UNL     1      11.162  23.004  55.530  1.00  0.00     0.053 C 
ATOM      4  C   UNL     1      11.523  21.952  54.470  1.00  0.00     0.016 C 
BRANCH   3   5
ATOM      5  C   UNL     1      11.484  24.431  55.023  1.00  0.00     0.015 C 
BRANCH   5   6
ATOM      6  C   UNL     1      12.655  24.539  54.023  1.00  0.00     0.028 C 
BRANCH   6   7
ATOM      7  C   UNL     1      13.785  25.473  54.395  1.00  0.00    -0.028 C 
ATOM      8  C   UNL     1      15.062  25.118  54.675  1.00  0.00    -0.070 CG0
ATOM      9  C   UNL     1      16.073  26.222  54.863  1.00  0.00     0.039 C 
ATOM     10  G   UNL     1      15.515  23.686  54.874  1.00  0.00     0.000 G0
ENDBRANCH   6   7
ENDBRANCH   5   6
ENDBRANCH   3   5
ENDBRANCH   1   3
BRANCH   1  11
ATOM     11  C   UNL     1      13.142  23.302  57.318  1.00  0.00     0.087 C 
BRANCH  11  12
ATOM     12  C   UNL     1      14.404  22.478  56.939  1.00  0.00     0.066 C 
BRANCH  12  13
ATOM     13  C   UNL     1      15.493  23.356  56.350  1.00  0.00     0.140 C 
ATOM     14  O   UNL     1      16.350  23.833  57.078  1.00  0.00    -0.299 OA
BRANCH  13  15
ATOM     15  C   UNL     1      15.510  23.698  54.876  1.00  0.00     0.106 CG0
ATOM     16  G   UNL     1      15.064  25.132  54.669  1.00  0.00     0.000 G0
ENDBRANCH  13  15
ENDBRANCH  12  13
BRANCH  12  17
ATOM     17  C   UNL     1      14.944  21.571  58.093  1.00  0.00    -0.006 C 
ATOM     18  C   UNL     1      14.614  20.089  57.843  1.00  0.00     0.008 C 
ATOM     19  C   UNL     1      14.469  21.969  59.503  1.00  0.00     0.008 C 
ENDBRANCH  12  17
ENDBRANCH  11  12
ENDBRANCH   1  11
TORSDOF 1
ENDMDL
MODEL 9
REMARK VINA RESULT:    -3.249      2.248      5.236
REMARK INTER + INTRA:          -5.053
REMARK INTER:                  -5.097
REMARK INTRA:                   0.044
REMARK UNBOUND:                -0.095
REMARK SMILES CC1=CCC[C@@H](C)C(=O)C[C@H](C(C)C)C(=O)C1
REMARK SMILES IDX 8 1 9 2 6 3 7 4 5 5 4 6 3 7 2 8 1 9 10 11 11 12 15 13 16 14
REMARK SMILES IDX 17 15 12 17 13 18 14 19
REMARK H PARENT
REMARK Flexibility Score: 70.00
ROOT
ATOM      1  C   UNL     1      12.583  22.472  56.932  1.00  0.00     0.136 C 
ATOM      2  O   UNL     1      12.349  23.579  56.468  1.00  0.00    -0.299 OA
ENDROOT
BRANCH   1   3
ATOM      3  C   UNL     1      11.854  22.058  58.203  1.00  0.00     0.053 C 
ATOM      4  C   UNL     1      10.348  22.331  58.079  1.00  0.00     0.016 C 
BRANCH   3   5
ATOM      5  C   UNL     1      12.434  22.724  59.474  1.00  0.00     0.015 C 
BRANCH   5   6
ATOM      6  C   UNL     1      13.555  21.940  60.190  1.00  0.00     0.028 C 
BRANCH   6   7
ATOM      7  C   UNL     1      14.940  22.547  60.157  1.00  0.00    -0.028 C 
ATOM      8  C   UNL     1      15.894  22.322  59.222  1.00  0.00    -0.070 CG0
ATOM      9  C   UNL     1      17.150  23.155  59.285  1.00  0.00     0.039 C 
ATOM     10  G   UNL     1      15.799  21.243  58.162  1.00  0.00     0.000 G0
ENDBRANCH   6   7
ENDBRANCH   5   6
ENDBRANCH   3   5
ENDBRANCH   1   3
BRANCH   1  11
ATOM     11  C   UNL     1      13.612  21.604  56.224  1.00  0.00     0.087 C 
BRANCH  11  12
ATOM     12  C   UNL     1      14.950  22.330  55.911  1.00  0.00     0.066 C 
BRANCH  12  13
ATOM     13  C   UNL     1      16.079  21.831  56.794  1.00  0.00     0.140 C 
ATOM     14  O   UNL     1      17.231  21.871  56.389  1.00  0.00    -0.299 OA
BRANCH  13  15
ATOM     15  C   UNL     1      15.801  21.235  58.157  1.00  0.00     0.106 CG0
ATOM     16  G   UNL     1      15.890  22.308  59.223  1.00  0.00     0.000 G0
ENDBRANCH  13  15
ENDBRANCH  12  13
BRANCH  12  17
ATOM     17  C   UNL     1      15.342  22.318  54.397  1.00  0.00    -0.006 C 
ATOM     18  C   UNL     1      14.397  23.201  53.565  1.00  0.00     0.008 C 
ATOM     19  C   UNL     1      15.424  20.917  53.761  1.00  0.00     0.008 C 
ENDBRANCH  12  17
ENDBRANCH  11  12
ENDBRANCH   1  11
TORSDOF 1
ENDMDL
