MODEL 1
REMARK VINA RESULT:     3.935      0.000      0.000
REMARK INTER + INTRA:           8.361
REMARK INTER:                   7.156
REMARK INTRA:                   1.205
REMARK UNBOUND:                 1.205
REMARK SMILES CCCCCCCCCCCCCCCC(=O)[O-]
REMARK SMILES IDX 9 1 10 2 11 3 12 4 13 5 14 6 15 7 16 8 17 9 18 10 8 11 7 12
REMARK SMILES IDX 6 13 5 14 4 15 3 16 2 17 1 18
REMARK H PARENT
REMARK Flexibility Score: inf
ROOT
ATOM      1  C   UNL     1      69.288  75.883  97.396  1.00  0.00     0.000 C 
ENDROOT
BRANCH   1   2
ATOM      2  C   UNL     1      68.578  76.706  98.481  1.00  0.00     0.000 C 
BRANCH   2   3
ATOM      3  C   UNL     1      67.875  77.955  97.921  1.00  0.00     0.000 C 
BRANCH   3   4
ATOM      4  C   UNL     1      68.701  79.257  97.992  1.00  0.00     0.000 C 
BRANCH   4   5
ATOM      5  C   UNL     1      69.093  79.704  99.412  1.00  0.00     0.000 C 
BRANCH   5   6
ATOM      6  C   UNL     1      67.876  79.988 100.305  1.00  0.00     0.006 C 
BRANCH   6   7
ATOM      7  C   UNL     1      68.235  79.832 101.786  1.00  0.00     0.053 C 
BRANCH   7   8
ATOM      8  C   UNL     1      68.942  78.534 102.019  1.00  0.00     0.041 C 
ATOM      9  O   UNL     1      69.835  78.147 101.219  1.00  0.00    -0.550 OA
ATOM     10  O   UNL     1      68.649  77.774 103.144  1.00  0.00    -0.550 OA
ENDBRANCH   7   8
ENDBRANCH   6   7
ENDBRANCH   5   6
ENDBRANCH   4   5
ENDBRANCH   3   4
ENDBRANCH   2   3
ENDBRANCH   1   2
BRANCH   1  11
ATOM     11  C   UNL     1      68.392  75.718  96.159  1.00  0.00     0.000 C 
BRANCH  11  12
ATOM     12  C   UNL     1      68.151  77.044  95.419  1.00  0.00    -0.000 C 
BRANCH  12  13
ATOM     13  C   UNL     1      67.875  76.842  93.919  1.00  0.00    -0.000 C 
BRANCH  13  14
ATOM     14  C   UNL     1      68.657  75.656  93.330  1.00  0.00    -0.000 C 
BRANCH  14  15
ATOM     15  C   UNL     1      69.019  75.865  91.849  1.00  0.00    -0.000 C 
BRANCH  15  16
ATOM     16  C   UNL     1      68.128  75.044  90.902  1.00  0.00    -0.000 C 
BRANCH  16  17
ATOM     17  C   UNL     1      68.250  73.531  91.135  1.00  0.00    -0.003 C 
ATOM     18  C   UNL     1      69.702  73.075  91.030  1.00  0.00     0.004 C 
ENDBRANCH  16  17
ENDBRANCH  15  16
ENDBRANCH  14  15
ENDBRANCH  13  14
ENDBRANCH  12  13
ENDBRANCH  11  12
ENDBRANCH   1  11
TORSDOF 14
ENDMDL
