MODEL 1
REMARK VINA RESULT:    -4.661      0.000      0.000
REMARK INTER + INTRA:          -5.676
REMARK INTER:                  -5.614
REMARK INTRA:                  -0.062
REMARK UNBOUND:                -0.062
REMARK SMILES O=c1c(O)c(-c2ccc(O)c(O)c2)oc2cc(O)cc(O)c12
REMARK SMILES IDX 5 1 3 2 2 3 1 4 22 5 20 6 19 7 17 8 16 9 15 10 14 11 6 12
REMARK SMILES IDX 7 13 8 14 9 15 13 16 11 17 10 18 12 20 4 22 21 24 18 26
REMARK H PARENT 10 19 12 21 4 23 21 25 18 27
REMARK Flexibility Score: inf
ROOT
ATOM      1  C   UNL     1      -4.984 -18.388  -6.444  1.00  0.00     0.180 A 
ATOM      2  C   UNL     1      -6.138 -17.672  -6.080  1.00  0.00     0.208 A 
ATOM      3  C   UNL     1      -7.165 -17.509  -7.023  1.00  0.00     0.238 A 
ATOM      4  O   UNL     1      -8.225 -16.931  -6.667  1.00  0.00    -0.285 OA
ATOM      5  C   UNL     1      -7.004 -18.016  -8.335  1.00  0.00     0.111 A 
ATOM      6  C   UNL     1      -7.960 -17.870  -9.386  1.00  0.00     0.134 A 
ATOM      7  C   UNL     1      -7.739 -18.506 -10.614  1.00  0.00     0.093 A 
ATOM      8  C   UNL     1      -6.568 -19.228 -10.851  1.00  0.00     0.123 A 
ATOM      9  C   UNL     1      -5.603 -19.330  -9.852  1.00  0.00     0.094 A 
ATOM     10  C   UNL     1      -5.812 -18.739  -8.604  1.00  0.00     0.146 A 
ATOM     11  O   UNL     1      -4.875 -18.880  -7.672  1.00  0.00    -0.452 OA
ENDROOT
BRANCH   1  12
ATOM     12  C   UNL     1      -3.865 -18.614  -5.501  1.00  0.00     0.025 A 
ATOM     13  C   UNL     1      -3.402 -19.908  -5.210  1.00  0.00     0.016 A 
ATOM     14  C   UNL     1      -2.330 -20.095  -4.335  1.00  0.00     0.051 A 
ATOM     15  C   UNL     1      -1.694 -18.992  -3.748  1.00  0.00     0.157 A 
ATOM     16  C   UNL     1      -3.212 -17.510  -4.928  1.00  0.00     0.062 A 
ATOM     17  C   UNL     1      -2.138 -17.693  -4.050  1.00  0.00     0.158 A 
BRANCH  15  18
ATOM     18  O   UNL     1      -0.625 -19.182  -2.875  1.00  0.00    -0.504 OA
ATOM     19  H   UNL     1      -0.077 -18.403  -2.530  1.00  0.00     0.293 HD
ENDBRANCH  15  18
BRANCH  17  20
ATOM     20  O   UNL     1      -1.524 -16.574  -3.489  1.00  0.00    -0.504 OA
ATOM     21  H   UNL     1      -0.742 -16.108  -3.935  1.00  0.00     0.293 HD
ENDBRANCH  17  20
ENDBRANCH   1  12
BRANCH   2  22
ATOM     22  O   UNL     1      -6.245 -17.113  -4.802  1.00  0.00    -0.502 OA
ATOM     23  H   UNL     1      -5.547 -16.484  -4.424  1.00  0.00     0.293 HD
ENDBRANCH   2  22
BRANCH   6  24
ATOM     24  O   UNL     1      -9.122 -17.098  -9.285  1.00  0.00    -0.507 OA
ATOM     25  H   UNL     1      -9.459 -16.466  -9.995  1.00  0.00     0.293 HD
ENDBRANCH   6  24
BRANCH   8  26
ATOM     26  O   UNL     1      -6.348 -19.843 -12.083  1.00  0.00    -0.508 OA
ATOM     27  H   UNL     1      -6.380 -19.319 -12.949  1.00  0.00     0.293 HD
ENDBRANCH   8  26
TORSDOF 6
ENDMDL
MODEL 2
REMARK VINA RESULT:    -4.470      2.079      7.067
REMARK INTER + INTRA:          -5.446
REMARK INTER:                  -5.118
REMARK INTRA:                  -0.328
REMARK UNBOUND:                -0.062
REMARK SMILES O=c1c(O)c(-c2ccc(O)c(O)c2)oc2cc(O)cc(O)c12
REMARK SMILES IDX 5 1 3 2 2 3 1 4 22 5 20 6 19 7 17 8 16 9 15 10 14 11 6 12
REMARK SMILES IDX 7 13 8 14 9 15 13 16 11 17 10 18 12 20 4 22 21 24 18 26
REMARK H PARENT 10 19 12 21 4 23 21 25 18 27
REMARK Flexibility Score: inf
ROOT
ATOM      1  C   UNL     1      -6.078 -17.935  -7.267  1.00  0.00     0.180 A 
ATOM      2  C   UNL     1      -4.778 -18.381  -6.972  1.00  0.00     0.208 A 
ATOM      3  C   UNL     1      -4.103 -17.833  -5.869  1.00  0.00     0.238 A 
ATOM      4  O   UNL     1      -2.969 -18.290  -5.569  1.00  0.00    -0.285 OA
ATOM      5  C   UNL     1      -4.714 -16.809  -5.106  1.00  0.00     0.111 A 
ATOM      6  C   UNL     1      -4.105 -16.151  -3.995  1.00  0.00     0.134 A 
ATOM      7  C   UNL     1      -4.847 -15.226  -3.250  1.00  0.00     0.093 A 
ATOM      8  C   UNL     1      -6.152 -14.888  -3.614  1.00  0.00     0.123 A 
ATOM      9  C   UNL     1      -6.736 -15.483  -4.729  1.00  0.00     0.094 A 
ATOM     10  C   UNL     1      -6.036 -16.438  -5.470  1.00  0.00     0.146 A 
ATOM     11  O   UNL     1      -6.638 -16.996  -6.513  1.00  0.00    -0.452 OA
ENDROOT
BRANCH   1  12
ATOM     12  C   UNL     1      -6.859 -18.474  -8.403  1.00  0.00     0.025 A 
ATOM     13  C   UNL     1      -7.621 -19.648  -8.277  1.00  0.00     0.016 A 
ATOM     14  C   UNL     1      -8.368 -20.125  -9.357  1.00  0.00     0.051 A 
ATOM     15  C   UNL     1      -8.376 -19.429 -10.574  1.00  0.00     0.157 A 
ATOM     16  C   UNL     1      -6.886 -17.769  -9.617  1.00  0.00     0.062 A 
ATOM     17  C   UNL     1      -7.633 -18.244 -10.702  1.00  0.00     0.158 A 
BRANCH  15  18
ATOM     18  O   UNL     1      -9.122 -19.908 -11.650  1.00  0.00    -0.504 OA
ATOM     19  H   UNL     1      -9.214 -19.378 -12.508  1.00  0.00     0.293 HD
ENDBRANCH  15  18
BRANCH  17  20
ATOM     20  O   UNL     1      -7.625 -17.524 -11.897  1.00  0.00    -0.504 OA
ATOM     21  H   UNL     1      -6.780 -17.392 -12.440  1.00  0.00     0.293 HD
ENDBRANCH  17  20
ENDBRANCH   1  12
BRANCH   2  22
ATOM     22  O   UNL     1      -4.162 -19.339  -7.784  1.00  0.00    -0.502 OA
ATOM     23  H   UNL     1      -4.289 -19.363  -8.788  1.00  0.00     0.293 HD
ENDBRANCH   2  22
BRANCH   6  24
ATOM     24  O   UNL     1      -2.779 -16.348  -3.598  1.00  0.00    -0.507 OA
ATOM     25  H   UNL     1      -2.003 -16.490  -4.226  1.00  0.00     0.293 HD
ENDBRANCH   6  24
BRANCH   8  26
ATOM     26  O   UNL     1      -6.877 -13.953  -2.876  1.00  0.00    -0.508 OA
ATOM     27  H   UNL     1      -7.351 -13.177  -3.324  1.00  0.00     0.293 HD
ENDBRANCH   8  26
TORSDOF 6
ENDMDL
MODEL 3
REMARK VINA RESULT:    -4.184      1.547      6.833
REMARK INTER + INTRA:          -5.102
REMARK INTER:                  -4.829
REMARK INTRA:                  -0.272
REMARK UNBOUND:                -0.062
REMARK SMILES O=c1c(O)c(-c2ccc(O)c(O)c2)oc2cc(O)cc(O)c12
REMARK SMILES IDX 5 1 3 2 2 3 1 4 22 5 20 6 19 7 17 8 16 9 15 10 14 11 6 12
REMARK SMILES IDX 7 13 8 14 9 15 13 16 11 17 10 18 12 20 4 22 21 24 18 26
REMARK H PARENT 10 19 12 21 4 23 21 25 18 27
REMARK Flexibility Score: inf
ROOT
ATOM      1  C   UNL     1      -4.935 -18.036  -6.334  1.00  0.00     0.180 A 
ATOM      2  C   UNL     1      -4.908 -16.669  -6.009  1.00  0.00     0.208 A 
ATOM      3  C   UNL     1      -3.967 -16.208  -5.073  1.00  0.00     0.238 A 
ATOM      4  O   UNL     1      -3.901 -14.973  -4.843  1.00  0.00    -0.285 OA
ATOM      5  C   UNL     1      -3.101 -17.127  -4.434  1.00  0.00     0.111 A 
ATOM      6  C   UNL     1      -2.140 -16.779  -3.437  1.00  0.00     0.134 A 
ATOM      7  C   UNL     1      -1.264 -17.758  -2.951  1.00  0.00     0.093 A 
ATOM      8  C   UNL     1      -1.357 -19.084  -3.378  1.00  0.00     0.123 A 
ATOM      9  C   UNL     1      -2.328 -19.446  -4.308  1.00  0.00     0.094 A 
ATOM     10  C   UNL     1      -3.191 -18.485  -4.840  1.00  0.00     0.146 A 
ATOM     11  O   UNL     1      -4.087 -18.869  -5.741  1.00  0.00    -0.452 OA
ENDROOT
BRANCH   1  12
ATOM     12  C   UNL     1      -5.887 -18.594  -7.320  1.00  0.00     0.025 A 
ATOM     13  C   UNL     1      -7.240 -18.796  -6.999  1.00  0.00     0.016 A 
ATOM     14  C   UNL     1      -8.125 -19.303  -7.954  1.00  0.00     0.051 A 
ATOM     15  C   UNL     1      -7.675 -19.600  -9.248  1.00  0.00     0.157 A 
ATOM     16  C   UNL     1      -5.445 -18.874  -8.624  1.00  0.00     0.062 A 
ATOM     17  C   UNL     1      -6.328 -19.381  -9.583  1.00  0.00     0.158 A 
BRANCH  15  18
ATOM     18  O   UNL     1      -8.560 -20.106 -10.198  1.00  0.00    -0.504 OA
ATOM     19  H   UNL     1      -8.266 -20.299 -11.148  1.00  0.00     0.293 HD
ENDBRANCH  15  18
BRANCH  17  20
ATOM     20  O   UNL     1      -5.850 -19.660 -10.863  1.00  0.00    -0.504 OA
ATOM     21  H   UNL     1      -5.861 -20.597 -11.250  1.00  0.00     0.293 HD
ENDBRANCH  17  20
ENDBRANCH   1  12
BRANCH   2  22
ATOM     22  O   UNL     1      -5.823 -15.788  -6.595  1.00  0.00    -0.502 OA
ATOM     23  H   UNL     1      -5.543 -15.071  -7.252  1.00  0.00     0.293 HD
ENDBRANCH   2  22
BRANCH   6  24
ATOM     24  O   UNL     1      -2.019 -15.504  -2.877  1.00  0.00    -0.507 OA
ATOM     25  H   UNL     1      -2.430 -15.216  -2.002  1.00  0.00     0.293 HD
ENDBRANCH   6  24
BRANCH   8  26
ATOM     26  O   UNL     1      -0.492 -20.056  -2.875  1.00  0.00    -0.508 OA
ATOM     27  H   UNL     1       0.483 -20.087  -3.146  1.00  0.00     0.293 HD
ENDBRANCH   8  26
TORSDOF 6
ENDMDL
MODEL 4
REMARK VINA RESULT:    -3.869      1.606      6.605
REMARK INTER + INTRA:          -4.723
REMARK INTER:                  -4.967
REMARK INTRA:                   0.245
REMARK UNBOUND:                -0.062
REMARK SMILES O=c1c(O)c(-c2ccc(O)c(O)c2)oc2cc(O)cc(O)c12
REMARK SMILES IDX 5 1 3 2 2 3 1 4 22 5 20 6 19 7 17 8 16 9 15 10 14 11 6 12
REMARK SMILES IDX 7 13 8 14 9 15 13 16 11 17 10 18 12 20 4 22 21 24 18 26
REMARK H PARENT 10 19 12 21 4 23 21 25 18 27
REMARK Flexibility Score: inf
ROOT
ATOM      1  C   UNL     1      -5.971 -17.472  -7.398  1.00  0.00     0.180 A 
ATOM      2  C   UNL     1      -6.957 -16.660  -6.810  1.00  0.00     0.208 A 
ATOM      3  C   UNL     1      -6.676 -16.020  -5.593  1.00  0.00     0.238 A 
ATOM      4  O   UNL     1      -7.537 -15.237  -5.111  1.00  0.00    -0.285 OA
ATOM      5  C   UNL     1      -5.435 -16.241  -4.949  1.00  0.00     0.111 A 
ATOM      6  C   UNL     1      -5.061 -15.680  -3.691  1.00  0.00     0.134 A 
ATOM      7  C   UNL     1      -3.764 -15.884  -3.202  1.00  0.00     0.093 A 
ATOM      8  C   UNL     1      -2.850 -16.681  -3.894  1.00  0.00     0.123 A 
ATOM      9  C   UNL     1      -3.224 -17.279  -5.095  1.00  0.00     0.094 A 
ATOM     10  C   UNL     1      -4.497 -17.063  -5.628  1.00  0.00     0.146 A 
ATOM     11  O   UNL     1      -4.804 -17.634  -6.787  1.00  0.00    -0.452 OA
ENDROOT
BRANCH   1  12
ATOM     12  C   UNL     1      -6.187 -18.168  -8.686  1.00  0.00     0.025 A 
ATOM     13  C   UNL     1      -5.683 -19.460  -8.914  1.00  0.00     0.016 A 
ATOM     14  C   UNL     1      -5.920 -20.106 -10.130  1.00  0.00     0.051 A 
ATOM     15  C   UNL     1      -6.675 -19.478 -11.130  1.00  0.00     0.157 A 
ATOM     16  C   UNL     1      -6.961 -17.551  -9.682  1.00  0.00     0.062 A 
ATOM     17  C   UNL     1      -7.200 -18.195 -10.902  1.00  0.00     0.158 A 
BRANCH  15  18
ATOM     18  O   UNL     1      -6.909 -20.125 -12.342  1.00  0.00    -0.504 OA
ATOM     19  H   UNL     1      -7.735 -19.932 -12.896  1.00  0.00     0.293 HD
ENDBRANCH  15  18
BRANCH  17  20
ATOM     20  O   UNL     1      -7.962 -17.545 -11.873  1.00  0.00    -0.504 OA
ATOM     21  H   UNL     1      -7.539 -17.100 -12.680  1.00  0.00     0.293 HD
ENDBRANCH  17  20
ENDBRANCH   1  12
BRANCH   2  22
ATOM     22  O   UNL     1      -8.206 -16.515  -7.424  1.00  0.00    -0.502 OA
ATOM     23  H   UNL     1      -8.542 -15.624  -7.768  1.00  0.00     0.293 HD
ENDBRANCH   2  22
BRANCH   6  24
ATOM     24  O   UNL     1      -5.923 -14.940  -2.875  1.00  0.00    -0.507 OA
ATOM     25  H   UNL     1      -6.727 -14.427  -3.201  1.00  0.00     0.293 HD
ENDBRANCH   6  24
BRANCH   8  26
ATOM     26  O   UNL     1      -1.567 -16.893  -3.391  1.00  0.00    -0.508 OA
ATOM     27  H   UNL     1      -0.874 -16.156  -3.383  1.00  0.00     0.293 HD
ENDBRANCH   8  26
TORSDOF 6
ENDMDL
MODEL 5
REMARK VINA RESULT:    -3.832     16.001     18.178
REMARK INTER + INTRA:          -4.679
REMARK INTER:                  -4.385
REMARK INTRA:                  -0.293
REMARK UNBOUND:                -0.062
REMARK SMILES O=c1c(O)c(-c2ccc(O)c(O)c2)oc2cc(O)cc(O)c12
REMARK SMILES IDX 5 1 3 2 2 3 1 4 22 5 20 6 19 7 17 8 16 9 15 10 14 11 6 12
REMARK SMILES IDX 7 13 8 14 9 15 13 16 11 17 10 18 12 20 4 22 21 24 18 26
REMARK H PARENT 10 19 12 21 4 23 21 25 18 27
REMARK Flexibility Score: inf
ROOT
ATOM      1  C   UNL     1      -7.103  -1.344  -8.038  1.00  0.00     0.180 A 
ATOM      2  C   UNL     1      -7.840  -0.683  -7.040  1.00  0.00     0.208 A 
ATOM      3  C   UNL     1      -7.275  -0.532  -5.763  1.00  0.00     0.238 A 
ATOM      4  O   UNL     1      -7.909   0.125  -4.897  1.00  0.00    -0.285 OA
ATOM      5  C   UNL     1      -6.005  -1.092  -5.483  1.00  0.00     0.111 A 
ATOM      6  C   UNL     1      -5.356  -1.039  -4.212  1.00  0.00     0.134 A 
ATOM      7  C   UNL     1      -4.053  -1.535  -4.081  1.00  0.00     0.093 A 
ATOM      8  C   UNL     1      -3.401  -2.140  -5.158  1.00  0.00     0.123 A 
ATOM      9  C   UNL     1      -4.046  -2.246  -6.387  1.00  0.00     0.094 A 
ATOM     10  C   UNL     1      -5.331  -1.726  -6.560  1.00  0.00     0.146 A 
ATOM     11  O   UNL     1      -5.900  -1.830  -7.755  1.00  0.00    -0.452 OA
ENDROOT
BRANCH   1  12
ATOM     12  C   UNL     1      -7.625  -1.529  -9.411  1.00  0.00     0.025 A 
ATOM     13  C   UNL     1      -7.623  -0.477 -10.343  1.00  0.00     0.016 A 
ATOM     14  C   UNL     1      -8.099  -0.683 -11.640  1.00  0.00     0.051 A 
ATOM     15  C   UNL     1      -8.570  -1.944 -12.031  1.00  0.00     0.157 A 
ATOM     16  C   UNL     1      -8.077  -2.797  -9.812  1.00  0.00     0.062 A 
ATOM     17  C   UNL     1      -8.555  -3.006 -11.111  1.00  0.00     0.158 A 
BRANCH  15  18
ATOM     18  O   UNL     1      -9.044  -2.145 -13.325  1.00  0.00    -0.504 OA
ATOM     19  H   UNL     1      -8.670  -2.875 -13.920  1.00  0.00     0.293 HD
ENDBRANCH  15  18
BRANCH  17  20
ATOM     20  O   UNL     1      -9.009  -4.275 -11.469  1.00  0.00    -0.504 OA
ATOM     21  H   UNL     1      -9.975  -4.556 -11.346  1.00  0.00     0.293 HD
ENDBRANCH  17  20
ENDBRANCH   1  12
BRANCH   2  22
ATOM     22  O   UNL     1      -9.125  -0.204  -7.314  1.00  0.00    -0.502 OA
ATOM     23  H   UNL     1      -9.291   0.720  -7.693  1.00  0.00     0.293 HD
ENDBRANCH   2  22
BRANCH   6  24
ATOM     24  O   UNL     1      -5.950  -0.537  -3.050  1.00  0.00    -0.507 OA
ATOM     25  H   UNL     1      -6.841  -0.067  -3.013  1.00  0.00     0.293 HD
ENDBRANCH   6  24
BRANCH   8  26
ATOM     26  O   UNL     1      -2.110  -2.647  -5.013  1.00  0.00    -0.508 OA
ATOM     27  H   UNL     1      -1.608  -3.049  -5.796  1.00  0.00     0.293 HD
ENDBRANCH   8  26
TORSDOF 6
ENDMDL
MODEL 6
REMARK VINA RESULT:    -3.206      1.624      2.053
REMARK INTER + INTRA:          -3.924
REMARK INTER:                  -3.639
REMARK INTRA:                  -0.285
REMARK UNBOUND:                -0.062
REMARK SMILES O=c1c(O)c(-c2ccc(O)c(O)c2)oc2cc(O)cc(O)c12
REMARK SMILES IDX 5 1 3 2 2 3 1 4 22 5 20 6 19 7 17 8 16 9 15 10 14 11 6 12
REMARK SMILES IDX 7 13 8 14 9 15 13 16 11 17 10 18 12 20 4 22 21 24 18 26
REMARK H PARENT 10 19 12 21 4 23 21 25 18 27
REMARK Flexibility Score: inf
ROOT
ATOM      1  C   UNL     1      -5.433 -18.000  -6.620  1.00  0.00     0.180 A 
ATOM      2  C   UNL     1      -6.786 -18.263  -6.342  1.00  0.00     0.208 A 
ATOM      3  C   UNL     1      -7.578 -18.872  -7.329  1.00  0.00     0.238 A 
ATOM      4  O   UNL     1      -8.768 -19.171  -7.047  1.00  0.00    -0.285 OA
ATOM      5  C   UNL     1      -7.024 -19.160  -8.599  1.00  0.00     0.111 A 
ATOM      6  C   UNL     1      -7.746 -19.735  -9.689  1.00  0.00     0.134 A 
ATOM      7  C   UNL     1      -7.066 -20.074 -10.866  1.00  0.00     0.093 A 
ATOM      8  C   UNL     1      -5.705 -19.800 -11.016  1.00  0.00     0.123 A 
ATOM      9  C   UNL     1      -5.003 -19.189  -9.979  1.00  0.00     0.094 A 
ATOM     10  C   UNL     1      -5.645 -18.874  -8.779  1.00  0.00     0.146 A 
ATOM     11  O   UNL     1      -4.933 -18.312  -7.809  1.00  0.00    -0.452 OA
ENDROOT
BRANCH   1  12
ATOM     12  C   UNL     1      -4.532 -17.375  -5.626  1.00  0.00     0.025 A 
ATOM     13  C   UNL     1      -3.590 -18.135  -4.911  1.00  0.00     0.016 A 
ATOM     14  C   UNL     1      -2.734 -17.518  -3.996  1.00  0.00     0.051 A 
ATOM     15  C   UNL     1      -2.795 -16.133  -3.791  1.00  0.00     0.157 A 
ATOM     16  C   UNL     1      -4.575 -15.984  -5.434  1.00  0.00     0.062 A 
ATOM     17  C   UNL     1      -3.719 -15.363  -4.517  1.00  0.00     0.158 A 
BRANCH  15  18
ATOM     18  O   UNL     1      -1.939 -15.521  -2.876  1.00  0.00    -0.504 OA
ATOM     19  H   UNL     1      -1.339 -14.751  -3.145  1.00  0.00     0.293 HD
ENDBRANCH  15  18
BRANCH  17  20
ATOM     20  O   UNL     1      -3.801 -13.982  -4.342  1.00  0.00    -0.504 OA
ATOM     21  H   UNL     1      -4.125 -13.567  -3.476  1.00  0.00     0.293 HD
ENDBRANCH  17  20
ENDBRANCH   1  12
BRANCH   2  22
ATOM     22  O   UNL     1      -7.335 -17.901  -5.108  1.00  0.00    -0.502 OA
ATOM     23  H   UNL     1      -7.384 -16.939  -4.796  1.00  0.00     0.293 HD
ENDBRANCH   2  22
BRANCH   6  24
ATOM     24  O   UNL     1      -9.125 -19.969  -9.679  1.00  0.00    -0.507 OA
ATOM     25  H   UNL     1      -9.690 -20.128 -10.499  1.00  0.00     0.293 HD
ENDBRANCH   6  24
BRANCH   8  26
ATOM     26  O   UNL     1      -5.040 -20.125 -12.197  1.00  0.00    -0.508 OA
ATOM     27  H   UNL     1      -4.286 -19.552 -12.555  1.00  0.00     0.293 HD
ENDBRANCH   8  26
TORSDOF 6
ENDMDL
MODEL 7
REMARK VINA RESULT:    -3.068      1.535      2.337
REMARK INTER + INTRA:          -3.758
REMARK INTER:                  -3.551
REMARK INTRA:                  -0.207
REMARK UNBOUND:                -0.062
REMARK SMILES O=c1c(O)c(-c2ccc(O)c(O)c2)oc2cc(O)cc(O)c12
REMARK SMILES IDX 5 1 3 2 2 3 1 4 22 5 20 6 19 7 17 8 16 9 15 10 14 11 6 12
REMARK SMILES IDX 7 13 8 14 9 15 13 16 11 17 10 18 12 20 4 22 21 24 18 26
REMARK H PARENT 10 19 12 21 4 23 21 25 18 27
REMARK Flexibility Score: inf
ROOT
ATOM      1  C   UNL     1      -5.208 -17.252  -6.235  1.00  0.00     0.180 A 
ATOM      2  C   UNL     1      -6.550 -17.427  -5.855  1.00  0.00     0.208 A 
ATOM      3  C   UNL     1      -7.415 -18.129  -6.710  1.00  0.00     0.238 A 
ATOM      4  O   UNL     1      -8.595 -18.345  -6.329  1.00  0.00    -0.285 OA
ATOM      5  C   UNL     1      -6.943 -18.600  -7.959  1.00  0.00     0.111 A 
ATOM      6  C   UNL     1      -7.743 -19.284  -8.924  1.00  0.00     0.134 A 
ATOM      7  C   UNL     1      -7.141 -19.797 -10.080  1.00  0.00     0.093 A 
ATOM      8  C   UNL     1      -5.783 -19.596 -10.336  1.00  0.00     0.123 A 
ATOM      9  C   UNL     1      -5.006 -18.881  -9.428  1.00  0.00     0.094 A 
ATOM     10  C   UNL     1      -5.569 -18.390  -8.247  1.00  0.00     0.146 A 
ATOM     11  O   UNL     1      -4.786 -17.734  -7.398  1.00  0.00    -0.452 OA
ENDROOT
BRANCH   1  12
ATOM     12  C   UNL     1      -4.233 -16.537  -5.382  1.00  0.00     0.025 A 
ATOM     13  C   UNL     1      -4.333 -15.153  -5.157  1.00  0.00     0.016 A 
ATOM     14  C   UNL     1      -3.414 -14.504  -4.329  1.00  0.00     0.051 A 
ATOM     15  C   UNL     1      -2.392 -15.229  -3.700  1.00  0.00     0.157 A 
ATOM     16  C   UNL     1      -3.221 -17.263  -4.733  1.00  0.00     0.062 A 
ATOM     17  C   UNL     1      -2.298 -16.616  -3.903  1.00  0.00     0.158 A 
BRANCH  15  18
ATOM     18  O   UNL     1      -1.477 -14.578  -2.875  1.00  0.00    -0.504 OA
ATOM     19  H   UNL     1      -1.741 -14.229  -1.962  1.00  0.00     0.293 HD
ENDBRANCH  15  18
BRANCH  17  20
ATOM     20  O   UNL     1      -1.298 -17.368  -3.287  1.00  0.00    -0.504 OA
ATOM     21  H   UNL     1      -1.087 -18.317  -3.571  1.00  0.00     0.293 HD
ENDBRANCH  17  20
ENDBRANCH   1  12
BRANCH   2  22
ATOM     22  O   UNL     1      -7.016 -16.888  -4.652  1.00  0.00    -0.502 OA
ATOM     23  H   UNL     1      -7.782 -17.300  -4.132  1.00  0.00     0.293 HD
ENDBRANCH   2  22
BRANCH   6  24
ATOM     24  O   UNL     1      -9.125 -19.465  -8.810  1.00  0.00    -0.507 OA
ATOM     25  H   UNL     1      -9.701 -19.948  -9.482  1.00  0.00     0.293 HD
ENDBRANCH   6  24
BRANCH   8  26
ATOM     26  O   UNL     1      -5.197 -20.095 -11.498  1.00  0.00    -0.508 OA
ATOM     27  H   UNL     1      -5.326 -21.058 -11.784  1.00  0.00     0.293 HD
ENDBRANCH   8  26
TORSDOF 6
ENDMDL
MODEL 8
REMARK VINA RESULT:    -2.904      2.224      6.852
REMARK INTER + INTRA:          -3.561
REMARK INTER:                  -3.257
REMARK INTRA:                  -0.304
REMARK UNBOUND:                -0.062
REMARK SMILES O=c1c(O)c(-c2ccc(O)c(O)c2)oc2cc(O)cc(O)c12
REMARK SMILES IDX 5 1 3 2 2 3 1 4 22 5 20 6 19 7 17 8 16 9 15 10 14 11 6 12
REMARK SMILES IDX 7 13 8 14 9 15 13 16 11 17 10 18 12 20 4 22 21 24 18 26
REMARK H PARENT 10 19 12 21 4 23 21 25 18 27
REMARK Flexibility Score: inf
ROOT
ATOM      1  C   UNL     1      -6.334 -18.164  -7.461  1.00  0.00     0.180 A 
ATOM      2  C   UNL     1      -6.408 -18.917  -6.276  1.00  0.00     0.208 A 
ATOM      3  C   UNL     1      -5.744 -18.452  -5.130  1.00  0.00     0.238 A 
ATOM      4  O   UNL     1      -5.876 -19.093  -4.055  1.00  0.00    -0.285 OA
ATOM      5  C   UNL     1      -4.970 -17.268  -5.195  1.00  0.00     0.111 A 
ATOM      6  C   UNL     1      -4.219 -16.728  -4.107  1.00  0.00     0.134 A 
ATOM      7  C   UNL     1      -3.576 -15.493  -4.259  1.00  0.00     0.093 A 
ATOM      8  C   UNL     1      -3.604 -14.810  -5.477  1.00  0.00     0.123 A 
ATOM      9  C   UNL     1      -4.287 -15.356  -6.561  1.00  0.00     0.094 A 
ATOM     10  C   UNL     1      -4.970 -16.567  -6.430  1.00  0.00     0.146 A 
ATOM     11  O   UNL     1      -5.627 -17.040  -7.482  1.00  0.00    -0.452 OA
ENDROOT
BRANCH   1  12
ATOM     12  C   UNL     1      -7.018 -18.581  -8.705  1.00  0.00     0.025 A 
ATOM     13  C   UNL     1      -8.396 -18.371  -8.890  1.00  0.00     0.016 A 
ATOM     14  C   UNL     1      -9.014 -18.753 -10.083  1.00  0.00     0.051 A 
ATOM     15  C   UNL     1      -8.265 -19.336 -11.114  1.00  0.00     0.157 A 
ATOM     16  C   UNL     1      -6.267 -19.146  -9.749  1.00  0.00     0.062 A 
ATOM     17  C   UNL     1      -6.884 -19.530 -10.946  1.00  0.00     0.158 A 
BRANCH  15  18
ATOM     18  O   UNL     1      -8.886 -19.716 -12.302  1.00  0.00    -0.504 OA
ATOM     19  H   UNL     1      -9.840 -19.448 -12.512  1.00  0.00     0.293 HD
ENDBRANCH  15  18
BRANCH  17  20
ATOM     20  O   UNL     1      -6.109 -20.101 -11.954  1.00  0.00    -0.504 OA
ATOM     21  H   UNL     1      -5.988 -19.658 -12.857  1.00  0.00     0.293 HD
ENDBRANCH  17  20
ENDBRANCH   1  12
BRANCH   2  22
ATOM     22  O   UNL     1      -7.115 -20.124  -6.253  1.00  0.00    -0.502 OA
ATOM     23  H   UNL     1      -8.037 -20.205  -5.844  1.00  0.00     0.293 HD
ENDBRANCH   2  22
BRANCH   6  24
ATOM     24  O   UNL     1      -4.052 -17.368  -2.875  1.00  0.00    -0.507 OA
ATOM     25  H   UNL     1      -3.205 -17.822  -2.570  1.00  0.00     0.293 HD
ENDBRANCH   6  24
BRANCH   8  26
ATOM     26  O   UNL     1      -2.946 -13.590  -5.623  1.00  0.00    -0.508 OA
ATOM     27  H   UNL     1      -3.414 -12.780  -6.012  1.00  0.00     0.293 HD
ENDBRANCH   8  26
TORSDOF 6
ENDMDL
MODEL 9
REMARK VINA RESULT:    -2.571      2.042      3.012
REMARK INTER + INTRA:          -3.159
REMARK INTER:                  -3.038
REMARK INTRA:                  -0.121
REMARK UNBOUND:                -0.062
REMARK SMILES O=c1c(O)c(-c2ccc(O)c(O)c2)oc2cc(O)cc(O)c12
REMARK SMILES IDX 5 1 3 2 2 3 1 4 22 5 20 6 19 7 17 8 16 9 15 10 14 11 6 12
REMARK SMILES IDX 7 13 8 14 9 15 13 16 11 17 10 18 12 20 4 22 21 24 18 26
REMARK H PARENT 10 19 12 21 4 23 21 25 18 27
REMARK Flexibility Score: inf
ROOT
ATOM      1  C   UNL     1      -4.931 -17.158  -5.209  1.00  0.00     0.180 A 
ATOM      2  C   UNL     1      -5.712 -18.033  -4.434  1.00  0.00     0.208 A 
ATOM      3  C   UNL     1      -6.728 -18.774  -5.058  1.00  0.00     0.238 A 
ATOM      4  O   UNL     1      -7.373 -19.610  -4.372  1.00  0.00    -0.285 OA
ATOM      5  C   UNL     1      -6.988 -18.591  -6.438  1.00  0.00     0.111 A 
ATOM      6  C   UNL     1      -8.022 -19.256  -7.165  1.00  0.00     0.134 A 
ATOM      7  C   UNL     1      -8.117 -19.076  -8.550  1.00  0.00     0.093 A 
ATOM      8  C   UNL     1      -7.257 -18.206  -9.225  1.00  0.00     0.123 A 
ATOM      9  C   UNL     1      -6.280 -17.511  -8.516  1.00  0.00     0.094 A 
ATOM     10  C   UNL     1      -6.136 -17.699  -7.140  1.00  0.00     0.146 A 
ATOM     11  O   UNL     1      -5.177 -17.032  -6.507  1.00  0.00    -0.452 OA
ENDROOT
BRANCH   1  12
ATOM     12  C   UNL     1      -3.833 -16.354  -4.626  1.00  0.00     0.025 A 
ATOM     13  C   UNL     1      -3.884 -14.950  -4.606  1.00  0.00     0.016 A 
ATOM     14  C   UNL     1      -2.846 -14.214  -4.029  1.00  0.00     0.051 A 
ATOM     15  C   UNL     1      -1.750 -14.868  -3.451  1.00  0.00     0.157 A 
ATOM     16  C   UNL     1      -2.743 -17.007  -4.026  1.00  0.00     0.062 A 
ATOM     17  C   UNL     1      -1.701 -16.272  -3.448  1.00  0.00     0.158 A 
BRANCH  15  18
ATOM     18  O   UNL     1      -0.716 -14.131  -2.877  1.00  0.00    -0.504 OA
ATOM     19  H   UNL     1      -0.267 -13.371  -3.374  1.00  0.00     0.293 HD
ENDBRANCH  15  18
BRANCH  17  20
ATOM     20  O   UNL     1      -0.629 -16.955  -2.875  1.00  0.00    -0.504 OA
ATOM     21  H   UNL     1       0.272 -16.515  -2.727  1.00  0.00     0.293 HD
ENDBRANCH  17  20
ENDBRANCH   1  12
BRANCH   2  22
ATOM     22  O   UNL     1      -5.489 -18.143  -3.057  1.00  0.00    -0.502 OA
ATOM     23  H   UNL     1      -6.104 -18.668  -2.448  1.00  0.00     0.293 HD
ENDBRANCH   2  22
BRANCH   6  24
ATOM     24  O   UNL     1      -8.989 -20.077  -6.577  1.00  0.00    -0.507 OA
ATOM     25  H   UNL     1      -9.655 -20.639  -7.085  1.00  0.00     0.293 HD
ENDBRANCH   6  24
BRANCH   8  26
ATOM     26  O   UNL     1      -7.370 -18.020 -10.602  1.00  0.00    -0.508 OA
ATOM     27  H   UNL     1      -6.910 -17.250 -11.071  1.00  0.00     0.293 HD
ENDBRANCH   8  26
TORSDOF 6
ENDMDL
