MODEL 1
REMARK VINA RESULT:    -5.212      0.000      0.000
REMARK INTER + INTRA:         -18.696
REMARK INTER:                 -13.744
REMARK INTRA:                  -4.952
REMARK UNBOUND:                -4.952
REMARK SMILES CCCCCCCCCCCCCCCCCCCCCCCCCCCCCC(=O)[O-]
REMARK SMILES IDX 16 1 17 2 18 3 19 4 20 5 21 6 22 7 23 8 24 9 25 10 26 11
REMARK SMILES IDX 27 12 28 13 29 14 30 15 31 16 32 17 15 18 14 19 13 20 12 21
REMARK SMILES IDX 11 22 10 23 9 24 8 25 7 26 6 27 5 28 4 29 3 30 2 31 1 32
REMARK H PARENT
REMARK Flexibility Score: inf
ROOT
ATOM      1  C   UNL     1      25.576  16.414 -10.245  1.00  0.00     0.000 C 
ENDROOT
BRANCH   1   2
ATOM      2  C   UNL     1      25.914  15.164  -9.414  1.00  0.00     0.000 C 
BRANCH   2   3
ATOM      3  C   UNL     1      27.279  15.275  -8.717  1.00  0.00     0.000 C 
BRANCH   3   4
ATOM      4  C   UNL     1      28.161  14.035  -8.949  1.00  0.00     0.000 C 
BRANCH   4   5
ATOM      5  C   UNL     1      29.049  14.159 -10.199  1.00  0.00     0.000 C 
BRANCH   5   6
ATOM      6  C   UNL     1      28.846  13.021 -11.220  1.00  0.00     0.000 C 
BRANCH   6   7
ATOM      7  C   UNL     1      27.459  13.067 -11.888  1.00  0.00     0.000 C 
BRANCH   7   8
ATOM      8  C   UNL     1      27.487  12.582 -13.346  1.00  0.00     0.000 C 
BRANCH   8   9
ATOM      9  C   UNL     1      26.570  13.404 -14.264  1.00  0.00     0.000 C 
BRANCH   9  10
ATOM     10  C   UNL     1      25.319  13.873 -13.509  1.00  0.00     0.000 C 
BRANCH  10  11
ATOM     11  C   UNL     1      24.778  15.224 -14.014  1.00  0.00     0.000 C 
BRANCH  11  12
ATOM     12  C   UNL     1      25.712  15.991 -14.970  1.00  0.00     0.000 C 
BRANCH  12  13
ATOM     13  C   UNL     1      25.090  17.220 -15.660  1.00  0.00     0.006 C 
BRANCH  13  14
ATOM     14  C   UNL     1      23.566  17.119 -15.855  1.00  0.00     0.053 C 
BRANCH  14  15
ATOM     15  C   UNL     1      22.905  18.462 -15.853  1.00  0.00     0.041 C 
ATOM     16  O   UNL     1      21.734  18.597 -15.412  1.00  0.00    -0.550 OA
ATOM     17  O   UNL     1      23.581  19.570 -16.350  1.00  0.00    -0.550 OA
ENDBRANCH  14  15
ENDBRANCH  13  14
ENDBRANCH  12  13
ENDBRANCH  11  12
ENDBRANCH  10  11
ENDBRANCH   9  10
ENDBRANCH   8   9
ENDBRANCH   7   8
ENDBRANCH   6   7
ENDBRANCH   5   6
ENDBRANCH   4   5
ENDBRANCH   3   4
ENDBRANCH   2   3
ENDBRANCH   1   2
BRANCH   1  18
ATOM     18  C   UNL     1      26.624  16.694 -11.334  1.00  0.00     0.000 C 
BRANCH  18  19
ATOM     19  C   UNL     1      26.395  18.040 -12.039  1.00  0.00     0.000 C 
BRANCH  19  20
ATOM     20  C   UNL     1      25.252  18.816 -11.368  1.00  0.00     0.000 C 
BRANCH  20  21
ATOM     21  C   UNL     1      24.064  19.089 -12.310  1.00  0.00     0.000 C 
BRANCH  21  22
ATOM     22  C   UNL     1      22.704  18.504 -11.869  1.00  0.00     0.000 C 
BRANCH  22  23
ATOM     23  C   UNL     1      22.429  17.045 -12.296  1.00  0.00     0.000 C 
BRANCH  23  24
ATOM     24  C   UNL     1      22.079  16.092 -11.138  1.00  0.00    -0.000 C 
BRANCH  24  25
ATOM     25  C   UNL     1      21.205  16.747 -10.054  1.00  0.00    -0.000 C 
BRANCH  25  26
ATOM     26  C   UNL     1      21.687  16.432  -8.621  1.00  0.00    -0.000 C 
BRANCH  26  27
ATOM     27  C   UNL     1      22.696  17.453  -8.063  1.00  0.00    -0.000 C 
BRANCH  27  28
ATOM     28  C   UNL     1      22.126  18.409  -7.003  1.00  0.00    -0.000 C 
BRANCH  28  29
ATOM     29  C   UNL     1      20.698  18.037  -6.575  1.00  0.00    -0.000 C 
BRANCH  29  30
ATOM     30  C   UNL     1      19.690  19.099  -7.033  1.00  0.00    -0.000 C 
BRANCH  30  31
ATOM     31  C   UNL     1      19.726  20.326  -6.113  1.00  0.00    -0.003 C 
ATOM     32  C   UNL     1      18.328  20.900  -5.906  1.00  0.00     0.004 C 
ENDBRANCH  30  31
ENDBRANCH  29  30
ENDBRANCH  28  29
ENDBRANCH  27  28
ENDBRANCH  26  27
ENDBRANCH  25  26
ENDBRANCH  24  25
ENDBRANCH  23  24
ENDBRANCH  22  23
ENDBRANCH  21  22
ENDBRANCH  20  21
ENDBRANCH  19  20
ENDBRANCH  18  19
ENDBRANCH   1  18
TORSDOF 28
ENDMDL
MODEL 2
REMARK VINA RESULT:    -5.119      1.649      2.671
REMARK INTER + INTRA:         -18.450
REMARK INTER:                 -14.121
REMARK INTRA:                  -4.330
REMARK UNBOUND:                -4.952
REMARK SMILES CCCCCCCCCCCCCCCCCCCCCCCCCCCCCC(=O)[O-]
REMARK SMILES IDX 16 1 17 2 18 3 19 4 20 5 21 6 22 7 23 8 24 9 25 10 26 11
REMARK SMILES IDX 27 12 28 13 29 14 30 15 31 16 32 17 15 18 14 19 13 20 12 21
REMARK SMILES IDX 11 22 10 23 9 24 8 25 7 26 6 27 5 28 4 29 3 30 2 31 1 32
REMARK H PARENT
REMARK Flexibility Score: inf
ROOT
ATOM      1  C   UNL     1      26.706  17.922 -12.193  1.00  0.00     0.000 C 
ENDROOT
BRANCH   1   2
ATOM      2  C   UNL     1      27.106  16.675 -11.385  1.00  0.00     0.000 C 
BRANCH   2   3
ATOM      3  C   UNL     1      25.924  16.079 -10.604  1.00  0.00     0.000 C 
BRANCH   3   4
ATOM      4  C   UNL     1      26.378  15.253  -9.388  1.00  0.00     0.000 C 
BRANCH   4   5
ATOM      5  C   UNL     1      27.909  15.140  -9.280  1.00  0.00     0.000 C 
BRANCH   5   6
ATOM      6  C   UNL     1      28.436  13.697  -9.422  1.00  0.00     0.000 C 
BRANCH   6   7
ATOM      7  C   UNL     1      28.749  13.323 -10.882  1.00  0.00     0.000 C 
BRANCH   7   8
ATOM      8  C   UNL     1      27.589  12.582 -11.566  1.00  0.00     0.000 C 
BRANCH   8   9
ATOM      9  C   UNL     1      27.431  12.959 -13.046  1.00  0.00     0.000 C 
BRANCH   9  10
ATOM     10  C   UNL     1      26.010  13.465 -13.332  1.00  0.00     0.000 C 
BRANCH  10  11
ATOM     11  C   UNL     1      25.915  14.313 -14.614  1.00  0.00     0.000 C 
BRANCH  11  12
ATOM     12  C   UNL     1      24.969  15.527 -14.533  1.00  0.00     0.000 C 
BRANCH  12  13
ATOM     13  C   UNL     1      24.911  16.407 -15.795  1.00  0.00     0.006 C 
BRANCH  13  14
ATOM     14  C   UNL     1      25.664  17.743 -15.657  1.00  0.00     0.053 C 
BRANCH  14  15
ATOM     15  C   UNL     1      26.834  17.833 -16.586  1.00  0.00     0.041 C 
ATOM     16  O   UNL     1      27.939  17.318 -16.274  1.00  0.00    -0.550 OA
ATOM     17  O   UNL     1      26.709  18.497 -17.801  1.00  0.00    -0.550 OA
ENDBRANCH  14  15
ENDBRANCH  13  14
ENDBRANCH  12  13
ENDBRANCH  11  12
ENDBRANCH  10  11
ENDBRANCH   9  10
ENDBRANCH   8   9
ENDBRANCH   7   8
ENDBRANCH   6   7
ENDBRANCH   5   6
ENDBRANCH   4   5
ENDBRANCH   3   4
ENDBRANCH   2   3
ENDBRANCH   1   2
BRANCH   1  18
ATOM     18  C   UNL     1      25.550  18.697 -11.541  1.00  0.00     0.000 C 
BRANCH  18  19
ATOM     19  C   UNL     1      24.440  19.052 -12.542  1.00  0.00     0.000 C 
BRANCH  19  20
ATOM     20  C   UNL     1      23.278  18.052 -12.439  1.00  0.00     0.000 C 
BRANCH  20  21
ATOM     21  C   UNL     1      22.655  17.984 -11.032  1.00  0.00     0.000 C 
BRANCH  21  22
ATOM     22  C   UNL     1      22.043  16.623 -10.630  1.00  0.00     0.000 C 
BRANCH  22  23
ATOM     23  C   UNL     1      22.443  16.092  -9.235  1.00  0.00     0.000 C 
BRANCH  23  24
ATOM     24  C   UNL     1      21.433  16.405  -8.116  1.00  0.00    -0.000 C 
BRANCH  24  25
ATOM     25  C   UNL     1      20.359  17.426  -8.532  1.00  0.00    -0.000 C 
BRANCH  25  26
ATOM     26  C   UNL     1      18.931  16.997  -8.128  1.00  0.00    -0.000 C 
BRANCH  26  27
ATOM     27  C   UNL     1      18.418  17.672  -6.842  1.00  0.00    -0.000 C 
BRANCH  27  28
ATOM     28  C   UNL     1      19.011  17.111  -5.539  1.00  0.00    -0.000 C 
BRANCH  28  29
ATOM     29  C   UNL     1      19.572  18.208  -4.622  1.00  0.00    -0.000 C 
BRANCH  29  30
ATOM     30  C   UNL     1      20.791  18.889  -5.258  1.00  0.00    -0.000 C 
BRANCH  30  31
ATOM     31  C   UNL     1      20.581  20.404  -5.368  1.00  0.00    -0.003 C 
ATOM     32  C   UNL     1      20.419  20.834  -6.822  1.00  0.00     0.004 C 
ENDBRANCH  30  31
ENDBRANCH  29  30
ENDBRANCH  28  29
ENDBRANCH  27  28
ENDBRANCH  26  27
ENDBRANCH  25  26
ENDBRANCH  24  25
ENDBRANCH  23  24
ENDBRANCH  22  23
ENDBRANCH  21  22
ENDBRANCH  20  21
ENDBRANCH  19  20
ENDBRANCH  18  19
ENDBRANCH   1  18
TORSDOF 28
ENDMDL
MODEL 3
REMARK VINA RESULT:    -5.113      1.801      4.168
REMARK INTER + INTRA:         -18.434
REMARK INTER:                 -13.108
REMARK INTRA:                  -5.326
REMARK UNBOUND:                -4.952
REMARK SMILES CCCCCCCCCCCCCCCCCCCCCCCCCCCCCC(=O)[O-]
REMARK SMILES IDX 16 1 17 2 18 3 19 4 20 5 21 6 22 7 23 8 24 9 25 10 26 11
REMARK SMILES IDX 27 12 28 13 29 14 30 15 31 16 32 17 15 18 14 19 13 20 12 21
REMARK SMILES IDX 11 22 10 23 9 24 8 25 7 26 6 27 5 28 4 29 3 30 2 31 1 32
REMARK H PARENT
REMARK Flexibility Score: inf
ROOT
ATOM      1  C   UNL     1      28.246  14.324 -10.484  1.00  0.00     0.000 C 
ENDROOT
BRANCH   1   2
ATOM      2  C   UNL     1      28.073  14.171  -8.963  1.00  0.00     0.000 C 
BRANCH   2   3
ATOM      3  C   UNL     1      28.143  12.704  -8.510  1.00  0.00     0.000 C 
BRANCH   3   4
ATOM      4  C   UNL     1      26.850  12.238  -7.820  1.00  0.00     0.000 C 
BRANCH   4   5
ATOM      5  C   UNL     1      25.619  12.319  -8.739  1.00  0.00     0.000 C 
BRANCH   5   6
ATOM      6  C   UNL     1      24.293  12.547  -7.983  1.00  0.00     0.000 C 
BRANCH   6   7
ATOM      7  C   UNL     1      23.498  13.745  -8.534  1.00  0.00     0.000 C 
BRANCH   7   8
ATOM      8  C   UNL     1      24.256  14.504  -9.634  1.00  0.00     0.000 C 
BRANCH   8   9
ATOM      9  C   UNL     1      24.667  15.921  -9.205  1.00  0.00     0.000 C 
BRANCH   9  10
ATOM     10  C   UNL     1      25.639  16.538 -10.220  1.00  0.00     0.000 C 
BRANCH  10  11
ATOM     11  C   UNL     1      25.270  17.982 -10.611  1.00  0.00     0.000 C 
BRANCH  11  12
ATOM     12  C   UNL     1      26.018  18.544 -11.835  1.00  0.00     0.000 C 
BRANCH  12  13
ATOM     13  C   UNL     1      27.106  17.628 -12.425  1.00  0.00     0.006 C 
BRANCH  13  14
ATOM     14  C   UNL     1      27.862  18.244 -13.617  1.00  0.00     0.053 C 
BRANCH  14  15
ATOM     15  C   UNL     1      27.090  18.135 -14.894  1.00  0.00     0.041 C 
ATOM     16  O   UNL     1      26.224  18.998 -15.192  1.00  0.00    -0.550 OA
ATOM     17  O   UNL     1      27.319  17.070 -15.757  1.00  0.00    -0.550 OA
ENDBRANCH  14  15
ENDBRANCH  13  14
ENDBRANCH  12  13
ENDBRANCH  11  12
ENDBRANCH  10  11
ENDBRANCH   9  10
ENDBRANCH   8   9
ENDBRANCH   7   8
ENDBRANCH   6   7
ENDBRANCH   5   6
ENDBRANCH   4   5
ENDBRANCH   3   4
ENDBRANCH   2   3
ENDBRANCH   1   2
BRANCH   1  18
ATOM     18  C   UNL     1      28.625  13.000 -11.167  1.00  0.00     0.000 C 
BRANCH  18  19
ATOM     19  C   UNL     1      27.766  12.711 -12.408  1.00  0.00     0.000 C 
BRANCH  19  20
ATOM     20  C   UNL     1      26.440  13.484 -12.342  1.00  0.00     0.000 C 
BRANCH  20  21
ATOM     21  C   UNL     1      25.719  13.574 -13.699  1.00  0.00     0.000 C 
BRANCH  21  22
ATOM     22  C   UNL     1      25.225  14.979 -14.109  1.00  0.00     0.000 C 
BRANCH  22  23
ATOM     23  C   UNL     1      24.120  15.590 -13.218  1.00  0.00     0.000 C 
BRANCH  23  24
ATOM     24  C   UNL     1      23.474  16.869 -13.783  1.00  0.00    -0.000 C 
BRANCH  24  25
ATOM     25  C   UNL     1      22.106  17.188 -13.156  1.00  0.00    -0.000 C 
BRANCH  25  26
ATOM     26  C   UNL     1      22.129  17.161 -11.612  1.00  0.00    -0.000 C 
BRANCH  26  27
ATOM     27  C   UNL     1      21.240  16.065 -10.993  1.00  0.00    -0.000 C 
BRANCH  27  28
ATOM     28  C   UNL     1      20.494  16.486  -9.717  1.00  0.00    -0.000 C 
BRANCH  28  29
ATOM     29  C   UNL     1      21.435  17.026  -8.630  1.00  0.00    -0.000 C 
BRANCH  29  30
ATOM     30  C   UNL     1      20.643  17.553  -7.427  1.00  0.00    -0.000 C 
BRANCH  30  31
ATOM     31  C   UNL     1      19.219  16.984  -7.412  1.00  0.00    -0.003 C 
ATOM     32  C   UNL     1      18.178  18.098  -7.441  1.00  0.00     0.004 C 
ENDBRANCH  30  31
ENDBRANCH  29  30
ENDBRANCH  28  29
ENDBRANCH  27  28
ENDBRANCH  26  27
ENDBRANCH  25  26
ENDBRANCH  24  25
ENDBRANCH  23  24
ENDBRANCH  22  23
ENDBRANCH  21  22
ENDBRANCH  20  21
ENDBRANCH  19  20
ENDBRANCH  18  19
ENDBRANCH   1  18
TORSDOF 28
ENDMDL
MODEL 4
REMARK VINA RESULT:    -5.104      1.530      3.371
REMARK INTER + INTRA:         -18.411
REMARK INTER:                 -12.754
REMARK INTRA:                  -5.658
REMARK UNBOUND:                -4.952
REMARK SMILES CCCCCCCCCCCCCCCCCCCCCCCCCCCCCC(=O)[O-]
REMARK SMILES IDX 16 1 17 2 18 3 19 4 20 5 21 6 22 7 23 8 24 9 25 10 26 11
REMARK SMILES IDX 27 12 28 13 29 14 30 15 31 16 32 17 15 18 14 19 13 20 12 21
REMARK SMILES IDX 11 22 10 23 9 24 8 25 7 26 6 27 5 28 4 29 3 30 2 31 1 32
REMARK H PARENT
REMARK Flexibility Score: inf
ROOT
ATOM      1  C   UNL     1      27.005  14.985  -8.910  1.00  0.00     0.000 C 
ENDROOT
BRANCH   1   2
ATOM      2  C   UNL     1      28.076  13.901  -9.122  1.00  0.00     0.000 C 
BRANCH   2   3
ATOM      3  C   UNL     1      28.988  14.205 -10.321  1.00  0.00     0.000 C 
BRANCH   3   4
ATOM      4  C   UNL     1      28.970  13.083 -11.373  1.00  0.00     0.000 C 
BRANCH   4   5
ATOM      5  C   UNL     1      27.547  12.622 -11.732  1.00  0.00     0.000 C 
BRANCH   5   6
ATOM      6  C   UNL     1      26.963  13.323 -12.977  1.00  0.00     0.000 C 
BRANCH   6   7
ATOM      7  C   UNL     1      25.462  13.631 -12.831  1.00  0.00     0.000 C 
BRANCH   7   8
ATOM      8  C   UNL     1      25.176  15.134 -12.682  1.00  0.00     0.000 C 
BRANCH   8   9
ATOM      9  C   UNL     1      26.379  16.010 -13.065  1.00  0.00     0.000 C 
BRANCH   9  10
ATOM     10  C   UNL     1      26.664  17.051 -11.975  1.00  0.00     0.000 C 
BRANCH  10  11
ATOM     11  C   UNL     1      25.427  17.388 -11.121  1.00  0.00     0.000 C 
BRANCH  11  12
ATOM     12  C   UNL     1      24.837  18.795 -11.343  1.00  0.00     0.000 C 
BRANCH  12  13
ATOM     13  C   UNL     1      23.465  18.834 -12.042  1.00  0.00     0.006 C 
BRANCH  13  14
ATOM     14  C   UNL     1      23.507  18.418 -13.523  1.00  0.00     0.053 C 
BRANCH  14  15
ATOM     15  C   UNL     1      23.792  19.575 -14.429  1.00  0.00     0.041 C 
ATOM     16  O   UNL     1      24.611  19.457 -15.377  1.00  0.00    -0.550 OA
ATOM     17  O   UNL     1      23.159  20.795 -14.219  1.00  0.00    -0.550 OA
ENDBRANCH  14  15
ENDBRANCH  13  14
ENDBRANCH  12  13
ENDBRANCH  11  12
ENDBRANCH  10  11
ENDBRANCH   9  10
ENDBRANCH   8   9
ENDBRANCH   7   8
ENDBRANCH   6   7
ENDBRANCH   5   6
ENDBRANCH   4   5
ENDBRANCH   3   4
ENDBRANCH   2   3
ENDBRANCH   1   2
BRANCH   1  18
ATOM     18  C   UNL     1      25.579  14.450  -9.114  1.00  0.00     0.000 C 
BRANCH  18  19
ATOM     19  C   UNL     1      25.457  12.955  -8.778  1.00  0.00     0.000 C 
BRANCH  19  20
ATOM     20  C   UNL     1      24.337  12.304  -9.604  1.00  0.00     0.000 C 
BRANCH  20  21
ATOM     21  C   UNL     1      22.947  12.904  -9.325  1.00  0.00     0.000 C 
BRANCH  21  22
ATOM     22  C   UNL     1      22.183  13.438 -10.557  1.00  0.00     0.000 C 
BRANCH  22  23
ATOM     23  C   UNL     1      22.427  14.923 -10.908  1.00  0.00     0.000 C 
BRANCH  23  24
ATOM     24  C   UNL     1      21.177  15.817 -10.818  1.00  0.00    -0.000 C 
BRANCH  24  25
ATOM     25  C   UNL     1      21.271  16.888  -9.716  1.00  0.00    -0.000 C 
BRANCH  25  26
ATOM     26  C   UNL     1      22.310  16.540  -8.627  1.00  0.00    -0.000 C 
BRANCH  26  27
ATOM     27  C   UNL     1      23.055  17.764  -8.062  1.00  0.00    -0.000 C 
BRANCH  27  28
ATOM     28  C   UNL     1      22.372  18.437  -6.861  1.00  0.00    -0.000 C 
BRANCH  28  29
ATOM     29  C   UNL     1      20.964  17.884  -6.592  1.00  0.00    -0.000 C 
BRANCH  29  30
ATOM     30  C   UNL     1      19.899  18.972  -6.776  1.00  0.00    -0.000 C 
BRANCH  30  31
ATOM     31  C   UNL     1      18.597  18.381  -7.329  1.00  0.00    -0.003 C 
ATOM     32  C   UNL     1      18.536  16.874  -7.107  1.00  0.00     0.004 C 
ENDBRANCH  30  31
ENDBRANCH  29  30
ENDBRANCH  28  29
ENDBRANCH  27  28
ENDBRANCH  26  27
ENDBRANCH  25  26
ENDBRANCH  24  25
ENDBRANCH  23  24
ENDBRANCH  22  23
ENDBRANCH  21  22
ENDBRANCH  20  21
ENDBRANCH  19  20
ENDBRANCH  18  19
ENDBRANCH   1  18
TORSDOF 28
ENDMDL
MODEL 5
REMARK VINA RESULT:    -5.044      2.727      7.465
REMARK INTER + INTRA:         -18.252
REMARK INTER:                 -12.761
REMARK INTRA:                  -5.492
REMARK UNBOUND:                -4.952
REMARK SMILES CCCCCCCCCCCCCCCCCCCCCCCCCCCCCC(=O)[O-]
REMARK SMILES IDX 16 1 17 2 18 3 19 4 20 5 21 6 22 7 23 8 24 9 25 10 26 11
REMARK SMILES IDX 27 12 28 13 29 14 30 15 31 16 32 17 15 18 14 19 13 20 12 21
REMARK SMILES IDX 11 22 10 23 9 24 8 25 7 26 6 27 5 28 4 29 3 30 2 31 1 32
REMARK H PARENT
REMARK Flexibility Score: inf
ROOT
ATOM      1  C   UNL     1      27.630  12.903 -11.076  1.00  0.00     0.000 C 
ENDROOT
BRANCH   1   2
ATOM      2  C   UNL     1      27.234  13.016 -12.559  1.00  0.00     0.000 C 
BRANCH   2   3
ATOM      3  C   UNL     1      25.781  13.480 -12.744  1.00  0.00     0.000 C 
BRANCH   3   4
ATOM      4  C   UNL     1      24.851  12.962 -11.633  1.00  0.00     0.000 C 
BRANCH   4   5
ATOM      5  C   UNL     1      23.583  13.818 -11.467  1.00  0.00     0.000 C 
BRANCH   5   6
ATOM      6  C   UNL     1      22.750  13.458 -10.219  1.00  0.00     0.000 C 
BRANCH   6   7
ATOM      7  C   UNL     1      22.299  14.702  -9.432  1.00  0.00     0.000 C 
BRANCH   7   8
ATOM      8  C   UNL     1      21.547  15.717 -10.307  1.00  0.00     0.000 C 
BRANCH   8   9
ATOM      9  C   UNL     1      20.909  16.850  -9.490  1.00  0.00     0.000 C 
BRANCH   9  10
ATOM     10  C   UNL     1      21.418  16.833  -8.043  1.00  0.00     0.000 C 
BRANCH  10  11
ATOM     11  C   UNL     1      22.521  17.875  -7.776  1.00  0.00     0.000 C 
BRANCH  11  12
ATOM     12  C   UNL     1      22.345  18.705  -6.490  1.00  0.00     0.000 C 
BRANCH  12  13
ATOM     13  C   UNL     1      20.940  18.664  -5.862  1.00  0.00     0.006 C 
BRANCH  13  14
ATOM     14  C   UNL     1      20.436  20.033  -5.370  1.00  0.00     0.053 C 
BRANCH  14  15
ATOM     15  C   UNL     1      19.450  20.647  -6.314  1.00  0.00     0.041 C 
ATOM     16  O   UNL     1      19.765  20.866  -7.513  1.00  0.00    -0.550 OA
ATOM     17  O   UNL     1      18.179  20.988  -5.867  1.00  0.00    -0.550 OA
ENDBRANCH  14  15
ENDBRANCH  13  14
ENDBRANCH  12  13
ENDBRANCH  11  12
ENDBRANCH  10  11
ENDBRANCH   9  10
ENDBRANCH   8   9
ENDBRANCH   7   8
ENDBRANCH   6   7
ENDBRANCH   5   6
ENDBRANCH   4   5
ENDBRANCH   3   4
ENDBRANCH   2   3
ENDBRANCH   1   2
BRANCH   1  18
ATOM     18  C   UNL     1      28.677  13.951 -10.668  1.00  0.00     0.000 C 
BRANCH  18  19
ATOM     19  C   UNL     1      28.041  15.262 -10.184  1.00  0.00     0.000 C 
BRANCH  19  20
ATOM     20  C   UNL     1      26.795  14.978  -9.331  1.00  0.00     0.000 C 
BRANCH  20  21
ATOM     21  C   UNL     1      25.691  16.040  -9.491  1.00  0.00     0.000 C 
BRANCH  21  22
ATOM     22  C   UNL     1      25.668  16.793 -10.840  1.00  0.00     0.000 C 
BRANCH  22  23
ATOM     23  C   UNL     1      25.118  18.236 -10.796  1.00  0.00     0.000 C 
BRANCH  23  24
ATOM     24  C   UNL     1      23.711  18.404 -11.398  1.00  0.00    -0.000 C 
BRANCH  24  25
ATOM     25  C   UNL     1      23.674  19.365 -12.600  1.00  0.00    -0.000 C 
BRANCH  25  26
ATOM     26  C   UNL     1      23.065  18.723 -13.866  1.00  0.00    -0.000 C 
BRANCH  26  27
ATOM     27  C   UNL     1      22.684  17.241 -13.692  1.00  0.00    -0.000 C 
BRANCH  27  28
ATOM     28  C   UNL     1      23.805  16.243 -14.029  1.00  0.00    -0.000 C 
BRANCH  28  29
ATOM     29  C   UNL     1      24.686  16.713 -15.196  1.00  0.00    -0.000 C 
BRANCH  29  30
ATOM     30  C   UNL     1      26.173  16.507 -14.882  1.00  0.00    -0.000 C 
BRANCH  30  31
ATOM     31  C   UNL     1      26.793  17.778 -14.289  1.00  0.00    -0.003 C 
ATOM     32  C   UNL     1      26.498  18.994 -15.160  1.00  0.00     0.004 C 
ENDBRANCH  30  31
ENDBRANCH  29  30
ENDBRANCH  28  29
ENDBRANCH  27  28
ENDBRANCH  26  27
ENDBRANCH  25  26
ENDBRANCH  24  25
ENDBRANCH  23  24
ENDBRANCH  22  23
ENDBRANCH  21  22
ENDBRANCH  20  21
ENDBRANCH  19  20
ENDBRANCH  18  19
ENDBRANCH   1  18
TORSDOF 28
ENDMDL
MODEL 6
REMARK VINA RESULT:    -5.033      2.727      6.767
REMARK INTER + INTRA:         -18.224
REMARK INTER:                 -13.195
REMARK INTRA:                  -5.029
REMARK UNBOUND:                -4.952
REMARK SMILES CCCCCCCCCCCCCCCCCCCCCCCCCCCCCC(=O)[O-]
REMARK SMILES IDX 16 1 17 2 18 3 19 4 20 5 21 6 22 7 23 8 24 9 25 10 26 11
REMARK SMILES IDX 27 12 28 13 29 14 30 15 31 16 32 17 15 18 14 19 13 20 12 21
REMARK SMILES IDX 11 22 10 23 9 24 8 25 7 26 6 27 5 28 4 29 3 30 2 31 1 32
REMARK H PARENT
REMARK Flexibility Score: inf
ROOT
ATOM      1  C   UNL     1      28.655  14.393 -10.573  1.00  0.00     0.000 C 
ENDROOT
BRANCH   1   2
ATOM      2  C   UNL     1      28.128  14.169  -9.144  1.00  0.00     0.000 C 
BRANCH   2   3
ATOM      3  C   UNL     1      27.100  15.233  -8.726  1.00  0.00     0.000 C 
BRANCH   3   4
ATOM      4  C   UNL     1      25.740  15.042  -9.420  1.00  0.00     0.000 C 
BRANCH   4   5
ATOM      5  C   UNL     1      25.079  13.694  -9.080  1.00  0.00     0.000 C 
BRANCH   5   6
ATOM      6  C   UNL     1      24.098  13.194 -10.160  1.00  0.00     0.000 C 
BRANCH   6   7
ATOM      7  C   UNL     1      22.643  13.606  -9.872  1.00  0.00     0.000 C 
BRANCH   7   8
ATOM      8  C   UNL     1      22.163  14.756 -10.773  1.00  0.00     0.000 C 
BRANCH   8   9
ATOM      9  C   UNL     1      21.501  15.895  -9.983  1.00  0.00     0.000 C 
BRANCH   9  10
ATOM     10  C   UNL     1      21.986  15.902  -8.526  1.00  0.00     0.000 C 
BRANCH  10  11
ATOM     11  C   UNL     1      21.721  17.239  -7.807  1.00  0.00     0.000 C 
BRANCH  11  12
ATOM     12  C   UNL     1      20.345  17.357  -7.123  1.00  0.00     0.000 C 
BRANCH  12  13
ATOM     13  C   UNL     1      20.020  18.739  -6.526  1.00  0.00     0.006 C 
BRANCH  13  14
ATOM     14  C   UNL     1      21.247  19.480  -5.964  1.00  0.00     0.053 C 
BRANCH  14  15
ATOM     15  C   UNL     1      21.159  20.960  -6.172  1.00  0.00     0.041 C 
ATOM     16  O   UNL     1      22.065  21.720  -5.743  1.00  0.00    -0.550 OA
ATOM     17  O   UNL     1      20.066  21.505  -6.835  1.00  0.00    -0.550 OA
ENDBRANCH  14  15
ENDBRANCH  13  14
ENDBRANCH  12  13
ENDBRANCH  11  12
ENDBRANCH  10  11
ENDBRANCH   9  10
ENDBRANCH   8   9
ENDBRANCH   7   8
ENDBRANCH   6   7
ENDBRANCH   5   6
ENDBRANCH   4   5
ENDBRANCH   3   4
ENDBRANCH   2   3
ENDBRANCH   1   2
BRANCH   1  18
ATOM     18  C   UNL     1      28.737  13.087 -11.378  1.00  0.00     0.000 C 
BRANCH  18  19
ATOM     19  C   UNL     1      27.366  12.628 -11.899  1.00  0.00     0.000 C 
BRANCH  19  20
ATOM     20  C   UNL     1      27.147  13.108 -13.342  1.00  0.00     0.000 C 
BRANCH  20  21
ATOM     21  C   UNL     1      25.667  13.103 -13.768  1.00  0.00     0.000 C 
BRANCH  21  22
ATOM     22  C   UNL     1      24.933  14.459 -13.675  1.00  0.00     0.000 C 
BRANCH  22  23
ATOM     23  C   UNL     1      25.712  15.601 -12.985  1.00  0.00     0.000 C 
BRANCH  23  24
ATOM     24  C   UNL     1      26.460  16.541 -13.948  1.00  0.00    -0.000 C 
BRANCH  24  25
ATOM     25  C   UNL     1      26.323  18.028 -13.576  1.00  0.00    -0.000 C 
BRANCH  25  26
ATOM     26  C   UNL     1      26.598  18.302 -12.081  1.00  0.00    -0.000 C 
BRANCH  26  27
ATOM     27  C   UNL     1      25.448  19.028 -11.358  1.00  0.00    -0.000 C 
BRANCH  27  28
ATOM     28  C   UNL     1      24.260  18.131 -10.973  1.00  0.00    -0.000 C 
BRANCH  28  29
ATOM     29  C   UNL     1      22.939  18.590 -11.609  1.00  0.00    -0.000 C 
BRANCH  29  30
ATOM     30  C   UNL     1      23.194  19.440 -12.859  1.00  0.00    -0.000 C 
BRANCH  30  31
ATOM     31  C   UNL     1      22.501  18.836 -14.087  1.00  0.00    -0.003 C 
ATOM     32  C   UNL     1      22.580  17.313 -14.073  1.00  0.00     0.004 C 
ENDBRANCH  30  31
ENDBRANCH  29  30
ENDBRANCH  28  29
ENDBRANCH  27  28
ENDBRANCH  26  27
ENDBRANCH  25  26
ENDBRANCH  24  25
ENDBRANCH  23  24
ENDBRANCH  22  23
ENDBRANCH  21  22
ENDBRANCH  20  21
ENDBRANCH  19  20
ENDBRANCH  18  19
ENDBRANCH   1  18
TORSDOF 28
ENDMDL
MODEL 7
REMARK VINA RESULT:    -5.031      2.749      6.576
REMARK INTER + INTRA:         -18.217
REMARK INTER:                 -12.424
REMARK INTRA:                  -5.793
REMARK UNBOUND:                -4.952
REMARK SMILES CCCCCCCCCCCCCCCCCCCCCCCCCCCCCC(=O)[O-]
REMARK SMILES IDX 16 1 17 2 18 3 19 4 20 5 21 6 22 7 23 8 24 9 25 10 26 11
REMARK SMILES IDX 27 12 28 13 29 14 30 15 31 16 32 17 15 18 14 19 13 20 12 21
REMARK SMILES IDX 11 22 10 23 9 24 8 25 7 26 6 27 5 28 4 29 3 30 2 31 1 32
REMARK H PARENT
REMARK Flexibility Score: inf
ROOT
ATOM      1  C   UNL     1      25.984  15.983 -10.052  1.00  0.00     0.000 C 
ENDROOT
BRANCH   1   2
ATOM      2  C   UNL     1      27.144  15.924 -11.062  1.00  0.00     0.000 C 
BRANCH   2   3
ATOM      3  C   UNL     1      28.511  15.782 -10.374  1.00  0.00     0.000 C 
BRANCH   3   4
ATOM      4  C   UNL     1      28.951  14.314 -10.238  1.00  0.00     0.000 C 
BRANCH   4   5
ATOM      5  C   UNL     1      28.279  13.595  -9.055  1.00  0.00     0.000 C 
BRANCH   5   6
ATOM      6  C   UNL     1      27.648  12.239  -9.430  1.00  0.00     0.000 C 
BRANCH   6   7
ATOM      7  C   UNL     1      26.149  12.356  -9.760  1.00  0.00     0.000 C 
BRANCH   7   8
ATOM      8  C   UNL     1      25.269  12.431  -8.502  1.00  0.00     0.000 C 
BRANCH   8   9
ATOM      9  C   UNL     1      23.954  13.190  -8.738  1.00  0.00     0.000 C 
BRANCH   9  10
ATOM     10  C   UNL     1      23.555  13.141 -10.220  1.00  0.00     0.000 C 
BRANCH  10  11
ATOM     11  C   UNL     1      22.547  14.239 -10.612  1.00  0.00     0.000 C 
BRANCH  11  12
ATOM     12  C   UNL     1      22.254  15.284  -9.517  1.00  0.00     0.000 C 
BRANCH  12  13
ATOM     13  C   UNL     1      21.235  16.374  -9.899  1.00  0.00     0.006 C 
BRANCH  13  14
ATOM     14  C   UNL     1      21.424  17.698  -9.137  1.00  0.00     0.053 C 
BRANCH  14  15
ATOM     15  C   UNL     1      21.085  17.570  -7.685  1.00  0.00     0.041 C 
ATOM     16  O   UNL     1      21.773  18.161  -6.814  1.00  0.00    -0.550 OA
ATOM     17  O   UNL     1      20.009  16.783  -7.289  1.00  0.00    -0.550 OA
ENDBRANCH  14  15
ENDBRANCH  13  14
ENDBRANCH  12  13
ENDBRANCH  11  12
ENDBRANCH  10  11
ENDBRANCH   9  10
ENDBRANCH   8   9
ENDBRANCH   7   8
ENDBRANCH   6   7
ENDBRANCH   5   6
ENDBRANCH   4   5
ENDBRANCH   3   4
ENDBRANCH   2   3
ENDBRANCH   1   2
BRANCH   1  18
ATOM     18  C   UNL     1      25.142  17.260 -10.200  1.00  0.00     0.000 C 
BRANCH  18  19
ATOM     19  C   UNL     1      24.496  17.382 -11.589  1.00  0.00     0.000 C 
BRANCH  19  20
ATOM     20  C   UNL     1      24.021  18.821 -11.841  1.00  0.00     0.000 C 
BRANCH  20  21
ATOM     21  C   UNL     1      22.684  18.898 -12.600  1.00  0.00     0.000 C 
BRANCH  21  22
ATOM     22  C   UNL     1      22.220  17.594 -13.286  1.00  0.00     0.000 C 
BRANCH  22  23
ATOM     23  C   UNL     1      22.703  17.390 -14.739  1.00  0.00     0.000 C 
BRANCH  23  24
ATOM     24  C   UNL     1      23.229  18.664 -15.426  1.00  0.00    -0.000 C 
BRANCH  24  25
ATOM     25  C   UNL     1      24.642  18.501 -16.011  1.00  0.00    -0.000 C 
BRANCH  25  26
ATOM     26  C   UNL     1      25.628  17.830 -15.029  1.00  0.00    -0.000 C 
BRANCH  26  27
ATOM     27  C   UNL     1      26.493  16.728 -15.668  1.00  0.00    -0.000 C 
BRANCH  27  28
ATOM     28  C   UNL     1      26.032  15.292 -15.371  1.00  0.00    -0.000 C 
BRANCH  28  29
ATOM     29  C   UNL     1      25.079  15.212 -14.168  1.00  0.00    -0.000 C 
BRANCH  29  30
ATOM     30  C   UNL     1      25.254  13.889 -13.413  1.00  0.00    -0.000 C 
BRANCH  30  31
ATOM     31  C   UNL     1      26.310  13.005 -14.088  1.00  0.00    -0.003 C 
ATOM     32  C   UNL     1      27.502  12.769 -13.167  1.00  0.00     0.004 C 
ENDBRANCH  30  31
ENDBRANCH  29  30
ENDBRANCH  28  29
ENDBRANCH  27  28
ENDBRANCH  26  27
ENDBRANCH  25  26
ENDBRANCH  24  25
ENDBRANCH  23  24
ENDBRANCH  22  23
ENDBRANCH  21  22
ENDBRANCH  20  21
ENDBRANCH  19  20
ENDBRANCH  18  19
ENDBRANCH   1  18
TORSDOF 28
ENDMDL
MODEL 8
REMARK VINA RESULT:    -5.012      2.651      6.617
REMARK INTER + INTRA:         -18.169
REMARK INTER:                 -12.376
REMARK INTRA:                  -5.793
REMARK UNBOUND:                -4.952
REMARK SMILES CCCCCCCCCCCCCCCCCCCCCCCCCCCCCC(=O)[O-]
REMARK SMILES IDX 16 1 17 2 18 3 19 4 20 5 21 6 22 7 23 8 24 9 25 10 26 11
REMARK SMILES IDX 27 12 28 13 29 14 30 15 31 16 32 17 15 18 14 19 13 20 12 21
REMARK SMILES IDX 11 22 10 23 9 24 8 25 7 26 6 27 5 28 4 29 3 30 2 31 1 32
REMARK H PARENT
REMARK Flexibility Score: inf
ROOT
ATOM      1  C   UNL     1      28.020  15.963 -10.858  1.00  0.00     0.000 C 
ENDROOT
BRANCH   1   2
ATOM      2  C   UNL     1      27.664  15.064  -9.660  1.00  0.00     0.000 C 
BRANCH   2   3
ATOM      3  C   UNL     1      28.135  13.615  -9.857  1.00  0.00     0.000 C 
BRANCH   3   4
ATOM      4  C   UNL     1      28.443  13.290 -11.329  1.00  0.00     0.000 C 
BRANCH   4   5
ATOM      5  C   UNL     1      27.296  12.540 -12.028  1.00  0.00     0.000 C 
BRANCH   5   6
ATOM      6  C   UNL     1      26.640  13.338 -13.174  1.00  0.00     0.000 C 
BRANCH   6   7
ATOM      7  C   UNL     1      25.169  13.687 -12.883  1.00  0.00     0.000 C 
BRANCH   7   8
ATOM      8  C   UNL     1      24.669  13.091 -11.557  1.00  0.00     0.000 C 
BRANCH   8   9
ATOM      9  C   UNL     1      23.538  13.915 -10.923  1.00  0.00     0.000 C 
BRANCH   9  10
ATOM     10  C   UNL     1      23.618  13.862  -9.391  1.00  0.00     0.000 C 
BRANCH  10  11
ATOM     11  C   UNL     1      22.749  14.932  -8.702  1.00  0.00     0.000 C 
BRANCH  11  12
ATOM     12  C   UNL     1      21.874  15.778  -9.648  1.00  0.00     0.000 C 
BRANCH  12  13
ATOM     13  C   UNL     1      21.510  17.183  -9.133  1.00  0.00     0.006 C 
BRANCH  13  14
ATOM     14  C   UNL     1      20.268  17.211  -8.223  1.00  0.00     0.053 C 
BRANCH  14  15
ATOM     15  C   UNL     1      20.260  18.399  -7.313  1.00  0.00     0.041 C 
ATOM     16  O   UNL     1      19.323  19.237  -7.364  1.00  0.00    -0.550 OA
ATOM     17  O   UNL     1      21.298  18.589  -6.408  1.00  0.00    -0.550 OA
ENDBRANCH  14  15
ENDBRANCH  13  14
ENDBRANCH  12  13
ENDBRANCH  11  12
ENDBRANCH  10  11
ENDBRANCH   9  10
ENDBRANCH   8   9
ENDBRANCH   7   8
ENDBRANCH   6   7
ENDBRANCH   5   6
ENDBRANCH   4   5
ENDBRANCH   3   4
ENDBRANCH   2   3
ENDBRANCH   1   2
BRANCH   1  18
ATOM     18  C   UNL     1      26.794  16.697 -11.425  1.00  0.00     0.000 C 
BRANCH  18  19
ATOM     19  C   UNL     1      25.605  16.696 -10.452  1.00  0.00     0.000 C 
BRANCH  19  20
ATOM     20  C   UNL     1      24.918  18.070 -10.436  1.00  0.00     0.000 C 
BRANCH  20  21
ATOM     21  C   UNL     1      25.172  18.894 -11.712  1.00  0.00     0.000 C 
BRANCH  21  22
ATOM     22  C   UNL     1      23.920  19.260 -12.540  1.00  0.00     0.000 C 
BRANCH  22  23
ATOM     23  C   UNL     1      22.780  18.217 -12.532  1.00  0.00     0.000 C 
BRANCH  23  24
ATOM     24  C   UNL     1      23.122  16.886 -13.227  1.00  0.00    -0.000 C 
BRANCH  24  25
ATOM     25  C   UNL     1      23.162  16.994 -14.762  1.00  0.00    -0.000 C 
BRANCH  25  26
ATOM     26  C   UNL     1      24.373  16.265 -15.385  1.00  0.00    -0.000 C 
BRANCH  26  27
ATOM     27  C   UNL     1      25.732  16.713 -14.815  1.00  0.00    -0.000 C 
BRANCH  27  28
ATOM     28  C   UNL     1      26.185  18.114 -15.257  1.00  0.00    -0.000 C 
BRANCH  28  29
ATOM     29  C   UNL     1      26.804  18.122 -16.663  1.00  0.00    -0.000 C 
BRANCH  29  30
ATOM     30  C   UNL     1      25.885  18.831 -17.665  1.00  0.00    -0.000 C 
BRANCH  30  31
ATOM     31  C   UNL     1      24.995  19.864 -16.963  1.00  0.00    -0.003 C 
ATOM     32  C   UNL     1      23.863  20.328 -17.874  1.00  0.00     0.004 C 
ENDBRANCH  30  31
ENDBRANCH  29  30
ENDBRANCH  28  29
ENDBRANCH  27  28
ENDBRANCH  26  27
ENDBRANCH  25  26
ENDBRANCH  24  25
ENDBRANCH  23  24
ENDBRANCH  22  23
ENDBRANCH  21  22
ENDBRANCH  20  21
ENDBRANCH  19  20
ENDBRANCH  18  19
ENDBRANCH   1  18
TORSDOF 28
ENDMDL
MODEL 9
REMARK VINA RESULT:    -4.981      2.519      7.719
REMARK INTER + INTRA:         -18.085
REMARK INTER:                 -13.303
REMARK INTRA:                  -4.782
REMARK UNBOUND:                -4.952
REMARK SMILES CCCCCCCCCCCCCCCCCCCCCCCCCCCCCC(=O)[O-]
REMARK SMILES IDX 16 1 17 2 18 3 19 4 20 5 21 6 22 7 23 8 24 9 25 10 26 11
REMARK SMILES IDX 27 12 28 13 29 14 30 15 31 16 32 17 15 18 14 19 13 20 12 21
REMARK SMILES IDX 11 22 10 23 9 24 8 25 7 26 6 27 5 28 4 29 3 30 2 31 1 32
REMARK H PARENT
REMARK Flexibility Score: inf
ROOT
ATOM      1  C   UNL     1      28.624  16.077 -11.003  1.00  0.00     0.000 C 
ENDROOT
BRANCH   1   2
ATOM      2  C   UNL     1      27.135  16.372 -11.257  1.00  0.00     0.000 C 
BRANCH   2   3
ATOM      3  C   UNL     1      26.917  17.724 -11.955  1.00  0.00     0.000 C 
BRANCH   3   4
ATOM      4  C   UNL     1      25.623  18.419 -11.501  1.00  0.00     0.000 C 
BRANCH   4   5
ATOM      5  C   UNL     1      24.554  17.429 -11.005  1.00  0.00     0.000 C 
BRANCH   5   6
ATOM      6  C   UNL     1      23.158  17.665 -11.618  1.00  0.00     0.000 C 
BRANCH   6   7
ATOM      7  C   UNL     1      22.042  16.945 -10.839  1.00  0.00     0.000 C 
BRANCH   7   8
ATOM      8  C   UNL     1      22.572  15.786  -9.980  1.00  0.00     0.000 C 
BRANCH   8   9
ATOM      9  C   UNL     1      22.276  15.971  -8.483  1.00  0.00     0.000 C 
BRANCH   9  10
ATOM     10  C   UNL     1      21.151  16.993  -8.272  1.00  0.00     0.000 C 
BRANCH  10  11
ATOM     11  C   UNL     1      21.527  18.108  -7.277  1.00  0.00     0.000 C 
BRANCH  11  12
ATOM     12  C   UNL     1      20.524  18.330  -6.128  1.00  0.00     0.000 C 
BRANCH  12  13
ATOM     13  C   UNL     1      20.597  19.708  -5.443  1.00  0.00     0.006 C 
BRANCH  13  14
ATOM     14  C   UNL     1      19.637  20.753  -6.042  1.00  0.00     0.053 C 
BRANCH  14  15
ATOM     15  C   UNL     1      20.327  21.672  -7.000  1.00  0.00     0.041 C 
ATOM     16  O   UNL     1      21.285  22.392  -6.617  1.00  0.00    -0.550 OA
ATOM     17  O   UNL     1      19.903  21.744  -8.322  1.00  0.00    -0.550 OA
ENDBRANCH  14  15
ENDBRANCH  13  14
ENDBRANCH  12  13
ENDBRANCH  11  12
ENDBRANCH  10  11
ENDBRANCH   9  10
ENDBRANCH   8   9
ENDBRANCH   7   8
ENDBRANCH   6   7
ENDBRANCH   5   6
ENDBRANCH   4   5
ENDBRANCH   3   4
ENDBRANCH   2   3
ENDBRANCH   1   2
BRANCH   1  18
ATOM     18  C   UNL     1      28.833  14.992  -9.936  1.00  0.00     0.000 C 
BRANCH  18  19
ATOM     19  C   UNL     1      28.890  13.578 -10.535  1.00  0.00     0.000 C 
BRANCH  19  20
ATOM     20  C   UNL     1      27.963  12.626  -9.764  1.00  0.00     0.000 C 
BRANCH  20  21
ATOM     21  C   UNL     1      26.971  13.355  -8.839  1.00  0.00     0.000 C 
BRANCH  21  22
ATOM     22  C   UNL     1      25.595  13.692  -9.455  1.00  0.00     0.000 C 
BRANCH  22  23
ATOM     23  C   UNL     1      25.148  12.797 -10.633  1.00  0.00     0.000 C 
BRANCH  23  24
ATOM     24  C   UNL     1      24.869  13.554 -11.944  1.00  0.00    -0.000 C 
BRANCH  24  25
ATOM     25  C   UNL     1      25.938  13.315 -13.024  1.00  0.00    -0.000 C 
BRANCH  25  26
ATOM     26  C   UNL     1      25.729  14.188 -14.282  1.00  0.00    -0.000 C 
BRANCH  26  27
ATOM     27  C   UNL     1      24.848  15.428 -14.041  1.00  0.00    -0.000 C 
BRANCH  27  28
ATOM     28  C   UNL     1      24.627  16.311 -15.280  1.00  0.00    -0.000 C 
BRANCH  28  29
ATOM     29  C   UNL     1      25.663  17.439 -15.397  1.00  0.00    -0.000 C 
BRANCH  29  30
ATOM     30  C   UNL     1      25.002  18.754 -15.828  1.00  0.00    -0.000 C 
BRANCH  30  31
ATOM     31  C   UNL     1      24.108  19.313 -14.714  1.00  0.00    -0.003 C 
ATOM     32  C   UNL     1      22.723  19.668 -15.243  1.00  0.00     0.004 C 
ENDBRANCH  30  31
ENDBRANCH  29  30
ENDBRANCH  28  29
ENDBRANCH  27  28
ENDBRANCH  26  27
ENDBRANCH  25  26
ENDBRANCH  24  25
ENDBRANCH  23  24
ENDBRANCH  22  23
ENDBRANCH  21  22
ENDBRANCH  20  21
ENDBRANCH  19  20
ENDBRANCH  18  19
ENDBRANCH   1  18
TORSDOF 28
ENDMDL
