MODEL 1
REMARK VINA RESULT:    -4.666      0.000      0.000
REMARK INTER + INTRA:          -6.216
REMARK INTER:                  -6.030
REMARK INTRA:                  -0.186
REMARK UNBOUND:                -0.186
REMARK SMILES C=CC(=O)CCCCC
REMARK SMILES IDX 6 1 7 2 8 3 9 4 5 5 3 6 4 7 2 8 1 9
REMARK H PARENT
REMARK Flexibility Score: inf
ROOT
ATOM      1  C   UNL     1      15.609 -26.096  24.830  1.00  0.00     0.008 C 
ENDROOT
BRANCH   1   2
ATOM      2  C   UNL     1      14.786 -25.874  26.109  1.00  0.00     0.000 C 
BRANCH   2   3
ATOM      3  C   UNL     1      14.484 -24.391  26.367  1.00  0.00    -0.003 C 
ATOM      4  C   UNL     1      13.016 -24.184  26.727  1.00  0.00     0.004 C 
ENDBRANCH   2   3
ENDBRANCH   1   2
BRANCH   1   5
ATOM      5  C   UNL     1      17.121 -26.034  25.082  1.00  0.00     0.080 C 
BRANCH   5   6
ATOM      6  C   UNL     1      17.745 -24.940  24.267  1.00  0.00     0.155 C 
ATOM      7  O   UNL     1      17.073 -23.905  24.006  1.00  0.00    -0.295 OA
BRANCH   6   8
ATOM      8  C   UNL     1      19.115 -25.099  23.742  1.00  0.00     0.039 C 
ATOM      9  C   UNL     1      19.472 -24.669  22.534  1.00  0.00     0.012 C 
ENDBRANCH   6   8
ENDBRANCH   5   6
ENDBRANCH   1   5
TORSDOF 5
ENDMDL
MODEL 2
REMARK VINA RESULT:    -4.324      1.195      4.835
REMARK INTER + INTRA:          -5.774
REMARK INTER:                  -5.685
REMARK INTRA:                  -0.089
REMARK UNBOUND:                -0.186
REMARK SMILES C=CC(=O)CCCCC
REMARK SMILES IDX 6 1 7 2 8 3 9 4 5 5 3 6 4 7 2 8 1 9
REMARK H PARENT
REMARK Flexibility Score: inf
ROOT
ATOM      1  C   UNL     1      15.647 -25.895  24.521  1.00  0.00     0.008 C 
ENDROOT
BRANCH   1   2
ATOM      2  C   UNL     1      16.783 -25.077  23.889  1.00  0.00     0.000 C 
BRANCH   2   3
ATOM      3  C   UNL     1      18.133 -25.306  24.583  1.00  0.00    -0.003 C 
ATOM      4  C   UNL     1      19.272 -24.663  23.797  1.00  0.00     0.004 C 
ENDBRANCH   2   3
ENDBRANCH   1   2
BRANCH   1   5
ATOM      5  C   UNL     1      15.472 -25.605  26.018  1.00  0.00     0.080 C 
BRANCH   5   6
ATOM      6  C   UNL     1      14.658 -24.362  26.219  1.00  0.00     0.155 C 
ATOM      7  O   UNL     1      15.175 -23.238  25.975  1.00  0.00    -0.295 OA
BRANCH   6   8
ATOM      8  C   UNL     1      13.280 -24.457  26.740  1.00  0.00     0.039 C 
ATOM      9  C   UNL     1      12.289 -23.694  26.283  1.00  0.00     0.012 C 
ENDBRANCH   6   8
ENDBRANCH   5   6
ENDBRANCH   1   5
TORSDOF 5
ENDMDL
MODEL 3
REMARK VINA RESULT:    -4.146      9.446     10.372
REMARK INTER + INTRA:          -5.544
REMARK INTER:                  -5.113
REMARK INTRA:                  -0.431
REMARK UNBOUND:                -0.186
REMARK SMILES C=CC(=O)CCCCC
REMARK SMILES IDX 6 1 7 2 8 3 9 4 5 5 3 6 4 7 2 8 1 9
REMARK H PARENT
REMARK Flexibility Score: inf
ROOT
ATOM      1  C   UNL     1      10.473 -17.819  19.392  1.00  0.00     0.008 C 
ENDROOT
BRANCH   1   2
ATOM      2  C   UNL     1       9.739 -17.933  18.047  1.00  0.00     0.000 C 
BRANCH   2   3
ATOM      3  C   UNL     1       9.703 -19.372  17.513  1.00  0.00    -0.003 C 
ATOM      4  C   UNL     1      10.534 -19.508  16.241  1.00  0.00     0.004 C 
ENDBRANCH   2   3
ENDBRANCH   1   2
BRANCH   1   5
ATOM      5  C   UNL     1      11.999 -17.870  19.239  1.00  0.00     0.080 C 
BRANCH   5   6
ATOM      6  C   UNL     1      12.590 -18.852  20.207  1.00  0.00     0.155 C 
ATOM      7  O   UNL     1      13.843 -18.912  20.338  1.00  0.00    -0.295 OA
BRANCH   6   8
ATOM      8  C   UNL     1      11.712 -19.765  20.962  1.00  0.00     0.039 C 
ATOM      9  C   UNL     1      11.583 -21.054  20.652  1.00  0.00     0.012 C 
ENDBRANCH   6   8
ENDBRANCH   5   6
ENDBRANCH   1   5
TORSDOF 5
ENDMDL
MODEL 4
REMARK VINA RESULT:    -4.131     10.956     12.254
REMARK INTER + INTRA:          -5.524
REMARK INTER:                  -5.405
REMARK INTRA:                  -0.119
REMARK UNBOUND:                -0.186
REMARK SMILES C=CC(=O)CCCCC
REMARK SMILES IDX 6 1 7 2 8 3 9 4 5 5 3 6 4 7 2 8 1 9
REMARK H PARENT
REMARK Flexibility Score: inf
ROOT
ATOM      1  C   UNL     1      20.788 -20.467  15.880  1.00  0.00     0.008 C 
ENDROOT
BRANCH   1   2
ATOM      2  C   UNL     1      20.213 -19.382  16.803  1.00  0.00     0.000 C 
BRANCH   2   3
ATOM      3  C   UNL     1      21.303 -18.625  17.575  1.00  0.00    -0.003 C 
ATOM      4  C   UNL     1      22.464 -19.548  17.935  1.00  0.00     0.004 C 
ENDBRANCH   2   3
ENDBRANCH   1   2
BRANCH   1   5
ATOM      5  C   UNL     1      20.133 -20.470  14.492  1.00  0.00     0.080 C 
BRANCH   5   6
ATOM      6  C   UNL     1      20.928 -21.312  13.539  1.00  0.00     0.155 C 
ATOM      7  O   UNL     1      21.583 -22.295  13.981  1.00  0.00    -0.295 OA
BRANCH   6   8
ATOM      8  C   UNL     1      20.974 -20.963  12.106  1.00  0.00     0.039 C 
ATOM      9  C   UNL     1      20.937 -21.883  11.144  1.00  0.00     0.012 C 
ENDBRANCH   6   8
ENDBRANCH   5   6
ENDBRANCH   1   5
TORSDOF 5
ENDMDL
MODEL 5
REMARK VINA RESULT:    -3.955      9.793     10.550
REMARK INTER + INTRA:          -5.297
REMARK INTER:                  -4.846
REMARK INTRA:                  -0.451
REMARK UNBOUND:                -0.186
REMARK SMILES C=CC(=O)CCCCC
REMARK SMILES IDX 6 1 7 2 8 3 9 4 5 5 3 6 4 7 2 8 1 9
REMARK H PARENT
REMARK Flexibility Score: inf
ROOT
ATOM      1  C   UNL     1       9.634 -18.016  19.610  1.00  0.00     0.008 C 
ENDROOT
BRANCH   1   2
ATOM      2  C   UNL     1       9.983 -17.990  18.113  1.00  0.00     0.000 C 
BRANCH   2   3
ATOM      3  C   UNL     1       9.735 -19.340  17.425  1.00  0.00    -0.003 C 
ATOM      4  C   UNL     1      10.513 -19.441  16.116  1.00  0.00     0.004 C 
ENDBRANCH   2   3
ENDBRANCH   1   2
BRANCH   1   5
ATOM      5  C   UNL     1      10.860 -17.794  20.506  1.00  0.00     0.080 C 
BRANCH   5   6
ATOM      6  C   UNL     1      11.828 -18.931  20.363  1.00  0.00     0.155 C 
ATOM      7  O   UNL     1      11.433 -20.109  20.580  1.00  0.00    -0.295 OA
BRANCH   6   8
ATOM      8  C   UNL     1      13.236 -18.663  20.014  1.00  0.00     0.039 C 
ATOM      9  C   UNL     1      13.585 -17.937  18.953  1.00  0.00     0.012 C 
ENDBRANCH   6   8
ENDBRANCH   5   6
ENDBRANCH   1   5
TORSDOF 5
ENDMDL
MODEL 6
REMARK VINA RESULT:    -3.798      9.665     10.568
REMARK INTER + INTRA:          -5.094
REMARK INTER:                  -4.606
REMARK INTRA:                  -0.489
REMARK UNBOUND:                -0.186
REMARK SMILES C=CC(=O)CCCCC
REMARK SMILES IDX 6 1 7 2 8 3 9 4 5 5 3 6 4 7 2 8 1 9
REMARK H PARENT
REMARK Flexibility Score: inf
ROOT
ATOM      1  C   UNL     1      10.976 -18.493  20.613  1.00  0.00     0.008 C 
ENDROOT
BRANCH   1   2
ATOM      2  C   UNL     1      12.070 -19.558  20.789  1.00  0.00     0.000 C 
BRANCH   2   3
ATOM      3  C   UNL     1      11.540 -20.986  20.597  1.00  0.00    -0.003 C 
ATOM      4  C   UNL     1      10.050 -21.067  20.914  1.00  0.00     0.004 C 
ENDBRANCH   2   3
ENDBRANCH   1   2
BRANCH   1   5
ATOM      5  C   UNL     1      10.969 -17.880  19.206  1.00  0.00     0.080 C 
BRANCH   5   6
ATOM      6  C   UNL     1       9.690 -18.212  18.496  1.00  0.00     0.155 C 
ATOM      7  O   UNL     1       8.643 -17.564  18.773  1.00  0.00    -0.295 OA
BRANCH   6   8
ATOM      8  C   UNL     1       9.653 -19.314  17.516  1.00  0.00     0.039 C 
ATOM      9  C   UNL     1      10.523 -19.409  16.513  1.00  0.00     0.012 C 
ENDBRANCH   6   8
ENDBRANCH   5   6
ENDBRANCH   1   5
TORSDOF 5
ENDMDL
MODEL 7
REMARK VINA RESULT:    -3.776      9.222     10.128
REMARK INTER + INTRA:          -5.066
REMARK INTER:                  -4.598
REMARK INTRA:                  -0.468
REMARK UNBOUND:                -0.186
REMARK SMILES C=CC(=O)CCCCC
REMARK SMILES IDX 6 1 7 2 8 3 9 4 5 5 3 6 4 7 2 8 1 9
REMARK H PARENT
REMARK Flexibility Score: inf
ROOT
ATOM      1  C   UNL     1      11.071 -17.538  19.231  1.00  0.00     0.008 C 
ENDROOT
BRANCH   1   2
ATOM      2  C   UNL     1      10.041 -17.872  18.139  1.00  0.00     0.000 C 
BRANCH   2   3
ATOM      3  C   UNL     1       8.612 -17.980  18.689  1.00  0.00    -0.003 C 
ATOM      4  C   UNL     1       8.592 -17.812  20.206  1.00  0.00     0.004 C 
ENDBRANCH   2   3
ENDBRANCH   1   2
BRANCH   1   5
ATOM      5  C   UNL     1      12.414 -18.248  19.012  1.00  0.00     0.080 C 
BRANCH   5   6
ATOM      6  C   UNL     1      12.844 -18.953  20.265  1.00  0.00     0.155 C 
ATOM      7  O   UNL     1      14.043 -18.863  20.644  1.00  0.00    -0.295 OA
BRANCH   6   8
ATOM      8  C   UNL     1      11.878 -19.777  21.017  1.00  0.00     0.039 C 
ATOM      9  C   UNL     1      11.485 -20.979  20.599  1.00  0.00     0.012 C 
ENDBRANCH   6   8
ENDBRANCH   5   6
ENDBRANCH   1   5
TORSDOF 5
ENDMDL
MODEL 8
REMARK VINA RESULT:    -3.716      8.819      9.916
REMARK INTER + INTRA:          -4.989
REMARK INTER:                  -4.546
REMARK INTRA:                  -0.443
REMARK UNBOUND:                -0.186
REMARK SMILES C=CC(=O)CCCCC
REMARK SMILES IDX 6 1 7 2 8 3 9 4 5 5 3 6 4 7 2 8 1 9
REMARK H PARENT
REMARK Flexibility Score: inf
ROOT
ATOM      1  C   UNL     1      11.588 -19.440  21.217  1.00  0.00     0.008 C 
ENDROOT
BRANCH   1   2
ATOM      2  C   UNL     1      11.273 -20.835  20.653  1.00  0.00     0.000 C 
BRANCH   2   3
ATOM      3  C   UNL     1       9.830 -21.275  20.937  1.00  0.00    -0.003 C 
ATOM      4  C   UNL     1       9.783 -22.319  22.049  1.00  0.00     0.004 C 
ENDBRANCH   2   3
ENDBRANCH   1   2
BRANCH   1   5
ATOM      5  C   UNL     1      10.586 -18.375  20.751  1.00  0.00     0.080 C 
BRANCH   5   6
ATOM      6  C   UNL     1      10.912 -17.923  19.358  1.00  0.00     0.155 C 
ATOM      7  O   UNL     1      12.055 -17.447  19.114  1.00  0.00    -0.295 OA
BRANCH   6   8
ATOM      8  C   UNL     1       9.888 -17.997  18.298  1.00  0.00     0.039 C 
ATOM      9  C   UNL     1       9.799 -19.028  17.460  1.00  0.00     0.012 C 
ENDBRANCH   6   8
ENDBRANCH   5   6
ENDBRANCH   1   5
TORSDOF 5
ENDMDL
MODEL 9
REMARK VINA RESULT:    -3.666     14.209     14.808
REMARK INTER + INTRA:          -4.923
REMARK INTER:                  -4.296
REMARK INTRA:                  -0.627
REMARK UNBOUND:                -0.186
REMARK SMILES C=CC(=O)CCCCC
REMARK SMILES IDX 6 1 7 2 8 3 9 4 5 5 3 6 4 7 2 8 1 9
REMARK H PARENT
REMARK Flexibility Score: inf
ROOT
ATOM      1  C   UNL     1      18.718 -11.366  26.008  1.00  0.00     0.008 C 
ENDROOT
BRANCH   1   2
ATOM      2  C   UNL     1      19.470 -12.598  25.480  1.00  0.00     0.000 C 
BRANCH   2   3
ATOM      3  C   UNL     1      20.208 -13.360  26.590  1.00  0.00    -0.003 C 
ATOM      4  C   UNL     1      19.571 -13.101  27.952  1.00  0.00     0.004 C 
ENDBRANCH   2   3
ENDBRANCH   1   2
BRANCH   1   5
ATOM      5  C   UNL     1      19.059 -10.087  25.231  1.00  0.00     0.080 C 
BRANCH   5   6
ATOM      6  C   UNL     1      20.471  -9.664  25.513  1.00  0.00     0.155 C 
ATOM      7  O   UNL     1      21.272  -9.504  24.552  1.00  0.00    -0.295 OA
BRANCH   6   8
ATOM      8  C   UNL     1      20.922  -9.479  26.906  1.00  0.00     0.039 C 
ATOM      9  C   UNL     1      21.983 -10.112  27.404  1.00  0.00     0.012 C 
ENDBRANCH   6   8
ENDBRANCH   5   6
ENDBRANCH   1   5
TORSDOF 5
ENDMDL
