MODEL 1
REMARK VINA RESULT:    -4.229      0.000      0.000
REMARK INTER + INTRA:          -9.009
REMARK INTER:                  -7.690
REMARK INTRA:                  -1.319
REMARK UNBOUND:                -1.319
REMARK SMILES CCCCCCCCCCCCCCCC(=O)[O-]
REMARK SMILES IDX 9 1 10 2 11 3 12 4 13 5 14 6 15 7 16 8 17 9 18 10 8 11 7 12
REMARK SMILES IDX 6 13 5 14 4 15 3 16 2 17 1 18
REMARK H PARENT
REMARK Flexibility Score: inf
ROOT
ATOM      1  C   UNL     1       1.104  15.791  18.793  1.00  0.00     0.000 C 
ENDROOT
BRANCH   1   2
ATOM      2  C   UNL     1       1.926  14.716  18.059  1.00  0.00     0.000 C 
BRANCH   2   3
ATOM      3  C   UNL     1       2.629  13.741  19.016  1.00  0.00     0.000 C 
BRANCH   3   4
ATOM      4  C   UNL     1       3.489  12.733  18.240  1.00  0.00     0.000 C 
BRANCH   4   5
ATOM      5  C   UNL     1       3.603  13.070  16.742  1.00  0.00     0.000 C 
BRANCH   5   6
ATOM      6  C   UNL     1       4.958  12.712  16.095  1.00  0.00     0.006 C 
BRANCH   6   7
ATOM      7  C   UNL     1       4.937  12.656  14.560  1.00  0.00     0.053 C 
BRANCH   7   8
ATOM      8  C   UNL     1       4.633  11.280  14.053  1.00  0.00     0.041 C 
ATOM      9  O   UNL     1       4.259  11.112  12.863  1.00  0.00    -0.550 OA
ATOM     10  O   UNL     1       4.732  10.187  14.905  1.00  0.00    -0.550 OA
ENDBRANCH   7   8
ENDBRANCH   6   7
ENDBRANCH   5   6
ENDBRANCH   4   5
ENDBRANCH   3   4
ENDBRANCH   2   3
ENDBRANCH   1   2
BRANCH   1  11
ATOM     11  C   UNL     1      -0.423  15.618  18.705  1.00  0.00     0.000 C 
BRANCH  11  12
ATOM     12  C   UNL     1      -1.127  15.821  20.057  1.00  0.00    -0.000 C 
BRANCH  12  13
ATOM     13  C   UNL     1      -1.792  17.204  20.174  1.00  0.00    -0.000 C 
BRANCH  13  14
ATOM     14  C   UNL     1      -1.033  18.143  21.128  1.00  0.00    -0.000 C 
BRANCH  14  15
ATOM     15  C   UNL     1      -0.020  19.036  20.394  1.00  0.00    -0.000 C 
BRANCH  15  16
ATOM     16  C   UNL     1      -0.532  19.520  19.029  1.00  0.00    -0.000 C 
BRANCH  16  17
ATOM     17  C   UNL     1       0.561  19.401  17.960  1.00  0.00    -0.003 C 
ATOM     18  C   UNL     1       1.950  19.397  18.590  1.00  0.00     0.004 C 
ENDBRANCH  16  17
ENDBRANCH  15  16
ENDBRANCH  14  15
ENDBRANCH  13  14
ENDBRANCH  12  13
ENDBRANCH  11  12
ENDBRANCH   1  11
TORSDOF 14
ENDMDL
MODEL 2
REMARK VINA RESULT:    -4.112      1.327      1.668
REMARK INTER + INTRA:          -8.797
REMARK INTER:                  -7.554
REMARK INTRA:                  -1.243
REMARK UNBOUND:                -1.319
REMARK SMILES CCCCCCCCCCCCCCCC(=O)[O-]
REMARK SMILES IDX 9 1 10 2 11 3 12 4 13 5 14 6 15 7 16 8 17 9 18 10 8 11 7 12
REMARK SMILES IDX 6 13 5 14 4 15 3 16 2 17 1 18
REMARK H PARENT
REMARK Flexibility Score: inf
ROOT
ATOM      1  C   UNL     1       0.836  15.938  18.748  1.00  0.00     0.000 C 
ENDROOT
BRANCH   1   2
ATOM      2  C   UNL     1       1.975  14.974  18.368  1.00  0.00     0.000 C 
BRANCH   2   3
ATOM      3  C   UNL     1       2.080  13.767  19.314  1.00  0.00     0.000 C 
BRANCH   3   4
ATOM      4  C   UNL     1       3.398  13.010  19.094  1.00  0.00     0.000 C 
BRANCH   4   5
ATOM      5  C   UNL     1       3.186  11.563  18.615  1.00  0.00     0.000 C 
BRANCH   5   6
ATOM      6  C   UNL     1       3.527  11.311  17.132  1.00  0.00     0.006 C 
BRANCH   6   7
ATOM      7  C   UNL     1       4.350  12.426  16.468  1.00  0.00     0.053 C 
BRANCH   7   8
ATOM      8  C   UNL     1       3.681  12.960  15.238  1.00  0.00     0.041 C 
ATOM      9  O   UNL     1       2.618  13.628  15.336  1.00  0.00    -0.550 OA
ATOM     10  O   UNL     1       4.214  12.694  13.984  1.00  0.00    -0.550 OA
ENDBRANCH   7   8
ENDBRANCH   6   7
ENDBRANCH   5   6
ENDBRANCH   4   5
ENDBRANCH   3   4
ENDBRANCH   2   3
ENDBRANCH   1   2
BRANCH   1  11
ATOM     11  C   UNL     1      -0.504  15.262  19.091  1.00  0.00     0.000 C 
BRANCH  11  12
ATOM     12  C   UNL     1      -1.323  16.051  20.127  1.00  0.00    -0.000 C 
BRANCH  12  13
ATOM     13  C   UNL     1      -1.371  17.557  19.818  1.00  0.00    -0.000 C 
BRANCH  13  14
ATOM     14  C   UNL     1      -0.866  18.415  20.993  1.00  0.00    -0.000 C 
BRANCH  14  15
ATOM     15  C   UNL     1      -0.277  19.757  20.533  1.00  0.00    -0.000 C 
BRANCH  15  16
ATOM     16  C   UNL     1       0.176  19.736  19.065  1.00  0.00    -0.000 C 
BRANCH  16  17
ATOM     17  C   UNL     1       1.693  19.536  18.963  1.00  0.00    -0.003 C 
ATOM     18  C   UNL     1       2.240  20.120  17.663  1.00  0.00     0.004 C 
ENDBRANCH  16  17
ENDBRANCH  15  16
ENDBRANCH  14  15
ENDBRANCH  13  14
ENDBRANCH  12  13
ENDBRANCH  11  12
ENDBRANCH   1  11
TORSDOF 14
ENDMDL
MODEL 3
REMARK VINA RESULT:    -4.091      3.588      7.562
REMARK INTER + INTRA:          -8.759
REMARK INTER:                  -7.500
REMARK INTRA:                  -1.259
REMARK UNBOUND:                -1.319
REMARK SMILES CCCCCCCCCCCCCCCC(=O)[O-]
REMARK SMILES IDX 9 1 10 2 11 3 12 4 13 5 14 6 15 7 16 8 17 9 18 10 8 11 7 12
REMARK SMILES IDX 6 13 5 14 4 15 3 16 2 17 1 18
REMARK H PARENT
REMARK Flexibility Score: inf
ROOT
ATOM      1  C   UNL     1       0.545  15.378  18.367  1.00  0.00     0.000 C 
ENDROOT
BRANCH   1   2
ATOM      2  C   UNL     1      -0.464  15.202  19.517  1.00  0.00     0.000 C 
BRANCH   2   3
ATOM      3  C   UNL     1      -1.639  16.190  19.440  1.00  0.00     0.000 C 
BRANCH   3   4
ATOM      4  C   UNL     1      -1.145  17.606  19.112  1.00  0.00     0.000 C 
BRANCH   4   5
ATOM      5  C   UNL     1      -0.597  18.351  20.342  1.00  0.00     0.000 C 
BRANCH   5   6
ATOM      6  C   UNL     1       0.513  19.379  20.041  1.00  0.00     0.006 C 
BRANCH   6   7
ATOM      7  C   UNL     1       1.615  18.870  19.099  1.00  0.00     0.053 C 
BRANCH   7   8
ATOM      8  C   UNL     1       1.770  19.746  17.893  1.00  0.00     0.041 C 
ATOM      9  O   UNL     1       0.756  20.119  17.247  1.00  0.00    -0.550 OA
ATOM     10  O   UNL     1       3.037  20.123  17.465  1.00  0.00    -0.550 OA
ENDBRANCH   7   8
ENDBRANCH   6   7
ENDBRANCH   5   6
ENDBRANCH   4   5
ENDBRANCH   3   4
ENDBRANCH   2   3
ENDBRANCH   1   2
BRANCH   1  11
ATOM     11  C   UNL     1       2.009  15.069  18.730  1.00  0.00     0.000 C 
BRANCH  11  12
ATOM     12  C   UNL     1       2.175  13.721  19.451  1.00  0.00    -0.000 C 
BRANCH  12  13
ATOM     13  C   UNL     1       3.492  13.015  19.086  1.00  0.00    -0.000 C 
BRANCH  13  14
ATOM     14  C   UNL     1       3.267  11.584  18.564  1.00  0.00    -0.000 C 
BRANCH  14  15
ATOM     15  C   UNL     1       3.524  11.460  17.053  1.00  0.00    -0.000 C 
BRANCH  15  16
ATOM     16  C   UNL     1       3.820  12.813  16.387  1.00  0.00    -0.000 C 
BRANCH  16  17
ATOM     17  C   UNL     1       3.495  12.768  14.889  1.00  0.00    -0.003 C 
ATOM     18  C   UNL     1       4.753  12.526  14.060  1.00  0.00     0.004 C 
ENDBRANCH  16  17
ENDBRANCH  15  16
ENDBRANCH  14  15
ENDBRANCH  13  14
ENDBRANCH  12  13
ENDBRANCH  11  12
ENDBRANCH   1  11
TORSDOF 14
ENDMDL
MODEL 4
REMARK VINA RESULT:    -4.080      0.980      1.996
REMARK INTER + INTRA:          -8.739
REMARK INTER:                  -7.610
REMARK INTRA:                  -1.129
REMARK UNBOUND:                -1.319
REMARK SMILES CCCCCCCCCCCCCCCC(=O)[O-]
REMARK SMILES IDX 9 1 10 2 11 3 12 4 13 5 14 6 15 7 16 8 17 9 18 10 8 11 7 12
REMARK SMILES IDX 6 13 5 14 4 15 3 16 2 17 1 18
REMARK H PARENT
REMARK Flexibility Score: inf
ROOT
ATOM      1  C   UNL     1       2.384  13.362  19.412  1.00  0.00     0.000 C 
ENDROOT
BRANCH   1   2
ATOM      2  C   UNL     1       3.563  12.428  19.086  1.00  0.00     0.000 C 
BRANCH   2   3
ATOM      3  C   UNL     1       3.115  11.060  18.549  1.00  0.00     0.000 C 
BRANCH   3   4
ATOM      4  C   UNL     1       3.498  10.899  17.071  1.00  0.00     0.000 C 
BRANCH   4   5
ATOM      5  C   UNL     1       3.687  12.244  16.349  1.00  0.00     0.000 C 
BRANCH   5   6
ATOM      6  C   UNL     1       5.024  12.396  15.593  1.00  0.00     0.006 C 
BRANCH   6   7
ATOM      7  C   UNL     1       4.886  12.511  14.067  1.00  0.00     0.053 C 
BRANCH   7   8
ATOM      8  C   UNL     1       4.472  11.213  13.443  1.00  0.00     0.041 C 
ATOM      9  O   UNL     1       3.722  11.208  12.432  1.00  0.00    -0.550 OA
ATOM     10  O   UNL     1       4.890  10.010  13.997  1.00  0.00    -0.550 OA
ENDBRANCH   7   8
ENDBRANCH   6   7
ENDBRANCH   5   6
ENDBRANCH   4   5
ENDBRANCH   3   4
ENDBRANCH   2   3
ENDBRANCH   1   2
BRANCH   1  11
ATOM     11  C   UNL     1       2.470  14.767  18.787  1.00  0.00     0.000 C 
BRANCH  11  12
ATOM     12  C   UNL     1       1.145  15.221  18.151  1.00  0.00    -0.000 C 
BRANCH  12  13
ATOM     13  C   UNL     1      -0.003  15.294  19.172  1.00  0.00    -0.000 C 
BRANCH  13  14
ATOM     14  C   UNL     1      -0.867  16.556  18.996  1.00  0.00    -0.000 C 
BRANCH  14  15
ATOM     15  C   UNL     1      -0.887  17.438  20.255  1.00  0.00    -0.000 C 
BRANCH  15  16
ATOM     16  C   UNL     1      -0.117  18.754  20.071  1.00  0.00    -0.000 C 
BRANCH  16  17
ATOM     17  C   UNL     1       0.411  18.885  18.638  1.00  0.00    -0.003 C 
ATOM     18  C   UNL     1       1.913  19.147  18.625  1.00  0.00     0.004 C 
ENDBRANCH  16  17
ENDBRANCH  15  16
ENDBRANCH  14  15
ENDBRANCH  13  14
ENDBRANCH  12  13
ENDBRANCH  11  12
ENDBRANCH   1  11
TORSDOF 14
ENDMDL
MODEL 5
REMARK VINA RESULT:    -4.025      3.506      7.697
REMARK INTER + INTRA:          -8.638
REMARK INTER:                  -7.404
REMARK INTRA:                  -1.235
REMARK UNBOUND:                -1.319
REMARK SMILES CCCCCCCCCCCCCCCC(=O)[O-]
REMARK SMILES IDX 9 1 10 2 11 3 12 4 13 5 14 6 15 7 16 8 17 9 18 10 8 11 7 12
REMARK SMILES IDX 6 13 5 14 4 15 3 16 2 17 1 18
REMARK H PARENT
REMARK Flexibility Score: inf
ROOT
ATOM      1  C   UNL     1       1.249  15.263  18.412  1.00  0.00     0.000 C 
ENDROOT
BRANCH   1   2
ATOM      2  C   UNL     1      -0.157  15.854  18.625  1.00  0.00     0.000 C 
BRANCH   2   3
ATOM      3  C   UNL     1      -0.833  15.347  19.909  1.00  0.00     0.000 C 
BRANCH   3   4
ATOM      4  C   UNL     1      -1.541  16.493  20.645  1.00  0.00     0.000 C 
BRANCH   4   5
ATOM      5  C   UNL     1      -1.290  17.867  20.000  1.00  0.00     0.000 C 
BRANCH   5   6
ATOM      6  C   UNL     1      -0.337  18.791  20.786  1.00  0.00     0.006 C 
BRANCH   6   7
ATOM      7  C   UNL     1       0.254  19.947  19.963  1.00  0.00     0.053 C 
BRANCH   7   8
ATOM      8  C   UNL     1       0.903  19.463  18.703  1.00  0.00     0.041 C 
ATOM      9  O   UNL     1       2.001  18.848  18.751  1.00  0.00    -0.550 OA
ATOM     10  O   UNL     1       0.311  19.719  17.473  1.00  0.00    -0.550 OA
ENDBRANCH   7   8
ENDBRANCH   6   7
ENDBRANCH   5   6
ENDBRANCH   4   5
ENDBRANCH   3   4
ENDBRANCH   2   3
ENDBRANCH   1   2
BRANCH   1  11
ATOM     11  C   UNL     1       1.624  14.111  19.363  1.00  0.00     0.000 C 
BRANCH  11  12
ATOM     12  C   UNL     1       3.069  13.623  19.170  1.00  0.00    -0.000 C 
BRANCH  12  13
ATOM     13  C   UNL     1       3.144  12.129  18.812  1.00  0.00    -0.000 C 
BRANCH  13  14
ATOM     14  C   UNL     1       3.715  11.889  17.403  1.00  0.00    -0.000 C 
BRANCH  14  15
ATOM     15  C   UNL     1       3.967  13.198  16.638  1.00  0.00    -0.000 C 
BRANCH  15  16
ATOM     16  C   UNL     1       3.024  13.378  15.439  1.00  0.00    -0.000 C 
BRANCH  16  17
ATOM     17  C   UNL     1       3.478  12.521  14.251  1.00  0.00    -0.003 C 
ATOM     18  C   UNL     1       5.000  12.469  14.159  1.00  0.00     0.004 C 
ENDBRANCH  16  17
ENDBRANCH  15  16
ENDBRANCH  14  15
ENDBRANCH  13  14
ENDBRANCH  12  13
ENDBRANCH  11  12
ENDBRANCH   1  11
TORSDOF 14
ENDMDL
MODEL 6
REMARK VINA RESULT:    -4.021      3.529      7.869
REMARK INTER + INTRA:          -8.632
REMARK INTER:                  -7.630
REMARK INTRA:                  -1.001
REMARK UNBOUND:                -1.319
REMARK SMILES CCCCCCCCCCCCCCCC(=O)[O-]
REMARK SMILES IDX 9 1 10 2 11 3 12 4 13 5 14 6 15 7 16 8 17 9 18 10 8 11 7 12
REMARK SMILES IDX 6 13 5 14 4 15 3 16 2 17 1 18
REMARK H PARENT
REMARK Flexibility Score: inf
ROOT
ATOM      1  C   UNL     1       1.336  17.198  18.928  1.00  0.00     0.000 C 
ENDROOT
BRANCH   1   2
ATOM      2  C   UNL     1       0.327  18.360  18.907  1.00  0.00     0.000 C 
BRANCH   2   3
ATOM      3  C   UNL     1       0.008  18.904  20.309  1.00  0.00     0.000 C 
BRANCH   3   4
ATOM      4  C   UNL     1      -1.468  18.676  20.663  1.00  0.00     0.000 C 
BRANCH   4   5
ATOM      5  C   UNL     1      -1.658  17.746  21.875  1.00  0.00     0.000 C 
BRANCH   5   6
ATOM      6  C   UNL     1      -1.670  16.239  21.545  1.00  0.00     0.006 C 
BRANCH   6   7
ATOM      7  C   UNL     1      -1.663  15.316  22.774  1.00  0.00     0.053 C 
BRANCH   7   8
ATOM      8  C   UNL     1      -1.236  13.923  22.426  1.00  0.00     0.041 C 
ATOM      9  O   UNL     1      -1.542  12.961  23.179  1.00  0.00    -0.550 OA
ATOM     10  O   UNL     1      -0.473  13.692  21.289  1.00  0.00    -0.550 OA
ENDBRANCH   7   8
ENDBRANCH   6   7
ENDBRANCH   5   6
ENDBRANCH   4   5
ENDBRANCH   3   4
ENDBRANCH   2   3
ENDBRANCH   1   2
BRANCH   1  11
ATOM     11  C   UNL     1       0.729  15.801  18.702  1.00  0.00     0.000 C 
BRANCH  11  12
ATOM     12  C   UNL     1       1.725  14.809  18.080  1.00  0.00    -0.000 C 
BRANCH  12  13
ATOM     13  C   UNL     1       2.308  13.832  19.117  1.00  0.00    -0.000 C 
BRANCH  13  14
ATOM     14  C   UNL     1       3.479  13.007  18.554  1.00  0.00    -0.000 C 
BRANCH  14  15
ATOM     15  C   UNL     1       3.537  13.034  17.018  1.00  0.00    -0.000 C 
BRANCH  15  16
ATOM     16  C   UNL     1       4.971  12.943  16.475  1.00  0.00    -0.000 C 
BRANCH  16  17
ATOM     17  C   UNL     1       4.976  12.447  15.024  1.00  0.00    -0.003 C 
ATOM     18  C   UNL     1       3.614  12.648  14.368  1.00  0.00     0.004 C 
ENDBRANCH  16  17
ENDBRANCH  15  16
ENDBRANCH  14  15
ENDBRANCH  13  14
ENDBRANCH  12  13
ENDBRANCH  11  12
ENDBRANCH   1  11
TORSDOF 14
ENDMDL
MODEL 7
REMARK VINA RESULT:    -3.977      3.763      7.948
REMARK INTER + INTRA:          -8.551
REMARK INTER:                  -6.836
REMARK INTRA:                  -1.715
REMARK UNBOUND:                -1.319
REMARK SMILES CCCCCCCCCCCCCCCC(=O)[O-]
REMARK SMILES IDX 9 1 10 2 11 3 12 4 13 5 14 6 15 7 16 8 17 9 18 10 8 11 7 12
REMARK SMILES IDX 6 13 5 14 4 15 3 16 2 17 1 18
REMARK H PARENT
REMARK Flexibility Score: inf
ROOT
ATOM      1  C   UNL     1       2.509  13.392  19.139  1.00  0.00     0.000 C 
ENDROOT
BRANCH   1   2
ATOM      2  C   UNL     1       2.381  14.880  18.764  1.00  0.00     0.000 C 
BRANCH   2   3
ATOM      3  C   UNL     1       0.929  15.309  18.500  1.00  0.00     0.000 C 
BRANCH   3   4
ATOM      4  C   UNL     1       0.719  16.787  18.860  1.00  0.00     0.000 C 
BRANCH   4   5
ATOM      5  C   UNL     1      -0.715  17.093  19.328  1.00  0.00     0.000 C 
BRANCH   5   6
ATOM      6  C   UNL     1      -1.492  15.881  19.882  1.00  0.00     0.006 C 
BRANCH   6   7
ATOM      7  C   UNL     1      -1.768  15.937  21.393  1.00  0.00     0.053 C 
BRANCH   7   8
ATOM      8  C   UNL     1      -1.181  14.762  22.114  1.00  0.00     0.041 C 
ATOM      9  O   UNL     1      -0.566  13.869  21.473  1.00  0.00    -0.550 OA
ATOM     10  O   UNL     1      -1.339  14.639  23.488  1.00  0.00    -0.550 OA
ENDBRANCH   7   8
ENDBRANCH   6   7
ENDBRANCH   5   6
ENDBRANCH   4   5
ENDBRANCH   3   4
ENDBRANCH   2   3
ENDBRANCH   1   2
BRANCH   1  11
ATOM     11  C   UNL     1       3.934  12.930  19.497  1.00  0.00     0.000 C 
BRANCH  11  12
ATOM     12  C   UNL     1       4.128  11.413  19.337  1.00  0.00    -0.000 C 
BRANCH  12  13
ATOM     13  C   UNL     1       2.990  10.754  18.540  1.00  0.00    -0.000 C 
BRANCH  13  14
ATOM     14  C   UNL     1       3.501   9.999  17.299  1.00  0.00    -0.000 C 
BRANCH  14  15
ATOM     15  C   UNL     1       3.442  10.853  16.023  1.00  0.00    -0.000 C 
BRANCH  15  16
ATOM     16  C   UNL     1       4.679  11.748  15.849  1.00  0.00    -0.000 C 
BRANCH  16  17
ATOM     17  C   UNL     1       4.287  13.230  15.849  1.00  0.00    -0.003 C 
ATOM     18  C   UNL     1       2.858  13.422  15.351  1.00  0.00     0.004 C 
ENDBRANCH  16  17
ENDBRANCH  15  16
ENDBRANCH  14  15
ENDBRANCH  13  14
ENDBRANCH  12  13
ENDBRANCH  11  12
ENDBRANCH   1  11
TORSDOF 14
ENDMDL
MODEL 8
REMARK VINA RESULT:    -3.950      0.945      2.640
REMARK INTER + INTRA:          -8.503
REMARK INTER:                  -7.345
REMARK INTRA:                  -1.158
REMARK UNBOUND:                -1.319
REMARK SMILES CCCCCCCCCCCCCCCC(=O)[O-]
REMARK SMILES IDX 9 1 10 2 11 3 12 4 13 5 14 6 15 7 16 8 17 9 18 10 8 11 7 12
REMARK SMILES IDX 6 13 5 14 4 15 3 16 2 17 1 18
REMARK H PARENT
REMARK Flexibility Score: inf
ROOT
ATOM      1  C   UNL     1       2.000  16.216  18.769  1.00  0.00     0.000 C 
ENDROOT
BRANCH   1   2
ATOM      2  C   UNL     1       1.711  14.805  18.224  1.00  0.00     0.000 C 
BRANCH   2   3
ATOM      3  C   UNL     1       2.387  13.695  19.044  1.00  0.00     0.000 C 
BRANCH   3   4
ATOM      4  C   UNL     1       3.402  12.922  18.189  1.00  0.00     0.000 C 
BRANCH   4   5
ATOM      5  C   UNL     1       3.515  13.466  16.754  1.00  0.00     0.000 C 
BRANCH   5   6
ATOM      6  C   UNL     1       4.715  12.927  15.946  1.00  0.00     0.006 C 
BRANCH   6   7
ATOM      7  C   UNL     1       4.431  12.708  14.452  1.00  0.00     0.053 C 
BRANCH   7   8
ATOM      8  C   UNL     1       4.542  11.265  14.065  1.00  0.00     0.041 C 
ATOM      9  O   UNL     1       4.290  10.905  12.885  1.00  0.00    -0.550 OA
ATOM     10  O   UNL     1       4.891  10.314  15.016  1.00  0.00    -0.550 OA
ENDBRANCH   7   8
ENDBRANCH   6   7
ENDBRANCH   5   6
ENDBRANCH   4   5
ENDBRANCH   3   4
ENDBRANCH   2   3
ENDBRANCH   1   2
BRANCH   1  11
ATOM     11  C   UNL     1       0.809  17.191  18.720  1.00  0.00     0.000 C 
BRANCH  11  12
ATOM     12  C   UNL     1       1.152  18.582  19.279  1.00  0.00    -0.000 C 
BRANCH  12  13
ATOM     13  C   UNL     1       0.098  19.093  20.276  1.00  0.00    -0.000 C 
BRANCH  13  14
ATOM     14  C   UNL     1      -1.165  18.214  20.298  1.00  0.00    -0.000 C 
BRANCH  14  15
ATOM     15  C   UNL     1      -1.397  17.548  21.664  1.00  0.00    -0.000 C 
BRANCH  15  16
ATOM     16  C   UNL     1      -2.119  16.196  21.552  1.00  0.00    -0.000 C 
BRANCH  16  17
ATOM     17  C   UNL     1      -1.346  15.236  20.640  1.00  0.00    -0.003 C 
ATOM     18  C   UNL     1      -0.825  14.034  21.421  1.00  0.00     0.004 C 
ENDBRANCH  16  17
ENDBRANCH  15  16
ENDBRANCH  14  15
ENDBRANCH  13  14
ENDBRANCH  12  13
ENDBRANCH  11  12
ENDBRANCH   1  11
TORSDOF 14
ENDMDL
MODEL 9
REMARK VINA RESULT:    -3.808      4.156      8.525
REMARK INTER + INTRA:          -8.244
REMARK INTER:                  -7.183
REMARK INTRA:                  -1.061
REMARK UNBOUND:                -1.319
REMARK SMILES CCCCCCCCCCCCCCCC(=O)[O-]
REMARK SMILES IDX 9 1 10 2 11 3 12 4 13 5 14 6 15 7 16 8 17 9 18 10 8 11 7 12
REMARK SMILES IDX 6 13 5 14 4 15 3 16 2 17 1 18
REMARK H PARENT
REMARK Flexibility Score: inf
ROOT
ATOM      1  C   UNL     1       2.432  14.167  19.342  1.00  0.00     0.000 C 
ENDROOT
BRANCH   1   2
ATOM      2  C   UNL     1       1.484  14.898  18.372  1.00  0.00     0.000 C 
BRANCH   2   3
ATOM      3  C   UNL     1       1.257  16.370  18.750  1.00  0.00     0.000 C 
BRANCH   3   4
ATOM      4  C   UNL     1      -0.239  16.669  18.920  1.00  0.00     0.000 C 
BRANCH   4   5
ATOM      5  C   UNL     1      -1.076  15.407  19.194  1.00  0.00     0.000 C 
BRANCH   5   6
ATOM      6  C   UNL     1      -1.507  15.217  20.664  1.00  0.00     0.006 C 
BRANCH   6   7
ATOM      7  C   UNL     1      -0.795  14.066  21.393  1.00  0.00     0.053 C 
BRANCH   7   8
ATOM      8  C   UNL     1      -1.375  13.822  22.753  1.00  0.00     0.041 C 
ATOM      9  O   UNL     1      -1.786  12.674  23.069  1.00  0.00    -0.550 OA
ATOM     10  O   UNL     1      -1.489  14.868  23.660  1.00  0.00    -0.550 OA
ENDBRANCH   7   8
ENDBRANCH   6   7
ENDBRANCH   5   6
ENDBRANCH   4   5
ENDBRANCH   3   4
ENDBRANCH   2   3
ENDBRANCH   1   2
BRANCH   1  11
ATOM     11  C   UNL     1       2.935  12.796  18.854  1.00  0.00     0.000 C 
BRANCH  11  12
ATOM     12  C   UNL     1       3.294  12.788  17.358  1.00  0.00    -0.000 C 
BRANCH  12  13
ATOM     13  C   UNL     1       4.814  12.790  17.117  1.00  0.00    -0.000 C 
BRANCH  13  14
ATOM     14  C   UNL     1       5.172  12.878  15.623  1.00  0.00    -0.000 C 
BRANCH  14  15
ATOM     15  C   UNL     1       3.955  12.663  14.710  1.00  0.00    -0.000 C 
BRANCH  15  16
ATOM     16  C   UNL     1       4.250  11.711  13.540  1.00  0.00    -0.000 C 
BRANCH  16  17
ATOM     17  C   UNL     1       4.976  10.452  14.028  1.00  0.00    -0.003 C 
ATOM     18  C   UNL     1       4.651   9.252  13.144  1.00  0.00     0.004 C 
ENDBRANCH  16  17
ENDBRANCH  15  16
ENDBRANCH  14  15
ENDBRANCH  13  14
ENDBRANCH  12  13
ENDBRANCH  11  12
ENDBRANCH   1  11
TORSDOF 14
ENDMDL
