MODEL 1
REMARK VINA RESULT:    -5.515      0.000      0.000
REMARK INTER + INTRA:          -8.960
REMARK INTER:                  -7.771
REMARK INTRA:                  -1.189
REMARK UNBOUND:                -1.189
REMARK SMILES OCC1=C[C@@H](O)[C@H]2C=CO[C@@H](O[C@H]3O[C@H](CO)[C@H](O)[C@@H](O)[C@@H]3O)[C@@H]12
REMARK SMILES IDX 12 1 11 2 8 3 9 4 7 5 10 6 24 7 5 8 3 9 4 10 6 11 2 13 1 14
REMARK SMILES IDX 13 16 22 17 14 18 20 19 15 20 18 21 23 22 21 24 16 26 17 27
REMARK SMILES IDX 19 29
REMARK H PARENT 6 12 1 15 23 23 21 25 17 28 19 30
REMARK Flexibility Score: inf
ROOT
ATOM      1  O   UNL     1     -11.231  -9.336  92.722  1.00  0.00    -0.310 OA
ENDROOT
BRANCH   1   2
ATOM      2  C   UNL     1     -11.291  -9.729  94.092  1.00  0.00     0.316 C 
ATOM      3  C   UNL     1     -11.881 -11.080  96.474  1.00  0.00     0.018 C 
ATOM      4  C   UNL     1     -11.341 -11.759  95.446  1.00  0.00     0.186 C 
ATOM      5  C   UNL     1     -12.446  -9.655  96.313  1.00  0.00     0.061 C 
ATOM      6  O   UNL     1     -11.232 -11.143  94.195  1.00  0.00    -0.472 OA
ATOM      7  C   UNL     1     -12.543  -9.237  94.832  1.00  0.00     0.096 C 
ATOM      8  C   UNL     1     -13.921  -9.608  96.762  1.00  0.00     0.145 C 
ATOM      9  C   UNL     1     -13.890  -9.817  94.441  1.00  0.00    -0.036 C 
ATOM     10  C   UNL     1     -14.648 -10.014  95.532  1.00  0.00     0.007 C 
BRANCH   8  11
ATOM     11  O   UNL     1     -14.163 -10.469  97.852  1.00  0.00    -0.388 OA
ATOM     12  H   UNL     1     -15.170 -10.489  97.813  1.00  0.00     0.211 HD
ENDBRANCH   8  11
BRANCH   9  13
ATOM     13  C   UNL     1     -14.199 -10.496  93.141  1.00  0.00     0.187 C 
BRANCH  13  14
ATOM     14  O   UNL     1     -13.962 -11.873  93.274  1.00  0.00    -0.392 OA
ATOM     15  H   UNL     1     -13.055 -12.040  92.893  1.00  0.00     0.211 HD
ENDBRANCH  13  14
ENDBRANCH   9  13
ENDBRANCH   1   2
BRANCH   1  16
ATOM     16  C   UNL     1      -9.994  -9.757  92.107  1.00  0.00     0.286 C 
ATOM     17  C   UNL     1      -8.900  -8.632  92.219  1.00  0.00     0.202 C 
ATOM     18  O   UNL     1     -10.206 -10.262  90.788  1.00  0.00    -0.341 OA
ATOM     19  C   UNL     1      -9.138  -7.453  91.221  1.00  0.00     0.179 C 
ATOM     20  C   UNL     1      -9.667  -9.505  89.727  1.00  0.00     0.178 C 
ATOM     21  C   UNL     1      -9.877  -7.967  89.948  1.00  0.00     0.177 C 
BRANCH  17  22
ATOM     22  O   UNL     1      -7.621  -9.198  92.078  1.00  0.00    -0.385 OA
ATOM     23  H   UNL     1      -7.508  -9.979  92.703  1.00  0.00     0.211 HD
ENDBRANCH  17  22
BRANCH  19  24
ATOM     24  O   UNL     1      -9.849  -6.406  91.857  1.00  0.00    -0.387 OA
ATOM     25  H   UNL     1     -10.449  -6.017  91.151  1.00  0.00     0.211 HD
ENDBRANCH  19  24
BRANCH  20  26
ATOM     26  C   UNL     1      -8.230 -10.042  89.401  1.00  0.00     0.191 C 
BRANCH  26  27
ATOM     27  O   UNL     1      -7.410  -8.997  88.893  1.00  0.00    -0.394 OA
ATOM     28  H   UNL     1      -7.379  -9.032  87.890  1.00  0.00     0.210 HD
ENDBRANCH  26  27
ENDBRANCH  20  26
BRANCH  21  29
ATOM     29  O   UNL     1      -9.487  -7.235  88.787  1.00  0.00    -0.387 OA
ATOM     30  H   UNL     1      -8.500  -7.105  88.789  1.00  0.00     0.211 HD
ENDBRANCH  21  29
ENDBRANCH   1  16
TORSDOF 10
ENDMDL
MODEL 2
REMARK VINA RESULT:    -5.442      1.283      2.295
REMARK INTER + INTRA:          -8.858
REMARK INTER:                  -7.595
REMARK INTRA:                  -1.263
REMARK UNBOUND:                -1.189
REMARK SMILES OCC1=C[C@@H](O)[C@H]2C=CO[C@@H](O[C@H]3O[C@H](CO)[C@H](O)[C@@H](O)[C@@H]3O)[C@@H]12
REMARK SMILES IDX 12 1 11 2 8 3 9 4 7 5 10 6 24 7 5 8 3 9 4 10 6 11 2 13 1 14
REMARK SMILES IDX 13 16 22 17 14 18 20 19 15 20 18 21 23 22 21 24 16 26 17 27
REMARK SMILES IDX 19 29
REMARK H PARENT 6 12 1 15 23 23 21 25 17 28 19 30
REMARK Flexibility Score: inf
ROOT
ATOM      1  O   UNL     1     -11.964  -9.521  91.724  1.00  0.00    -0.310 OA
ENDROOT
BRANCH   1   2
ATOM      2  C   UNL     1     -11.595  -9.871  93.057  1.00  0.00     0.316 C 
ATOM      3  C   UNL     1     -11.376 -11.167  95.530  1.00  0.00     0.018 C 
ATOM      4  C   UNL     1     -11.126 -11.853  94.401  1.00  0.00     0.186 C 
ATOM      5  C   UNL     1     -12.045  -9.779  95.519  1.00  0.00     0.061 C 
ATOM      6  O   UNL     1     -11.427 -11.275  93.163  1.00  0.00    -0.472 OA
ATOM      7  C   UNL     1     -12.599  -9.416  94.127  1.00  0.00     0.096 C 
ATOM      8  C   UNL     1     -13.321  -9.791  96.385  1.00  0.00     0.145 C 
ATOM      9  C   UNL     1     -13.965 -10.076  94.163  1.00  0.00    -0.036 C 
ATOM     10  C   UNL     1     -14.355 -10.273  95.433  1.00  0.00     0.007 C 
BRANCH   8  11
ATOM     11  O   UNL     1     -13.180 -10.624  97.513  1.00  0.00    -0.388 OA
ATOM     12  H   UNL     1     -12.300 -10.272  97.856  1.00  0.00     0.211 HD
ENDBRANCH   8  11
BRANCH   9  13
ATOM     13  C   UNL     1     -14.605 -10.813  93.025  1.00  0.00     0.187 C 
BRANCH  13  14
ATOM     14  O   UNL     1     -14.249 -12.169  93.098  1.00  0.00    -0.392 OA
ATOM     15  H   UNL     1     -13.583 -12.245  93.838  1.00  0.00     0.211 HD
ENDBRANCH  13  14
ENDBRANCH   9  13
ENDBRANCH   1   2
BRANCH   1  16
ATOM     16  C   UNL     1     -10.967  -8.681  91.105  1.00  0.00     0.286 C 
ATOM     17  C   UNL     1     -11.070  -8.750  89.537  1.00  0.00     0.202 C 
ATOM     18  O   UNL     1      -9.665  -8.929  91.636  1.00  0.00    -0.341 OA
ATOM     19  C   UNL     1     -10.492 -10.078  88.949  1.00  0.00     0.179 C 
ATOM     20  C   UNL     1      -8.723  -9.504  90.756  1.00  0.00     0.178 C 
ATOM     21  C   UNL     1      -9.366 -10.631  89.876  1.00  0.00     0.177 C 
BRANCH  17  22
ATOM     22  O   UNL     1     -10.468  -7.613  88.970  1.00  0.00    -0.385 OA
ATOM     23  H   UNL     1     -10.272  -7.765  87.995  1.00  0.00     0.211 HD
ENDBRANCH  17  22
BRANCH  19  24
ATOM     24  O   UNL     1     -11.529 -11.024  88.759  1.00  0.00    -0.387 OA
ATOM     25  H   UNL     1     -11.166 -11.699  88.110  1.00  0.00     0.211 HD
ENDBRANCH  19  24
BRANCH  20  26
ATOM     26  C   UNL     1      -7.915  -8.355  90.058  1.00  0.00     0.191 C 
BRANCH  26  27
ATOM     27  O   UNL     1      -7.483  -8.763  88.766  1.00  0.00    -0.394 OA
ATOM     28  H   UNL     1      -8.247  -9.162  88.251  1.00  0.00     0.210 HD
ENDBRANCH  26  27
ENDBRANCH  20  26
BRANCH  21  29
ATOM     29  O   UNL     1      -8.364 -11.316  89.126  1.00  0.00    -0.387 OA
ATOM     30  H   UNL     1      -7.461 -11.041  89.444  1.00  0.00     0.211 HD
ENDBRANCH  21  29
ENDBRANCH   1  16
TORSDOF 10
ENDMDL
MODEL 3
REMARK VINA RESULT:    -5.371      1.727      2.955
REMARK INTER + INTRA:          -8.758
REMARK INTER:                  -7.699
REMARK INTRA:                  -1.059
REMARK UNBOUND:                -1.189
REMARK SMILES OCC1=C[C@@H](O)[C@H]2C=CO[C@@H](O[C@H]3O[C@H](CO)[C@H](O)[C@@H](O)[C@@H]3O)[C@@H]12
REMARK SMILES IDX 12 1 11 2 8 3 9 4 7 5 10 6 24 7 5 8 3 9 4 10 6 11 2 13 1 14
REMARK SMILES IDX 13 16 22 17 14 18 20 19 15 20 18 21 23 22 21 24 16 26 17 27
REMARK SMILES IDX 19 29
REMARK H PARENT 6 12 1 15 23 23 21 25 17 28 19 30
REMARK Flexibility Score: inf
ROOT
ATOM      1  O   UNL     1     -11.580 -10.487  92.018  1.00  0.00    -0.310 OA
ENDROOT
BRANCH   1   2
ATOM      2  C   UNL     1     -12.149  -9.548  92.929  1.00  0.00     0.316 C 
ATOM      3  C   UNL     1     -12.734  -8.047  95.220  1.00  0.00     0.018 C 
ATOM      4  C   UNL     1     -11.470  -8.087  94.762  1.00  0.00     0.186 C 
ATOM      5  C   UNL     1     -13.826  -9.006  94.708  1.00  0.00     0.061 C 
ATOM      6  O   UNL     1     -11.134  -8.988  93.748  1.00  0.00    -0.472 OA
ATOM      7  C   UNL     1     -13.240 -10.135  93.837  1.00  0.00     0.096 C 
ATOM      8  C   UNL     1     -14.446  -9.791  95.883  1.00  0.00     0.145 C 
ATOM      9  C   UNL     1     -12.837 -11.152  94.888  1.00  0.00    -0.036 C 
ATOM     10  C   UNL     1     -13.524 -10.947  96.024  1.00  0.00     0.007 C 
BRANCH   8  11
ATOM     11  O   UNL     1     -14.525  -9.006  97.051  1.00  0.00    -0.388 OA
ATOM     12  H   UNL     1     -15.292  -9.479  97.503  1.00  0.00     0.211 HD
ENDBRANCH   8  11
BRANCH   9  13
ATOM     13  C   UNL     1     -11.579 -11.967  94.872  1.00  0.00     0.187 C 
BRANCH  13  14
ATOM     14  O   UNL     1     -11.754 -13.067  94.016  1.00  0.00    -0.392 OA
ATOM     15  H   UNL     1     -12.525 -13.585  94.381  1.00  0.00     0.211 HD
ENDBRANCH  13  14
ENDBRANCH   9  13
ENDBRANCH   1   2
BRANCH   1  16
ATOM     16  C   UNL     1     -12.051 -10.265  90.671  1.00  0.00     0.286 C 
ATOM     17  C   UNL     1     -10.987 -10.746  89.618  1.00  0.00     0.202 C 
ATOM     18  O   UNL     1     -12.516  -8.927  90.490  1.00  0.00    -0.341 OA
ATOM     19  C   UNL     1      -9.776  -9.767  89.488  1.00  0.00     0.179 C 
ATOM     20  C   UNL     1     -11.765  -8.109  89.619  1.00  0.00     0.178 C 
ATOM     21  C   UNL     1     -10.223  -8.311  89.822  1.00  0.00     0.177 C 
BRANCH  17  22
ATOM     22  O   UNL     1     -11.614 -10.982  88.382  1.00  0.00    -0.385 OA
ATOM     23  H   UNL     1     -10.931 -11.063  87.648  1.00  0.00     0.211 HD
ENDBRANCH  17  22
BRANCH  19  24
ATOM     24  O   UNL     1      -8.708 -10.193  90.315  1.00  0.00    -0.387 OA
ATOM     25  H   UNL     1      -8.978  -9.954  91.253  1.00  0.00     0.211 HD
ENDBRANCH  19  24
BRANCH  20  26
ATOM     26  C   UNL     1     -12.368  -8.218  88.176  1.00  0.00     0.191 C 
BRANCH  26  27
ATOM     27  O   UNL     1     -11.552  -7.523  87.240  1.00  0.00    -0.394 OA
ATOM     28  H   UNL     1     -11.296  -6.622  87.601  1.00  0.00     0.210 HD
ENDBRANCH  26  27
ENDBRANCH  20  26
BRANCH  21  29
ATOM     29  O   UNL     1      -9.488  -7.353  89.064  1.00  0.00    -0.387 OA
ATOM     30  H   UNL     1      -9.865  -7.290  88.145  1.00  0.00     0.211 HD
ENDBRANCH  21  29
ENDBRANCH   1  16
TORSDOF 10
ENDMDL
MODEL 4
REMARK VINA RESULT:    -5.330      3.090      5.015
REMARK INTER + INTRA:          -8.700
REMARK INTER:                  -7.507
REMARK INTRA:                  -1.193
REMARK UNBOUND:                -1.189
REMARK SMILES OCC1=C[C@@H](O)[C@H]2C=CO[C@@H](O[C@H]3O[C@H](CO)[C@H](O)[C@@H](O)[C@@H]3O)[C@@H]12
REMARK SMILES IDX 12 1 11 2 8 3 9 4 7 5 10 6 24 7 5 8 3 9 4 10 6 11 2 13 1 14
REMARK SMILES IDX 13 16 22 17 14 18 20 19 15 20 18 21 23 22 21 24 16 26 17 27
REMARK SMILES IDX 19 29
REMARK H PARENT 6 12 1 15 23 23 21 25 17 28 19 30
REMARK Flexibility Score: inf
ROOT
ATOM      1  O   UNL     1     -12.507  -9.856  96.331  1.00  0.00    -0.310 OA
ENDROOT
BRANCH   1   2
ATOM      2  C   UNL     1     -12.616 -10.127  97.727  1.00  0.00     0.316 C 
ATOM      3  C   UNL     1     -13.608 -10.748 100.273  1.00  0.00     0.018 C 
ATOM      4  C   UNL     1     -13.838 -11.591  99.250  1.00  0.00     0.186 C 
ATOM      5  C   UNL     1     -13.061  -9.323 100.057  1.00  0.00     0.061 C 
ATOM      6  O   UNL     1     -13.525 -11.194  97.947  1.00  0.00    -0.472 OA
ATOM      7  C   UNL     1     -13.064  -8.923  98.569  1.00  0.00     0.096 C 
ATOM      8  C   UNL     1     -14.017  -8.282 100.676  1.00  0.00     0.145 C 
ATOM      9  C   UNL     1     -14.482  -8.408  98.396  1.00  0.00    -0.036 C 
ATOM     10  C   UNL     1     -14.997  -8.050  99.583  1.00  0.00     0.007 C 
BRANCH   8  11
ATOM     11  O   UNL     1     -14.617  -8.761 101.859  1.00  0.00    -0.388 OA
ATOM     12  H   UNL     1     -15.190  -7.961 102.077  1.00  0.00     0.211 HD
ENDBRANCH   8  11
BRANCH   9  13
ATOM     13  C   UNL     1     -15.359  -8.661  97.207  1.00  0.00     0.187 C 
BRANCH  13  14
ATOM     14  O   UNL     1     -16.124  -9.816  97.437  1.00  0.00    -0.392 OA
ATOM     15  H   UNL     1     -16.848  -9.550  98.070  1.00  0.00     0.211 HD
ENDBRANCH  13  14
ENDBRANCH   9  13
ENDBRANCH   1   2
BRANCH   1  16
ATOM     16  C   UNL     1     -13.103 -10.908  95.543  1.00  0.00     0.286 C 
ATOM     17  C   UNL     1     -12.030 -11.595  94.620  1.00  0.00     0.202 C 
ATOM     18  O   UNL     1     -14.280 -10.460  94.869  1.00  0.00    -0.341 OA
ATOM     19  C   UNL     1     -11.644 -10.719  93.384  1.00  0.00     0.179 C 
ATOM     20  C   UNL     1     -14.215 -10.393  93.461  1.00  0.00     0.178 C 
ATOM     21  C   UNL     1     -12.843  -9.812  92.972  1.00  0.00     0.177 C 
BRANCH  17  22
ATOM     22  O   UNL     1     -12.474 -12.875  94.246  1.00  0.00    -0.385 OA
ATOM     23  H   UNL     1     -12.977 -12.835  93.375  1.00  0.00     0.211 HD
ENDBRANCH  17  22
BRANCH  19  24
ATOM     24  O   UNL     1     -10.481  -9.960  93.662  1.00  0.00    -0.387 OA
ATOM     25  H   UNL     1      -9.997  -9.871  92.786  1.00  0.00     0.211 HD
ENDBRANCH  19  24
BRANCH  20  26
ATOM     26  C   UNL     1     -14.727 -11.750  92.866  1.00  0.00     0.191 C 
BRANCH  26  27
ATOM     27  O   UNL     1     -14.635 -11.738  91.446  1.00  0.00    -0.394 OA
ATOM     28  H   UNL     1     -13.778 -12.167  91.147  1.00  0.00     0.210 HD
ENDBRANCH  26  27
ENDBRANCH  20  26
BRANCH  21  29
ATOM     29  O   UNL     1     -12.867  -9.587  91.564  1.00  0.00    -0.387 OA
ATOM     30  H   UNL     1     -13.285  -8.703  91.372  1.00  0.00     0.211 HD
ENDBRANCH  21  29
ENDBRANCH   1  16
TORSDOF 10
ENDMDL
MODEL 5
REMARK VINA RESULT:    -5.326      1.490      6.735
REMARK INTER + INTRA:          -8.694
REMARK INTER:                  -7.326
REMARK INTRA:                  -1.368
REMARK UNBOUND:                -1.189
REMARK SMILES OCC1=C[C@@H](O)[C@H]2C=CO[C@@H](O[C@H]3O[C@H](CO)[C@H](O)[C@@H](O)[C@@H]3O)[C@@H]12
REMARK SMILES IDX 12 1 11 2 8 3 9 4 7 5 10 6 24 7 5 8 3 9 4 10 6 11 2 13 1 14
REMARK SMILES IDX 13 16 22 17 14 18 20 19 15 20 18 21 23 22 21 24 16 26 17 27
REMARK SMILES IDX 19 29
REMARK H PARENT 6 12 1 15 23 23 21 25 17 28 19 30
REMARK Flexibility Score: inf
ROOT
ATOM      1  O   UNL     1     -11.820  -9.110  92.965  1.00  0.00    -0.310 OA
ENDROOT
BRANCH   1   2
ATOM      2  C   UNL     1     -10.613  -8.676  92.340  1.00  0.00     0.316 C 
ATOM      3  C   UNL     1      -8.744  -7.709  90.491  1.00  0.00     0.018 C 
ATOM      4  C   UNL     1      -9.833  -6.972  90.777  1.00  0.00     0.186 C 
ATOM      5  C   UNL     1      -8.611  -9.182  90.922  1.00  0.00     0.061 C 
ATOM      6  O   UNL     1     -10.863  -7.533  91.538  1.00  0.00    -0.472 OA
ATOM      7  C   UNL     1      -9.938  -9.746  91.468  1.00  0.00     0.096 C 
ATOM      8  C   UNL     1      -8.356 -10.080  89.694  1.00  0.00     0.145 C 
ATOM      9  C   UNL     1     -10.631 -10.181  90.190  1.00  0.00    -0.036 C 
ATOM     10  C   UNL     1      -9.731 -10.367  89.211  1.00  0.00     0.007 C 
BRANCH   8  11
ATOM     11  O   UNL     1      -7.558  -9.432  88.730  1.00  0.00    -0.388 OA
ATOM     12  H   UNL     1      -7.560  -8.505  89.125  1.00  0.00     0.211 HD
ENDBRANCH   8  11
BRANCH   9  13
ATOM     13  C   UNL     1     -12.089 -10.005  89.889  1.00  0.00     0.187 C 
BRANCH  13  14
ATOM     14  O   UNL     1     -12.842 -10.763  90.800  1.00  0.00    -0.392 OA
ATOM     15  H   UNL     1     -12.580 -10.448  91.710  1.00  0.00     0.211 HD
ENDBRANCH  13  14
ENDBRANCH   9  13
ENDBRANCH   1   2
BRANCH   1  16
ATOM     16  C   UNL     1     -11.549  -9.886  94.152  1.00  0.00     0.286 C 
ATOM     17  C   UNL     1     -12.405 -11.205  94.168  1.00  0.00     0.202 C 
ATOM     18  O   UNL     1     -11.643  -9.091  95.334  1.00  0.00    -0.341 OA
ATOM     19  C   UNL     1     -13.904 -10.950  94.528  1.00  0.00     0.179 C 
ATOM     20  C   UNL     1     -12.699  -9.396  96.219  1.00  0.00     0.178 C 
ATOM     21  C   UNL     1     -14.031  -9.697  95.448  1.00  0.00     0.177 C 
BRANCH  17  22
ATOM     22  O   UNL     1     -11.807 -12.149  95.021  1.00  0.00    -0.385 OA
ATOM     23  H   UNL     1     -11.395 -11.695  95.819  1.00  0.00     0.211 HD
ENDBRANCH  17  22
BRANCH  19  24
ATOM     24  O   UNL     1     -14.678 -10.819  93.349  1.00  0.00    -0.387 OA
ATOM     25  H   UNL     1     -15.619 -11.053  93.614  1.00  0.00     0.211 HD
ENDBRANCH  19  24
BRANCH  20  26
ATOM     26  C   UNL     1     -12.184 -10.424  97.286  1.00  0.00     0.191 C 
BRANCH  26  27
ATOM     27  O   UNL     1     -13.226 -11.316  97.663  1.00  0.00    -0.394 OA
ATOM     28  H   UNL     1     -13.497 -11.887  96.882  1.00  0.00     0.210 HD
ENDBRANCH  26  27
ENDBRANCH  20  26
BRANCH  21  29
ATOM     29  O   UNL     1     -15.120  -9.827  96.359  1.00  0.00    -0.387 OA
ATOM     30  H   UNL     1     -14.945 -10.580  96.987  1.00  0.00     0.211 HD
ENDBRANCH  21  29
ENDBRANCH   1  16
TORSDOF 10
ENDMDL
MODEL 6
REMARK VINA RESULT:    -5.325      1.497      1.828
REMARK INTER + INTRA:          -8.693
REMARK INTER:                  -7.320
REMARK INTRA:                  -1.373
REMARK UNBOUND:                -1.189
REMARK SMILES OCC1=C[C@@H](O)[C@H]2C=CO[C@@H](O[C@H]3O[C@H](CO)[C@H](O)[C@@H](O)[C@@H]3O)[C@@H]12
REMARK SMILES IDX 12 1 11 2 8 3 9 4 7 5 10 6 24 7 5 8 3 9 4 10 6 11 2 13 1 14
REMARK SMILES IDX 13 16 22 17 14 18 20 19 15 20 18 21 23 22 21 24 16 26 17 27
REMARK SMILES IDX 19 29
REMARK H PARENT 6 12 1 15 23 23 21 25 17 28 19 30
REMARK Flexibility Score: inf
ROOT
ATOM      1  O   UNL     1     -11.014  -9.046  92.539  1.00  0.00    -0.310 OA
ENDROOT
BRANCH   1   2
ATOM      2  C   UNL     1     -10.966  -9.803  93.747  1.00  0.00     0.316 C 
ATOM      3  C   UNL     1     -11.472 -11.688  95.756  1.00  0.00     0.018 C 
ATOM      4  C   UNL     1     -11.196 -12.111  94.509  1.00  0.00     0.186 C 
ATOM      5  C   UNL     1     -11.794 -10.215  96.074  1.00  0.00     0.061 C 
ATOM      6  O   UNL     1     -11.143 -11.182  93.465  1.00  0.00    -0.472 OA
ATOM      7  C   UNL     1     -12.007  -9.382  94.795  1.00  0.00     0.096 C 
ATOM      8  C   UNL     1     -13.168 -10.104  96.767  1.00  0.00     0.145 C 
ATOM      9  C   UNL     1     -13.473  -9.642  94.503  1.00  0.00    -0.036 C 
ATOM     10  C   UNL     1     -14.107 -10.041  95.618  1.00  0.00     0.007 C 
BRANCH   8  11
ATOM     11  O   UNL     1     -13.414 -11.201  97.618  1.00  0.00    -0.388 OA
ATOM     12  H   UNL     1     -12.879 -10.898  98.418  1.00  0.00     0.211 HD
ENDBRANCH   8  11
BRANCH   9  13
ATOM     13  C   UNL     1     -14.061  -9.874  93.144  1.00  0.00     0.187 C 
BRANCH  13  14
ATOM     14  O   UNL     1     -13.986  -8.684  92.401  1.00  0.00    -0.392 OA
ATOM     15  H   UNL     1     -13.274  -8.826  91.716  1.00  0.00     0.211 HD
ENDBRANCH  13  14
ENDBRANCH   9  13
ENDBRANCH   1   2
BRANCH   1  16
ATOM     16  C   UNL     1     -10.792  -9.883  91.384  1.00  0.00     0.286 C 
ATOM     17  C   UNL     1      -9.418  -9.541  90.699  1.00  0.00     0.202 C 
ATOM     18  O   UNL     1     -11.920  -9.883  90.508  1.00  0.00    -0.341 OA
ATOM     19  C   UNL     1      -9.464  -8.211  89.879  1.00  0.00     0.179 C 
ATOM     20  C   UNL     1     -11.737  -9.284  89.242  1.00  0.00     0.178 C 
ATOM     21  C   UNL     1     -10.907  -7.958  89.345  1.00  0.00     0.177 C 
BRANCH  17  22
ATOM     22  O   UNL     1      -8.991 -10.630  89.920  1.00  0.00    -0.385 OA
ATOM     23  H   UNL     1      -8.301 -10.336  89.248  1.00  0.00     0.211 HD
ENDBRANCH  17  22
BRANCH  19  24
ATOM     24  O   UNL     1      -8.997  -7.130  90.668  1.00  0.00    -0.387 OA
ATOM     25  H   UNL     1      -9.692  -6.410  90.581  1.00  0.00     0.211 HD
ENDBRANCH  19  24
BRANCH  20  26
ATOM     26  C   UNL     1     -11.294 -10.388  88.220  1.00  0.00     0.191 C 
BRANCH  26  27
ATOM     27  O   UNL     1     -11.477  -9.932  86.885  1.00  0.00    -0.394 OA
ATOM     28  H   UNL     1     -12.455  -9.854  86.672  1.00  0.00     0.210 HD
ENDBRANCH  26  27
ENDBRANCH  20  26
BRANCH  21  29
ATOM     29  O   UNL     1     -10.886  -7.281  88.089  1.00  0.00    -0.387 OA
ATOM     30  H   UNL     1     -10.121  -7.609  87.543  1.00  0.00     0.211 HD
ENDBRANCH  21  29
ENDBRANCH   1  16
TORSDOF 10
ENDMDL
MODEL 7
REMARK VINA RESULT:    -5.181      3.214      5.518
REMARK INTER + INTRA:          -8.490
REMARK INTER:                  -7.391
REMARK INTRA:                  -1.100
REMARK UNBOUND:                -1.189
REMARK SMILES OCC1=C[C@@H](O)[C@H]2C=CO[C@@H](O[C@H]3O[C@H](CO)[C@H](O)[C@@H](O)[C@@H]3O)[C@@H]12
REMARK SMILES IDX 12 1 11 2 8 3 9 4 7 5 10 6 24 7 5 8 3 9 4 10 6 11 2 13 1 14
REMARK SMILES IDX 13 16 22 17 14 18 20 19 15 20 18 21 23 22 21 24 16 26 17 27
REMARK SMILES IDX 19 29
REMARK H PARENT 6 12 1 15 23 23 21 25 17 28 19 30
REMARK Flexibility Score: inf
ROOT
ATOM      1  O   UNL     1     -12.471 -10.500  96.661  1.00  0.00    -0.310 OA
ENDROOT
BRANCH   1   2
ATOM      2  C   UNL     1     -13.461 -10.028  97.574  1.00  0.00     0.316 C 
ATOM      3  C   UNL     1     -14.832  -8.555  99.522  1.00  0.00     0.018 C 
ATOM      4  C   UNL     1     -14.345  -7.924  98.438  1.00  0.00     0.186 C 
ATOM      5  C   UNL     1     -14.436 -10.001  99.881  1.00  0.00     0.061 C 
ATOM      6  O   UNL     1     -13.491  -8.610  97.569  1.00  0.00    -0.472 OA
ATOM      7  C   UNL     1     -13.262 -10.507  99.020  1.00  0.00     0.096 C 
ATOM      8  C   UNL     1     -13.844 -10.057 101.304  1.00  0.00     0.145 C 
ATOM      9  C   UNL     1     -12.068  -9.985  99.797  1.00  0.00    -0.036 C 
ATOM     10  C   UNL     1     -12.410  -9.743 101.073  1.00  0.00     0.007 C 
BRANCH   8  11
ATOM     11  O   UNL     1     -14.475  -9.141 102.169  1.00  0.00    -0.388 OA
ATOM     12  H   UNL     1     -14.345  -8.301 101.626  1.00  0.00     0.211 HD
ENDBRANCH   8  11
BRANCH   9  13
ATOM     13  C   UNL     1     -10.830  -9.392  99.194  1.00  0.00     0.187 C 
BRANCH  13  14
ATOM     14  O   UNL     1     -10.114 -10.399  98.527  1.00  0.00    -0.392 OA
ATOM     15  H   UNL     1      -9.151 -10.145  98.587  1.00  0.00     0.211 HD
ENDBRANCH  13  14
ENDBRANCH   9  13
ENDBRANCH   1   2
BRANCH   1  16
ATOM     16  C   UNL     1     -13.038 -11.409  95.694  1.00  0.00     0.286 C 
ATOM     17  C   UNL     1     -11.951 -11.873  94.655  1.00  0.00     0.202 C 
ATOM     18  O   UNL     1     -14.237 -10.888  95.120  1.00  0.00    -0.341 OA
ATOM     19  C   UNL     1     -11.610 -10.770  93.601  1.00  0.00     0.179 C 
ATOM     20  C   UNL     1     -14.191 -10.558  93.749  1.00  0.00     0.178 C 
ATOM     21  C   UNL     1     -12.845  -9.846  93.370  1.00  0.00     0.177 C 
BRANCH  17  22
ATOM     22  O   UNL     1     -12.354 -13.077  94.051  1.00  0.00    -0.385 OA
ATOM     23  H   UNL     1     -12.886 -12.894  93.217  1.00  0.00     0.211 HD
ENDBRANCH  17  22
BRANCH  19  24
ATOM     24  O   UNL     1     -10.472 -10.033  94.011  1.00  0.00    -0.387 OA
ATOM     25  H   UNL     1      -9.942  -9.864  93.174  1.00  0.00     0.211 HD
ENDBRANCH  19  24
BRANCH  20  26
ATOM     26  C   UNL     1     -14.661 -11.799  92.914  1.00  0.00     0.191 C 
BRANCH  26  27
ATOM     27  O   UNL     1     -14.405 -11.595  91.529  1.00  0.00    -0.394 OA
ATOM     28  H   UNL     1     -15.237 -11.760  90.991  1.00  0.00     0.210 HD
ENDBRANCH  26  27
ENDBRANCH  20  26
BRANCH  21  29
ATOM     29  O   UNL     1     -12.893  -9.365  92.028  1.00  0.00    -0.387 OA
ATOM     30  H   UNL     1     -13.072  -8.386  92.029  1.00  0.00     0.211 HD
ENDBRANCH  21  29
ENDBRANCH   1  16
TORSDOF 10
ENDMDL
MODEL 8
REMARK VINA RESULT:    -5.131      2.914      4.275
REMARK INTER + INTRA:          -8.419
REMARK INTER:                  -7.098
REMARK INTRA:                  -1.321
REMARK UNBOUND:                -1.189
REMARK SMILES OCC1=C[C@@H](O)[C@H]2C=CO[C@@H](O[C@H]3O[C@H](CO)[C@H](O)[C@@H](O)[C@@H]3O)[C@@H]12
REMARK SMILES IDX 12 1 11 2 8 3 9 4 7 5 10 6 24 7 5 8 3 9 4 10 6 11 2 13 1 14
REMARK SMILES IDX 13 16 22 17 14 18 20 19 15 20 18 21 23 22 21 24 16 26 17 27
REMARK SMILES IDX 19 29
REMARK H PARENT 6 12 1 15 23 23 21 25 17 28 19 30
REMARK Flexibility Score: inf
ROOT
ATOM      1  O   UNL     1     -12.874  -9.062  91.382  1.00  0.00    -0.310 OA
ENDROOT
BRANCH   1   2
ATOM      2  C   UNL     1     -13.482  -9.438  92.616  1.00  0.00     0.316 C 
ATOM      3  C   UNL     1     -13.990  -9.871  95.337  1.00  0.00     0.018 C 
ATOM      4  C   UNL     1     -13.699  -8.630  94.909  1.00  0.00     0.186 C 
ATOM      5  C   UNL     1     -13.789 -11.116  94.450  1.00  0.00     0.061 C 
ATOM      6  O   UNL     1     -13.248  -8.442  93.598  1.00  0.00    -0.472 OA
ATOM      7  C   UNL     1     -13.001 -10.789  93.167  1.00  0.00     0.096 C 
ATOM      8  C   UNL     1     -12.863 -12.131  95.152  1.00  0.00     0.145 C 
ATOM      9  C   UNL     1     -11.568 -10.903  93.654  1.00  0.00    -0.036 C 
ATOM     10  C   UNL     1     -11.510 -11.659  94.762  1.00  0.00     0.007 C 
BRANCH   8  11
ATOM     11  O   UNL     1     -13.061 -12.140  96.548  1.00  0.00    -0.388 OA
ATOM     12  H   UNL     1     -12.313 -11.519  96.814  1.00  0.00     0.211 HD
ENDBRANCH   8  11
BRANCH   9  13
ATOM     13  C   UNL     1     -10.446  -9.983  93.276  1.00  0.00     0.187 C 
BRANCH  13  14
ATOM     14  O   UNL     1     -10.156 -10.148  91.912  1.00  0.00    -0.392 OA
ATOM     15  H   UNL     1     -11.033 -10.138  91.435  1.00  0.00     0.211 HD
ENDBRANCH  13  14
ENDBRANCH   9  13
ENDBRANCH   1   2
BRANCH   1  16
ATOM     16  C   UNL     1     -13.573  -9.634  90.255  1.00  0.00     0.286 C 
ATOM     17  C   UNL     1     -12.590 -10.457  89.344  1.00  0.00     0.202 C 
ATOM     18  O   UNL     1     -14.356  -8.656  89.569  1.00  0.00    -0.341 OA
ATOM     19  C   UNL     1     -11.669  -9.546  88.468  1.00  0.00     0.179 C 
ATOM     20  C   UNL     1     -13.947  -8.325  88.259  1.00  0.00     0.178 C 
ATOM     21  C   UNL     1     -12.388  -8.198  88.154  1.00  0.00     0.177 C 
BRANCH  17  22
ATOM     22  O   UNL     1     -13.318 -11.377  88.570  1.00  0.00    -0.385 OA
ATOM     23  H   UNL     1     -14.134 -10.940  88.175  1.00  0.00     0.211 HD
ENDBRANCH  17  22
BRANCH  19  24
ATOM     24  O   UNL     1     -10.424  -9.342  89.111  1.00  0.00    -0.387 OA
ATOM     25  H   UNL     1     -10.493  -9.814  89.995  1.00  0.00     0.211 HD
ENDBRANCH  19  24
BRANCH  20  26
ATOM     26  C   UNL     1     -14.711  -9.244  87.244  1.00  0.00     0.191 C 
BRANCH  26  27
ATOM     27  O   UNL     1     -15.893  -9.769  87.838  1.00  0.00    -0.394 OA
ATOM     28  H   UNL     1     -16.676  -9.655  87.219  1.00  0.00     0.210 HD
ENDBRANCH  26  27
ENDBRANCH  20  26
BRANCH  21  29
ATOM     29  O   UNL     1     -12.011  -7.692  86.875  1.00  0.00    -0.387 OA
ATOM     30  H   UNL     1     -11.022  -7.742  86.772  1.00  0.00     0.211 HD
ENDBRANCH  21  29
ENDBRANCH   1  16
TORSDOF 10
ENDMDL
MODEL 9
REMARK VINA RESULT:    -5.052      2.403      3.938
REMARK INTER + INTRA:          -8.309
REMARK INTER:                  -7.073
REMARK INTRA:                  -1.236
REMARK UNBOUND:                -1.189
REMARK SMILES OCC1=C[C@@H](O)[C@H]2C=CO[C@@H](O[C@H]3O[C@H](CO)[C@H](O)[C@@H](O)[C@@H]3O)[C@@H]12
REMARK SMILES IDX 12 1 11 2 8 3 9 4 7 5 10 6 24 7 5 8 3 9 4 10 6 11 2 13 1 14
REMARK SMILES IDX 13 16 22 17 14 18 20 19 15 20 18 21 23 22 21 24 16 26 17 27
REMARK SMILES IDX 19 29
REMARK H PARENT 6 12 1 15 23 23 21 25 17 28 19 30
REMARK Flexibility Score: inf
ROOT
ATOM      1  O   UNL     1     -13.341 -10.477  91.737  1.00  0.00    -0.310 OA
ENDROOT
BRANCH   1   2
ATOM      2  C   UNL     1     -13.795 -10.151  93.050  1.00  0.00     0.316 C 
ATOM      3  C   UNL     1     -13.962  -9.155  95.663  1.00  0.00     0.018 C 
ATOM      4  C   UNL     1     -13.699  -8.310  94.649  1.00  0.00     0.186 C 
ATOM      5  C   UNL     1     -13.903 -10.686  95.494  1.00  0.00     0.061 C 
ATOM      6  O   UNL     1     -13.415  -8.824  93.381  1.00  0.00    -0.472 OA
ATOM      7  C   UNL     1     -13.278 -11.094  94.146  1.00  0.00     0.096 C 
ATOM      8  C   UNL     1     -12.918 -11.300  96.510  1.00  0.00     0.145 C 
ATOM      9  C   UNL     1     -11.797 -11.073  94.480  1.00  0.00    -0.036 C 
ATOM     10  C   UNL     1     -11.615 -11.193  95.805  1.00  0.00     0.007 C 
BRANCH   8  11
ATOM     11  O   UNL     1     -12.936 -10.610  97.739  1.00  0.00    -0.388 OA
ATOM     12  H   UNL     1     -13.637  -9.919  97.518  1.00  0.00     0.211 HD
ENDBRANCH   8  11
BRANCH   9  13
ATOM     13  C   UNL     1     -10.713 -10.552  93.586  1.00  0.00     0.187 C 
BRANCH  13  14
ATOM     14  O   UNL     1     -10.606  -9.162  93.754  1.00  0.00    -0.392 OA
ATOM     15  H   UNL     1     -11.518  -8.789  93.592  1.00  0.00     0.211 HD
ENDBRANCH  13  14
ENDBRANCH   9  13
ENDBRANCH   1   2
BRANCH   1  16
ATOM     16  C   UNL     1     -13.257  -9.302  90.903  1.00  0.00     0.286 C 
ATOM     17  C   UNL     1     -14.002  -9.529  89.537  1.00  0.00     0.202 C 
ATOM     18  O   UNL     1     -11.912  -8.835  90.786  1.00  0.00    -0.341 OA
ATOM     19  C   UNL     1     -13.200 -10.438  88.551  1.00  0.00     0.179 C 
ATOM     20  C   UNL     1     -11.318  -8.933  89.509  1.00  0.00     0.178 C 
ATOM     21  C   UNL     1     -11.669 -10.292  88.810  1.00  0.00     0.177 C 
BRANCH  17  22
ATOM     22  O   UNL     1     -14.334  -8.288  88.965  1.00  0.00    -0.385 OA
ATOM     23  H   UNL     1     -13.688  -7.577  89.264  1.00  0.00     0.211 HD
ENDBRANCH  17  22
BRANCH  19  24
ATOM     24  O   UNL     1     -13.627 -11.784  88.663  1.00  0.00    -0.387 OA
ATOM     25  H   UNL     1     -13.895 -12.062  87.736  1.00  0.00     0.211 HD
ENDBRANCH  19  24
BRANCH  20  26
ATOM     26  C   UNL     1     -11.558  -7.590  88.735  1.00  0.00     0.191 C 
BRANCH  26  27
ATOM     27  O   UNL     1     -11.631  -7.828  87.335  1.00  0.00    -0.394 OA
ATOM     28  H   UNL     1     -10.849  -8.382  87.032  1.00  0.00     0.210 HD
ENDBRANCH  26  27
ENDBRANCH  20  26
BRANCH  21  29
ATOM     29  O   UNL     1     -10.919 -10.446  87.607  1.00  0.00    -0.387 OA
ATOM     30  H   UNL     1     -10.109  -9.868  87.639  1.00  0.00     0.211 HD
ENDBRANCH  21  29
ENDBRANCH   1  16
TORSDOF 10
ENDMDL
