MODEL 1
REMARK VINA RESULT:    -6.616      0.000      0.000
REMARK INTER + INTRA:         -14.191
REMARK INTER:                 -11.450
REMARK INTRA:                  -2.741
REMARK UNBOUND:                -2.741
REMARK SMILES OC[C@@H]1O[C@H](O[C@@H]2[C@@H](O)[C@@H](O)[C@H](O[C@H]3[C@H](O)[C@H](O)[C@H](O)O[C@@H]3CO)O[C@@H]2CO)[C@@H](O)[C@H](O)[C@@H]1O
REMARK SMILES IDX 7 1 26 2 25 3 12 4 10 5 8 6 6 7 5 8 3 9 33 10 4 11 31 12
REMARK SMILES IDX 29 13 2 14 1 15 34 17 32 19 30 21 27 23 28 24 9 26 11 28
REMARK SMILES IDX 13 30 14 31 22 32 15 33 21 34 17 35 19 36 23 37 24 38 16 40
REMARK SMILES IDX 18 42 20 44
REMARK H PARENT 1 16 34 18 32 20 30 22 28 25 9 27 11 29 24 39 16 41 18 43
REMARK H PARENT 20 45
REMARK Flexibility Score: inf
ROOT
ATOM      1  C   UNL     1      21.654   4.680  39.453  1.00  0.00     0.184 C 
ATOM      2  C   UNL     1      20.276   4.042  39.102  1.00  0.00     0.178 C 
ATOM      3  O   UNL     1      19.894   2.887  39.848  1.00  0.00    -0.341 OA
ATOM      4  C   UNL     1      20.930   2.060  40.363  1.00  0.00     0.282 C 
ATOM      5  C   UNL     1      22.088   2.804  41.078  1.00  0.00     0.202 C 
ATOM      6  C   UNL     1      22.017   4.317  40.903  1.00  0.00     0.180 C 
ENDROOT
BRANCH   1   7
ATOM      7  O   UNL     1      22.670   4.249  38.543  1.00  0.00    -0.341 OA
BRANCH   7   8
ATOM      8  C   UNL     1      23.369   5.335  37.944  1.00  0.00     0.282 C 
ATOM      9  C   UNL     1      25.536   4.761  37.044  1.00  0.00     0.178 C 
ATOM     10  C   UNL     1      24.798   3.749  36.140  1.00  0.00     0.177 C 
ATOM     11  O   UNL     1      24.768   5.153  38.173  1.00  0.00    -0.341 OA
ATOM     12  C   UNL     1      23.588   4.467  35.509  1.00  0.00     0.179 C 
ATOM     13  C   UNL     1      22.951   5.528  36.455  1.00  0.00     0.202 C 
BRANCH   9  14
ATOM     14  C   UNL     1      26.876   4.185  37.519  1.00  0.00     0.191 C 
BRANCH  14  15
ATOM     15  O   UNL     1      27.306   3.197  36.622  1.00  0.00    -0.394 OA
ATOM     16  H   UNL     1      27.325   3.615  35.722  1.00  0.00     0.210 HD
ENDBRANCH  14  15
ENDBRANCH   9  14
BRANCH  10  17
ATOM     17  O   UNL     1      24.397   2.638  36.909  1.00  0.00    -0.387 OA
ATOM     18  H   UNL     1      23.800   2.970  37.628  1.00  0.00     0.211 HD
ENDBRANCH  10  17
BRANCH  12  19
ATOM     19  O   UNL     1      22.636   3.550  35.039  1.00  0.00    -0.387 OA
ATOM     20  H   UNL     1      22.459   2.900  35.762  1.00  0.00     0.211 HD
ENDBRANCH  12  19
BRANCH  13  21
ATOM     21  O   UNL     1      23.348   6.807  36.055  1.00  0.00    -0.385 OA
ATOM     22  H   UNL     1      24.231   6.980  36.463  1.00  0.00     0.211 HD
ENDBRANCH  13  21
ENDBRANCH   7   8
ENDBRANCH   1   7
BRANCH   2  23
ATOM     23  C   UNL     1      20.024   3.817  37.594  1.00  0.00     0.191 C 
BRANCH  23  24
ATOM     24  O   UNL     1      20.685   2.670  37.120  1.00  0.00    -0.394 OA
ATOM     25  H   UNL     1      21.493   2.541  37.682  1.00  0.00     0.210 HD
ENDBRANCH  23  24
ENDBRANCH   2  23
BRANCH   6  26
ATOM     26  O   UNL     1      21.134   4.918  41.817  1.00  0.00    -0.387 OA
ATOM     27  H   UNL     1      20.205   4.736  41.527  1.00  0.00     0.211 HD
ENDBRANCH   6  26
BRANCH   5  28
ATOM     28  O   UNL     1      22.083   2.492  42.455  1.00  0.00    -0.385 OA
ATOM     29  H   UNL     1      21.645   3.249  42.932  1.00  0.00     0.211 HD
ENDBRANCH   5  28
BRANCH   4  30
ATOM     30  O   UNL     1      21.464   1.224  39.346  1.00  0.00    -0.341 OA
BRANCH  30  31
ATOM     31  C   UNL     1      21.152  -0.168  39.438  1.00  0.00     0.184 C 
ATOM     32  C   UNL     1      21.824  -0.828  40.653  1.00  0.00     0.178 C 
ATOM     33  C   UNL     1      21.323  -1.003  38.135  1.00  0.00     0.180 C 
ATOM     34  O   UNL     1      23.200  -1.027  40.405  1.00  0.00    -0.342 OA
ATOM     35  C   UNL     1      22.657  -1.830  38.060  1.00  0.00     0.201 C 
ATOM     36  C   UNL     1      23.458  -2.002  39.398  1.00  0.00     0.279 C 
BRANCH  32  37
ATOM     37  C   UNL     1      21.098  -2.105  41.139  1.00  0.00     0.191 C 
BRANCH  37  38
ATOM     38  O   UNL     1      21.711  -2.605  42.304  1.00  0.00    -0.394 OA
ATOM     39  H   UNL     1      21.447  -2.011  43.057  1.00  0.00     0.210 HD
ENDBRANCH  37  38
ENDBRANCH  32  37
BRANCH  33  40
ATOM     40  O   UNL     1      20.226  -1.886  38.003  1.00  0.00    -0.387 OA
ATOM     41  H   UNL     1      19.866  -1.749  37.093  1.00  0.00     0.211 HD
ENDBRANCH  33  40
BRANCH  35  42
ATOM     42  O   UNL     1      22.403  -3.099  37.504  1.00  0.00    -0.385 OA
ATOM     43  H   UNL     1      22.834  -3.786  38.079  1.00  0.00     0.211 HD
ENDBRANCH  35  42
BRANCH  36  44
ATOM     44  O   UNL     1      23.333  -3.300  39.947  1.00  0.00    -0.366 OA
ATOM     45  H   UNL     1      22.441  -3.664  39.679  1.00  0.00     0.213 HD
ENDBRANCH  36  44
ENDBRANCH  30  31
ENDBRANCH   4  30
TORSDOF 18
ENDMDL
MODEL 2
REMARK VINA RESULT:    -6.284      2.353      3.882
REMARK INTER + INTRA:         -13.617
REMARK INTER:                 -10.573
REMARK INTRA:                  -3.044
REMARK UNBOUND:                -2.741
REMARK SMILES OC[C@@H]1O[C@H](O[C@@H]2[C@@H](O)[C@@H](O)[C@H](O[C@H]3[C@H](O)[C@H](O)[C@H](O)O[C@@H]3CO)O[C@@H]2CO)[C@@H](O)[C@H](O)[C@@H]1O
REMARK SMILES IDX 7 1 26 2 25 3 12 4 10 5 8 6 6 7 5 8 3 9 33 10 4 11 31 12
REMARK SMILES IDX 29 13 2 14 1 15 34 17 32 19 30 21 27 23 28 24 9 26 11 28
REMARK SMILES IDX 13 30 14 31 22 32 15 33 21 34 17 35 19 36 23 37 24 38 16 40
REMARK SMILES IDX 18 42 20 44
REMARK H PARENT 1 16 34 18 32 20 30 22 28 25 9 27 11 29 24 39 16 41 18 43
REMARK H PARENT 20 45
REMARK Flexibility Score: inf
ROOT
ATOM      1  C   UNL     1      21.985   2.527  39.811  1.00  0.00     0.184 C 
ATOM      2  C   UNL     1      20.603   2.500  39.093  1.00  0.00     0.178 C 
ATOM      3  O   UNL     1      20.152   1.234  38.613  1.00  0.00    -0.341 OA
ATOM      4  C   UNL     1      21.139   0.273  38.255  1.00  0.00     0.282 C 
ATOM      5  C   UNL     1      22.290   0.084  39.278  1.00  0.00     0.202 C 
ATOM      6  C   UNL     1      22.275   1.130  40.386  1.00  0.00     0.180 C 
ENDROOT
BRANCH   1   7
ATOM      7  O   UNL     1      23.024   2.945  38.920  1.00  0.00    -0.341 OA
BRANCH   7   8
ATOM      8  C   UNL     1      24.012   3.743  39.563  1.00  0.00     0.282 C 
ATOM      9  C   UNL     1      25.679   4.666  38.078  1.00  0.00     0.178 C 
ATOM     10  C   UNL     1      24.514   5.360  37.339  1.00  0.00     0.177 C 
ATOM     11  O   UNL     1      25.251   3.569  38.874  1.00  0.00    -0.341 OA
ATOM     12  C   UNL     1      23.606   6.023  38.395  1.00  0.00     0.179 C 
ATOM     13  C   UNL     1      23.534   5.218  39.726  1.00  0.00     0.202 C 
BRANCH   9  14
ATOM     14  C   UNL     1      26.741   4.185  37.082  1.00  0.00     0.191 C 
BRANCH  14  15
ATOM     15  O   UNL     1      26.228   3.123  36.326  1.00  0.00    -0.394 OA
ATOM     16  H   UNL     1      26.356   2.298  36.864  1.00  0.00     0.210 HD
ENDBRANCH  14  15
ENDBRANCH   9  14
BRANCH  10  17
ATOM     17  O   UNL     1      23.808   4.406  36.577  1.00  0.00    -0.387 OA
ATOM     18  H   UNL     1      24.148   4.454  35.647  1.00  0.00     0.211 HD
ENDBRANCH  10  17
BRANCH  12  19
ATOM     19  O   UNL     1      22.330   6.291  37.878  1.00  0.00    -0.387 OA
ATOM     20  H   UNL     1      22.393   6.273  36.892  1.00  0.00     0.211 HD
ENDBRANCH  12  19
BRANCH  13  21
ATOM     21  O   UNL     1      24.342   5.832  40.687  1.00  0.00    -0.385 OA
ATOM     22  H   UNL     1      24.686   5.120  41.278  1.00  0.00     0.211 HD
ENDBRANCH  13  21
ENDBRANCH   7   8
ENDBRANCH   1   7
BRANCH   2  23
ATOM     23  C   UNL     1      20.406   3.588  38.012  1.00  0.00     0.191 C 
BRANCH  23  24
ATOM     24  O   UNL     1      21.276   3.402  36.923  1.00  0.00    -0.394 OA
ATOM     25  H   UNL     1      20.822   2.796  36.282  1.00  0.00     0.210 HD
ENDBRANCH  23  24
ENDBRANCH   2  23
BRANCH   6  26
ATOM     26  O   UNL     1      21.376   0.803  41.416  1.00  0.00    -0.387 OA
ATOM     27  H   UNL     1      20.742   1.555  41.534  1.00  0.00     0.211 HD
ENDBRANCH   6  26
BRANCH   5  28
ATOM     28  O   UNL     1      22.218  -1.205  39.851  1.00  0.00    -0.385 OA
ATOM     29  H   UNL     1      22.044  -1.090  40.824  1.00  0.00     0.211 HD
ENDBRANCH   5  28
BRANCH   4  30
ATOM     30  O   UNL     1      21.686   0.561  36.977  1.00  0.00    -0.341 OA
BRANCH  30  31
ATOM     31  C   UNL     1      22.625  -0.386  36.460  1.00  0.00     0.184 C 
ATOM     32  C   UNL     1      23.511   0.225  35.362  1.00  0.00     0.178 C 
ATOM     33  C   UNL     1      22.054  -1.777  36.060  1.00  0.00     0.180 C 
ATOM     34  O   UNL     1      22.785   0.349  34.158  1.00  0.00    -0.342 OA
ATOM     35  C   UNL     1      21.797  -1.960  34.520  1.00  0.00     0.201 C 
ATOM     36  C   UNL     1      22.456  -0.904  33.564  1.00  0.00     0.279 C 
BRANCH  32  37
ATOM     37  C   UNL     1      24.865  -0.502  35.190  1.00  0.00     0.191 C 
BRANCH  37  38
ATOM     38  O   UNL     1      25.921   0.429  35.152  1.00  0.00    -0.394 OA
ATOM     39  H   UNL     1      25.719   1.077  34.425  1.00  0.00     0.210 HD
ENDBRANCH  37  38
ENDBRANCH  32  37
BRANCH  33  40
ATOM     40  O   UNL     1      22.942  -2.787  36.501  1.00  0.00    -0.387 OA
ATOM     41  H   UNL     1      22.940  -2.747  37.488  1.00  0.00     0.211 HD
ENDBRANCH  33  40
BRANCH  35  42
ATOM     42  O   UNL     1      22.185  -3.254  34.120  1.00  0.00    -0.385 OA
ATOM     43  H   UNL     1      22.062  -3.871  34.889  1.00  0.00     0.211 HD
ENDBRANCH  35  42
BRANCH  36  44
ATOM     44  O   UNL     1      23.581  -1.417  32.875  1.00  0.00    -0.366 OA
ATOM     45  H   UNL     1      23.436  -1.269  31.897  1.00  0.00     0.213 HD
ENDBRANCH  36  44
ENDBRANCH  30  31
ENDBRANCH   4  30
TORSDOF 18
ENDMDL
MODEL 3
REMARK VINA RESULT:    -6.084      2.154      3.189
REMARK INTER + INTRA:         -13.271
REMARK INTER:                 -10.821
REMARK INTRA:                  -2.450
REMARK UNBOUND:                -2.741
REMARK SMILES OC[C@@H]1O[C@H](O[C@@H]2[C@@H](O)[C@@H](O)[C@H](O[C@H]3[C@H](O)[C@H](O)[C@H](O)O[C@@H]3CO)O[C@@H]2CO)[C@@H](O)[C@H](O)[C@@H]1O
REMARK SMILES IDX 7 1 26 2 25 3 12 4 10 5 8 6 6 7 5 8 3 9 33 10 4 11 31 12
REMARK SMILES IDX 29 13 2 14 1 15 34 17 32 19 30 21 27 23 28 24 9 26 11 28
REMARK SMILES IDX 13 30 14 31 22 32 15 33 21 34 17 35 19 36 23 37 24 38 16 40
REMARK SMILES IDX 18 42 20 44
REMARK H PARENT 1 16 34 18 32 20 30 22 28 25 9 27 11 29 24 39 16 41 18 43
REMARK H PARENT 20 45
REMARK Flexibility Score: inf
ROOT
ATOM      1  C   UNL     1      21.859   2.824  40.034  1.00  0.00     0.184 C 
ATOM      2  C   UNL     1      20.466   2.685  39.351  1.00  0.00     0.178 C 
ATOM      3  O   UNL     1      20.052   1.367  38.994  1.00  0.00    -0.341 OA
ATOM      4  C   UNL     1      21.066   0.413  38.701  1.00  0.00     0.282 C 
ATOM      5  C   UNL     1      22.242   0.355  39.711  1.00  0.00     0.202 C 
ATOM      6  C   UNL     1      22.211   1.494  40.723  1.00  0.00     0.180 C 
ENDROOT
BRANCH   1   7
ATOM      7  O   UNL     1      22.865   3.196  39.087  1.00  0.00    -0.341 OA
BRANCH   7   8
ATOM      8  C   UNL     1      23.802   4.127  39.618  1.00  0.00     0.282 C 
ATOM      9  C   UNL     1      25.546   4.784  38.081  1.00  0.00     0.178 C 
ATOM     10  C   UNL     1      24.420   5.294  37.155  1.00  0.00     0.177 C 
ATOM     11  O   UNL     1      25.084   3.852  39.049  1.00  0.00    -0.341 OA
ATOM     12  C   UNL     1      23.442   6.128  38.007  1.00  0.00     0.179 C 
ATOM     13  C   UNL     1      23.298   5.594  39.463  1.00  0.00     0.202 C 
BRANCH   9  14
ATOM     14  C   UNL     1      26.673   4.145  37.261  1.00  0.00     0.191 C 
BRANCH  14  15
ATOM     15  O   UNL     1      27.718   3.768  38.114  1.00  0.00    -0.394 OA
ATOM     16  H   UNL     1      27.305   3.507  38.978  1.00  0.00     0.210 HD
ENDBRANCH  14  15
ENDBRANCH   9  14
BRANCH  10  17
ATOM     17  O   UNL     1      23.774   4.195  36.553  1.00  0.00    -0.387 OA
ATOM     18  H   UNL     1      22.835   4.459  36.375  1.00  0.00     0.211 HD
ENDBRANCH  10  17
BRANCH  12  19
ATOM     19  O   UNL     1      22.197   6.260  37.375  1.00  0.00    -0.387 OA
ATOM     20  H   UNL     1      22.264   7.002  36.726  1.00  0.00     0.211 HD
ENDBRANCH  12  19
BRANCH  13  21
ATOM     21  O   UNL     1      24.038   6.401  40.331  1.00  0.00    -0.385 OA
ATOM     22  H   UNL     1      23.590   6.375  41.210  1.00  0.00     0.211 HD
ENDBRANCH  13  21
ENDBRANCH   7   8
ENDBRANCH   1   7
BRANCH   2  23
ATOM     23  C   UNL     1      20.209   3.665  38.183  1.00  0.00     0.191 C 
BRANCH  23  24
ATOM     24  O   UNL     1      21.058   3.408  37.092  1.00  0.00    -0.394 OA
ATOM     25  H   UNL     1      21.716   2.725  37.383  1.00  0.00     0.210 HD
ENDBRANCH  23  24
ENDBRANCH   2  23
BRANCH   6  26
ATOM     26  O   UNL     1      21.343   1.229  41.797  1.00  0.00    -0.387 OA
ATOM     27  H   UNL     1      21.082   2.089  42.213  1.00  0.00     0.211 HD
ENDBRANCH   6  26
BRANCH   5  28
ATOM     28  O   UNL     1      22.228  -0.879  40.397  1.00  0.00    -0.385 OA
ATOM     29  H   UNL     1      23.164  -1.217  40.425  1.00  0.00     0.211 HD
ENDBRANCH   5  28
BRANCH   4  30
ATOM     30  O   UNL     1      21.579   0.604  37.391  1.00  0.00    -0.341 OA
BRANCH  30  31
ATOM     31  C   UNL     1      21.613  -0.549  36.546  1.00  0.00     0.184 C 
ATOM     32  C   UNL     1      22.824  -1.446  36.848  1.00  0.00     0.178 C 
ATOM     33  C   UNL     1      21.424  -0.295  35.022  1.00  0.00     0.180 C 
ATOM     34  O   UNL     1      24.002  -0.874  36.322  1.00  0.00    -0.342 OA
ATOM     35  C   UNL     1      22.758  -0.279  34.192  1.00  0.00     0.201 C 
ATOM     36  C   UNL     1      24.035  -0.856  34.897  1.00  0.00     0.279 C 
BRANCH  32  37
ATOM     37  C   UNL     1      22.617  -2.920  36.427  1.00  0.00     0.191 C 
BRANCH  37  38
ATOM     38  O   UNL     1      22.271  -3.706  37.543  1.00  0.00    -0.394 OA
ATOM     39  H   UNL     1      21.409  -4.156  37.334  1.00  0.00     0.210 HD
ENDBRANCH  37  38
ENDBRANCH  32  37
BRANCH  33  40
ATOM     40  O   UNL     1      20.563  -1.285  34.491  1.00  0.00    -0.387 OA
ATOM     41  H   UNL     1      21.136  -1.907  33.980  1.00  0.00     0.211 HD
ENDBRANCH  33  40
BRANCH  35  42
ATOM     42  O   UNL     1      22.566  -0.943  32.964  1.00  0.00    -0.385 OA
ATOM     43  H   UNL     1      21.879  -1.649  33.092  1.00  0.00     0.211 HD
ENDBRANCH  35  42
BRANCH  36  44
ATOM     44  O   UNL     1      24.398  -2.136  34.412  1.00  0.00    -0.366 OA
ATOM     45  H   UNL     1      24.441  -2.086  33.414  1.00  0.00     0.213 HD
ENDBRANCH  36  44
ENDBRANCH  30  31
ENDBRANCH   4  30
TORSDOF 18
ENDMDL
MODEL 4
REMARK VINA RESULT:    -5.907      1.823      5.280
REMARK INTER + INTRA:         -12.965
REMARK INTER:                  -9.535
REMARK INTRA:                  -3.429
REMARK UNBOUND:                -2.741
REMARK SMILES OC[C@@H]1O[C@H](O[C@@H]2[C@@H](O)[C@@H](O)[C@H](O[C@H]3[C@H](O)[C@H](O)[C@H](O)O[C@@H]3CO)O[C@@H]2CO)[C@@H](O)[C@H](O)[C@@H]1O
REMARK SMILES IDX 7 1 26 2 25 3 12 4 10 5 8 6 6 7 5 8 3 9 33 10 4 11 31 12
REMARK SMILES IDX 29 13 2 14 1 15 34 17 32 19 30 21 27 23 28 24 9 26 11 28
REMARK SMILES IDX 13 30 14 31 22 32 15 33 21 34 17 35 19 36 23 37 24 38 16 40
REMARK SMILES IDX 18 42 20 44
REMARK H PARENT 1 16 34 18 32 20 30 22 28 25 9 27 11 29 24 39 16 41 18 43
REMARK H PARENT 20 45
REMARK Flexibility Score: inf
ROOT
ATOM      1  C   UNL     1      22.452   5.159  37.885  1.00  0.00     0.184 C 
ATOM      2  C   UNL     1      24.007   5.239  37.840  1.00  0.00     0.178 C 
ATOM      3  O   UNL     1      24.633   4.902  36.602  1.00  0.00    -0.341 OA
ATOM      4  C   UNL     1      23.960   3.982  35.751  1.00  0.00     0.282 C 
ATOM      5  C   UNL     1      22.448   4.252  35.534  1.00  0.00     0.202 C 
ATOM      6  C   UNL     1      21.902   5.334  36.459  1.00  0.00     0.180 C 
ENDROOT
BRANCH   1   7
ATOM      7  O   UNL     1      22.013   3.925  38.459  1.00  0.00    -0.341 OA
BRANCH   7   8
ATOM      8  C   UNL     1      20.816   4.065  39.216  1.00  0.00     0.282 C 
ATOM      9  C   UNL     1      20.209   2.114  40.506  1.00  0.00     0.178 C 
ATOM     10  C   UNL     1      21.571   2.266  41.217  1.00  0.00     0.177 C 
ATOM     11  O   UNL     1      20.159   2.796  39.260  1.00  0.00    -0.341 OA
ATOM     12  C   UNL     1      21.739   3.745  41.620  1.00  0.00     0.179 C 
ATOM     13  C   UNL     1      21.091   4.728  40.600  1.00  0.00     0.202 C 
BRANCH   9  14
ATOM     14  C   UNL     1      19.875   0.634  40.286  1.00  0.00     0.191 C 
BRANCH  14  15
ATOM     15  O   UNL     1      21.050  -0.074  39.996  1.00  0.00    -0.394 OA
ATOM     16  H   UNL     1      21.056  -0.233  39.016  1.00  0.00     0.210 HD
ENDBRANCH  14  15
ENDBRANCH   9  14
BRANCH  10  17
ATOM     17  O   UNL     1      22.602   1.846  40.351  1.00  0.00    -0.387 OA
ATOM     18  H   UNL     1      23.418   2.358  40.585  1.00  0.00     0.211 HD
ENDBRANCH  10  17
BRANCH  12  19
ATOM     19  O   UNL     1      23.083   4.060  41.866  1.00  0.00    -0.387 OA
ATOM     20  H   UNL     1      23.506   3.273  42.287  1.00  0.00     0.211 HD
ENDBRANCH  12  19
BRANCH  13  21
ATOM     21  O   UNL     1      19.875   5.193  41.108  1.00  0.00    -0.385 OA
ATOM     22  H   UNL     1      19.878   5.019  42.080  1.00  0.00     0.211 HD
ENDBRANCH  13  21
ENDBRANCH   7   8
ENDBRANCH   1   7
BRANCH   2  23
ATOM     23  C   UNL     1      24.732   4.547  39.016  1.00  0.00     0.191 C 
BRANCH  23  24
ATOM     24  O   UNL     1      24.542   3.154  38.998  1.00  0.00    -0.394 OA
ATOM     25  H   UNL     1      25.438   2.732  39.062  1.00  0.00     0.210 HD
ENDBRANCH  23  24
ENDBRANCH   2  23
BRANCH   6  26
ATOM     26  O   UNL     1      22.150   6.628  35.969  1.00  0.00    -0.387 OA
ATOM     27  H   UNL     1      22.919   6.589  35.347  1.00  0.00     0.211 HD
ENDBRANCH   6  26
BRANCH   5  28
ATOM     28  O   UNL     1      22.212   4.621  34.193  1.00  0.00    -0.385 OA
ATOM     29  H   UNL     1      22.356   3.812  33.630  1.00  0.00     0.211 HD
ENDBRANCH   5  28
BRANCH   4  30
ATOM     30  O   UNL     1      24.141   2.648  36.203  1.00  0.00    -0.341 OA
BRANCH  30  31
ATOM     31  C   UNL     1      23.129   1.708  35.832  1.00  0.00     0.184 C 
ATOM     32  C   UNL     1      22.247   1.313  37.026  1.00  0.00     0.178 C 
ATOM     33  C   UNL     1      23.600   0.477  35.004  1.00  0.00     0.180 C 
ATOM     34  O   UNL     1      22.939   0.421  37.873  1.00  0.00    -0.342 OA
ATOM     35  C   UNL     1      23.794  -0.838  35.843  1.00  0.00     0.201 C 
ATOM     36  C   UNL     1      23.170  -0.856  37.283  1.00  0.00     0.279 C 
BRANCH  32  37
ATOM     37  C   UNL     1      20.845   0.804  36.613  1.00  0.00     0.191 C 
BRANCH  37  38
ATOM     38  O   UNL     1      19.950   1.884  36.483  1.00  0.00    -0.394 OA
ATOM     39  H   UNL     1      19.963   2.386  37.343  1.00  0.00     0.210 HD
ENDBRANCH  37  38
ENDBRANCH  32  37
BRANCH  33  40
ATOM     40  O   UNL     1      22.667   0.229  33.969  1.00  0.00    -0.387 OA
ATOM     41  H   UNL     1      22.604   1.065  33.446  1.00  0.00     0.211 HD
ENDBRANCH  33  40
BRANCH  35  42
ATOM     42  O   UNL     1      23.315  -1.945  35.116  1.00  0.00    -0.385 OA
ATOM     43  H   UNL     1      24.086  -2.529  34.886  1.00  0.00     0.211 HD
ENDBRANCH  35  42
BRANCH  36  44
ATOM     44  O   UNL     1      21.994  -1.639  37.360  1.00  0.00    -0.366 OA
ATOM     45  H   UNL     1      21.326  -1.255  36.722  1.00  0.00     0.213 HD
ENDBRANCH  36  44
ENDBRANCH  30  31
ENDBRANCH   4  30
TORSDOF 18
ENDMDL
MODEL 5
REMARK VINA RESULT:    -5.894     13.600     17.093
REMARK INTER + INTRA:         -12.942
REMARK INTER:                 -10.732
REMARK INTRA:                  -2.209
REMARK UNBOUND:                -2.741
REMARK SMILES OC[C@@H]1O[C@H](O[C@@H]2[C@@H](O)[C@@H](O)[C@H](O[C@H]3[C@H](O)[C@H](O)[C@H](O)O[C@@H]3CO)O[C@@H]2CO)[C@@H](O)[C@H](O)[C@@H]1O
REMARK SMILES IDX 7 1 26 2 25 3 12 4 10 5 8 6 6 7 5 8 3 9 33 10 4 11 31 12
REMARK SMILES IDX 29 13 2 14 1 15 34 17 32 19 30 21 27 23 28 24 9 26 11 28
REMARK SMILES IDX 13 30 14 31 22 32 15 33 21 34 17 35 19 36 23 37 24 38 16 40
REMARK SMILES IDX 18 42 20 44
REMARK H PARENT 1 16 34 18 32 20 30 22 28 25 9 27 11 29 24 39 16 41 18 43
REMARK H PARENT 20 45
REMARK Flexibility Score: inf
ROOT
ATOM      1  C   UNL     1      39.081  -0.140  45.440  1.00  0.00     0.184 C 
ATOM      2  C   UNL     1      39.383   1.133  44.595  1.00  0.00     0.178 C 
ATOM      3  O   UNL     1      38.782   2.352  45.029  1.00  0.00    -0.341 OA
ATOM      4  C   UNL     1      37.552   2.266  45.738  1.00  0.00     0.282 C 
ATOM      5  C   UNL     1      37.504   1.207  46.871  1.00  0.00     0.202 C 
ATOM      6  C   UNL     1      38.720   0.288  46.873  1.00  0.00     0.180 C 
ENDROOT
BRANCH   1   7
ATOM      7  O   UNL     1      38.032  -0.915  44.853  1.00  0.00    -0.341 OA
BRANCH   7   8
ATOM      8  C   UNL     1      38.479  -2.185  44.390  1.00  0.00     0.282 C 
ATOM      9  C   UNL     1      38.713  -3.858  46.117  1.00  0.00     0.178 C 
ATOM     10  C   UNL     1      37.210  -3.647  46.405  1.00  0.00     0.177 C 
ATOM     11  O   UNL     1      39.294  -2.774  45.405  1.00  0.00    -0.341 OA
ATOM     12  C   UNL     1      36.458  -3.667  45.060  1.00  0.00     0.179 C 
ATOM     13  C   UNL     1      37.289  -3.060  43.891  1.00  0.00     0.202 C 
BRANCH   9  14
ATOM     14  C   UNL     1      39.488  -4.080  47.421  1.00  0.00     0.191 C 
BRANCH  14  15
ATOM     15  O   UNL     1      39.886  -2.844  47.947  1.00  0.00    -0.394 OA
ATOM     16  H   UNL     1      40.268  -3.023  48.846  1.00  0.00     0.210 HD
ENDBRANCH  14  15
ENDBRANCH   9  14
BRANCH  10  17
ATOM     17  O   UNL     1      37.029  -2.423  47.081  1.00  0.00    -0.387 OA
ATOM     18  H   UNL     1      37.925  -2.091  47.346  1.00  0.00     0.211 HD
ENDBRANCH  10  17
BRANCH  12  19
ATOM     19  O   UNL     1      35.196  -3.065  45.169  1.00  0.00    -0.387 OA
ATOM     20  H   UNL     1      34.539  -3.775  45.371  1.00  0.00     0.211 HD
ENDBRANCH  12  19
BRANCH  13  21
ATOM     21  O   UNL     1      37.809  -4.090  43.104  1.00  0.00    -0.385 OA
ATOM     22  H   UNL     1      37.170  -4.249  42.369  1.00  0.00     0.211 HD
ENDBRANCH  13  21
ENDBRANCH   7   8
ENDBRANCH   1   7
BRANCH   2  23
ATOM     23  C   UNL     1      39.209   0.961  43.068  1.00  0.00     0.191 C 
BRANCH  23  24
ATOM     24  O   UNL     1      37.876   1.163  42.670  1.00  0.00    -0.394 OA
ATOM     25  H   UNL     1      37.748   0.684  41.811  1.00  0.00     0.210 HD
ENDBRANCH  23  24
ENDBRANCH   2  23
BRANCH   6  26
ATOM     26  O   UNL     1      39.822   0.865  47.529  1.00  0.00    -0.387 OA
ATOM     27  H   UNL     1      40.011   1.745  47.116  1.00  0.00     0.211 HD
ENDBRANCH   6  26
BRANCH   5  28
ATOM     28  O   UNL     1      37.399   1.847  48.124  1.00  0.00    -0.385 OA
ATOM     29  H   UNL     1      38.229   1.643  48.635  1.00  0.00     0.211 HD
ENDBRANCH   5  28
BRANCH   4  30
ATOM     30  O   UNL     1      36.467   2.051  44.846  1.00  0.00    -0.341 OA
BRANCH  30  31
ATOM     31  C   UNL     1      35.388   2.987  44.920  1.00  0.00     0.184 C 
ATOM     32  C   UNL     1      34.195   2.557  44.052  1.00  0.00     0.178 C 
ATOM     33  C   UNL     1      35.759   4.486  44.725  1.00  0.00     0.180 C 
ATOM     34  O   UNL     1      34.471   2.795  42.688  1.00  0.00    -0.342 OA
ATOM     35  C   UNL     1      35.472   5.048  43.286  1.00  0.00     0.201 C 
ATOM     36  C   UNL     1      34.551   4.179  42.359  1.00  0.00     0.279 C 
BRANCH  32  37
ATOM     37  C   UNL     1      32.848   3.156  44.519  1.00  0.00     0.191 C 
BRANCH  37  38
ATOM     38  O   UNL     1      31.773   2.483  43.906  1.00  0.00    -0.394 OA
ATOM     39  H   UNL     1      31.163   3.175  43.533  1.00  0.00     0.210 HD
ENDBRANCH  37  38
ENDBRANCH  32  37
BRANCH  33  40
ATOM     40  O   UNL     1      35.052   5.265  45.672  1.00  0.00    -0.387 OA
ATOM     41  H   UNL     1      34.932   4.693  46.469  1.00  0.00     0.211 HD
ENDBRANCH  33  40
BRANCH  35  42
ATOM     42  O   UNL     1      34.944   6.350  43.376  1.00  0.00    -0.385 OA
ATOM     43  H   UNL     1      35.686   6.978  43.585  1.00  0.00     0.211 HD
ENDBRANCH  35  42
BRANCH  36  44
ATOM     44  O   UNL     1      33.248   4.715  42.226  1.00  0.00    -0.366 OA
ATOM     45  H   UNL     1      32.609   3.952  42.130  1.00  0.00     0.213 HD
ENDBRANCH  36  44
ENDBRANCH  30  31
ENDBRANCH   4  30
TORSDOF 18
ENDMDL
MODEL 6
REMARK VINA RESULT:    -5.830      2.070      4.132
REMARK INTER + INTRA:         -12.832
REMARK INTER:                 -10.373
REMARK INTRA:                  -2.458
REMARK UNBOUND:                -2.741
REMARK SMILES OC[C@@H]1O[C@H](O[C@@H]2[C@@H](O)[C@@H](O)[C@H](O[C@H]3[C@H](O)[C@H](O)[C@H](O)O[C@@H]3CO)O[C@@H]2CO)[C@@H](O)[C@H](O)[C@@H]1O
REMARK SMILES IDX 7 1 26 2 25 3 12 4 10 5 8 6 6 7 5 8 3 9 33 10 4 11 31 12
REMARK SMILES IDX 29 13 2 14 1 15 34 17 32 19 30 21 27 23 28 24 9 26 11 28
REMARK SMILES IDX 13 30 14 31 22 32 15 33 21 34 17 35 19 36 23 37 24 38 16 40
REMARK SMILES IDX 18 42 20 44
REMARK H PARENT 1 16 34 18 32 20 30 22 28 25 9 27 11 29 24 39 16 41 18 43
REMARK H PARENT 20 45
REMARK Flexibility Score: inf
ROOT
ATOM      1  C   UNL     1      24.018   4.335  36.743  1.00  0.00     0.184 C 
ATOM      2  C   UNL     1      24.023   3.898  38.238  1.00  0.00     0.178 C 
ATOM      3  O   UNL     1      23.958   2.496  38.499  1.00  0.00    -0.341 OA
ATOM      4  C   UNL     1      23.305   1.675  37.538  1.00  0.00     0.282 C 
ATOM      5  C   UNL     1      23.700   1.931  36.060  1.00  0.00     0.202 C 
ATOM      6  C   UNL     1      24.558   3.179  35.884  1.00  0.00     0.180 C 
ENDROOT
BRANCH   1   7
ATOM      7  O   UNL     1      22.708   4.724  36.322  1.00  0.00    -0.341 OA
BRANCH   7   8
ATOM      8  C   UNL     1      22.684   6.013  35.719  1.00  0.00     0.282 C 
ATOM      9  C   UNL     1      20.858   6.367  34.177  1.00  0.00     0.178 C 
ATOM     10  C   UNL     1      19.912   6.071  35.362  1.00  0.00     0.177 C 
ATOM     11  O   UNL     1      22.176   5.880  34.389  1.00  0.00    -0.341 OA
ATOM     12  C   UNL     1      20.397   6.890  36.575  1.00  0.00     0.179 C 
ATOM     13  C   UNL     1      21.946   7.049  36.620  1.00  0.00     0.202 C 
BRANCH   9  14
ATOM     14  C   UNL     1      20.302   5.769  32.879  1.00  0.00     0.191 C 
BRANCH  14  15
ATOM     15  O   UNL     1      20.452   4.376  32.902  1.00  0.00    -0.394 OA
ATOM     16  H   UNL     1      20.405   4.097  33.854  1.00  0.00     0.210 HD
ENDBRANCH  14  15
ENDBRANCH   9  14
BRANCH  10  17
ATOM     17  O   UNL     1      19.920   4.688  35.635  1.00  0.00    -0.387 OA
ATOM     18  H   UNL     1      20.503   4.541  36.423  1.00  0.00     0.211 HD
ENDBRANCH  10  17
BRANCH  12  19
ATOM     19  O   UNL     1      19.892   6.373  37.777  1.00  0.00    -0.387 OA
ATOM     20  H   UNL     1      19.864   5.389  37.695  1.00  0.00     0.211 HD
ENDBRANCH  12  19
BRANCH  13  21
ATOM     21  O   UNL     1      22.295   8.330  36.184  1.00  0.00    -0.385 OA
ATOM     22  H   UNL     1      21.513   8.914  36.332  1.00  0.00     0.211 HD
ENDBRANCH  13  21
ENDBRANCH   7   8
ENDBRANCH   1   7
BRANCH   2  23
ATOM     23  C   UNL     1      23.033   4.661  39.147  1.00  0.00     0.191 C 
BRANCH  23  24
ATOM     24  O   UNL     1      21.699   4.305  38.879  1.00  0.00    -0.394 OA
ATOM     25  H   UNL     1      21.229   5.124  38.577  1.00  0.00     0.210 HD
ENDBRANCH  23  24
ENDBRANCH   2  23
BRANCH   6  26
ATOM     26  O   UNL     1      25.916   2.933  36.150  1.00  0.00    -0.387 OA
ATOM     27  H   UNL     1      26.271   3.678  36.696  1.00  0.00     0.211 HD
ENDBRANCH   6  26
BRANCH   5  28
ATOM     28  O   UNL     1      24.390   0.813  35.545  1.00  0.00    -0.385 OA
ATOM     29  H   UNL     1      24.059   0.008  36.030  1.00  0.00     0.211 HD
ENDBRANCH   5  28
BRANCH   4  30
ATOM     30  O   UNL     1      21.894   1.764  37.672  1.00  0.00    -0.341 OA
BRANCH  30  31
ATOM     31  C   UNL     1      21.217   0.570  38.075  1.00  0.00     0.184 C 
ATOM     32  C   UNL     1      21.252   0.378  39.600  1.00  0.00     0.178 C 
ATOM     33  C   UNL     1      21.585  -0.729  37.300  1.00  0.00     0.180 C 
ATOM     34  O   UNL     1      22.530  -0.061  40.009  1.00  0.00    -0.342 OA
ATOM     35  C   UNL     1      22.604  -1.666  38.044  1.00  0.00     0.201 C 
ATOM     36  C   UNL     1      22.843  -1.380  39.569  1.00  0.00     0.279 C 
BRANCH  32  37
ATOM     37  C   UNL     1      20.100  -0.505  40.134  1.00  0.00     0.191 C 
BRANCH  37  38
ATOM     38  O   UNL     1      20.095  -0.505  41.543  1.00  0.00    -0.394 OA
ATOM     39  H   UNL     1      20.150   0.443  41.840  1.00  0.00     0.210 HD
ENDBRANCH  37  38
ENDBRANCH  32  37
BRANCH  33  40
ATOM     40  O   UNL     1      20.403  -1.458  37.029  1.00  0.00    -0.387 OA
ATOM     41  H   UNL     1      19.732  -0.798  36.728  1.00  0.00     0.211 HD
ENDBRANCH  33  40
BRANCH  35  42
ATOM     42  O   UNL     1      22.226  -3.012  37.878  1.00  0.00    -0.385 OA
ATOM     43  H   UNL     1      22.401  -3.496  38.728  1.00  0.00     0.211 HD
ENDBRANCH  35  42
BRANCH  36  44
ATOM     44  O   UNL     1      22.209  -2.327  40.408  1.00  0.00    -0.366 OA
ATOM     45  H   UNL     1      22.890  -3.011  40.671  1.00  0.00     0.213 HD
ENDBRANCH  36  44
ENDBRANCH  30  31
ENDBRANCH   4  30
TORSDOF 18
ENDMDL
MODEL 7
REMARK VINA RESULT:    -5.827     13.431     16.294
REMARK INTER + INTRA:         -12.827
REMARK INTER:                 -11.981
REMARK INTRA:                  -0.846
REMARK UNBOUND:                -2.741
REMARK SMILES OC[C@@H]1O[C@H](O[C@@H]2[C@@H](O)[C@@H](O)[C@H](O[C@H]3[C@H](O)[C@H](O)[C@H](O)O[C@@H]3CO)O[C@@H]2CO)[C@@H](O)[C@H](O)[C@@H]1O
REMARK SMILES IDX 7 1 26 2 25 3 12 4 10 5 8 6 6 7 5 8 3 9 33 10 4 11 31 12
REMARK SMILES IDX 29 13 2 14 1 15 34 17 32 19 30 21 27 23 28 24 9 26 11 28
REMARK SMILES IDX 13 30 14 31 22 32 15 33 21 34 17 35 19 36 23 37 24 38 16 40
REMARK SMILES IDX 18 42 20 44
REMARK H PARENT 1 16 34 18 32 20 30 22 28 25 9 27 11 29 24 39 16 41 18 43
REMARK H PARENT 20 45
REMARK Flexibility Score: inf
ROOT
ATOM      1  C   UNL     1      37.790   2.739  44.237  1.00  0.00     0.184 C 
ATOM      2  C   UNL     1      38.100   1.834  45.466  1.00  0.00     0.178 C 
ATOM      3  O   UNL     1      38.849   0.645  45.218  1.00  0.00    -0.341 OA
ATOM      4  C   UNL     1      38.738   0.051  43.930  1.00  0.00     0.282 C 
ATOM      5  C   UNL     1      38.862   1.027  42.730  1.00  0.00     0.202 C 
ATOM      6  C   UNL     1      38.856   2.491  43.155  1.00  0.00     0.180 C 
ENDROOT
BRANCH   1   7
ATOM      7  O   UNL     1      36.475   2.494  43.732  1.00  0.00    -0.341 OA
BRANCH   7   8
ATOM      8  C   UNL     1      35.455   3.011  44.580  1.00  0.00     0.282 C 
ATOM      9  C   UNL     1      35.148   5.403  44.439  1.00  0.00     0.178 C 
ATOM     10  C   UNL     1      34.846   5.190  42.939  1.00  0.00     0.177 C 
ATOM     11  O   UNL     1      35.850   4.312  45.019  1.00  0.00    -0.341 OA
ATOM     12  C   UNL     1      33.845   4.024  42.815  1.00  0.00     0.179 C 
ATOM     13  C   UNL     1      34.054   2.927  43.901  1.00  0.00     0.202 C 
BRANCH   9  14
ATOM     14  C   UNL     1      35.952   6.692  44.651  1.00  0.00     0.191 C 
BRANCH  14  15
ATOM     15  O   UNL     1      37.308   6.377  44.816  1.00  0.00    -0.394 OA
ATOM     16  H   UNL     1      37.400   5.963  45.714  1.00  0.00     0.210 HD
ENDBRANCH  14  15
ENDBRANCH   9  14
BRANCH  10  17
ATOM     17  O   UNL     1      36.046   4.917  42.252  1.00  0.00    -0.387 OA
ATOM     18  H   UNL     1      35.865   5.009  41.282  1.00  0.00     0.211 HD
ENDBRANCH  10  17
BRANCH  12  19
ATOM     19  O   UNL     1      33.847   3.482  41.521  1.00  0.00    -0.387 OA
ATOM     20  H   UNL     1      33.021   3.779  41.068  1.00  0.00     0.211 HD
ENDBRANCH  12  19
BRANCH  13  21
ATOM     21  O   UNL     1      33.081   3.064  44.895  1.00  0.00    -0.385 OA
ATOM     22  H   UNL     1      32.390   2.381  44.726  1.00  0.00     0.211 HD
ENDBRANCH  13  21
ENDBRANCH   7   8
ENDBRANCH   1   7
BRANCH   2  23
ATOM     23  C   UNL     1      36.887   1.526  46.375  1.00  0.00     0.191 C 
BRANCH  23  24
ATOM     24  O   UNL     1      37.138   1.873  47.714  1.00  0.00    -0.394 OA
ATOM     25  H   UNL     1      36.607   1.258  48.283  1.00  0.00     0.210 HD
ENDBRANCH  23  24
ENDBRANCH   2  23
BRANCH   6  26
ATOM     26  O   UNL     1      40.124   2.929  43.575  1.00  0.00    -0.387 OA
ATOM     27  H   UNL     1      40.179   2.840  44.560  1.00  0.00     0.211 HD
ENDBRANCH   6  26
BRANCH   5  28
ATOM     28  O   UNL     1      40.043   0.755  42.007  1.00  0.00    -0.385 OA
ATOM     29  H   UNL     1      40.486   1.627  41.819  1.00  0.00     0.211 HD
ENDBRANCH   5  28
BRANCH   4  30
ATOM     30  O   UNL     1      37.531  -0.688  43.814  1.00  0.00    -0.341 OA
BRANCH  30  31
ATOM     31  C   UNL     1      37.555  -2.028  44.313  1.00  0.00     0.184 C 
ATOM     32  C   UNL     1      36.621  -2.208  45.520  1.00  0.00     0.178 C 
ATOM     33  C   UNL     1      38.962  -2.653  44.547  1.00  0.00     0.180 C 
ATOM     34  O   UNL     1      37.198  -1.636  46.675  1.00  0.00    -0.342 OA
ATOM     35  C   UNL     1      39.445  -2.631  46.042  1.00  0.00     0.201 C 
ATOM     36  C   UNL     1      38.356  -2.330  47.132  1.00  0.00     0.279 C 
BRANCH  32  37
ATOM     37  C   UNL     1      36.157  -3.669  45.725  1.00  0.00     0.191 C 
BRANCH  37  38
ATOM     38  O   UNL     1      35.277  -3.755  46.821  1.00  0.00    -0.394 OA
ATOM     39  H   UNL     1      34.362  -3.896  46.457  1.00  0.00     0.210 HD
ENDBRANCH  37  38
ENDBRANCH  32  37
BRANCH  33  40
ATOM     40  O   UNL     1      38.958  -3.990  44.084  1.00  0.00    -0.387 OA
ATOM     41  H   UNL     1      39.647  -4.467  44.606  1.00  0.00     0.211 HD
ENDBRANCH  33  40
BRANCH  35  42
ATOM     42  O   UNL     1      40.090  -3.843  46.355  1.00  0.00    -0.385 OA
ATOM     43  H   UNL     1      39.731  -4.554  45.760  1.00  0.00     0.211 HD
ENDBRANCH  35  42
BRANCH  36  44
ATOM     44  O   UNL     1      37.969  -3.485  47.853  1.00  0.00    -0.366 OA
ATOM     45  H   UNL     1      37.246  -3.222  48.491  1.00  0.00     0.213 HD
ENDBRANCH  36  44
ENDBRANCH  30  31
ENDBRANCH   4  30
TORSDOF 18
ENDMDL
MODEL 8
REMARK VINA RESULT:    -5.718      2.829      6.428
REMARK INTER + INTRA:         -12.638
REMARK INTER:                  -9.839
REMARK INTRA:                  -2.799
REMARK UNBOUND:                -2.741
REMARK SMILES OC[C@@H]1O[C@H](O[C@@H]2[C@@H](O)[C@@H](O)[C@H](O[C@H]3[C@H](O)[C@H](O)[C@H](O)O[C@@H]3CO)O[C@@H]2CO)[C@@H](O)[C@H](O)[C@@H]1O
REMARK SMILES IDX 7 1 26 2 25 3 12 4 10 5 8 6 6 7 5 8 3 9 33 10 4 11 31 12
REMARK SMILES IDX 29 13 2 14 1 15 34 17 32 19 30 21 27 23 28 24 9 26 11 28
REMARK SMILES IDX 13 30 14 31 22 32 15 33 21 34 17 35 19 36 23 37 24 38 16 40
REMARK SMILES IDX 18 42 20 44
REMARK H PARENT 1 16 34 18 32 20 30 22 28 25 9 27 11 29 24 39 16 41 18 43
REMARK H PARENT 20 45
REMARK Flexibility Score: inf
ROOT
ATOM      1  C   UNL     1      20.837   1.196  34.326  1.00  0.00     0.184 C 
ATOM      2  C   UNL     1      19.904   1.392  35.558  1.00  0.00     0.178 C 
ATOM      3  O   UNL     1      19.889   2.689  36.154  1.00  0.00    -0.341 OA
ATOM      4  C   UNL     1      21.065   3.481  36.042  1.00  0.00     0.282 C 
ATOM      5  C   UNL     1      21.696   3.546  34.626  1.00  0.00     0.202 C 
ATOM      6  C   UNL     1      21.064   2.560  33.650  1.00  0.00     0.180 C 
ENDROOT
BRANCH   1   7
ATOM      7  O   UNL     1      22.079   0.596  34.708  1.00  0.00    -0.341 OA
BRANCH   7   8
ATOM      8  C   UNL     1      22.525  -0.385  33.777  1.00  0.00     0.282 C 
ATOM      9  C   UNL     1      24.663  -1.374  34.309  1.00  0.00     0.178 C 
ATOM     10  C   UNL     1      24.025  -1.832  35.639  1.00  0.00     0.177 C 
ATOM     11  O   UNL     1      23.949  -0.311  33.692  1.00  0.00    -0.341 OA
ATOM     12  C   UNL     1      22.657  -2.467  35.319  1.00  0.00     0.179 C 
ATOM     13  C   UNL     1      21.942  -1.792  34.111  1.00  0.00     0.202 C 
BRANCH   9  14
ATOM     14  C   UNL     1      26.120  -0.945  34.527  1.00  0.00     0.191 C 
BRANCH  14  15
ATOM     15  O   UNL     1      26.151   0.337  35.091  1.00  0.00    -0.394 OA
ATOM     16  H   UNL     1      25.866   0.243  36.037  1.00  0.00     0.210 HD
ENDBRANCH  14  15
ENDBRANCH   9  14
BRANCH  10  17
ATOM     17  O   UNL     1      23.891  -0.724  36.501  1.00  0.00    -0.387 OA
ATOM     18  H   UNL     1      24.509  -0.018  36.180  1.00  0.00     0.211 HD
ENDBRANCH  10  17
BRANCH  12  19
ATOM     19  O   UNL     1      21.835  -2.512  36.453  1.00  0.00    -0.387 OA
ATOM     20  H   UNL     1      21.036  -1.960  36.270  1.00  0.00     0.211 HD
ENDBRANCH  12  19
BRANCH  13  21
ATOM     21  O   UNL     1      22.079  -2.597  32.978  1.00  0.00    -0.385 OA
ATOM     22  H   UNL     1      21.690  -2.102  32.217  1.00  0.00     0.211 HD
ENDBRANCH  13  21
ENDBRANCH   7   8
ENDBRANCH   1   7
BRANCH   2  23
ATOM     23  C   UNL     1      20.018   0.300  36.646  1.00  0.00     0.191 C 
BRANCH  23  24
ATOM     24  O   UNL     1      21.272   0.328  37.281  1.00  0.00    -0.394 OA
ATOM     25  H   UNL     1      21.627   1.251  37.196  1.00  0.00     0.210 HD
ENDBRANCH  23  24
ENDBRANCH   2  23
BRANCH   6  26
ATOM     26  O   UNL     1      19.876   3.056  33.087  1.00  0.00    -0.387 OA
ATOM     27  H   UNL     1      19.816   2.744  32.149  1.00  0.00     0.211 HD
ENDBRANCH   6  26
BRANCH   5  28
ATOM     28  O   UNL     1      21.583   4.854  34.108  1.00  0.00    -0.385 OA
ATOM     29  H   UNL     1      22.123   5.454  34.690  1.00  0.00     0.211 HD
ENDBRANCH   5  28
BRANCH   4  30
ATOM     30  O   UNL     1      22.048   3.065  36.978  1.00  0.00    -0.341 OA
BRANCH  30  31
ATOM     31  C   UNL     1      22.439   4.027  37.960  1.00  0.00     0.184 C 
ATOM     32  C   UNL     1      23.663   3.561  38.766  1.00  0.00     0.178 C 
ATOM     33  C   UNL     1      21.306   4.589  38.867  1.00  0.00     0.180 C 
ATOM     34  O   UNL     1      23.286   2.575  39.703  1.00  0.00    -0.342 OA
ATOM     35  C   UNL     1      21.221   3.928  40.291  1.00  0.00     0.201 C 
ATOM     36  C   UNL     1      22.457   3.076  40.749  1.00  0.00     0.279 C 
BRANCH  32  37
ATOM     37  C   UNL     1      24.468   4.725  39.390  1.00  0.00     0.191 C 
BRANCH  37  38
ATOM     38  O   UNL     1      25.133   5.455  38.386  1.00  0.00    -0.394 OA
ATOM     39  H   UNL     1      26.078   5.144  38.370  1.00  0.00     0.210 HD
ENDBRANCH  37  38
ENDBRANCH  32  37
BRANCH  33  40
ATOM     40  O   UNL     1      21.482   5.985  39.018  1.00  0.00    -0.387 OA
ATOM     41  H   UNL     1      20.588   6.391  38.909  1.00  0.00     0.211 HD
ENDBRANCH  33  40
BRANCH  35  42
ATOM     42  O   UNL     1      20.951   4.913  41.261  1.00  0.00    -0.385 OA
ATOM     43  H   UNL     1      21.209   5.799  40.891  1.00  0.00     0.211 HD
ENDBRANCH  35  42
BRANCH  36  44
ATOM     44  O   UNL     1      23.252   3.740  41.713  1.00  0.00    -0.366 OA
ATOM     45  H   UNL     1      23.627   3.049  42.331  1.00  0.00     0.213 HD
ENDBRANCH  36  44
ENDBRANCH  30  31
ENDBRANCH   4  30
TORSDOF 18
ENDMDL
MODEL 9
REMARK VINA RESULT:    -5.147      1.914      7.145
REMARK INTER + INTRA:         -11.650
REMARK INTER:                  -8.753
REMARK INTRA:                  -2.897
REMARK UNBOUND:                -2.741
REMARK SMILES OC[C@@H]1O[C@H](O[C@@H]2[C@@H](O)[C@@H](O)[C@H](O[C@H]3[C@H](O)[C@H](O)[C@H](O)O[C@@H]3CO)O[C@@H]2CO)[C@@H](O)[C@H](O)[C@@H]1O
REMARK SMILES IDX 7 1 26 2 25 3 12 4 10 5 8 6 6 7 5 8 3 9 33 10 4 11 31 12
REMARK SMILES IDX 29 13 2 14 1 15 34 17 32 19 30 21 27 23 28 24 9 26 11 28
REMARK SMILES IDX 13 30 14 31 22 32 15 33 21 34 17 35 19 36 23 37 24 38 16 40
REMARK SMILES IDX 18 42 20 44
REMARK H PARENT 1 16 34 18 32 20 30 22 28 25 9 27 11 29 24 39 16 41 18 43
REMARK H PARENT 20 45
REMARK Flexibility Score: inf
ROOT
ATOM      1  C   UNL     1      22.085   1.745  39.923  1.00  0.00     0.184 C 
ATOM      2  C   UNL     1      22.988   2.695  39.081  1.00  0.00     0.178 C 
ATOM      3  O   UNL     1      22.551   4.047  38.947  1.00  0.00    -0.341 OA
ATOM      4  C   UNL     1      21.153   4.299  39.014  1.00  0.00     0.282 C 
ATOM      5  C   UNL     1      20.403   3.603  40.180  1.00  0.00     0.202 C 
ATOM      6  C   UNL     1      21.267   2.587  40.918  1.00  0.00     0.180 C 
ENDROOT
BRANCH   1   7
ATOM      7  O   UNL     1      21.230   0.964  39.083  1.00  0.00    -0.341 OA
BRANCH   7   8
ATOM      8  C   UNL     1      20.777  -0.228  39.716  1.00  0.00     0.282 C 
ATOM      9  C   UNL     1      20.608  -2.141  38.250  1.00  0.00     0.178 C 
ATOM     10  C   UNL     1      22.117  -1.959  37.979  1.00  0.00     0.177 C 
ATOM     11  O   UNL     1      19.998  -0.970  38.775  1.00  0.00    -0.341 OA
ATOM     12  C   UNL     1      22.827  -1.771  39.335  1.00  0.00     0.179 C 
ATOM     13  C   UNL     1      21.956  -1.006  40.375  1.00  0.00     0.202 C 
BRANCH   9  14
ATOM     14  C   UNL     1      19.875  -2.563  36.971  1.00  0.00     0.191 C 
BRANCH  14  15
ATOM     15  O   UNL     1      20.774  -3.199  36.105  1.00  0.00    -0.394 OA
ATOM     16  H   UNL     1      21.016  -2.538  35.404  1.00  0.00     0.210 HD
ENDBRANCH  14  15
ENDBRANCH   9  14
BRANCH  10  17
ATOM     17  O   UNL     1      22.312  -0.847  37.135  1.00  0.00    -0.387 OA
ATOM     18  H   UNL     1      22.670  -0.108  37.690  1.00  0.00     0.211 HD
ENDBRANCH  10  17
BRANCH  12  19
ATOM     19  O   UNL     1      24.088  -1.178  39.175  1.00  0.00    -0.387 OA
ATOM     20  H   UNL     1      24.714  -1.877  38.863  1.00  0.00     0.211 HD
ENDBRANCH  12  19
BRANCH  13  21
ATOM     21  O   UNL     1      21.418  -1.914  41.291  1.00  0.00    -0.385 OA
ATOM     22  H   UNL     1      20.706  -2.414  40.824  1.00  0.00     0.211 HD
ENDBRANCH  13  21
ENDBRANCH   7   8
ENDBRANCH   1   7
BRANCH   2  23
ATOM     23  C   UNL     1      23.431   2.133  37.711  1.00  0.00     0.191 C 
BRANCH  23  24
ATOM     24  O   UNL     1      22.343   1.989  36.832  1.00  0.00    -0.394 OA
ATOM     25  H   UNL     1      22.031   2.901  36.596  1.00  0.00     0.210 HD
ENDBRANCH  23  24
ENDBRANCH   2  23
BRANCH   6  26
ATOM     26  O   UNL     1      22.095   3.191  41.880  1.00  0.00    -0.387 OA
ATOM     27  H   UNL     1      21.616   3.964  42.270  1.00  0.00     0.211 HD
ENDBRANCH   6  26
BRANCH   5  28
ATOM     28  O   UNL     1      19.933   4.569  41.096  1.00  0.00    -0.385 OA
ATOM     29  H   UNL     1      20.030   4.187  42.010  1.00  0.00     0.211 HD
ENDBRANCH   5  28
BRANCH   4  30
ATOM     30  O   UNL     1      20.519   3.974  37.786  1.00  0.00    -0.341 OA
BRANCH  30  31
ATOM     31  C   UNL     1      20.365   5.042  36.848  1.00  0.00     0.184 C 
ATOM     32  C   UNL     1      20.920   4.674  35.462  1.00  0.00     0.178 C 
ATOM     33  C   UNL     1      20.828   6.450  37.321  1.00  0.00     0.180 C 
ATOM     34  O   UNL     1      22.331   4.721  35.471  1.00  0.00    -0.342 OA
ATOM     35  C   UNL     1      22.247   6.880  36.801  1.00  0.00     0.201 C 
ATOM     36  C   UNL     1      22.852   6.039  35.623  1.00  0.00     0.279 C 
BRANCH  32  37
ATOM     37  C   UNL     1      20.286   5.489  34.310  1.00  0.00     0.191 C 
BRANCH  37  38
ATOM     38  O   UNL     1      20.690   4.972  33.064  1.00  0.00    -0.394 OA
ATOM     39  H   UNL     1      19.866   4.770  32.544  1.00  0.00     0.210 HD
ENDBRANCH  37  38
ENDBRANCH  32  37
BRANCH  33  40
ATOM     40  O   UNL     1      19.876   7.414  36.911  1.00  0.00    -0.387 OA
ATOM     41  H   UNL     1      19.671   7.217  35.965  1.00  0.00     0.211 HD
ENDBRANCH  33  40
BRANCH  35  42
ATOM     42  O   UNL     1      22.232   8.242  36.439  1.00  0.00    -0.385 OA
ATOM     43  H   UNL     1      22.028   8.307  35.469  1.00  0.00     0.211 HD
ENDBRANCH  35  42
BRANCH  36  44
ATOM     44  O   UNL     1      22.801   6.719  34.382  1.00  0.00    -0.366 OA
ATOM     45  H   UNL     1      21.878   7.088  34.271  1.00  0.00     0.213 HD
ENDBRANCH  36  44
ENDBRANCH  30  31
ENDBRANCH   4  30
TORSDOF 18
ENDMDL
