MODEL 1
REMARK VINA RESULT:    -2.779      0.000      0.000
REMARK INTER + INTRA:          -3.334
REMARK INTER:                  -3.266
REMARK INTRA:                  -0.068
REMARK UNBOUND:                -0.068
REMARK SMILES O=C([O-])CCC(=O)[O-]
REMARK SMILES IDX 4 1 2 2 1 3 3 4 5 5 6 6 7 7 8 8
REMARK H PARENT
REMARK Flexibility Score: inf
ROOT
ATOM      1  C   UNL     1      72.540  30.410  60.961  1.00  0.00     0.059 C 
ENDROOT
BRANCH   1   2
ATOM      2  C   UNL     1      72.170  29.021  61.375  1.00  0.00     0.042 C 
ATOM      3  O   UNL     1      73.055  28.227  61.790  1.00  0.00    -0.550 OA
ATOM      4  O   UNL     1      70.841  28.618  61.350  1.00  0.00    -0.550 OA
ENDBRANCH   1   2
BRANCH   1   5
ATOM      5  C   UNL     1      72.180  30.645  59.493  1.00  0.00     0.059 C 
BRANCH   5   6
ATOM      6  C   UNL     1      71.236  31.799  59.363  1.00  0.00     0.042 C 
ATOM      7  O   UNL     1      70.359  31.802  58.461  1.00  0.00    -0.550 OA
ATOM      8  O   UNL     1      71.295  32.849  60.271  1.00  0.00    -0.550 OA
ENDBRANCH   5   6
ENDBRANCH   1   5
TORSDOF 3
ENDMDL
MODEL 2
REMARK VINA RESULT:    -2.750      0.238      3.958
REMARK INTER + INTRA:          -3.300
REMARK INTER:                  -3.227
REMARK INTRA:                  -0.073
REMARK UNBOUND:                -0.068
REMARK SMILES O=C([O-])CCC(=O)[O-]
REMARK SMILES IDX 4 1 2 2 1 3 3 4 5 5 6 6 7 7 8 8
REMARK H PARENT
REMARK Flexibility Score: inf
ROOT
ATOM      1  C   UNL     1      72.004  30.698  59.458  1.00  0.00     0.059 C 
ENDROOT
BRANCH   1   2
ATOM      2  C   UNL     1      71.243  31.980  59.346  1.00  0.00     0.042 C 
ATOM      3  O   UNL     1      71.271  32.818  60.287  1.00  0.00    -0.550 OA
ATOM      4  O   UNL     1      70.541  32.274  58.184  1.00  0.00    -0.550 OA
ENDBRANCH   1   2
BRANCH   1   5
ATOM      5  C   UNL     1      72.479  30.481  60.896  1.00  0.00     0.059 C 
BRANCH   5   6
ATOM      6  C   UNL     1      72.098  29.114  61.372  1.00  0.00     0.042 C 
ATOM      7  O   UNL     1      70.892  28.754  61.367  1.00  0.00    -0.550 OA
ATOM      8  O   UNL     1      73.082  28.220  61.775  1.00  0.00    -0.550 OA
ENDBRANCH   5   6
ENDBRANCH   1   5
TORSDOF 3
ENDMDL
MODEL 3
REMARK VINA RESULT:    -2.706     21.024     21.683
REMARK INTER + INTRA:          -3.248
REMARK INTER:                  -3.134
REMARK INTRA:                  -0.114
REMARK UNBOUND:                -0.068
REMARK SMILES O=C([O-])CCC(=O)[O-]
REMARK SMILES IDX 4 1 2 2 1 3 3 4 5 5 6 6 7 7 8 8
REMARK H PARENT
REMARK Flexibility Score: inf
ROOT
ATOM      1  C   UNL     1      57.192  17.751  51.384  1.00  0.00     0.059 C 
ENDROOT
BRANCH   1   2
ATOM      2  C   UNL     1      55.913  18.369  50.917  1.00  0.00     0.042 C 
ATOM      3  O   UNL     1      55.584  18.306  49.702  1.00  0.00    -0.550 OA
ATOM      4  O   UNL     1      55.058  18.972  51.830  1.00  0.00    -0.550 OA
ENDBRANCH   1   2
BRANCH   1   5
ATOM      5  C   UNL     1      57.774  16.842  50.299  1.00  0.00     0.059 C 
BRANCH   5   6
ATOM      6  C   UNL     1      59.044  17.420  49.758  1.00  0.00     0.042 C 
ATOM      7  O   UNL     1      59.022  18.145  48.729  1.00  0.00    -0.550 OA
ATOM      8  O   UNL     1      60.245  17.197  50.419  1.00  0.00    -0.550 OA
ENDBRANCH   5   6
ENDBRANCH   1   5
TORSDOF 3
ENDMDL
MODEL 4
REMARK VINA RESULT:    -2.704     21.087     21.853
REMARK INTER + INTRA:          -3.246
REMARK INTER:                  -3.143
REMARK INTRA:                  -0.102
REMARK UNBOUND:                -0.068
REMARK SMILES O=C([O-])CCC(=O)[O-]
REMARK SMILES IDX 4 1 2 2 1 3 3 4 5 5 6 6 7 7 8 8
REMARK H PARENT
REMARK Flexibility Score: inf
ROOT
ATOM      1  C   UNL     1      57.293  17.964  49.751  1.00  0.00     0.059 C 
ENDROOT
BRANCH   1   2
ATOM      2  C   UNL     1      55.984  18.230  50.423  1.00  0.00     0.042 C 
ATOM      3  O   UNL     1      55.897  18.190  51.680  1.00  0.00    -0.550 OA
ATOM      4  O   UNL     1      54.871  18.572  49.667  1.00  0.00    -0.550 OA
ENDBRANCH   1   2
BRANCH   1   5
ATOM      5  C   UNL     1      57.797  16.562  50.098  1.00  0.00     0.059 C 
BRANCH   5   6
ATOM      6  C   UNL     1      59.003  16.643  50.981  1.00  0.00     0.042 C 
ATOM      7  O   UNL     1      60.093  17.079  50.526  1.00  0.00    -0.550 OA
ATOM      8  O   UNL     1      58.909  16.284  52.320  1.00  0.00    -0.550 OA
ENDBRANCH   5   6
ENDBRANCH   1   5
TORSDOF 3
ENDMDL
MODEL 5
REMARK VINA RESULT:    -2.701     21.064     21.660
REMARK INTER + INTRA:          -3.242
REMARK INTER:                  -3.135
REMARK INTRA:                  -0.106
REMARK UNBOUND:                -0.068
REMARK SMILES O=C([O-])CCC(=O)[O-]
REMARK SMILES IDX 4 1 2 2 1 3 3 4 5 5 6 6 7 7 8 8
REMARK H PARENT
REMARK Flexibility Score: inf
ROOT
ATOM      1  C   UNL     1      57.856  16.572  50.103  1.00  0.00     0.059 C 
ENDROOT
BRANCH   1   2
ATOM      2  C   UNL     1      59.000  16.576  51.065  1.00  0.00     0.042 C 
ATOM      3  O   UNL     1      58.835  16.177  52.248  1.00  0.00    -0.550 OA
ATOM      4  O   UNL     1      60.262  16.973  50.643  1.00  0.00    -0.550 OA
ENDBRANCH   1   2
BRANCH   1   5
ATOM      5  C   UNL     1      57.384  18.001  49.826  1.00  0.00     0.059 C 
BRANCH   5   6
ATOM      6  C   UNL     1      56.036  18.234  50.432  1.00  0.00     0.042 C 
ATOM      7  O   UNL     1      55.889  18.201  51.682  1.00  0.00    -0.550 OA
ATOM      8  O   UNL     1      54.951  18.536  49.618  1.00  0.00    -0.550 OA
ENDBRANCH   5   6
ENDBRANCH   1   5
TORSDOF 3
ENDMDL
MODEL 6
REMARK VINA RESULT:    -2.607     16.369     17.696
REMARK INTER + INTRA:          -3.132
REMARK INTER:                  -3.016
REMARK INTRA:                  -0.116
REMARK UNBOUND:                -0.068
REMARK SMILES O=C([O-])CCC(=O)[O-]
REMARK SMILES IDX 4 1 2 2 1 3 3 4 5 5 6 6 7 7 8 8
REMARK H PARENT
REMARK Flexibility Score: inf
ROOT
ATOM      1  C   UNL     1      58.395  28.305  49.916  1.00  0.00     0.059 C 
ENDROOT
BRANCH   1   2
ATOM      2  C   UNL     1      56.997  27.788  49.795  1.00  0.00     0.042 C 
ATOM      3  O   UNL     1      56.783  26.547  49.744  1.00  0.00    -0.550 OA
ATOM      4  O   UNL     1      55.927  28.672  49.788  1.00  0.00    -0.550 OA
ENDBRANCH   1   2
BRANCH   1   5
ATOM      5  C   UNL     1      59.155  28.108  48.603  1.00  0.00     0.059 C 
BRANCH   5   6
ATOM      6  C   UNL     1      60.222  27.071  48.766  1.00  0.00     0.042 C 
ATOM      7  O   UNL     1      59.911  25.859  48.903  1.00  0.00    -0.550 OA
ATOM      8  O   UNL     1      61.561  27.438  48.717  1.00  0.00    -0.550 OA
ENDBRANCH   5   6
ENDBRANCH   1   5
TORSDOF 3
ENDMDL
MODEL 7
REMARK VINA RESULT:    -2.583     16.575     17.787
REMARK INTER + INTRA:          -3.104
REMARK INTER:                  -2.989
REMARK INTRA:                  -0.114
REMARK UNBOUND:                -0.068
REMARK SMILES O=C([O-])CCC(=O)[O-]
REMARK SMILES IDX 4 1 2 2 1 3 3 4 5 5 6 6 7 7 8 8
REMARK H PARENT
REMARK Flexibility Score: inf
ROOT
ATOM      1  C   UNL     1      58.289  28.457  50.021  1.00  0.00     0.059 C 
ENDROOT
BRANCH   1   2
ATOM      2  C   UNL     1      56.900  27.902  50.014  1.00  0.00     0.042 C 
ATOM      3  O   UNL     1      55.920  28.652  49.758  1.00  0.00    -0.550 OA
ATOM      4  O   UNL     1      56.691  26.549  50.241  1.00  0.00    -0.550 OA
ENDBRANCH   1   2
BRANCH   1   5
ATOM      5  C   UNL     1      58.945  28.275  48.651  1.00  0.00     0.059 C 
BRANCH   5   6
ATOM      6  C   UNL     1      59.980  27.196  48.706  1.00  0.00     0.042 C 
ATOM      7  O   UNL     1      61.204  27.491  48.699  1.00  0.00    -0.550 OA
ATOM      8  O   UNL     1      59.592  25.866  48.813  1.00  0.00    -0.550 OA
ENDBRANCH   5   6
ENDBRANCH   1   5
TORSDOF 3
ENDMDL
MODEL 8
REMARK VINA RESULT:    -2.560     21.428     22.031
REMARK INTER + INTRA:          -3.077
REMARK INTER:                  -3.045
REMARK INTRA:                  -0.032
REMARK UNBOUND:                -0.068
REMARK SMILES O=C([O-])CCC(=O)[O-]
REMARK SMILES IDX 4 1 2 2 1 3 3 4 5 5 6 6 7 7 8 8
REMARK H PARENT
REMARK Flexibility Score: inf
ROOT
ATOM      1  C   UNL     1      56.556  18.717  51.399  1.00  0.00     0.059 C 
ENDROOT
BRANCH   1   2
ATOM      2  C   UNL     1      55.190  18.834  51.996  1.00  0.00     0.042 C 
ATOM      3  O   UNL     1      54.946  18.328  53.124  1.00  0.00    -0.550 OA
ATOM      4  O   UNL     1      54.199  19.543  51.331  1.00  0.00    -0.550 OA
ENDBRANCH   1   2
BRANCH   1   5
ATOM      5  C   UNL     1      56.487  18.028  50.035  1.00  0.00     0.059 C 
BRANCH   5   6
ATOM      6  C   UNL     1      57.760  17.293  49.755  1.00  0.00     0.042 C 
ATOM      7  O   UNL     1      57.970  16.168  50.278  1.00  0.00    -0.550 OA
ATOM      8  O   UNL     1      58.694  17.829  48.876  1.00  0.00    -0.550 OA
ENDBRANCH   5   6
ENDBRANCH   1   5
TORSDOF 3
ENDMDL
MODEL 9
REMARK VINA RESULT:    -2.536     21.364     21.972
REMARK INTER + INTRA:          -3.049
REMARK INTER:                  -3.019
REMARK INTRA:                  -0.029
REMARK UNBOUND:                -0.068
REMARK SMILES O=C([O-])CCC(=O)[O-]
REMARK SMILES IDX 4 1 2 2 1 3 3 4 5 5 6 6 7 7 8 8
REMARK H PARENT
REMARK Flexibility Score: inf
ROOT
ATOM      1  C   UNL     1      56.291  18.124  50.147  1.00  0.00     0.059 C 
ENDROOT
BRANCH   1   2
ATOM      2  C   UNL     1      57.587  17.460  49.807  1.00  0.00     0.042 C 
ATOM      3  O   UNL     1      57.819  16.286  50.200  1.00  0.00    -0.550 OA
ATOM      4  O   UNL     1      58.518  18.118  49.014  1.00  0.00    -0.550 OA
ENDBRANCH   1   2
BRANCH   1   5
ATOM      5  C   UNL     1      56.395  18.841  51.495  1.00  0.00     0.059 C 
BRANCH   5   6
ATOM      6  C   UNL     1      55.047  18.948  52.136  1.00  0.00     0.042 C 
ATOM      7  O   UNL     1      54.821  18.379  53.236  1.00  0.00    -0.550 OA
ATOM      8  O   UNL     1      54.054  19.718  51.542  1.00  0.00    -0.550 OA
ENDBRANCH   5   6
ENDBRANCH   1   5
TORSDOF 3
ENDMDL
