MODEL 1
REMARK VINA RESULT:    -6.561      0.000      0.000
REMARK INTER + INTRA:         -10.710
REMARK INTER:                  -9.437
REMARK INTRA:                  -1.273
REMARK UNBOUND:                -1.273
REMARK SMILES O=c1c(O[C@@H]2O[C@H](CO)[C@@H](O)[C@@H](O)[C@@H]2O)c(-c2ccc(O)cc2)oc2cc(O)cc(O)c12
REMARK SMILES IDX 4 1 3 2 16 3 24 4 2 5 25 6 1 7 32 8 26 9 30 10 27 11 29 12
REMARK SMILES IDX 17 13 18 14 19 15 20 16 23 17 22 18 21 19 31 21 28 23 5 25
REMARK SMILES IDX 14 26 6 27 12 28 7 29 10 30 15 31 13 33 8 35 9 36 11 38
REMARK H PARENT 21 20 31 22 28 24 15 32 13 34 9 37 11 39
REMARK Flexibility Score: inf
ROOT
ATOM      1  O   UNL     1      16.390  -5.700 -12.737  1.00  0.00    -0.454 OA
ENDROOT
BRANCH   1   2
ATOM      2  C   UNL     1      15.182  -5.883 -12.031  1.00  0.00     0.214 A 
ATOM      3  C   UNL     1      14.868  -4.963 -11.010  1.00  0.00     0.180 A 
ATOM      4  O   UNL     1      13.717  -5.055 -10.353  1.00  0.00    -0.452 OA
ATOM      5  C   UNL     1      14.255  -6.914 -12.307  1.00  0.00     0.239 A 
ATOM      6  C   UNL     1      12.819  -6.002 -10.585  1.00  0.00     0.146 A 
ATOM      7  O   UNL     1      14.496  -7.766 -13.203  1.00  0.00    -0.285 OA
ATOM      8  C   UNL     1      13.050  -6.985 -11.575  1.00  0.00     0.111 A 
ATOM      9  C   UNL     1      11.640  -6.017  -9.835  1.00  0.00     0.094 A 
ATOM     10  C   UNL     1      12.070  -7.986 -11.789  1.00  0.00     0.134 A 
ATOM     11  C   UNL     1      10.677  -7.007 -10.053  1.00  0.00     0.123 A 
ATOM     12  C   UNL     1      10.894  -7.985 -11.025  1.00  0.00     0.093 A 
BRANCH   3  13
ATOM     13  C   UNL     1      15.781  -3.855 -10.655  1.00  0.00     0.021 A 
ATOM     14  C   UNL     1      16.771  -4.014  -9.670  1.00  0.00     0.016 A 
ATOM     15  C   UNL     1      17.624  -2.955  -9.347  1.00  0.00     0.047 A 
ATOM     16  C   UNL     1      17.485  -1.720  -9.991  1.00  0.00     0.115 A 
ATOM     17  C   UNL     1      15.632  -2.606 -11.279  1.00  0.00     0.016 A 
ATOM     18  C   UNL     1      16.486  -1.547 -10.954  1.00  0.00     0.047 A 
BRANCH  16  19
ATOM     19  O   UNL     1      18.330  -0.657  -9.679  1.00  0.00    -0.508 OA
ATOM     20  H   UNL     1      18.738  -0.074 -10.401  1.00  0.00     0.293 HD
ENDBRANCH  16  19
ENDBRANCH   3  13
BRANCH  10  21
ATOM     21  O   UNL     1      12.254  -8.978 -12.753  1.00  0.00    -0.507 OA
ATOM     22  H   UNL     1      11.730  -8.984 -13.620  1.00  0.00     0.293 HD
ENDBRANCH  10  21
BRANCH  11  23
ATOM     23  O   UNL     1       9.499  -7.027  -9.308  1.00  0.00    -0.508 OA
ATOM     24  H   UNL     1       9.368  -6.422  -8.507  1.00  0.00     0.293 HD
ENDBRANCH  11  23
ENDBRANCH   1   2
BRANCH   1  25
ATOM     25  C   UNL     1      16.666  -4.736 -13.756  1.00  0.00     0.339 C 
ATOM     26  C   UNL     1      18.150  -4.836 -14.175  1.00  0.00     0.214 C 
ATOM     27  O   UNL     1      15.750  -4.902 -14.836  1.00  0.00    -0.332 OA
ATOM     28  C   UNL     1      18.463  -6.216 -14.797  1.00  0.00     0.180 C 
ATOM     29  C   UNL     1      16.241  -5.647 -15.947  1.00  0.00     0.179 C 
ATOM     30  C   UNL     1      17.225  -6.781 -15.542  1.00  0.00     0.177 C 
BRANCH  26  31
ATOM     31  O   UNL     1      19.006  -4.558 -13.093  1.00  0.00    -0.384 OA
ATOM     32  H   UNL     1      19.297  -3.612 -13.168  1.00  0.00     0.211 HD
ENDBRANCH  26  31
BRANCH  28  33
ATOM     33  O   UNL     1      19.557  -6.096 -15.671  1.00  0.00    -0.387 OA
ATOM     34  H   UNL     1      20.247  -6.736 -15.358  1.00  0.00     0.211 HD
ENDBRANCH  28  33
BRANCH  29  35
ATOM     35  C   UNL     1      15.034  -6.201 -16.721  1.00  0.00     0.191 C 
BRANCH  35  36
ATOM     36  O   UNL     1      15.330  -6.345 -18.086  1.00  0.00    -0.394 OA
ATOM     37  H   UNL     1      14.829  -5.636 -18.564  1.00  0.00     0.210 HD
ENDBRANCH  35  36
ENDBRANCH  29  35
BRANCH  30  38
ATOM     38  O   UNL     1      17.609  -7.567 -16.645  1.00  0.00    -0.387 OA
ATOM     39  H   UNL     1      18.481  -7.989 -16.428  1.00  0.00     0.211 HD
ENDBRANCH  30  38
ENDBRANCH   1  25
TORSDOF 11
ENDMDL
MODEL 2
REMARK VINA RESULT:    -6.331      1.482      2.720
REMARK INTER + INTRA:         -10.380
REMARK INTER:                  -9.161
REMARK INTRA:                  -1.219
REMARK UNBOUND:                -1.273
REMARK SMILES O=c1c(O[C@@H]2O[C@H](CO)[C@@H](O)[C@@H](O)[C@@H]2O)c(-c2ccc(O)cc2)oc2cc(O)cc(O)c12
REMARK SMILES IDX 4 1 3 2 16 3 24 4 2 5 25 6 1 7 32 8 26 9 30 10 27 11 29 12
REMARK SMILES IDX 17 13 18 14 19 15 20 16 23 17 22 18 21 19 31 21 28 23 5 25
REMARK SMILES IDX 14 26 6 27 12 28 7 29 10 30 15 31 13 33 8 35 9 36 11 38
REMARK H PARENT 21 20 31 22 28 24 15 32 13 34 9 37 11 39
REMARK Flexibility Score: inf
ROOT
ATOM      1  O   UNL     1      14.886  -6.738 -13.194  1.00  0.00    -0.454 OA
ENDROOT
BRANCH   1   2
ATOM      2  C   UNL     1      13.986  -6.721 -12.107  1.00  0.00     0.214 A 
ATOM      3  C   UNL     1      14.036  -5.621 -11.226  1.00  0.00     0.180 A 
ATOM      4  O   UNL     1      13.174  -5.527 -10.220  1.00  0.00    -0.452 OA
ATOM      5  C   UNL     1      13.020  -7.725 -11.866  1.00  0.00     0.239 A 
ATOM      6  C   UNL     1      12.249  -6.442  -9.963  1.00  0.00     0.146 A 
ATOM      7  O   UNL     1      12.944  -8.732 -12.618  1.00  0.00    -0.285 OA
ATOM      8  C   UNL     1      12.133  -7.593 -10.776  1.00  0.00     0.111 A 
ATOM      9  C   UNL     1      11.392  -6.254  -8.876  1.00  0.00     0.094 A 
ATOM     10  C   UNL     1      11.136  -8.552 -10.466  1.00  0.00     0.134 A 
ATOM     11  C   UNL     1      10.411  -7.204  -8.577  1.00  0.00     0.123 A 
ATOM     12  C   UNL     1      10.287  -8.346  -9.369  1.00  0.00     0.093 A 
BRANCH   3  13
ATOM     13  C   UNL     1      15.016  -4.528 -11.404  1.00  0.00     0.021 A 
ATOM     14  C   UNL     1      16.240  -4.529 -10.714  1.00  0.00     0.016 A 
ATOM     15  C   UNL     1      17.153  -3.486 -10.893  1.00  0.00     0.047 A 
ATOM     16  C   UNL     1      16.845  -2.421 -11.749  1.00  0.00     0.115 A 
ATOM     17  C   UNL     1      14.704  -3.445 -12.242  1.00  0.00     0.016 A 
ATOM     18  C   UNL     1      15.618  -2.402 -12.419  1.00  0.00     0.047 A 
BRANCH  16  19
ATOM     19  O   UNL     1      17.748  -1.377 -11.937  1.00  0.00    -0.508 OA
ATOM     20  H   UNL     1      17.479  -0.411 -11.786  1.00  0.00     0.293 HD
ENDBRANCH  16  19
ENDBRANCH   3  13
BRANCH  10  21
ATOM     21  O   UNL     1      10.984  -9.706 -11.237  1.00  0.00    -0.507 OA
ATOM     22  H   UNL     1      10.672 -10.581 -10.833  1.00  0.00     0.293 HD
ENDBRANCH  10  21
BRANCH  11  23
ATOM     23  O   UNL     1       9.554  -7.022  -7.494  1.00  0.00    -0.508 OA
ATOM     24  H   UNL     1       9.217  -6.103  -7.233  1.00  0.00     0.293 HD
ENDBRANCH  11  23
ENDBRANCH   1   2
BRANCH   1  25
ATOM     25  C   UNL     1      15.570  -7.868 -13.740  1.00  0.00     0.339 C 
ATOM     26  C   UNL     1      15.131  -8.081 -15.206  1.00  0.00     0.214 C 
ATOM     27  O   UNL     1      16.977  -7.703 -13.578  1.00  0.00    -0.332 OA
ATOM     28  C   UNL     1      15.528  -6.875 -16.089  1.00  0.00     0.180 C 
ATOM     29  C   UNL     1      17.673  -7.216 -14.722  1.00  0.00     0.179 C 
ATOM     30  C   UNL     1      16.836  -6.219 -15.574  1.00  0.00     0.177 C 
BRANCH  26  31
ATOM     31  O   UNL     1      13.752  -8.345 -15.293  1.00  0.00    -0.384 OA
ATOM     32  H   UNL     1      13.464  -8.754 -14.436  1.00  0.00     0.211 HD
ENDBRANCH  26  31
BRANCH  28  33
ATOM     33  O   UNL     1      15.675  -7.300 -17.420  1.00  0.00    -0.387 OA
ATOM     34  H   UNL     1      16.582  -7.695 -17.496  1.00  0.00     0.211 HD
ENDBRANCH  28  33
BRANCH  29  35
ATOM     35  C   UNL     1      18.989  -6.580 -14.245  1.00  0.00     0.191 C 
BRANCH  35  36
ATOM     36  O   UNL     1      19.952  -6.584 -15.267  1.00  0.00    -0.394 OA
ATOM     37  H   UNL     1      19.458  -6.600 -16.126  1.00  0.00     0.210 HD
ENDBRANCH  35  36
ENDBRANCH  29  35
BRANCH  30  38
ATOM     38  O   UNL     1      17.584  -5.672 -16.634  1.00  0.00    -0.387 OA
ATOM     39  H   UNL     1      16.963  -5.514 -17.393  1.00  0.00     0.211 HD
ENDBRANCH  30  38
ENDBRANCH   1  25
TORSDOF 11
ENDMDL
MODEL 3
REMARK VINA RESULT:    -6.122      5.129     10.017
REMARK INTER + INTRA:         -10.080
REMARK INTER:                  -8.416
REMARK INTRA:                  -1.664
REMARK UNBOUND:                -1.273
REMARK SMILES O=c1c(O[C@@H]2O[C@H](CO)[C@@H](O)[C@@H](O)[C@@H]2O)c(-c2ccc(O)cc2)oc2cc(O)cc(O)c12
REMARK SMILES IDX 4 1 3 2 16 3 24 4 2 5 25 6 1 7 32 8 26 9 30 10 27 11 29 12
REMARK SMILES IDX 17 13 18 14 19 15 20 16 23 17 22 18 21 19 31 21 28 23 5 25
REMARK SMILES IDX 14 26 6 27 12 28 7 29 10 30 15 31 13 33 8 35 9 36 11 38
REMARK H PARENT 21 20 31 22 28 24 15 32 13 34 9 37 11 39
REMARK Flexibility Score: inf
ROOT
ATOM      1  O   UNL     1      19.044   0.999 -13.749  1.00  0.00    -0.454 OA
ENDROOT
BRANCH   1   2
ATOM      2  C   UNL     1      19.098   0.576 -15.094  1.00  0.00     0.214 A 
ATOM      3  C   UNL     1      18.025  -0.196 -15.587  1.00  0.00     0.180 A 
ATOM      4  O   UNL     1      17.998  -0.572 -16.861  1.00  0.00    -0.452 OA
ATOM      5  C   UNL     1      20.147   0.903 -15.984  1.00  0.00     0.239 A 
ATOM      6  C   UNL     1      18.957  -0.281 -17.728  1.00  0.00     0.146 A 
ATOM      7  O   UNL     1      21.132   1.581 -15.587  1.00  0.00    -0.285 OA
ATOM      8  C   UNL     1      20.086   0.470 -17.326  1.00  0.00     0.111 A 
ATOM      9  C   UNL     1      18.839  -0.728 -19.047  1.00  0.00     0.094 A 
ATOM     10  C   UNL     1      21.094   0.756 -18.280  1.00  0.00     0.134 A 
ATOM     11  C   UNL     1      19.837  -0.441 -19.982  1.00  0.00     0.123 A 
ATOM     12  C   UNL     1      20.958   0.297 -19.598  1.00  0.00     0.093 A 
BRANCH   3  13
ATOM     13  C   UNL     1      16.888  -0.584 -14.725  1.00  0.00     0.021 A 
ATOM     14  C   UNL     1      15.786   0.270 -14.547  1.00  0.00     0.016 A 
ATOM     15  C   UNL     1      14.721  -0.113 -13.727  1.00  0.00     0.047 A 
ATOM     16  C   UNL     1      14.753  -1.345 -13.062  1.00  0.00     0.115 A 
ATOM     17  C   UNL     1      16.924  -1.807 -14.036  1.00  0.00     0.016 A 
ATOM     18  C   UNL     1      15.858  -2.188 -13.215  1.00  0.00     0.047 A 
BRANCH  16  19
ATOM     19  O   UNL     1      13.697  -1.738 -12.243  1.00  0.00    -0.508 OA
ATOM     20  H   UNL     1      12.741  -1.750 -12.580  1.00  0.00     0.293 HD
ENDBRANCH  16  19
ENDBRANCH   3  13
BRANCH  10  21
ATOM     21  O   UNL     1      22.228   1.492 -17.930  1.00  0.00    -0.507 OA
ATOM     22  H   UNL     1      23.147   1.257 -18.284  1.00  0.00     0.293 HD
ENDBRANCH  10  21
BRANCH  11  23
ATOM     23  O   UNL     1      19.725  -0.885 -21.298  1.00  0.00    -0.508 OA
ATOM     24  H   UNL     1      20.542  -1.062 -21.869  1.00  0.00     0.293 HD
ENDBRANCH  11  23
ENDBRANCH   1   2
BRANCH   1  25
ATOM     25  C   UNL     1      19.907   0.609 -12.679  1.00  0.00     0.339 C 
ATOM     26  C   UNL     1      20.464   1.869 -11.978  1.00  0.00     0.214 C 
ATOM     27  O   UNL     1      19.216  -0.280 -11.803  1.00  0.00    -0.332 OA
ATOM     28  C   UNL     1      19.329   2.696 -11.331  1.00  0.00     0.180 C 
ATOM     29  C   UNL     1      18.669   0.317 -10.631  1.00  0.00     0.179 C 
ATOM     30  C   UNL     1      18.176   1.775 -10.854  1.00  0.00     0.177 C 
BRANCH  26  31
ATOM     31  O   UNL     1      21.225   2.652 -12.865  1.00  0.00    -0.384 OA
ATOM     32  H   UNL     1      20.729   2.714 -13.722  1.00  0.00     0.211 HD
ENDBRANCH  26  31
BRANCH  28  33
ATOM     33  O   UNL     1      19.848   3.439 -10.257  1.00  0.00    -0.387 OA
ATOM     34  H   UNL     1      19.539   4.374 -10.378  1.00  0.00     0.211 HD
ENDBRANCH  28  33
BRANCH  29  35
ATOM     35  C   UNL     1      17.536  -0.587 -10.119  1.00  0.00     0.191 C 
BRANCH  35  36
ATOM     36  O   UNL     1      17.401  -0.491  -8.725  1.00  0.00    -0.394 OA
ATOM     37  H   UNL     1      17.756   0.398  -8.464  1.00  0.00     0.210 HD
ENDBRANCH  35  36
ENDBRANCH  29  35
BRANCH  30  38
ATOM     38  O   UNL     1      17.542   2.300  -9.712  1.00  0.00    -0.387 OA
ATOM     39  H   UNL     1      17.297   1.538  -9.124  1.00  0.00     0.211 HD
ENDBRANCH  30  38
ENDBRANCH   1  25
TORSDOF 11
ENDMDL
MODEL 4
REMARK VINA RESULT:    -6.108      5.215      9.580
REMARK INTER + INTRA:         -10.060
REMARK INTER:                  -8.506
REMARK INTRA:                  -1.553
REMARK UNBOUND:                -1.273
REMARK SMILES O=c1c(O[C@@H]2O[C@H](CO)[C@@H](O)[C@@H](O)[C@@H]2O)c(-c2ccc(O)cc2)oc2cc(O)cc(O)c12
REMARK SMILES IDX 4 1 3 2 16 3 24 4 2 5 25 6 1 7 32 8 26 9 30 10 27 11 29 12
REMARK SMILES IDX 17 13 18 14 19 15 20 16 23 17 22 18 21 19 31 21 28 23 5 25
REMARK SMILES IDX 14 26 6 27 12 28 7 29 10 30 15 31 13 33 8 35 9 36 11 38
REMARK H PARENT 21 20 31 22 28 24 15 32 13 34 9 37 11 39
REMARK Flexibility Score: inf
ROOT
ATOM      1  O   UNL     1      18.385  -1.312  -8.187  1.00  0.00    -0.454 OA
ENDROOT
BRANCH   1   2
ATOM      2  C   UNL     1      18.898  -0.013  -7.987  1.00  0.00     0.214 A 
ATOM      3  C   UNL     1      20.239   0.110  -7.570  1.00  0.00     0.180 A 
ATOM      4  O   UNL     1      20.790   1.310  -7.423  1.00  0.00    -0.452 OA
ATOM      5  C   UNL     1      18.158   1.171  -8.210  1.00  0.00     0.239 A 
ATOM      6  C   UNL     1      20.133   2.444  -7.627  1.00  0.00     0.146 A 
ATOM      7  O   UNL     1      16.953   1.112  -8.572  1.00  0.00    -0.285 OA
ATOM      8  C   UNL     1      18.776   2.427  -8.026  1.00  0.00     0.111 A 
ATOM      9  C   UNL     1      20.799   3.658  -7.439  1.00  0.00     0.094 A 
ATOM     10  C   UNL     1      18.106   3.659  -8.228  1.00  0.00     0.134 A 
ATOM     11  C   UNL     1      20.131   4.869  -7.641  1.00  0.00     0.123 A 
ATOM     12  C   UNL     1      18.792   4.866  -8.033  1.00  0.00     0.093 A 
BRANCH   3  13
ATOM     13  C   UNL     1      21.085  -1.075  -7.314  1.00  0.00     0.021 A 
ATOM     14  C   UNL     1      20.818  -1.941  -6.239  1.00  0.00     0.016 A 
ATOM     15  C   UNL     1      21.629  -3.056  -6.011  1.00  0.00     0.047 A 
ATOM     16  C   UNL     1      22.727  -3.308  -6.844  1.00  0.00     0.115 A 
ATOM     17  C   UNL     1      22.201  -1.322  -8.130  1.00  0.00     0.016 A 
ATOM     18  C   UNL     1      23.012  -2.437  -7.900  1.00  0.00     0.047 A 
BRANCH  16  19
ATOM     19  O   UNL     1      23.542  -4.418  -6.628  1.00  0.00    -0.508 OA
ATOM     20  H   UNL     1      24.544  -4.323  -6.508  1.00  0.00     0.293 HD
ENDBRANCH  16  19
ENDBRANCH   3  13
BRANCH  10  21
ATOM     21  O   UNL     1      16.767   3.693  -8.620  1.00  0.00    -0.507 OA
ATOM     22  H   UNL     1      16.090   4.290  -8.159  1.00  0.00     0.293 HD
ENDBRANCH  10  21
BRANCH  11  23
ATOM     23  O   UNL     1      20.791   6.083  -7.455  1.00  0.00    -0.508 OA
ATOM     24  H   UNL     1      20.654   6.862  -8.086  1.00  0.00     0.293 HD
ENDBRANCH  11  23
ENDBRANCH   1   2
BRANCH   1  25
ATOM     25  C   UNL     1      18.659  -2.199  -9.274  1.00  0.00     0.339 C 
ATOM     26  C   UNL     1      17.662  -3.380  -9.241  1.00  0.00     0.214 C 
ATOM     27  O   UNL     1      18.652  -1.473 -10.501  1.00  0.00    -0.332 OA
ATOM     28  C   UNL     1      16.210  -2.891  -9.446  1.00  0.00     0.180 C 
ATOM     29  C   UNL     1      17.443  -1.547 -11.251  1.00  0.00     0.179 C 
ATOM     30  C   UNL     1      16.171  -1.639 -10.361  1.00  0.00     0.177 C 
BRANCH  26  31
ATOM     31  O   UNL     1      17.789  -4.123  -8.053  1.00  0.00    -0.384 OA
ATOM     32  H   UNL     1      18.146  -3.519  -7.351  1.00  0.00     0.211 HD
ENDBRANCH  26  31
BRANCH  28  33
ATOM     33  O   UNL     1      15.441  -3.932  -9.994  1.00  0.00    -0.387 OA
ATOM     34  H   UNL     1      15.384  -3.764 -10.970  1.00  0.00     0.211 HD
ENDBRANCH  28  33
BRANCH  29  35
ATOM     35  C   UNL     1      17.387  -0.329 -12.187  1.00  0.00     0.191 C 
BRANCH  35  36
ATOM     36  O   UNL     1      16.790   0.771 -11.551  1.00  0.00    -0.394 OA
ATOM     37  H   UNL     1      17.511   1.246 -11.064  1.00  0.00     0.210 HD
ENDBRANCH  35  36
ENDBRANCH  29  35
BRANCH  30  38
ATOM     38  O   UNL     1      14.988  -1.601 -11.124  1.00  0.00    -0.387 OA
ATOM     39  H   UNL     1      14.386  -2.315 -10.785  1.00  0.00     0.211 HD
ENDBRANCH  30  38
ENDBRANCH   1  25
TORSDOF 11
ENDMDL
MODEL 5
REMARK VINA RESULT:    -6.096      3.363      8.527
REMARK INTER + INTRA:         -10.041
REMARK INTER:                  -8.934
REMARK INTRA:                  -1.108
REMARK UNBOUND:                -1.273
REMARK SMILES O=c1c(O[C@@H]2O[C@H](CO)[C@@H](O)[C@@H](O)[C@@H]2O)c(-c2ccc(O)cc2)oc2cc(O)cc(O)c12
REMARK SMILES IDX 4 1 3 2 16 3 24 4 2 5 25 6 1 7 32 8 26 9 30 10 27 11 29 12
REMARK SMILES IDX 17 13 18 14 19 15 20 16 23 17 22 18 21 19 31 21 28 23 5 25
REMARK SMILES IDX 14 26 6 27 12 28 7 29 10 30 15 31 13 33 8 35 9 36 11 38
REMARK H PARENT 21 20 31 22 28 24 15 32 13 34 9 37 11 39
REMARK Flexibility Score: inf
ROOT
ATOM      1  O   UNL     1      17.188  -2.901 -13.209  1.00  0.00    -0.454 OA
ENDROOT
BRANCH   1   2
ATOM      2  C   UNL     1      17.672  -2.681 -14.515  1.00  0.00     0.214 A 
ATOM      3  C   UNL     1      17.740  -3.785 -15.389  1.00  0.00     0.180 A 
ATOM      4  O   UNL     1      18.134  -3.623 -16.648  1.00  0.00    -0.452 OA
ATOM      5  C   UNL     1      18.065  -1.415 -15.009  1.00  0.00     0.239 A 
ATOM      6  C   UNL     1      18.505  -2.453 -17.151  1.00  0.00     0.146 A 
ATOM      7  O   UNL     1      18.033  -0.401 -14.262  1.00  0.00    -0.285 OA
ATOM      8  C   UNL     1      18.493  -1.289 -16.348  1.00  0.00     0.111 A 
ATOM      9  C   UNL     1      18.910  -2.387 -18.487  1.00  0.00     0.094 A 
ATOM     10  C   UNL     1      18.902  -0.059 -16.919  1.00  0.00     0.134 A 
ATOM     11  C   UNL     1      19.311  -1.169 -19.043  1.00  0.00     0.123 A 
ATOM     12  C   UNL     1      19.307  -0.013 -18.261  1.00  0.00     0.093 A 
BRANCH   3  13
ATOM     13  C   UNL     1      17.349  -5.143 -14.956  1.00  0.00     0.021 A 
ATOM     14  C   UNL     1      18.133  -5.870 -14.043  1.00  0.00     0.016 A 
ATOM     15  C   UNL     1      17.750  -7.153 -13.645  1.00  0.00     0.047 A 
ATOM     16  C   UNL     1      16.588  -7.733 -14.170  1.00  0.00     0.115 A 
ATOM     17  C   UNL     1      16.199  -5.741 -15.496  1.00  0.00     0.016 A 
ATOM     18  C   UNL     1      15.817  -7.027 -15.099  1.00  0.00     0.047 A 
BRANCH  16  19
ATOM     19  O   UNL     1      16.194  -9.012 -13.781  1.00  0.00    -0.508 OA
ATOM     20  H   UNL     1      16.717  -9.835 -14.059  1.00  0.00     0.293 HD
ENDBRANCH  16  19
ENDBRANCH   3  13
BRANCH  10  21
ATOM     21  O   UNL     1      18.909   1.117 -16.166  1.00  0.00    -0.507 OA
ATOM     22  H   UNL     1      19.177   1.123 -15.189  1.00  0.00     0.293 HD
ENDBRANCH  10  21
BRANCH  11  23
ATOM     23  O   UNL     1      19.716  -1.097 -20.375  1.00  0.00    -0.508 OA
ATOM     24  H   UNL     1      19.419  -1.783 -21.057  1.00  0.00     0.293 HD
ENDBRANCH  11  23
ENDBRANCH   1   2
BRANCH   1  25
ATOM     25  C   UNL     1      16.135  -2.202 -12.540  1.00  0.00     0.339 C 
ATOM     26  C   UNL     1      15.101  -3.215 -12.001  1.00  0.00     0.214 C 
ATOM     27  O   UNL     1      16.685  -1.350 -11.537  1.00  0.00    -0.332 OA
ATOM     28  C   UNL     1      15.733  -4.148 -10.941  1.00  0.00     0.180 C 
ATOM     29  C   UNL     1      16.660  -1.869 -10.211  1.00  0.00     0.179 C 
ATOM     30  C   UNL     1      16.845  -3.412 -10.150  1.00  0.00     0.177 C 
BRANCH  26  31
ATOM     31  O   UNL     1      14.515  -3.952 -13.046  1.00  0.00    -0.384 OA
ATOM     32  H   UNL     1      15.196  -4.585 -13.394  1.00  0.00     0.211 HD
ENDBRANCH  26  31
BRANCH  28  33
ATOM     33  O   UNL     1      14.730  -4.614 -10.074  1.00  0.00    -0.387 OA
ATOM     34  H   UNL     1      14.652  -3.949  -9.342  1.00  0.00     0.211 HD
ENDBRANCH  28  33
BRANCH  29  35
ATOM     35  C   UNL     1      17.738  -1.141  -9.392  1.00  0.00     0.191 C 
BRANCH  35  36
ATOM     36  O   UNL     1      17.435  -1.164  -8.022  1.00  0.00    -0.394 OA
ATOM     37  H   UNL     1      17.750  -2.038  -7.674  1.00  0.00     0.210 HD
ENDBRANCH  35  36
ENDBRANCH  29  35
BRANCH  30  38
ATOM     38  O   UNL     1      16.925  -3.883  -8.825  1.00  0.00    -0.387 OA
ATOM     39  H   UNL     1      16.112  -4.426  -8.647  1.00  0.00     0.211 HD
ENDBRANCH  30  38
ENDBRANCH   1  25
TORSDOF 11
ENDMDL
MODEL 6
REMARK VINA RESULT:    -6.049      1.534      5.833
REMARK INTER + INTRA:          -9.975
REMARK INTER:                  -9.320
REMARK INTRA:                  -0.654
REMARK UNBOUND:                -1.273
REMARK SMILES O=c1c(O[C@@H]2O[C@H](CO)[C@@H](O)[C@@H](O)[C@@H]2O)c(-c2ccc(O)cc2)oc2cc(O)cc(O)c12
REMARK SMILES IDX 4 1 3 2 16 3 24 4 2 5 25 6 1 7 32 8 26 9 30 10 27 11 29 12
REMARK SMILES IDX 17 13 18 14 19 15 20 16 23 17 22 18 21 19 31 21 28 23 5 25
REMARK SMILES IDX 14 26 6 27 12 28 7 29 10 30 15 31 13 33 8 35 9 36 11 38
REMARK H PARENT 21 20 31 22 28 24 15 32 13 34 9 37 11 39
REMARK Flexibility Score: inf
ROOT
ATOM      1  O   UNL     1      15.574  -6.163 -13.670  1.00  0.00    -0.454 OA
ENDROOT
BRANCH   1   2
ATOM      2  C   UNL     1      15.936  -5.338 -12.585  1.00  0.00     0.214 A 
ATOM      3  C   UNL     1      15.043  -5.249 -11.497  1.00  0.00     0.180 A 
ATOM      4  O   UNL     1      15.360  -4.533 -10.424  1.00  0.00    -0.452 OA
ATOM      5  C   UNL     1      17.151  -4.619 -12.510  1.00  0.00     0.239 A 
ATOM      6  C   UNL     1      16.491  -3.850 -10.311  1.00  0.00     0.146 A 
ATOM      7  O   UNL     1      17.976  -4.658 -13.461  1.00  0.00    -0.285 OA
ATOM      8  C   UNL     1      17.442  -3.857 -11.358  1.00  0.00     0.111 A 
ATOM      9  C   UNL     1      16.730  -3.121  -9.144  1.00  0.00     0.094 A 
ATOM     10  C   UNL     1      18.637  -3.110 -11.203  1.00  0.00     0.134 A 
ATOM     11  C   UNL     1      17.911  -2.387  -8.998  1.00  0.00     0.123 A 
ATOM     12  C   UNL     1      18.857  -2.382 -10.024  1.00  0.00     0.093 A 
BRANCH   3  13
ATOM     13  C   UNL     1      13.751  -5.967 -11.493  1.00  0.00     0.021 A 
ATOM     14  C   UNL     1      13.667  -7.318 -11.871  1.00  0.00     0.016 A 
ATOM     15  C   UNL     1      12.437  -7.981 -11.863  1.00  0.00     0.047 A 
ATOM     16  C   UNL     1      11.272  -7.294 -11.495  1.00  0.00     0.115 A 
ATOM     17  C   UNL     1      12.575  -5.280 -11.149  1.00  0.00     0.016 A 
ATOM     18  C   UNL     1      11.344  -5.943 -11.143  1.00  0.00     0.047 A 
BRANCH  16  19
ATOM     19  O   UNL     1      10.039  -7.944 -11.483  1.00  0.00    -0.508 OA
ATOM     20  H   UNL     1       9.192  -7.478 -11.787  1.00  0.00     0.293 HD
ENDBRANCH  16  19
ENDBRANCH   3  13
BRANCH  10  21
ATOM     21  O   UNL     1      19.604  -3.084 -12.209  1.00  0.00    -0.507 OA
ATOM     22  H   UNL     1      19.373  -2.843 -13.166  1.00  0.00     0.293 HD
ENDBRANCH  10  21
BRANCH  11  23
ATOM     23  O   UNL     1      18.154  -1.657  -7.836  1.00  0.00    -0.508 OA
ATOM     24  H   UNL     1      17.427  -1.495  -7.150  1.00  0.00     0.293 HD
ENDBRANCH  11  23
ENDBRANCH   1   2
BRANCH   1  25
ATOM     25  C   UNL     1      15.853  -7.555 -13.838  1.00  0.00     0.339 C 
ATOM     26  C   UNL     1      15.346  -8.022 -15.221  1.00  0.00     0.214 C 
ATOM     27  O   UNL     1      17.242  -7.796 -13.621  1.00  0.00    -0.332 OA
ATOM     28  C   UNL     1      16.093  -7.297 -16.364  1.00  0.00     0.180 C 
ATOM     29  C   UNL     1      18.039  -7.890 -14.798  1.00  0.00     0.179 C 
ATOM     30  C   UNL     1      17.550  -6.964 -15.948  1.00  0.00     0.177 C 
BRANCH  26  31
ATOM     31  O   UNL     1      13.954  -7.858 -15.336  1.00  0.00    -0.384 OA
ATOM     32  H   UNL     1      13.616  -7.493 -14.478  1.00  0.00     0.211 HD
ENDBRANCH  26  31
BRANCH  28  33
ATOM     33  O   UNL     1      16.076  -8.103 -17.515  1.00  0.00    -0.387 OA
ATOM     34  H   UNL     1      15.348  -8.765 -17.392  1.00  0.00     0.211 HD
ENDBRANCH  28  33
BRANCH  29  35
ATOM     35  C   UNL     1      19.496  -7.588 -14.414  1.00  0.00     0.191 C 
BRANCH  35  36
ATOM     36  O   UNL     1      19.879  -6.309 -14.848  1.00  0.00    -0.394 OA
ATOM     37  H   UNL     1      19.487  -6.184 -15.751  1.00  0.00     0.210 HD
ENDBRANCH  35  36
ENDBRANCH  29  35
BRANCH  30  38
ATOM     38  O   UNL     1      18.417  -6.996 -17.058  1.00  0.00    -0.387 OA
ATOM     39  H   UNL     1      18.022  -7.607 -17.734  1.00  0.00     0.211 HD
ENDBRANCH  30  38
ENDBRANCH   1  25
TORSDOF 11
ENDMDL
MODEL 7
REMARK VINA RESULT:    -5.834      3.219      6.551
REMARK INTER + INTRA:          -9.664
REMARK INTER:                  -7.885
REMARK INTRA:                  -1.779
REMARK UNBOUND:                -1.273
REMARK SMILES O=c1c(O[C@@H]2O[C@H](CO)[C@@H](O)[C@@H](O)[C@@H]2O)c(-c2ccc(O)cc2)oc2cc(O)cc(O)c12
REMARK SMILES IDX 4 1 3 2 16 3 24 4 2 5 25 6 1 7 32 8 26 9 30 10 27 11 29 12
REMARK SMILES IDX 17 13 18 14 19 15 20 16 23 17 22 18 21 19 31 21 28 23 5 25
REMARK SMILES IDX 14 26 6 27 12 28 7 29 10 30 15 31 13 33 8 35 9 36 11 38
REMARK H PARENT 21 20 31 22 28 24 15 32 13 34 9 37 11 39
REMARK Flexibility Score: inf
ROOT
ATOM      1  O   UNL     1      16.994  -2.812 -11.782  1.00  0.00    -0.454 OA
ENDROOT
BRANCH   1   2
ATOM      2  C   UNL     1      16.739  -3.583 -12.936  1.00  0.00     0.214 A 
ATOM      3  C   UNL     1      16.765  -2.930 -14.185  1.00  0.00     0.180 A 
ATOM      4  O   UNL     1      16.589  -3.619 -15.307  1.00  0.00    -0.452 OA
ATOM      5  C   UNL     1      16.490  -4.975 -12.917  1.00  0.00     0.239 A 
ATOM      6  C   UNL     1      16.359  -4.924 -15.333  1.00  0.00     0.146 A 
ATOM      7  O   UNL     1      16.447  -5.600 -11.825  1.00  0.00    -0.285 OA
ATOM      8  C   UNL     1      16.293  -5.666 -14.132  1.00  0.00     0.111 A 
ATOM      9  C   UNL     1      16.181  -5.557 -16.566  1.00  0.00     0.094 A 
ATOM     10  C   UNL     1      16.039  -7.059 -14.199  1.00  0.00     0.134 A 
ATOM     11  C   UNL     1      15.931  -6.932 -16.625  1.00  0.00     0.123 A 
ATOM     12  C   UNL     1      15.861  -7.675 -15.446  1.00  0.00     0.093 A 
BRANCH   3  13
ATOM     13  C   UNL     1      17.017  -1.477 -14.296  1.00  0.00     0.021 A 
ATOM     14  C   UNL     1      15.970  -0.546 -14.188  1.00  0.00     0.016 A 
ATOM     15  C   UNL     1      16.226   0.823 -14.298  1.00  0.00     0.047 A 
ATOM     16  C   UNL     1      17.530   1.277 -14.536  1.00  0.00     0.115 A 
ATOM     17  C   UNL     1      18.317  -1.016 -14.559  1.00  0.00     0.016 A 
ATOM     18  C   UNL     1      18.572   0.355 -14.670  1.00  0.00     0.047 A 
BRANCH  16  19
ATOM     19  O   UNL     1      17.799   2.640 -14.646  1.00  0.00    -0.508 OA
ATOM     20  H   UNL     1      17.351   3.212 -15.352  1.00  0.00     0.293 HD
ENDBRANCH  16  19
ENDBRANCH   3  13
BRANCH  10  21
ATOM     21  O   UNL     1      15.962  -7.833 -13.040  1.00  0.00    -0.507 OA
ATOM     22  H   UNL     1      16.239  -7.469 -12.136  1.00  0.00     0.293 HD
ENDBRANCH  10  21
BRANCH  11  23
ATOM     23  O   UNL     1      15.752  -7.568 -17.852  1.00  0.00    -0.508 OA
ATOM     24  H   UNL     1      15.273  -8.458 -17.922  1.00  0.00     0.293 HD
ENDBRANCH  11  23
ENDBRANCH   1   2
BRANCH   1  25
ATOM     25  C   UNL     1      16.078  -2.486 -10.734  1.00  0.00     0.339 C 
ATOM     26  C   UNL     1      16.661  -2.942  -9.377  1.00  0.00     0.214 C 
ATOM     27  O   UNL     1      15.761  -1.096 -10.787  1.00  0.00    -0.332 OA
ATOM     28  C   UNL     1      17.970  -2.188  -9.049  1.00  0.00     0.180 C 
ATOM     29  C   UNL     1      16.488  -0.267  -9.885  1.00  0.00     0.179 C 
ATOM     30  C   UNL     1      17.945  -0.754  -9.639  1.00  0.00     0.177 C 
BRANCH  26  31
ATOM     31  O   UNL     1      16.853  -4.335  -9.346  1.00  0.00    -0.384 OA
ATOM     32  H   UNL     1      17.681  -4.542  -9.852  1.00  0.00     0.211 HD
ENDBRANCH  26  31
BRANCH  28  33
ATOM     33  O   UNL     1      18.150  -2.150  -7.656  1.00  0.00    -0.387 OA
ATOM     34  H   UNL     1      18.660  -1.324  -7.454  1.00  0.00     0.211 HD
ENDBRANCH  28  33
BRANCH  29  35
ATOM     35  C   UNL     1      16.461   1.170 -10.431  1.00  0.00     0.191 C 
BRANCH  35  36
ATOM     36  O   UNL     1      17.656   1.480 -11.100  1.00  0.00    -0.394 OA
ATOM     37  H   UNL     1      17.492   2.319 -11.604  1.00  0.00     0.210 HD
ENDBRANCH  35  36
ENDBRANCH  29  35
BRANCH  30  38
ATOM     38  O   UNL     1      18.673   0.142  -8.832  1.00  0.00    -0.387 OA
ATOM     39  H   UNL     1      19.112   0.802  -9.431  1.00  0.00     0.211 HD
ENDBRANCH  30  38
ENDBRANCH   1  25
TORSDOF 11
ENDMDL
MODEL 8
REMARK VINA RESULT:    -5.825      3.829      8.287
REMARK INTER + INTRA:          -9.651
REMARK INTER:                  -7.876
REMARK INTRA:                  -1.775
REMARK UNBOUND:                -1.273
REMARK SMILES O=c1c(O[C@@H]2O[C@H](CO)[C@@H](O)[C@@H](O)[C@@H]2O)c(-c2ccc(O)cc2)oc2cc(O)cc(O)c12
REMARK SMILES IDX 4 1 3 2 16 3 24 4 2 5 25 6 1 7 32 8 26 9 30 10 27 11 29 12
REMARK SMILES IDX 17 13 18 14 19 15 20 16 23 17 22 18 21 19 31 21 28 23 5 25
REMARK SMILES IDX 14 26 6 27 12 28 7 29 10 30 15 31 13 33 8 35 9 36 11 38
REMARK H PARENT 21 20 31 22 28 24 15 32 13 34 9 37 11 39
REMARK Flexibility Score: inf
ROOT
ATOM      1  O   UNL     1      18.778   0.137  -8.923  1.00  0.00    -0.454 OA
ENDROOT
BRANCH   1   2
ATOM      2  C   UNL     1      18.049  -0.926  -9.495  1.00  0.00     0.214 A 
ATOM      3  C   UNL     1      18.365  -2.238  -9.087  1.00  0.00     0.180 A 
ATOM      4  O   UNL     1      17.671  -3.272  -9.550  1.00  0.00    -0.452 OA
ATOM      5  C   UNL     1      17.002  -0.753 -10.430  1.00  0.00     0.239 A 
ATOM      6  C   UNL     1      16.679  -3.152 -10.422  1.00  0.00     0.146 A 
ATOM      7  O   UNL     1      16.691   0.399 -10.833  1.00  0.00    -0.285 OA
ATOM      8  C   UNL     1      16.301  -1.880 -10.910  1.00  0.00     0.111 A 
ATOM      9  C   UNL     1      16.014  -4.302 -10.855  1.00  0.00     0.094 A 
ATOM     10  C   UNL     1      15.240  -1.793 -11.845  1.00  0.00     0.134 A 
ATOM     11  C   UNL     1      14.968  -4.208 -11.777  1.00  0.00     0.123 A 
ATOM     12  C   UNL     1      14.586  -2.959 -12.269  1.00  0.00     0.093 A 
BRANCH   3  13
ATOM     13  C   UNL     1      19.445  -2.509  -8.114  1.00  0.00     0.021 A 
ATOM     14  C   UNL     1      19.173  -2.641  -6.742  1.00  0.00     0.016 A 
ATOM     15  C   UNL     1      20.207  -2.895  -5.837  1.00  0.00     0.047 A 
ATOM     16  C   UNL     1      21.528  -3.003  -6.291  1.00  0.00     0.115 A 
ATOM     17  C   UNL     1      20.775  -2.594  -8.559  1.00  0.00     0.016 A 
ATOM     18  C   UNL     1      21.809  -2.848  -7.651  1.00  0.00     0.047 A 
BRANCH  16  19
ATOM     19  O   UNL     1      22.567  -3.257  -5.398  1.00  0.00    -0.508 OA
ATOM     20  H   UNL     1      22.469  -3.935  -4.651  1.00  0.00     0.293 HD
ENDBRANCH  16  19
ENDBRANCH   3  13
BRANCH  10  21
ATOM     21  O   UNL     1      14.831  -0.560 -12.357  1.00  0.00    -0.507 OA
ATOM     22  H   UNL     1      15.369   0.285 -12.206  1.00  0.00     0.293 HD
ENDBRANCH  10  21
BRANCH  11  23
ATOM     23  O   UNL     1      14.301  -5.352 -12.213  1.00  0.00    -0.508 OA
ATOM     24  H   UNL     1      14.778  -6.078 -12.733  1.00  0.00     0.293 HD
ENDBRANCH  11  23
ENDBRANCH   1   2
BRANCH   1  25
ATOM     25  C   UNL     1      18.478   0.853  -7.722  1.00  0.00     0.339 C 
ATOM     26  C   UNL     1      19.737   1.611  -7.243  1.00  0.00     0.214 C 
ATOM     27  O   UNL     1      17.345   1.693  -7.934  1.00  0.00    -0.332 OA
ATOM     28  C   UNL     1      20.175   2.675  -8.275  1.00  0.00     0.180 C 
ATOM     29  C   UNL     1      17.638   3.058  -8.216  1.00  0.00     0.179 C 
ATOM     30  C   UNL     1      18.949   3.251  -9.031  1.00  0.00     0.177 C 
BRANCH  26  31
ATOM     31  O   UNL     1      20.787   0.722  -6.949  1.00  0.00    -0.384 OA
ATOM     32  H   UNL     1      20.397  -0.181  -6.818  1.00  0.00     0.211 HD
ENDBRANCH  26  31
BRANCH  28  33
ATOM     33  O   UNL     1      20.880   3.698  -7.618  1.00  0.00    -0.387 OA
ATOM     34  H   UNL     1      21.166   3.333  -6.741  1.00  0.00     0.211 HD
ENDBRANCH  28  33
BRANCH  29  35
ATOM     35  C   UNL     1      16.428   3.665  -8.945  1.00  0.00     0.191 C 
BRANCH  35  36
ATOM     36  O   UNL     1      16.479   3.393 -10.322  1.00  0.00    -0.394 OA
ATOM     37  H   UNL     1      17.084   4.068 -10.725  1.00  0.00     0.210 HD
ENDBRANCH  35  36
ENDBRANCH  29  35
BRANCH  30  38
ATOM     38  O   UNL     1      19.156   4.598  -9.388  1.00  0.00    -0.387 OA
ATOM     39  H   UNL     1      19.461   4.617 -10.333  1.00  0.00     0.211 HD
ENDBRANCH  30  38
ENDBRANCH   1  25
TORSDOF 11
ENDMDL
MODEL 9
REMARK VINA RESULT:    -5.802      4.330      7.275
REMARK INTER + INTRA:          -9.618
REMARK INTER:                  -8.025
REMARK INTRA:                  -1.593
REMARK UNBOUND:                -1.273
REMARK SMILES O=c1c(O[C@@H]2O[C@H](CO)[C@@H](O)[C@@H](O)[C@@H]2O)c(-c2ccc(O)cc2)oc2cc(O)cc(O)c12
REMARK SMILES IDX 4 1 3 2 16 3 24 4 2 5 25 6 1 7 32 8 26 9 30 10 27 11 29 12
REMARK SMILES IDX 17 13 18 14 19 15 20 16 23 17 22 18 21 19 31 21 28 23 5 25
REMARK SMILES IDX 14 26 6 27 12 28 7 29 10 30 15 31 13 33 8 35 9 36 11 38
REMARK H PARENT 21 20 31 22 28 24 15 32 13 34 9 37 11 39
REMARK Flexibility Score: inf
ROOT
ATOM      1  O   UNL     1      18.075  -0.558 -12.459  1.00  0.00    -0.454 OA
ENDROOT
BRANCH   1   2
ATOM      2  C   UNL     1      16.831  -0.041 -12.877  1.00  0.00     0.214 A 
ATOM      3  C   UNL     1      16.703   0.367 -14.221  1.00  0.00     0.180 A 
ATOM      4  O   UNL     1      15.537   0.807 -14.681  1.00  0.00    -0.452 OA
ATOM      5  C   UNL     1      15.698   0.066 -12.037  1.00  0.00     0.239 A 
ATOM      6  C   UNL     1      14.451   0.917 -13.930  1.00  0.00     0.146 A 
ATOM      7  O   UNL     1      15.766  -0.275 -10.827  1.00  0.00    -0.285 OA
ATOM      8  C   UNL     1      14.482   0.555 -12.563  1.00  0.00     0.111 A 
ATOM      9  C   UNL     1      13.272   1.398 -14.507  1.00  0.00     0.094 A 
ATOM     10  C   UNL     1      13.302   0.692 -11.790  1.00  0.00     0.134 A 
ATOM     11  C   UNL     1      12.112   1.530 -13.738  1.00  0.00     0.123 A 
ATOM     12  C   UNL     1      12.130   1.178 -12.387  1.00  0.00     0.093 A 
BRANCH   3  13
ATOM     13  C   UNL     1      17.837   0.290 -15.166  1.00  0.00     0.021 A 
ATOM     14  C   UNL     1      18.899   1.208 -15.105  1.00  0.00     0.016 A 
ATOM     15  C   UNL     1      19.962   1.122 -16.008  1.00  0.00     0.047 A 
ATOM     16  C   UNL     1      19.966   0.128 -16.995  1.00  0.00     0.115 A 
ATOM     17  C   UNL     1      17.837  -0.689 -16.174  1.00  0.00     0.016 A 
ATOM     18  C   UNL     1      18.900  -0.773 -17.078  1.00  0.00     0.047 A 
BRANCH  16  19
ATOM     19  O   UNL     1      21.021   0.030 -17.900  1.00  0.00    -0.508 OA
ATOM     20  H   UNL     1      21.758   0.725 -17.931  1.00  0.00     0.293 HD
ENDBRANCH  16  19
ENDBRANCH   3  13
BRANCH  10  21
ATOM     21  O   UNL     1      13.285   0.349 -10.437  1.00  0.00    -0.507 OA
ATOM     22  H   UNL     1      14.114   0.017  -9.960  1.00  0.00     0.293 HD
ENDBRANCH  10  21
BRANCH  11  23
ATOM     23  O   UNL     1      10.934   2.010 -14.308  1.00  0.00    -0.508 OA
ATOM     24  H   UNL     1      10.833   2.109 -15.310  1.00  0.00     0.293 HD
ENDBRANCH  11  23
ENDBRANCH   1   2
BRANCH   1  25
ATOM     25  C   UNL     1      18.618  -1.851 -12.738  1.00  0.00     0.339 C 
ATOM     26  C   UNL     1      19.747  -2.166 -11.730  1.00  0.00     0.214 C 
ATOM     27  O   UNL     1      17.572  -2.820 -12.752  1.00  0.00    -0.332 OA
ATOM     28  C   UNL     1      19.203  -2.235 -10.284  1.00  0.00     0.180 C 
ATOM     29  C   UNL     1      17.414  -3.570 -11.551  1.00  0.00     0.179 C 
ATOM     30  C   UNL     1      17.741  -2.755 -10.268  1.00  0.00     0.177 C 
BRANCH  26  31
ATOM     31  O   UNL     1      20.799  -1.238 -11.836  1.00  0.00    -0.384 OA
ATOM     32  H   UNL     1      20.459  -0.442 -12.320  1.00  0.00     0.211 HD
ENDBRANCH  26  31
BRANCH  28  33
ATOM     33  O   UNL     1      20.034  -3.064  -9.513  1.00  0.00    -0.387 OA
ATOM     34  H   UNL     1      19.805  -2.897  -8.562  1.00  0.00     0.211 HD
ENDBRANCH  28  33
BRANCH  29  35
ATOM     35  C   UNL     1      15.979  -4.121 -11.517  1.00  0.00     0.191 C 
BRANCH  35  36
ATOM     36  O   UNL     1      15.121  -3.253 -10.822  1.00  0.00    -0.394 OA
ATOM     37  H   UNL     1      14.364  -3.803 -10.492  1.00  0.00     0.210 HD
ENDBRANCH  35  36
ENDBRANCH  29  35
BRANCH  30  38
ATOM     38  O   UNL     1      17.473  -3.486  -9.094  1.00  0.00    -0.387 OA
ATOM     39  H   UNL     1      17.482  -2.849  -8.332  1.00  0.00     0.211 HD
ENDBRANCH  30  38
ENDBRANCH   1  25
TORSDOF 11
ENDMDL
