MODEL 1
REMARK VINA RESULT:    -3.387      0.000      0.000
REMARK INTER + INTRA:          -3.829
REMARK INTER:                  -3.783
REMARK INTRA:                  -0.046
REMARK UNBOUND:                -0.046
REMARK SMILES CCCC(=O)[O-]
REMARK SMILES IDX 3 1 4 2 5 3 6 4 2 5 1 6
REMARK H PARENT
REMARK Flexibility Score: inf
ROOT
ATOM      1  C   UNL     1       7.020  11.899 -20.274  1.00  0.00     0.052 C 
ENDROOT
BRANCH   1   2
ATOM      2  C   UNL     1       8.506  11.967 -20.100  1.00  0.00     0.041 C 
ATOM      3  O   UNL     1       9.256  12.139 -21.096  1.00  0.00    -0.550 OA
ATOM      4  O   UNL     1       9.061  11.874 -18.829  1.00  0.00    -0.550 OA
ENDBRANCH   1   2
BRANCH   1   5
ATOM      5  C   UNL     1       6.395  13.296 -20.373  1.00  0.00     0.003 C 
ATOM      6  C   UNL     1       6.083  13.891 -19.000  1.00  0.00     0.004 C 
ENDBRANCH   1   5
TORSDOF 2
ENDMDL
MODEL 2
REMARK VINA RESULT:    -3.348     12.471     13.508
REMARK INTER + INTRA:          -3.786
REMARK INTER:                  -3.778
REMARK INTRA:                  -0.008
REMARK UNBOUND:                -0.046
REMARK SMILES CCCC(=O)[O-]
REMARK SMILES IDX 3 1 4 2 5 3 6 4 2 5 1 6
REMARK H PARENT
REMARK Flexibility Score: inf
ROOT
ATOM      1  C   UNL     1       1.439  10.160  -8.420  1.00  0.00     0.052 C 
ENDROOT
BRANCH   1   2
ATOM      2  C   UNL     1       1.041  11.509  -7.903  1.00  0.00     0.041 C 
ATOM      3  O   UNL     1       0.162  12.183  -8.499  1.00  0.00    -0.550 OA
ATOM      4  O   UNL     1       1.620  12.006  -6.742  1.00  0.00    -0.550 OA
ENDBRANCH   1   2
BRANCH   1   5
ATOM      5  C   UNL     1       2.962  10.016  -8.517  1.00  0.00     0.003 C 
ATOM      6  C   UNL     1       3.411   9.505  -9.887  1.00  0.00     0.004 C 
ENDBRANCH   1   5
TORSDOF 2
ENDMDL
MODEL 3
REMARK VINA RESULT:    -3.256     12.174     13.029
REMARK INTER + INTRA:          -3.683
REMARK INTER:                  -3.645
REMARK INTRA:                  -0.038
REMARK UNBOUND:                -0.046
REMARK SMILES CCCC(=O)[O-]
REMARK SMILES IDX 3 1 4 2 5 3 6 4 2 5 1 6
REMARK H PARENT
REMARK Flexibility Score: inf
ROOT
ATOM      1  C   UNL     1       1.432   9.733  -8.723  1.00  0.00     0.052 C 
ENDROOT
BRANCH   1   2
ATOM      2  C   UNL     1       2.903  10.016  -8.716  1.00  0.00     0.041 C 
ATOM      3  O   UNL     1       3.437  10.577  -7.724  1.00  0.00    -0.550 OA
ATOM      4  O   UNL     1       3.690   9.628  -9.793  1.00  0.00    -0.550 OA
ENDBRANCH   1   2
BRANCH   1   5
ATOM      5  C   UNL     1       0.683  10.595  -7.700  1.00  0.00     0.003 C 
ATOM      6  C   UNL     1       0.188  11.911  -8.301  1.00  0.00     0.004 C 
ENDBRANCH   1   5
TORSDOF 2
ENDMDL
MODEL 4
REMARK VINA RESULT:    -3.236      1.551      1.713
REMARK INTER + INTRA:          -3.661
REMARK INTER:                  -3.655
REMARK INTRA:                  -0.006
REMARK UNBOUND:                -0.046
REMARK SMILES CCCC(=O)[O-]
REMARK SMILES IDX 3 1 4 2 5 3 6 4 2 5 1 6
REMARK H PARENT
REMARK Flexibility Score: inf
ROOT
ATOM      1  C   UNL     1       6.742  12.454 -21.050  1.00  0.00     0.052 C 
ENDROOT
BRANCH   1   2
ATOM      2  C   UNL     1       7.830  11.523 -21.491  1.00  0.00     0.041 C 
ATOM      3  O   UNL     1       8.955  11.975 -21.830  1.00  0.00    -0.550 OA
ATOM      4  O   UNL     1       7.610  10.151 -21.496  1.00  0.00    -0.550 OA
ENDBRANCH   1   2
BRANCH   1   5
ATOM      5  C   UNL     1       6.853  12.789 -19.558  1.00  0.00     0.003 C 
ATOM      6  C   UNL     1       6.009  14.004 -19.171  1.00  0.00     0.004 C 
ENDBRANCH   1   5
TORSDOF 2
ENDMDL
MODEL 5
REMARK VINA RESULT:    -3.228     12.482     13.127
REMARK INTER + INTRA:          -3.652
REMARK INTER:                  -3.647
REMARK INTRA:                  -0.005
REMARK UNBOUND:                -0.046
REMARK SMILES CCCC(=O)[O-]
REMARK SMILES IDX 3 1 4 2 5 3 6 4 2 5 1 6
REMARK H PARENT
REMARK Flexibility Score: inf
ROOT
ATOM      1  C   UNL     1       1.018  10.053  -8.374  1.00  0.00     0.052 C 
ENDROOT
BRANCH   1   2
ATOM      2  C   UNL     1       2.495  10.014  -8.623  1.00  0.00     0.041 C 
ATOM      3  O   UNL     1       2.948   9.502  -9.680  1.00  0.00    -0.550 OA
ATOM      4  O   UNL     1       3.370  10.575  -7.701  1.00  0.00    -0.550 OA
ENDBRANCH   1   2
BRANCH   1   5
ATOM      5  C   UNL     1       0.490  11.492  -8.321  1.00  0.00     0.003 C 
ATOM      6  C   UNL     1      -1.003  11.574  -8.642  1.00  0.00     0.004 C 
ENDBRANCH   1   5
TORSDOF 2
ENDMDL
MODEL 6
REMARK VINA RESULT:    -3.182     13.250     14.015
REMARK INTER + INTRA:          -3.601
REMARK INTER:                  -3.581
REMARK INTRA:                  -0.019
REMARK UNBOUND:                -0.046
REMARK SMILES CCCC(=O)[O-]
REMARK SMILES IDX 3 1 4 2 5 3 6 4 2 5 1 6
REMARK H PARENT
REMARK Flexibility Score: inf
ROOT
ATOM      1  C   UNL     1       1.029  11.537  -8.273  1.00  0.00     0.052 C 
ENDROOT
BRANCH   1   2
ATOM      2  C   UNL     1      -0.438  11.779  -8.462  1.00  0.00     0.041 C 
ATOM      3  O   UNL     1      -1.179  10.870  -8.918  1.00  0.00    -0.550 OA
ATOM      4  O   UNL     1      -0.991  13.002  -8.101  1.00  0.00    -0.550 OA
ENDBRANCH   1   2
BRANCH   1   5
ATOM      5  C   UNL     1       1.376  10.047  -8.379  1.00  0.00     0.003 C 
ATOM      6  C   UNL     1       2.736   9.812  -9.037  1.00  0.00     0.004 C 
ENDBRANCH   1   5
TORSDOF 2
ENDMDL
MODEL 7
REMARK VINA RESULT:    -3.165     13.191     14.246
REMARK INTER + INTRA:          -3.581
REMARK INTER:                  -3.543
REMARK INTRA:                  -0.039
REMARK UNBOUND:                -0.046
REMARK SMILES CCCC(=O)[O-]
REMARK SMILES IDX 3 1 4 2 5 3 6 4 2 5 1 6
REMARK H PARENT
REMARK Flexibility Score: inf
ROOT
ATOM      1  C   UNL     1       1.244  11.455  -8.169  1.00  0.00     0.052 C 
ENDROOT
BRANCH   1   2
ATOM      2  C   UNL     1       1.414  11.702  -6.701  1.00  0.00     0.041 C 
ATOM      3  O   UNL     1       0.407  11.819  -5.956  1.00  0.00    -0.550 OA
ATOM      4  O   UNL     1       2.688  11.770  -6.152  1.00  0.00    -0.550 OA
ENDBRANCH   1   2
BRANCH   1   5
ATOM      5  C   UNL     1       1.530   9.993  -8.535  1.00  0.00     0.003 C 
ATOM      6  C   UNL     1       2.926   9.806  -9.130  1.00  0.00     0.004 C 
ENDBRANCH   1   5
TORSDOF 2
ENDMDL
MODEL 8
REMARK VINA RESULT:    -3.105      2.221      3.282
REMARK INTER + INTRA:          -3.515
REMARK INTER:                  -3.508
REMARK INTRA:                  -0.007
REMARK UNBOUND:                -0.046
REMARK SMILES CCCC(=O)[O-]
REMARK SMILES IDX 3 1 4 2 5 3 6 4 2 5 1 6
REMARK H PARENT
REMARK Flexibility Score: inf
ROOT
ATOM      1  C   UNL     1       7.525  12.538 -19.259  1.00  0.00     0.052 C 
ENDROOT
BRANCH   1   2
ATOM      2  C   UNL     1       6.596  13.115 -20.284  1.00  0.00     0.041 C 
ATOM      3  O   UNL     1       5.984  14.190 -20.053  1.00  0.00    -0.550 OA
ATOM      4  O   UNL     1       6.434  12.481 -21.509  1.00  0.00    -0.550 OA
ENDBRANCH   1   2
BRANCH   1   5
ATOM      5  C   UNL     1       8.820  12.020 -19.895  1.00  0.00     0.003 C 
ATOM      6  C   UNL     1       9.774  11.418 -18.862  1.00  0.00     0.004 C 
ENDBRANCH   1   5
TORSDOF 2
ENDMDL
MODEL 9
REMARK VINA RESULT:    -2.911      1.822      2.689
REMARK INTER + INTRA:          -3.297
REMARK INTER:                  -3.273
REMARK INTRA:                  -0.024
REMARK UNBOUND:                -0.046
REMARK SMILES CCCC(=O)[O-]
REMARK SMILES IDX 3 1 4 2 5 3 6 4 2 5 1 6
REMARK H PARENT
REMARK Flexibility Score: inf
ROOT
ATOM      1  C   UNL     1       8.097  12.166 -21.192  1.00  0.00     0.052 C 
ENDROOT
BRANCH   1   2
ATOM      2  C   UNL     1       7.818  12.181 -19.720  1.00  0.00     0.041 C 
ATOM      3  O   UNL     1       8.720  11.869 -18.899  1.00  0.00    -0.550 OA
ATOM      4  O   UNL     1       6.570  12.574 -19.253  1.00  0.00    -0.550 OA
ENDBRANCH   1   2
BRANCH   1   5
ATOM      5  C   UNL     1       6.803  12.118 -22.014  1.00  0.00     0.003 C 
ATOM      6  C   UNL     1       6.674  10.825 -22.820  1.00  0.00     0.004 C 
ENDBRANCH   1   5
TORSDOF 2
ENDMDL
