MODEL 1
REMARK VINA RESULT:    -4.377      0.000      0.000
REMARK INTER + INTRA:         -11.233
REMARK INTER:                  -8.216
REMARK INTRA:                  -3.018
REMARK UNBOUND:                -3.018
REMARK SMILES CCCCCCCCC=CCCCCCCCC(=O)[O-]
REMARK SMILES IDX 10 1 9 2 11 3 12 4 13 5 14 6 15 7 16 8 17 9 18 10 19 11
REMARK SMILES IDX 20 12 8 13 7 14 6 15 5 16 4 17 3 18 2 19 1 20
REMARK H PARENT
REMARK Flexibility Score: inf
ROOT
ATOM      1  C   UNL     1      17.424  55.186 156.842  1.00  0.00    -0.031 C 
ATOM      2  C   UNL     1      18.590  54.651 157.249  1.00  0.00    -0.031 C 
ENDROOT
BRANCH   1   3
ATOM      3  C   UNL     1      16.456  55.915 157.738  1.00  0.00     0.027 C 
BRANCH   3   4
ATOM      4  C   UNL     1      16.388  57.406 157.384  1.00  0.00     0.004 C 
BRANCH   4   5
ATOM      5  C   UNL     1      16.882  58.267 158.552  1.00  0.00     0.000 C 
BRANCH   5   6
ATOM      6  C   UNL     1      18.407  58.417 158.521  1.00  0.00     0.000 C 
BRANCH   6   7
ATOM      7  C   UNL     1      19.027  57.998 159.859  1.00  0.00     0.000 C 
BRANCH   7   8
ATOM      8  C   UNL     1      17.950  57.518 160.839  1.00  0.00     0.006 C 
BRANCH   8   9
ATOM      9  C   UNL     1      18.572  56.740 162.002  1.00  0.00     0.053 C 
BRANCH   9  10
ATOM     10  C   UNL     1      18.595  57.579 163.240  1.00  0.00     0.041 C 
ATOM     11  O   UNL     1      17.806  57.330 164.191  1.00  0.00    -0.550 OA
ATOM     12  O   UNL     1      19.522  58.608 163.364  1.00  0.00    -0.550 OA
ENDBRANCH   9  10
ENDBRANCH   8   9
ENDBRANCH   7   8
ENDBRANCH   6   7
ENDBRANCH   5   6
ENDBRANCH   4   5
ENDBRANCH   3   4
ENDBRANCH   1   3
BRANCH   2  13
ATOM     13  C   UNL     1      19.098  54.655 158.673  1.00  0.00     0.027 C 
BRANCH  13  14
ATOM     14  C   UNL     1      18.744  53.351 159.403  1.00  0.00     0.004 C 
BRANCH  14  15
ATOM     15  C   UNL     1      17.482  53.497 160.270  1.00  0.00     0.000 C 
BRANCH  15  16
ATOM     16  C   UNL     1      16.416  52.439 159.943  1.00  0.00     0.000 C 
BRANCH  16  17
ATOM     17  C   UNL     1      16.710  51.690 158.633  1.00  0.00    -0.000 C 
BRANCH  17  18
ATOM     18  C   UNL     1      15.693  52.065 157.549  1.00  0.00    -0.000 C 
BRANCH  18  19
ATOM     19  C   UNL     1      14.485  52.791 158.155  1.00  0.00    -0.003 C 
ATOM     20  C   UNL     1      13.606  53.402 157.069  1.00  0.00     0.004 C 
ENDBRANCH  18  19
ENDBRANCH  17  18
ENDBRANCH  16  17
ENDBRANCH  15  16
ENDBRANCH  14  15
ENDBRANCH  13  14
ENDBRANCH   2  13
TORSDOF 15
ENDMDL
MODEL 2
REMARK VINA RESULT:    -4.334      2.839      4.275
REMARK INTER + INTRA:         -11.152
REMARK INTER:                  -8.892
REMARK INTRA:                  -2.259
REMARK UNBOUND:                -3.018
REMARK SMILES CCCCCCCCC=CCCCCCCCC(=O)[O-]
REMARK SMILES IDX 10 1 9 2 11 3 12 4 13 5 14 6 15 7 16 8 17 9 18 10 19 11
REMARK SMILES IDX 20 12 8 13 7 14 6 15 5 16 4 17 3 18 2 19 1 20
REMARK H PARENT
REMARK Flexibility Score: inf
ROOT
ATOM      1  C   UNL     1      17.528  55.590 158.332  1.00  0.00    -0.031 C 
ATOM      2  C   UNL     1      16.305  55.737 157.788  1.00  0.00    -0.031 C 
ENDROOT
BRANCH   1   3
ATOM      3  C   UNL     1      18.751  55.129 157.581  1.00  0.00     0.027 C 
BRANCH   3   4
ATOM      4  C   UNL     1      19.278  53.802 158.142  1.00  0.00     0.004 C 
BRANCH   4   5
ATOM      5  C   UNL     1      18.997  53.696 159.645  1.00  0.00     0.000 C 
BRANCH   5   6
ATOM      6  C   UNL     1      20.303  53.634 160.447  1.00  0.00     0.000 C 
BRANCH   6   7
ATOM      7  C   UNL     1      20.393  54.797 161.442  1.00  0.00     0.000 C 
BRANCH   7   8
ATOM      8  C   UNL     1      21.403  55.849 160.970  1.00  0.00     0.006 C 
BRANCH   8   9
ATOM      9  C   UNL     1      22.698  55.191 160.487  1.00  0.00     0.053 C 
BRANCH   9  10
ATOM     10  C   UNL     1      23.701  55.135 161.596  1.00  0.00     0.041 C 
ATOM     11  O   UNL     1      24.641  54.297 161.559  1.00  0.00    -0.550 OA
ATOM     12  O   UNL     1      23.625  56.041 162.648  1.00  0.00    -0.550 OA
ENDBRANCH   9  10
ENDBRANCH   8   9
ENDBRANCH   7   8
ENDBRANCH   6   7
ENDBRANCH   5   6
ENDBRANCH   4   5
ENDBRANCH   3   4
ENDBRANCH   1   3
BRANCH   2  13
ATOM     13  C   UNL     1      15.949  55.427 156.352  1.00  0.00     0.027 C 
BRANCH  13  14
ATOM     14  C   UNL     1      14.554  54.795 156.240  1.00  0.00     0.004 C 
BRANCH  14  15
ATOM     15  C   UNL     1      14.453  53.473 157.020  1.00  0.00     0.000 C 
BRANCH  15  16
ATOM     16  C   UNL     1      15.497  52.440 156.568  1.00  0.00     0.000 C 
BRANCH  16  17
ATOM     17  C   UNL     1      16.211  51.767 157.751  1.00  0.00    -0.000 C 
BRANCH  17  18
ATOM     18  C   UNL     1      15.697  52.318 159.085  1.00  0.00    -0.000 C 
BRANCH  18  19
ATOM     19  C   UNL     1      14.924  51.244 159.862  1.00  0.00    -0.003 C 
ATOM     20  C   UNL     1      13.519  51.723 160.217  1.00  0.00     0.004 C 
ENDBRANCH  18  19
ENDBRANCH  17  18
ENDBRANCH  16  17
ENDBRANCH  15  16
ENDBRANCH  14  15
ENDBRANCH  13  14
ENDBRANCH   2  13
TORSDOF 15
ENDMDL
MODEL 3
REMARK VINA RESULT:    -4.272      2.574      5.210
REMARK INTER + INTRA:         -11.037
REMARK INTER:                  -8.964
REMARK INTRA:                  -2.072
REMARK UNBOUND:                -3.018
REMARK SMILES CCCCCCCCC=CCCCCCCCC(=O)[O-]
REMARK SMILES IDX 10 1 9 2 11 3 12 4 13 5 14 6 15 7 16 8 17 9 18 10 19 11
REMARK SMILES IDX 20 12 8 13 7 14 6 15 5 16 4 17 3 18 2 19 1 20
REMARK H PARENT
REMARK Flexibility Score: inf
ROOT
ATOM      1  C   UNL     1      15.096  51.855 159.630  1.00  0.00    -0.031 C 
ATOM      2  C   UNL     1      14.195  52.395 158.788  1.00  0.00    -0.031 C 
ENDROOT
BRANCH   1   3
ATOM      3  C   UNL     1      16.488  51.431 159.238  1.00  0.00     0.027 C 
BRANCH   3   4
ATOM      4  C   UNL     1      17.428  52.640 159.139  1.00  0.00     0.004 C 
BRANCH   4   5
ATOM      5  C   UNL     1      17.356  53.493 160.411  1.00  0.00     0.000 C 
BRANCH   5   6
ATOM      6  C   UNL     1      18.748  53.986 160.824  1.00  0.00     0.000 C 
BRANCH   6   7
ATOM      7  C   UNL     1      19.803  53.582 159.787  1.00  0.00     0.000 C 
BRANCH   7   8
ATOM      8  C   UNL     1      21.220  53.790 160.334  1.00  0.00     0.006 C 
BRANCH   8   9
ATOM      9  C   UNL     1      21.331  55.121 161.082  1.00  0.00     0.053 C 
BRANCH   9  10
ATOM     10  C   UNL     1      22.748  55.603 161.085  1.00  0.00     0.041 C 
ATOM     11  O   UNL     1      23.168  56.345 160.158  1.00  0.00    -0.550 OA
ATOM     12  O   UNL     1      23.592  55.270 162.139  1.00  0.00    -0.550 OA
ENDBRANCH   9  10
ENDBRANCH   8   9
ENDBRANCH   7   8
ENDBRANCH   6   7
ENDBRANCH   5   6
ENDBRANCH   4   5
ENDBRANCH   3   4
ENDBRANCH   1   3
BRANCH   2  13
ATOM     13  C   UNL     1      14.414  52.625 157.310  1.00  0.00     0.027 C 
BRANCH  13  14
ATOM     14  C   UNL     1      13.367  53.583 156.726  1.00  0.00     0.004 C 
BRANCH  14  15
ATOM     15  C   UNL     1      13.999  54.892 156.220  1.00  0.00     0.000 C 
BRANCH  15  16
ATOM     16  C   UNL     1      15.486  55.010 156.590  1.00  0.00     0.000 C 
BRANCH  16  17
ATOM     17  C   UNL     1      15.862  56.418 157.079  1.00  0.00    -0.000 C 
BRANCH  17  18
ATOM     18  C   UNL     1      16.940  56.350 158.167  1.00  0.00    -0.000 C 
BRANCH  18  19
ATOM     19  C   UNL     1      18.339  56.236 157.548  1.00  0.00    -0.003 C 
ATOM     20  C   UNL     1      19.371  57.003 158.370  1.00  0.00     0.004 C 
ENDBRANCH  18  19
ENDBRANCH  17  18
ENDBRANCH  16  17
ENDBRANCH  15  16
ENDBRANCH  14  15
ENDBRANCH  13  14
ENDBRANCH   2  13
TORSDOF 15
ENDMDL
MODEL 4
REMARK VINA RESULT:    -4.261      2.027      3.832
REMARK INTER + INTRA:         -11.016
REMARK INTER:                  -8.525
REMARK INTRA:                  -2.491
REMARK UNBOUND:                -3.018
REMARK SMILES CCCCCCCCC=CCCCCCCCC(=O)[O-]
REMARK SMILES IDX 10 1 9 2 11 3 12 4 13 5 14 6 15 7 16 8 17 9 18 10 19 11
REMARK SMILES IDX 20 12 8 13 7 14 6 15 5 16 4 17 3 18 2 19 1 20
REMARK H PARENT
REMARK Flexibility Score: inf
ROOT
ATOM      1  C   UNL     1      17.544  57.834 157.989  1.00  0.00    -0.031 C 
ATOM      2  C   UNL     1      16.239  57.606 157.752  1.00  0.00    -0.031 C 
ENDROOT
BRANCH   1   3
ATOM      3  C   UNL     1      18.672  57.338 157.121  1.00  0.00     0.027 C 
BRANCH   3   4
ATOM      4  C   UNL     1      19.398  56.157 157.778  1.00  0.00     0.004 C 
BRANCH   4   5
ATOM      5  C   UNL     1      18.878  54.823 157.227  1.00  0.00     0.000 C 
BRANCH   5   6
ATOM      6  C   UNL     1      18.731  53.785 158.345  1.00  0.00     0.000 C 
BRANCH   6   7
ATOM      7  C   UNL     1      17.858  54.324 159.484  1.00  0.00     0.000 C 
BRANCH   7   8
ATOM      8  C   UNL     1      18.343  53.807 160.843  1.00  0.00     0.006 C 
BRANCH   8   9
ATOM      9  C   UNL     1      19.124  54.888 161.597  1.00  0.00     0.053 C 
BRANCH   9  10
ATOM     10  C   UNL     1      20.593  54.616 161.527  1.00  0.00     0.041 C 
ATOM     11  O   UNL     1      21.023  53.611 160.901  1.00  0.00    -0.550 OA
ATOM     12  O   UNL     1      21.492  55.501 162.113  1.00  0.00    -0.550 OA
ENDBRANCH   9  10
ENDBRANCH   8   9
ENDBRANCH   7   8
ENDBRANCH   6   7
ENDBRANCH   5   6
ENDBRANCH   4   5
ENDBRANCH   3   4
ENDBRANCH   1   3
BRANCH   2  13
ATOM     13  C   UNL     1      15.694  56.784 156.606  1.00  0.00     0.027 C 
BRANCH  13  14
ATOM     14  C   UNL     1      15.461  55.324 157.019  1.00  0.00     0.004 C 
BRANCH  14  15
ATOM     15  C   UNL     1      14.258  54.701 156.290  1.00  0.00     0.000 C 
BRANCH  15  16
ATOM     16  C   UNL     1      14.174  53.179 156.483  1.00  0.00     0.000 C 
BRANCH  16  17
ATOM     17  C   UNL     1      14.839  52.712 157.788  1.00  0.00    -0.000 C 
BRANCH  17  18
ATOM     18  C   UNL     1      15.954  51.700 157.502  1.00  0.00    -0.000 C 
BRANCH  18  19
ATOM     19  C   UNL     1      16.400  50.994 158.790  1.00  0.00    -0.003 C 
ATOM     20  C   UNL     1      15.487  51.351 159.959  1.00  0.00     0.004 C 
ENDBRANCH  18  19
ENDBRANCH  17  18
ENDBRANCH  16  17
ENDBRANCH  15  16
ENDBRANCH  14  15
ENDBRANCH  13  14
ENDBRANCH   2  13
TORSDOF 15
ENDMDL
MODEL 5
REMARK VINA RESULT:    -4.254      2.116      3.683
REMARK INTER + INTRA:         -11.002
REMARK INTER:                  -8.599
REMARK INTRA:                  -2.403
REMARK UNBOUND:                -3.018
REMARK SMILES CCCCCCCCC=CCCCCCCCC(=O)[O-]
REMARK SMILES IDX 10 1 9 2 11 3 12 4 13 5 14 6 15 7 16 8 17 9 18 10 19 11
REMARK SMILES IDX 20 12 8 13 7 14 6 15 5 16 4 17 3 18 2 19 1 20
REMARK H PARENT
REMARK Flexibility Score: inf
ROOT
ATOM      1  C   UNL     1      18.476  53.312 159.703  1.00  0.00    -0.031 C 
ATOM      2  C   UNL     1      18.751  53.587 158.413  1.00  0.00    -0.031 C 
ENDROOT
BRANCH   1   3
ATOM      3  C   UNL     1      17.931  54.308 160.694  1.00  0.00     0.027 C 
BRANCH   3   4
ATOM      4  C   UNL     1      18.968  54.633 161.778  1.00  0.00     0.004 C 
BRANCH   4   5
ATOM      5  C   UNL     1      20.304  55.045 161.149  1.00  0.00     0.000 C 
BRANCH   5   6
ATOM      6  C   UNL     1      20.350  56.556 160.894  1.00  0.00     0.000 C 
BRANCH   6   7
ATOM      7  C   UNL     1      19.453  57.308 161.885  1.00  0.00     0.000 C 
BRANCH   7   8
ATOM      8  C   UNL     1      18.709  58.456 161.193  1.00  0.00     0.006 C 
BRANCH   8   9
ATOM      9  C   UNL     1      18.542  58.181 159.696  1.00  0.00     0.053 C 
BRANCH   9  10
ATOM     10  C   UNL     1      17.332  58.885 159.167  1.00  0.00     0.041 C 
ATOM     11  O   UNL     1      16.647  58.365 158.247  1.00  0.00    -0.550 OA
ATOM     12  O   UNL     1      16.935  60.095 159.725  1.00  0.00    -0.550 OA
ENDBRANCH   9  10
ENDBRANCH   8   9
ENDBRANCH   7   8
ENDBRANCH   6   7
ENDBRANCH   5   6
ENDBRANCH   4   5
ENDBRANCH   3   4
ENDBRANCH   1   3
BRANCH   2  13
ATOM     13  C   UNL     1      18.599  54.942 157.762  1.00  0.00     0.027 C 
BRANCH  13  14
ATOM     14  C   UNL     1      17.390  54.983 156.817  1.00  0.00     0.004 C 
BRANCH  14  15
ATOM     15  C   UNL     1      16.058  55.048 157.583  1.00  0.00     0.000 C 
BRANCH  15  16
ATOM     16  C   UNL     1      14.873  54.531 156.751  1.00  0.00     0.000 C 
BRANCH  16  17
ATOM     17  C   UNL     1      14.184  53.318 157.396  1.00  0.00    -0.000 C 
BRANCH  17  18
ATOM     18  C   UNL     1      15.219  52.339 157.962  1.00  0.00    -0.000 C 
BRANCH  18  19
ATOM     19  C   UNL     1      14.881  51.957 159.409  1.00  0.00    -0.003 C 
ATOM     20  C   UNL     1      15.703  50.757 159.870  1.00  0.00     0.004 C 
ENDBRANCH  18  19
ENDBRANCH  17  18
ENDBRANCH  16  17
ENDBRANCH  15  16
ENDBRANCH  14  15
ENDBRANCH  13  14
ENDBRANCH   2  13
TORSDOF 15
ENDMDL
MODEL 6
REMARK VINA RESULT:    -4.221      1.867      3.072
REMARK INTER + INTRA:         -10.940
REMARK INTER:                  -8.054
REMARK INTRA:                  -2.887
REMARK UNBOUND:                -3.018
REMARK SMILES CCCCCCCCC=CCCCCCCCC(=O)[O-]
REMARK SMILES IDX 10 1 9 2 11 3 12 4 13 5 14 6 15 7 16 8 17 9 18 10 19 11
REMARK SMILES IDX 20 12 8 13 7 14 6 15 5 16 4 17 3 18 2 19 1 20
REMARK H PARENT
REMARK Flexibility Score: inf
ROOT
ATOM      1  C   UNL     1      15.500  56.019 156.723  1.00  0.00    -0.031 C 
ATOM      2  C   UNL     1      14.830  54.854 156.635  1.00  0.00    -0.031 C 
ENDROOT
BRANCH   1   3
ATOM      3  C   UNL     1      16.838  56.288 156.084  1.00  0.00     0.027 C 
BRANCH   3   4
ATOM      4  C   UNL     1      17.690  57.220 156.955  1.00  0.00     0.004 C 
BRANCH   4   5
ATOM      5  C   UNL     1      16.884  57.736 158.153  1.00  0.00     0.000 C 
BRANCH   5   6
ATOM      6  C   UNL     1      17.803  58.364 159.207  1.00  0.00     0.000 C 
BRANCH   6   7
ATOM      7  C   UNL     1      18.025  57.405 160.383  1.00  0.00     0.000 C 
BRANCH   7   8
ATOM      8  C   UNL     1      19.498  56.994 160.488  1.00  0.00     0.006 C 
BRANCH   8   9
ATOM      9  C   UNL     1      19.823  56.465 161.888  1.00  0.00     0.053 C 
BRANCH   9  10
ATOM     10  C   UNL     1      19.785  54.970 161.904  1.00  0.00     0.041 C 
ATOM     11  O   UNL     1      18.972  54.364 162.652  1.00  0.00    -0.550 OA
ATOM     12  O   UNL     1      20.615  54.245 161.056  1.00  0.00    -0.550 OA
ENDBRANCH   9  10
ENDBRANCH   8   9
ENDBRANCH   7   8
ENDBRANCH   6   7
ENDBRANCH   5   6
ENDBRANCH   4   5
ENDBRANCH   3   4
ENDBRANCH   1   3
BRANCH   2  13
ATOM     13  C   UNL     1      15.326  53.618 155.920  1.00  0.00     0.027 C 
BRANCH  13  14
ATOM     14  C   UNL     1      15.022  52.343 156.720  1.00  0.00     0.004 C 
BRANCH  14  15
ATOM     15  C   UNL     1      14.359  52.653 158.073  1.00  0.00     0.000 C 
BRANCH  15  16
ATOM     16  C   UNL     1      14.992  51.868 159.233  1.00  0.00     0.000 C 
BRANCH  16  17
ATOM     17  C   UNL     1      16.528  51.882 159.186  1.00  0.00    -0.000 C 
BRANCH  17  18
ATOM     18  C   UNL     1      17.086  53.106 159.921  1.00  0.00    -0.000 C 
BRANCH  18  19
ATOM     19  C   UNL     1      17.749  54.082 158.940  1.00  0.00    -0.003 C 
ATOM     20  C   UNL     1      18.485  53.336 157.831  1.00  0.00     0.004 C 
ENDBRANCH  18  19
ENDBRANCH  17  18
ENDBRANCH  16  17
ENDBRANCH  15  16
ENDBRANCH  14  15
ENDBRANCH  13  14
ENDBRANCH   2  13
TORSDOF 15
ENDMDL
MODEL 7
REMARK VINA RESULT:    -4.191      2.209      4.340
REMARK INTER + INTRA:         -10.883
REMARK INTER:                  -8.387
REMARK INTRA:                  -2.496
REMARK UNBOUND:                -3.018
REMARK SMILES CCCCCCCCC=CCCCCCCCC(=O)[O-]
REMARK SMILES IDX 10 1 9 2 11 3 12 4 13 5 14 6 15 7 16 8 17 9 18 10 19 11
REMARK SMILES IDX 20 12 8 13 7 14 6 15 5 16 4 17 3 18 2 19 1 20
REMARK H PARENT
REMARK Flexibility Score: inf
ROOT
ATOM      1  C   UNL     1      13.831  53.265 157.239  1.00  0.00    -0.031 C 
ATOM      2  C   UNL     1      14.070  52.632 158.404  1.00  0.00    -0.031 C 
ENDROOT
BRANCH   1   3
ATOM      3  C   UNL     1      14.699  53.160 156.012  1.00  0.00     0.027 C 
BRANCH   3   4
ATOM      4  C   UNL     1      15.615  54.384 155.877  1.00  0.00     0.004 C 
BRANCH   4   5
ATOM      5  C   UNL     1      14.932  55.640 156.431  1.00  0.00     0.000 C 
BRANCH   5   6
ATOM      6  C   UNL     1      15.873  56.412 157.365  1.00  0.00     0.000 C 
BRANCH   6   7
ATOM      7  C   UNL     1      16.949  57.157 156.566  1.00  0.00     0.000 C 
BRANCH   7   8
ATOM      8  C   UNL     1      17.895  57.922 157.499  1.00  0.00     0.006 C 
BRANCH   8   9
ATOM      9  C   UNL     1      17.294  58.061 158.900  1.00  0.00     0.053 C 
BRANCH   9  10
ATOM     10  C   UNL     1      17.546  59.432 159.444  1.00  0.00     0.041 C 
ATOM     11  O   UNL     1      16.615  60.076 159.996  1.00  0.00    -0.550 OA
ATOM     12  O   UNL     1      18.823  59.979 159.382  1.00  0.00    -0.550 OA
ENDBRANCH   9  10
ENDBRANCH   8   9
ENDBRANCH   7   8
ENDBRANCH   6   7
ENDBRANCH   5   6
ENDBRANCH   4   5
ENDBRANCH   3   4
ENDBRANCH   1   3
BRANCH   2  13
ATOM     13  C   UNL     1      15.267  51.752 158.684  1.00  0.00     0.027 C 
BRANCH  13  14
ATOM     14  C   UNL     1      16.104  52.292 159.852  1.00  0.00     0.004 C 
BRANCH  14  15
ATOM     15  C   UNL     1      16.992  53.475 159.429  1.00  0.00     0.000 C 
BRANCH  15  16
ATOM     16  C   UNL     1      18.092  53.063 158.439  1.00  0.00     0.000 C 
BRANCH  16  17
ATOM     17  C   UNL     1      18.815  54.272 157.824  1.00  0.00    -0.000 C 
BRANCH  17  18
ATOM     18  C   UNL     1      19.824  54.867 158.813  1.00  0.00    -0.000 C 
BRANCH  18  19
ATOM     19  C   UNL     1      20.427  53.775 159.706  1.00  0.00    -0.003 C 
ATOM     20  C   UNL     1      20.342  54.158 161.181  1.00  0.00     0.004 C 
ENDBRANCH  18  19
ENDBRANCH  17  18
ENDBRANCH  16  17
ENDBRANCH  15  16
ENDBRANCH  14  15
ENDBRANCH  13  14
ENDBRANCH   2  13
TORSDOF 15
ENDMDL
MODEL 8
REMARK VINA RESULT:    -4.190      1.420      3.951
REMARK INTER + INTRA:         -10.883
REMARK INTER:                  -8.653
REMARK INTRA:                  -2.229
REMARK UNBOUND:                -3.018
REMARK SMILES CCCCCCCCC=CCCCCCCCC(=O)[O-]
REMARK SMILES IDX 10 1 9 2 11 3 12 4 13 5 14 6 15 7 16 8 17 9 18 10 19 11
REMARK SMILES IDX 20 12 8 13 7 14 6 15 5 16 4 17 3 18 2 19 1 20
REMARK H PARENT
REMARK Flexibility Score: inf
ROOT
ATOM      1  C   UNL     1      17.619  53.336 159.767  1.00  0.00    -0.031 C 
ATOM      2  C   UNL     1      16.509  52.627 160.048  1.00  0.00    -0.031 C 
ENDROOT
BRANCH   1   3
ATOM      3  C   UNL     1      18.308  53.355 158.426  1.00  0.00     0.027 C 
BRANCH   3   4
ATOM      4  C   UNL     1      19.630  54.130 158.495  1.00  0.00     0.004 C 
BRANCH   4   5
ATOM      5  C   UNL     1      20.498  53.628 159.656  1.00  0.00     0.000 C 
BRANCH   5   6
ATOM      6  C   UNL     1      20.965  54.791 160.538  1.00  0.00     0.000 C 
BRANCH   6   7
ATOM      7  C   UNL     1      20.425  54.649 161.966  1.00  0.00     0.000 C 
BRANCH   7   8
ATOM      8  C   UNL     1      19.127  55.445 162.146  1.00  0.00     0.006 C 
BRANCH   8   9
ATOM      9  C   UNL     1      19.107  56.679 161.239  1.00  0.00     0.053 C 
BRANCH   9  10
ATOM     10  C   UNL     1      19.076  57.929 162.059  1.00  0.00     0.041 C 
ATOM     11  O   UNL     1      19.110  57.864 163.317  1.00  0.00    -0.550 OA
ATOM     12  O   UNL     1      19.057  59.170 161.433  1.00  0.00    -0.550 OA
ENDBRANCH   9  10
ENDBRANCH   8   9
ENDBRANCH   7   8
ENDBRANCH   6   7
ENDBRANCH   5   6
ENDBRANCH   4   5
ENDBRANCH   3   4
ENDBRANCH   1   3
BRANCH   2  13
ATOM     13  C   UNL     1      15.800  51.705 159.082  1.00  0.00     0.027 C 
BRANCH  13  14
ATOM     14  C   UNL     1      14.465  52.300 158.611  1.00  0.00     0.004 C 
BRANCH  14  15
ATOM     15  C   UNL     1      14.500  52.691 157.123  1.00  0.00     0.000 C 
BRANCH  15  16
ATOM     16  C   UNL     1      13.540  53.846 156.795  1.00  0.00     0.000 C 
BRANCH  16  17
ATOM     17  C   UNL     1      14.263  55.058 156.186  1.00  0.00    -0.000 C 
BRANCH  17  18
ATOM     18  C   UNL     1      15.630  55.269 156.847  1.00  0.00    -0.000 C 
BRANCH  18  19
ATOM     19  C   UNL     1      15.865  56.751 157.166  1.00  0.00    -0.003 C 
ATOM     20  C   UNL     1      16.932  56.923 158.242  1.00  0.00     0.004 C 
ENDBRANCH  18  19
ENDBRANCH  17  18
ENDBRANCH  16  17
ENDBRANCH  15  16
ENDBRANCH  14  15
ENDBRANCH  13  14
ENDBRANCH   2  13
TORSDOF 15
ENDMDL
MODEL 9
REMARK VINA RESULT:    -4.152      1.420      3.344
REMARK INTER + INTRA:         -10.811
REMARK INTER:                  -8.263
REMARK INTRA:                  -2.549
REMARK UNBOUND:                -3.018
REMARK SMILES CCCCCCCCC=CCCCCCCCC(=O)[O-]
REMARK SMILES IDX 10 1 9 2 11 3 12 4 13 5 14 6 15 7 16 8 17 9 18 10 19 11
REMARK SMILES IDX 20 12 8 13 7 14 6 15 5 16 4 17 3 18 2 19 1 20
REMARK H PARENT
REMARK Flexibility Score: inf
ROOT
ATOM      1  C   UNL     1      14.902  55.551 156.182  1.00  0.00    -0.031 C 
ATOM      2  C   UNL     1      13.975  54.575 156.164  1.00  0.00    -0.031 C 
ENDROOT
BRANCH   1   3
ATOM      3  C   UNL     1      16.326  55.372 156.641  1.00  0.00     0.027 C 
BRANCH   3   4
ATOM      4  C   UNL     1      16.601  56.178 157.917  1.00  0.00     0.004 C 
BRANCH   4   5
ATOM      5  C   UNL     1      16.869  57.651 157.585  1.00  0.00     0.000 C 
BRANCH   5   6
ATOM      6  C   UNL     1      18.304  57.851 157.085  1.00  0.00     0.000 C 
BRANCH   6   7
ATOM      7  C   UNL     1      19.294  57.022 157.911  1.00  0.00     0.000 C 
BRANCH   7   8
ATOM      8  C   UNL     1      20.060  57.905 158.903  1.00  0.00     0.006 C 
BRANCH   8   9
ATOM      9  C   UNL     1      19.796  57.468 160.347  1.00  0.00     0.053 C 
BRANCH   9  10
ATOM     10  C   UNL     1      19.050  58.532 161.087  1.00  0.00     0.041 C 
ATOM     11  O   UNL     1      19.247  58.705 162.319  1.00  0.00    -0.550 OA
ATOM     12  O   UNL     1      18.170  59.366 160.404  1.00  0.00    -0.550 OA
ENDBRANCH   9  10
ENDBRANCH   8   9
ENDBRANCH   7   8
ENDBRANCH   6   7
ENDBRANCH   5   6
ENDBRANCH   4   5
ENDBRANCH   3   4
ENDBRANCH   1   3
BRANCH   2  13
ATOM     13  C   UNL     1      14.197  53.157 156.640  1.00  0.00     0.027 C 
BRANCH  13  14
ATOM     14  C   UNL     1      13.829  52.994 158.121  1.00  0.00     0.004 C 
BRANCH  14  15
ATOM     15  C   UNL     1      14.857  52.140 158.883  1.00  0.00     0.000 C 
BRANCH  15  16
ATOM     16  C   UNL     1      16.120  51.859 158.053  1.00  0.00     0.000 C 
BRANCH  16  17
ATOM     17  C   UNL     1      17.367  52.553 158.625  1.00  0.00    -0.000 C 
BRANCH  17  18
ATOM     18  C   UNL     1      17.100  53.079 160.040  1.00  0.00    -0.000 C 
BRANCH  18  19
ATOM     19  C   UNL     1      18.189  54.069 160.473  1.00  0.00    -0.003 C 
ATOM     20  C   UNL     1      19.527  53.739 159.819  1.00  0.00     0.004 C 
ENDBRANCH  18  19
ENDBRANCH  17  18
ENDBRANCH  16  17
ENDBRANCH  15  16
ENDBRANCH  14  15
ENDBRANCH  13  14
ENDBRANCH   2  13
TORSDOF 15
ENDMDL
