MODEL 1
REMARK VINA RESULT:    -6.558      0.000      0.000
REMARK INTER + INTRA:          -7.233
REMARK INTER:                  -7.133
REMARK INTRA:                  -0.100
REMARK UNBOUND:                -0.100
REMARK SMILES CC(=O)[C@H]1CC[C@H]2[C@@H]3CC=C4C[C@H](O)CC[C@@]4(C)[C@H]3CC[C@]12C
REMARK SMILES IDX 4 1 5 2 6 3 7 4 22 5 21 6 20 7 19 8 8 9 9 10 10 11 11 12
REMARK SMILES IDX 17 13 16 14 15 15 13 16 12 17 18 18 23 19 2 20 1 21 3 22
REMARK SMILES IDX 14 23
REMARK H PARENT 14 24
REMARK Flexibility Score: inf
ROOT
ATOM      1  C   UNL     1      -0.334  24.764  60.995  1.00  0.00     0.062 C 
ATOM      2  C   UNL     1       0.333  23.992  62.165  1.00  0.00     0.012 C 
ATOM      3  C   UNL     1      -0.717  22.996  62.687  1.00  0.00     0.005 C 
ATOM      4  C   UNL     1      -1.874  23.120  61.703  1.00  0.00    -0.001 C 
ATOM      5  C   UNL     1      -1.851  24.585  61.251  1.00  0.00    -0.020 C 
ATOM      6  C   UNL     1      -2.744  24.696  59.992  1.00  0.00     0.008 C 
ATOM      7  C   UNL     1      -4.187  24.226  60.291  1.00  0.00     0.005 C 
ATOM      8  C   UNL     1      -4.258  22.801  60.934  1.00  0.00     0.003 C 
ATOM      9  C   UNL     1      -3.275  22.636  62.133  1.00  0.00     0.000 C 
ATOM     10  C   UNL     1      -3.228  21.151  62.513  1.00  0.00     0.031 C 
ATOM     11  C   UNL     1      -4.596  20.643  62.841  1.00  0.00    -0.027 C 
ATOM     12  C   UNL     1      -5.721  21.112  62.256  1.00  0.00    -0.065 C 
ATOM     13  C   UNL     1      -5.726  22.322  61.300  1.00  0.00    -0.008 C 
ATOM     14  C   UNL     1      -6.543  23.452  62.001  1.00  0.00     0.014 C 
ATOM     15  C   UNL     1      -7.903  22.992  62.565  1.00  0.00     0.033 C 
ATOM     16  C   UNL     1      -7.766  21.779  63.497  1.00  0.00     0.118 C 
ATOM     17  C   UNL     1      -7.056  20.624  62.782  1.00  0.00     0.063 C 
ATOM     18  C   UNL     1      -6.434  21.909  59.982  1.00  0.00     0.016 C 
ATOM     19  C   UNL     1      -2.330  25.588  62.351  1.00  0.00     0.012 C 
ENDROOT
BRANCH   1  20
ATOM     20  C   UNL     1       0.123  26.205  60.799  1.00  0.00     0.133 C 
ATOM     21  C   UNL     1       1.159  26.857  61.673  1.00  0.00     0.088 C 
ATOM     22  O   UNL     1      -0.362  26.856  59.888  1.00  0.00    -0.300 OA
ENDBRANCH   1  20
BRANCH  16  23
ATOM     23  O   UNL     1      -9.044  21.369  63.910  1.00  0.00    -0.393 OA
ATOM     24  H   UNL     1      -9.035  20.376  63.934  1.00  0.00     0.210 HD
ENDBRANCH  16  23
TORSDOF 2
ENDMDL
MODEL 2
REMARK VINA RESULT:    -6.470      5.654      8.237
REMARK INTER + INTRA:          -7.137
REMARK INTER:                  -6.980
REMARK INTRA:                  -0.157
REMARK UNBOUND:                -0.100
REMARK SMILES CC(=O)[C@H]1CC[C@H]2[C@@H]3CC=C4C[C@H](O)CC[C@@]4(C)[C@H]3CC[C@]12C
REMARK SMILES IDX 4 1 5 2 6 3 7 4 22 5 21 6 20 7 19 8 8 9 9 10 10 11 11 12
REMARK SMILES IDX 17 13 16 14 15 15 13 16 12 17 18 18 23 19 2 20 1 21 3 22
REMARK SMILES IDX 14 23
REMARK H PARENT 14 24
REMARK Flexibility Score: inf
ROOT
ATOM      1  C   UNL     1       1.402  28.290  67.603  1.00  0.00     0.062 C 
ATOM      2  C   UNL     1       2.475  27.481  68.381  1.00  0.00     0.012 C 
ATOM      3  C   UNL     1       3.084  26.486  67.377  1.00  0.00     0.005 C 
ATOM      4  C   UNL     1       2.460  26.869  66.041  1.00  0.00    -0.001 C 
ATOM      5  C   UNL     1       1.060  27.384  66.394  1.00  0.00    -0.020 C 
ATOM      6  C   UNL     1       0.512  28.128  65.153  1.00  0.00     0.008 C 
ATOM      7  C   UNL     1       0.471  27.197  63.919  1.00  0.00     0.005 C 
ATOM      8  C   UNL     1       1.837  26.492  63.623  1.00  0.00     0.003 C 
ATOM      9  C   UNL     1       2.460  25.837  64.893  1.00  0.00     0.000 C 
ATOM     10  C   UNL     1       3.896  25.417  64.560  1.00  0.00     0.031 C 
ATOM     11  C   UNL     1       3.919  24.489  63.387  1.00  0.00    -0.027 C 
ATOM     12  C   UNL     1       3.026  24.552  62.374  1.00  0.00    -0.065 C 
ATOM     13  C   UNL     1       1.801  25.489  62.394  1.00  0.00    -0.008 C 
ATOM     14  C   UNL     1       0.533  24.579  62.430  1.00  0.00     0.014 C 
ATOM     15  C   UNL     1       0.539  23.446  61.382  1.00  0.00     0.033 C 
ATOM     16  C   UNL     1       1.811  22.589  61.460  1.00  0.00     0.118 C 
ATOM     17  C   UNL     1       3.063  23.462  61.321  1.00  0.00     0.063 C 
ATOM     18  C   UNL     1       1.801  26.332  61.092  1.00  0.00     0.016 C 
ATOM     19  C   UNL     1       0.070  26.256  66.835  1.00  0.00     0.012 C 
ENDROOT
BRANCH   1  20
ATOM     20  C   UNL     1       0.204  28.763  68.416  1.00  0.00     0.133 C 
ATOM     21  C   UNL     1      -0.128  28.211  69.775  1.00  0.00     0.088 C 
ATOM     22  O   UNL     1      -0.513  29.636  67.953  1.00  0.00    -0.300 OA
ENDBRANCH   1  20
BRANCH  16  23
ATOM     23  O   UNL     1       1.784  21.631  60.433  1.00  0.00    -0.393 OA
ATOM     24  H   UNL     1       1.391  22.074  59.636  1.00  0.00     0.210 HD
ENDBRANCH  16  23
TORSDOF 2
ENDMDL
MODEL 3
REMARK VINA RESULT:    -6.358      2.373      7.004
REMARK INTER + INTRA:          -7.016
REMARK INTER:                  -6.886
REMARK INTRA:                  -0.130
REMARK UNBOUND:                -0.100
REMARK SMILES CC(=O)[C@H]1CC[C@H]2[C@@H]3CC=C4C[C@H](O)CC[C@@]4(C)[C@H]3CC[C@]12C
REMARK SMILES IDX 4 1 5 2 6 3 7 4 22 5 21 6 20 7 19 8 8 9 9 10 10 11 11 12
REMARK SMILES IDX 17 13 16 14 15 15 13 16 12 17 18 18 23 19 2 20 1 21 3 22
REMARK SMILES IDX 14 23
REMARK H PARENT 14 24
REMARK Flexibility Score: inf
ROOT
ATOM      1  C   UNL     1      -5.392  24.818  61.741  1.00  0.00     0.062 C 
ATOM      2  C   UNL     1      -5.472  23.306  61.397  1.00  0.00     0.012 C 
ATOM      3  C   UNL     1      -4.032  22.768  61.457  1.00  0.00     0.005 C 
ATOM      4  C   UNL     1      -3.213  23.940  61.986  1.00  0.00    -0.001 C 
ATOM      5  C   UNL     1      -3.918  25.189  61.443  1.00  0.00    -0.020 C 
ATOM      6  C   UNL     1      -3.377  26.406  62.230  1.00  0.00     0.008 C 
ATOM      7  C   UNL     1      -1.841  26.523  62.086  1.00  0.00     0.005 C 
ATOM      8  C   UNL     1      -1.078  25.205  62.450  1.00  0.00     0.003 C 
ATOM      9  C   UNL     1      -1.687  23.950  61.755  1.00  0.00     0.000 C 
ATOM     10  C   UNL     1      -1.050  22.702  62.377  1.00  0.00     0.031 C 
ATOM     11  C   UNL     1       0.439  22.744  62.244  1.00  0.00    -0.027 C 
ATOM     12  C   UNL     1       1.153  23.892  62.256  1.00  0.00    -0.065 C 
ATOM     13  C   UNL     1       0.494  25.287  62.257  1.00  0.00    -0.008 C 
ATOM     14  C   UNL     1       0.874  25.970  60.906  1.00  0.00     0.014 C 
ATOM     15  C   UNL     1       2.376  25.898  60.561  1.00  0.00     0.033 C 
ATOM     16  C   UNL     1       2.913  24.460  60.599  1.00  0.00     0.118 C 
ATOM     17  C   UNL     1       2.638  23.814  61.961  1.00  0.00     0.063 C 
ATOM     18  C   UNL     1       1.077  26.109  63.437  1.00  0.00     0.016 C 
ATOM     19  C   UNL     1      -3.721  25.400  59.906  1.00  0.00     0.012 C 
ENDROOT
BRANCH   1  20
ATOM     20  C   UNL     1      -6.431  25.711  61.073  1.00  0.00     0.133 C 
ATOM     21  C   UNL     1      -6.740  27.102  61.554  1.00  0.00     0.088 C 
ATOM     22  O   UNL     1      -7.032  25.285  60.100  1.00  0.00    -0.300 OA
ENDBRANCH   1  20
BRANCH  16  23
ATOM     23  O   UNL     1       4.296  24.478  60.353  1.00  0.00    -0.393 OA
ATOM     24  H   UNL     1       4.712  25.003  61.086  1.00  0.00     0.210 HD
ENDBRANCH  16  23
TORSDOF 2
ENDMDL
MODEL 4
REMARK VINA RESULT:    -6.338      5.762      8.807
REMARK INTER + INTRA:          -6.994
REMARK INTER:                  -6.836
REMARK INTRA:                  -0.158
REMARK UNBOUND:                -0.100
REMARK SMILES CC(=O)[C@H]1CC[C@H]2[C@@H]3CC=C4C[C@H](O)CC[C@@]4(C)[C@H]3CC[C@]12C
REMARK SMILES IDX 4 1 5 2 6 3 7 4 22 5 21 6 20 7 19 8 8 9 9 10 10 11 11 12
REMARK SMILES IDX 17 13 16 14 15 15 13 16 12 17 18 18 23 19 2 20 1 21 3 22
REMARK SMILES IDX 14 23
REMARK H PARENT 14 24
REMARK Flexibility Score: inf
ROOT
ATOM      1  C   UNL     1       3.516  28.116  67.706  1.00  0.00     0.062 C 
ATOM      2  C   UNL     1       4.720  27.232  68.131  1.00  0.00     0.012 C 
ATOM      3  C   UNL     1       4.975  26.255  66.970  1.00  0.00     0.005 C 
ATOM      4  C   UNL     1       4.026  26.719  65.871  1.00  0.00    -0.001 C 
ATOM      5  C   UNL     1       2.806  27.277  66.615  1.00  0.00    -0.020 C 
ATOM      6  C   UNL     1       1.976  28.094  65.597  1.00  0.00     0.008 C 
ATOM      7  C   UNL     1       1.546  27.217  64.399  1.00  0.00     0.005 C 
ATOM      8  C   UNL     1       2.739  26.469  63.713  1.00  0.00     0.003 C 
ATOM      9  C   UNL     1       3.654  25.737  64.741  1.00  0.00     0.000 C 
ATOM     10  C   UNL     1       4.919  25.271  64.009  1.00  0.00     0.031 C 
ATOM     11  C   UNL     1       4.568  24.393  62.850  1.00  0.00    -0.027 C 
ATOM     12  C   UNL     1       3.434  24.535  62.128  1.00  0.00    -0.065 C 
ATOM     13  C   UNL     1       2.313  25.521  62.515  1.00  0.00    -0.008 C 
ATOM     14  C   UNL     1       1.059  24.664  62.877  1.00  0.00     0.014 C 
ATOM     15  C   UNL     1       0.716  23.577  61.837  1.00  0.00     0.033 C 
ATOM     16  C   UNL     1       1.913  22.664  61.533  1.00  0.00     0.118 C 
ATOM     17  C   UNL     1       3.121  23.490  61.076  1.00  0.00     0.063 C 
ATOM     18  C   UNL     1       1.995  26.416  61.289  1.00  0.00     0.016 C 
ATOM     19  C   UNL     1       1.921  26.173  67.282  1.00  0.00     0.012 C 
ENDROOT
BRANCH   1  20
ATOM     20  C   UNL     1       2.616  28.605  68.834  1.00  0.00     0.133 C 
ATOM     21  C   UNL     1       2.664  28.029  70.223  1.00  0.00     0.088 C 
ATOM     22  O   UNL     1       1.829  29.510  68.608  1.00  0.00    -0.300 OA
ENDBRANCH   1  20
BRANCH  16  23
ATOM     23  O   UNL     1       1.554  21.752  60.527  1.00  0.00    -0.393 OA
ATOM     24  H   UNL     1       0.626  21.976  60.253  1.00  0.00     0.210 HD
ENDBRANCH  16  23
TORSDOF 2
ENDMDL
MODEL 5
REMARK VINA RESULT:    -6.182      4.879      7.921
REMARK INTER + INTRA:          -6.825
REMARK INTER:                  -6.715
REMARK INTRA:                  -0.110
REMARK UNBOUND:                -0.100
REMARK SMILES CC(=O)[C@H]1CC[C@H]2[C@@H]3CC=C4C[C@H](O)CC[C@@]4(C)[C@H]3CC[C@]12C
REMARK SMILES IDX 4 1 5 2 6 3 7 4 22 5 21 6 20 7 19 8 8 9 9 10 10 11 11 12
REMARK SMILES IDX 17 13 16 14 15 15 13 16 12 17 18 18 23 19 2 20 1 21 3 22
REMARK SMILES IDX 14 23
REMARK H PARENT 14 24
REMARK Flexibility Score: inf
ROOT
ATOM      1  C   UNL     1       4.969  27.259  66.942  1.00  0.00     0.062 C 
ATOM      2  C   UNL     1       5.744  25.914  66.945  1.00  0.00     0.012 C 
ATOM      3  C   UNL     1       5.110  25.042  65.847  1.00  0.00     0.005 C 
ATOM      4  C   UNL     1       4.116  25.969  65.157  1.00  0.00    -0.001 C 
ATOM      5  C   UNL     1       3.622  26.908  66.263  1.00  0.00    -0.020 C 
ATOM      6  C   UNL     1       2.906  28.097  65.577  1.00  0.00     0.008 C 
ATOM      7  C   UNL     1       1.734  27.606  64.696  1.00  0.00     0.005 C 
ATOM      8  C   UNL     1       2.148  26.500  63.668  1.00  0.00     0.003 C 
ATOM      9  C   UNL     1       2.973  25.352  64.324  1.00  0.00     0.000 C 
ATOM     10  C   UNL     1       3.548  24.475  63.205  1.00  0.00     0.031 C 
ATOM     11  C   UNL     1       2.456  23.946  62.331  1.00  0.00    -0.027 C 
ATOM     12  C   UNL     1       1.312  24.622  62.081  1.00  0.00    -0.065 C 
ATOM     13  C   UNL     1       0.949  25.943  62.790  1.00  0.00    -0.008 C 
ATOM     14  C   UNL     1      -0.317  25.659  63.659  1.00  0.00     0.014 C 
ATOM     15  C   UNL     1      -1.448  24.926  62.907  1.00  0.00     0.033 C 
ATOM     16  C   UNL     1      -0.959  23.631  62.240  1.00  0.00     0.118 C 
ATOM     17  C   UNL     1       0.220  23.916  61.303  1.00  0.00     0.063 C 
ATOM     18  C   UNL     1       0.612  27.007  61.713  1.00  0.00     0.016 C 
ATOM     19  C   UNL     1       2.669  26.217  67.293  1.00  0.00     0.012 C 
ENDROOT
BRANCH   1  20
ATOM     20  C   UNL     1       4.851  27.964  68.288  1.00  0.00     0.133 C 
ATOM     21  C   UNL     1       4.241  29.329  68.442  1.00  0.00     0.088 C 
ATOM     22  O   UNL     1       5.259  27.394  69.287  1.00  0.00    -0.300 OA
ENDBRANCH   1  20
BRANCH  16  23
ATOM     23  O   UNL     1      -2.016  23.060  61.514  1.00  0.00    -0.393 OA
ATOM     24  H   UNL     1      -1.716  22.159  61.228  1.00  0.00     0.210 HD
ENDBRANCH  16  23
TORSDOF 2
ENDMDL
MODEL 6
REMARK VINA RESULT:    -6.022      5.216      8.400
REMARK INTER + INTRA:          -6.650
REMARK INTER:                  -6.545
REMARK INTRA:                  -0.105
REMARK UNBOUND:                -0.100
REMARK SMILES CC(=O)[C@H]1CC[C@H]2[C@@H]3CC=C4C[C@H](O)CC[C@@]4(C)[C@H]3CC[C@]12C
REMARK SMILES IDX 4 1 5 2 6 3 7 4 22 5 21 6 20 7 19 8 8 9 9 10 10 11 11 12
REMARK SMILES IDX 17 13 16 14 15 15 13 16 12 17 18 18 23 19 2 20 1 21 3 22
REMARK SMILES IDX 14 23
REMARK H PARENT 14 24
REMARK Flexibility Score: inf
ROOT
ATOM      1  C   UNL     1       0.955  25.791  61.788  1.00  0.00     0.062 C 
ATOM      2  C   UNL     1       2.474  26.073  61.628  1.00  0.00     0.012 C 
ATOM      3  C   UNL     1       3.019  26.343  63.042  1.00  0.00     0.005 C 
ATOM      4  C   UNL     1       1.841  26.048  63.962  1.00  0.00    -0.001 C 
ATOM      5  C   UNL     1       0.600  26.437  63.150  1.00  0.00    -0.020 C 
ATOM      6  C   UNL     1      -0.631  25.827  63.862  1.00  0.00     0.008 C 
ATOM      7  C   UNL     1      -0.736  26.332  65.320  1.00  0.00     0.005 C 
ATOM      8  C   UNL     1       0.577  26.129  66.147  1.00  0.00     0.003 C 
ATOM      9  C   UNL     1       1.844  26.633  65.390  1.00  0.00     0.000 C 
ATOM     10  C   UNL     1       3.082  26.152  66.156  1.00  0.00     0.031 C 
ATOM     11  C   UNL     1       3.051  26.633  67.572  1.00  0.00    -0.027 C 
ATOM     12  C   UNL     1       1.907  26.816  68.268  1.00  0.00    -0.065 C 
ATOM     13  C   UNL     1       0.508  26.690  67.629  1.00  0.00    -0.008 C 
ATOM     14  C   UNL     1      -0.143  28.108  67.679  1.00  0.00     0.014 C 
ATOM     15  C   UNL     1      -0.056  28.796  69.057  1.00  0.00     0.033 C 
ATOM     16  C   UNL     1       1.385  28.854  69.588  1.00  0.00     0.118 C 
ATOM     17  C   UNL     1       2.000  27.451  69.641  1.00  0.00     0.063 C 
ATOM     18  C   UNL     1      -0.335  25.700  68.475  1.00  0.00     0.016 C 
ATOM     19  C   UNL     1       0.423  27.981  62.978  1.00  0.00     0.012 C 
ENDROOT
BRANCH   1  20
ATOM     20  C   UNL     1       0.072  26.214  60.621  1.00  0.00     0.133 C 
ATOM     21  C   UNL     1      -1.275  25.601  60.354  1.00  0.00     0.088 C 
ATOM     22  O   UNL     1       0.467  27.096  59.875  1.00  0.00    -0.300 OA
ENDBRANCH   1  20
BRANCH  16  23
ATOM     23  O   UNL     1       1.380  29.420  70.873  1.00  0.00    -0.393 OA
ATOM     24  H   UNL     1       0.680  28.946  71.394  1.00  0.00     0.210 HD
ENDBRANCH  16  23
TORSDOF 2
ENDMDL
MODEL 7
REMARK VINA RESULT:    -5.890      5.323      8.121
REMARK INTER + INTRA:          -6.507
REMARK INTER:                  -6.374
REMARK INTRA:                  -0.132
REMARK UNBOUND:                -0.100
REMARK SMILES CC(=O)[C@H]1CC[C@H]2[C@@H]3CC=C4C[C@H](O)CC[C@@]4(C)[C@H]3CC[C@]12C
REMARK SMILES IDX 4 1 5 2 6 3 7 4 22 5 21 6 20 7 19 8 8 9 9 10 10 11 11 12
REMARK SMILES IDX 17 13 16 14 15 15 13 16 12 17 18 18 23 19 2 20 1 21 3 22
REMARK SMILES IDX 14 23
REMARK H PARENT 14 24
REMARK Flexibility Score: inf
ROOT
ATOM      1  C   UNL     1       2.877  28.246  68.462  1.00  0.00     0.062 C 
ATOM      2  C   UNL     1       4.150  27.385  68.236  1.00  0.00     0.012 C 
ATOM      3  C   UNL     1       3.964  26.677  66.883  1.00  0.00     0.005 C 
ATOM      4  C   UNL     1       2.683  27.278  66.316  1.00  0.00    -0.001 C 
ATOM      5  C   UNL     1       1.818  27.588  67.544  1.00  0.00    -0.020 C 
ATOM      6  C   UNL     1       0.678  28.527  67.083  1.00  0.00     0.008 C 
ATOM      7  C   UNL     1      -0.160  27.874  65.959  1.00  0.00     0.005 C 
ATOM      8  C   UNL     1       0.701  27.365  64.755  1.00  0.00     0.003 C 
ATOM      9  C   UNL     1       1.923  26.513  65.212  1.00  0.00     0.000 C 
ATOM     10  C   UNL     1       2.835  26.294  63.998  1.00  0.00     0.031 C 
ATOM     11  C   UNL     1       2.085  25.639  62.882  1.00  0.00    -0.027 C 
ATOM     12  C   UNL     1       0.767  25.837  62.657  1.00  0.00    -0.065 C 
ATOM     13  C   UNL     1      -0.134  26.643  63.615  1.00  0.00    -0.008 C 
ATOM     14  C   UNL     1      -1.175  25.642  64.209  1.00  0.00     0.014 C 
ATOM     15  C   UNL     1      -1.875  24.759  63.156  1.00  0.00     0.033 C 
ATOM     16  C   UNL     1      -0.872  24.014  62.262  1.00  0.00     0.118 C 
ATOM     17  C   UNL     1       0.091  24.999  61.590  1.00  0.00     0.063 C 
ATOM     18  C   UNL     1      -0.871  27.736  62.799  1.00  0.00     0.016 C 
ATOM     19  C   UNL     1       1.231  26.313  68.234  1.00  0.00     0.012 C 
ENDROOT
BRANCH   1  20
ATOM     20  C   UNL     1       2.449  28.435  69.912  1.00  0.00     0.133 C 
ATOM     21  C   UNL     1       1.462  29.487  70.339  1.00  0.00     0.088 C 
ATOM     22  O   UNL     1       2.917  27.697  70.764  1.00  0.00    -0.300 OA
ENDBRANCH   1  20
BRANCH  16  23
ATOM     23  O   UNL     1      -1.575  23.294  61.282  1.00  0.00    -0.393 OA
ATOM     24  H   UNL     1      -2.109  22.606  61.757  1.00  0.00     0.210 HD
ENDBRANCH  16  23
TORSDOF 2
ENDMDL
MODEL 8
REMARK VINA RESULT:    -5.845      7.828     10.594
REMARK INTER + INTRA:          -6.458
REMARK INTER:                  -6.300
REMARK INTRA:                  -0.159
REMARK UNBOUND:                -0.100
REMARK SMILES CC(=O)[C@H]1CC[C@H]2[C@@H]3CC=C4C[C@H](O)CC[C@@]4(C)[C@H]3CC[C@]12C
REMARK SMILES IDX 4 1 5 2 6 3 7 4 22 5 21 6 20 7 19 8 8 9 9 10 10 11 11 12
REMARK SMILES IDX 17 13 16 14 15 15 13 16 12 17 18 18 23 19 2 20 1 21 3 22
REMARK SMILES IDX 14 23
REMARK H PARENT 14 24
REMARK Flexibility Score: inf
ROOT
ATOM      1  C   UNL     1       1.482  29.312  69.761  1.00  0.00     0.062 C 
ATOM      2  C   UNL     1       2.324  28.458  70.747  1.00  0.00     0.012 C 
ATOM      3  C   UNL     1       3.253  27.584  69.887  1.00  0.00     0.005 C 
ATOM      4  C   UNL     1       3.027  28.082  68.464  1.00  0.00    -0.001 C 
ATOM      5  C   UNL     1       1.558  28.522  68.430  1.00  0.00    -0.020 C 
ATOM      6  C   UNL     1       1.357  29.371  67.153  1.00  0.00     0.008 C 
ATOM      7  C   UNL     1       1.728  28.566  65.886  1.00  0.00     0.005 C 
ATOM      8  C   UNL     1       3.158  27.931  65.947  1.00  0.00     0.003 C 
ATOM      9  C   UNL     1       3.417  27.170  67.282  1.00  0.00     0.000 C 
ATOM     10  C   UNL     1       4.909  26.823  67.354  1.00  0.00     0.031 C 
ATOM     11  C   UNL     1       5.325  26.018  66.164  1.00  0.00    -0.027 C 
ATOM     12  C   UNL     1       4.765  26.157  64.941  1.00  0.00    -0.065 C 
ATOM     13  C   UNL     1       3.538  27.055  64.680  1.00  0.00    -0.008 C 
ATOM     14  C   UNL     1       2.367  26.113  64.259  1.00  0.00     0.014 C 
ATOM     15  C   UNL     1       2.739  25.090  63.165  1.00  0.00     0.033 C 
ATOM     16  C   UNL     1       3.979  24.263  63.540  1.00  0.00     0.118 C 
ATOM     17  C   UNL     1       5.167  25.179  63.855  1.00  0.00     0.063 C 
ATOM     18  C   UNL     1       3.872  28.023  63.514  1.00  0.00     0.016 C 
ATOM     19  C   UNL     1       0.546  27.329  68.459  1.00  0.00     0.012 C 
ENDROOT
BRANCH   1  20
ATOM     20  C   UNL     1       0.074  29.670  70.221  1.00  0.00     0.133 C 
ATOM     21  C   UNL     1      -0.602  28.989  71.379  1.00  0.00     0.088 C 
ATOM     22  O   UNL     1      -0.529  30.554  69.634  1.00  0.00    -0.300 OA
ENDBRANCH   1  20
BRANCH  16  23
ATOM     23  O   UNL     1       4.305  23.412  62.472  1.00  0.00    -0.393 OA
ATOM     24  H   UNL     1       4.743  23.973  61.780  1.00  0.00     0.210 HD
ENDBRANCH  16  23
TORSDOF 2
ENDMDL
MODEL 9
REMARK VINA RESULT:    -5.754      2.451      7.128
REMARK INTER + INTRA:          -6.359
REMARK INTER:                  -6.199
REMARK INTRA:                  -0.160
REMARK UNBOUND:                -0.100
REMARK SMILES CC(=O)[C@H]1CC[C@H]2[C@@H]3CC=C4C[C@H](O)CC[C@@]4(C)[C@H]3CC[C@]12C
REMARK SMILES IDX 4 1 5 2 6 3 7 4 22 5 21 6 20 7 19 8 8 9 9 10 10 11 11 12
REMARK SMILES IDX 17 13 16 14 15 15 13 16 12 17 18 18 23 19 2 20 1 21 3 22
REMARK SMILES IDX 14 23
REMARK H PARENT 14 24
REMARK Flexibility Score: inf
ROOT
ATOM      1  C   UNL     1      -4.413  22.746  61.809  1.00  0.00     0.062 C 
ATOM      2  C   UNL     1      -3.143  21.909  62.123  1.00  0.00     0.012 C 
ATOM      3  C   UNL     1      -2.045  22.913  62.516  1.00  0.00     0.005 C 
ATOM      4  C   UNL     1      -2.764  24.256  62.571  1.00  0.00    -0.001 C 
ATOM      5  C   UNL     1      -3.859  24.159  61.501  1.00  0.00    -0.020 C 
ATOM      6  C   UNL     1      -4.853  25.319  61.748  1.00  0.00     0.008 C 
ATOM      7  C   UNL     1      -4.134  26.687  61.690  1.00  0.00     0.005 C 
ATOM      8  C   UNL     1      -2.886  26.777  62.630  1.00  0.00     0.003 C 
ATOM      9  C   UNL     1      -1.933  25.553  62.477  1.00  0.00     0.000 C 
ATOM     10  C   UNL     1      -0.903  25.603  63.611  1.00  0.00     0.031 C 
ATOM     11  C   UNL     1      -0.154  26.897  63.592  1.00  0.00    -0.027 C 
ATOM     12  C   UNL     1      -0.698  28.064  63.179  1.00  0.00    -0.065 C 
ATOM     13  C   UNL     1      -2.102  28.154  62.546  1.00  0.00    -0.008 C 
ATOM     14  C   UNL     1      -1.904  28.614  61.067  1.00  0.00     0.014 C 
ATOM     15  C   UNL     1      -0.976  29.835  60.904  1.00  0.00     0.033 C 
ATOM     16  C   UNL     1       0.387  29.625  61.581  1.00  0.00     0.118 C 
ATOM     17  C   UNL     1       0.207  29.273  63.063  1.00  0.00     0.063 C 
ATOM     18  C   UNL     1      -2.926  29.219  63.316  1.00  0.00     0.016 C 
ATOM     19  C   UNL     1      -3.311  24.210  60.037  1.00  0.00     0.012 C 
ENDROOT
BRANCH   1  20
ATOM     20  C   UNL     1      -5.345  22.171  60.750  1.00  0.00     0.133 C 
ATOM     21  C   UNL     1      -4.967  21.008  59.875  1.00  0.00     0.088 C 
ATOM     22  O   UNL     1      -6.452  22.666  60.611  1.00  0.00    -0.300 OA
ENDBRANCH   1  20
BRANCH  16  23
ATOM     23  O   UNL     1       1.147  30.799  61.461  1.00  0.00    -0.393 OA
ATOM     24  H   UNL     1       1.129  31.057  60.503  1.00  0.00     0.210 HD
ENDBRANCH  16  23
TORSDOF 2
ENDMDL
