MODEL 1
REMARK VINA RESULT:    -5.416      0.000      0.000
REMARK INTER + INTRA:         -17.186
REMARK INTER:                 -13.649
REMARK INTRA:                  -3.538
REMARK UNBOUND:                -3.538
REMARK SMILES CCCCCCCCCCCCCCCCCCCCCCCCCCCC(=O)[O-]
REMARK SMILES IDX 15 1 16 2 17 3 18 4 19 5 20 6 21 7 22 8 23 9 24 10 25 11
REMARK SMILES IDX 26 12 27 13 28 14 29 15 30 16 14 17 13 18 12 19 11 20 10 21
REMARK SMILES IDX 9 22 8 23 7 24 6 25 5 26 4 27 3 28 2 29 1 30
REMARK H PARENT
REMARK Flexibility Score: inf
ROOT
ATOM      1  C   UNL     1      18.552  54.865  17.726  1.00  0.00     0.000 C 
ENDROOT
BRANCH   1   2
ATOM      2  C   UNL     1      18.867  56.355  17.507  1.00  0.00     0.000 C 
BRANCH   2   3
ATOM      3  C   UNL     1      20.376  56.651  17.597  1.00  0.00     0.000 C 
BRANCH   3   4
ATOM      4  C   UNL     1      20.986  56.993  16.227  1.00  0.00     0.000 C 
BRANCH   4   5
ATOM      5  C   UNL     1      22.096  56.002  15.835  1.00  0.00     0.000 C 
BRANCH   5   6
ATOM      6  C   UNL     1      23.328  56.097  16.745  1.00  0.00     0.000 C 
BRANCH   6   7
ATOM      7  C   UNL     1      24.558  56.668  16.017  1.00  0.00     0.000 C 
BRANCH   7   8
ATOM      8  C   UNL     1      25.850  55.901  16.349  1.00  0.00     0.000 C 
BRANCH   8   9
ATOM      9  C   UNL     1      25.593  54.409  16.626  1.00  0.00     0.000 C 
BRANCH   9  10
ATOM     10  C   UNL     1      26.303  53.904  17.897  1.00  0.00     0.000 C 
BRANCH  10  11
ATOM     11  C   UNL     1      26.769  55.006  18.872  1.00  0.00     0.000 C 
BRANCH  11  12
ATOM     12  C   UNL     1      28.284  55.036  19.156  1.00  0.00     0.006 C 
BRANCH  12  13
ATOM     13  C   UNL     1      28.724  56.115  20.158  1.00  0.00     0.053 C 
BRANCH  13  14
ATOM     14  C   UNL     1      29.582  57.162  19.517  1.00  0.00     0.041 C 
ATOM     15  O   UNL     1      29.601  57.289  18.264  1.00  0.00    -0.550 OA
ATOM     16  O   UNL     1      30.356  58.003  20.305  1.00  0.00    -0.550 OA
ENDBRANCH  13  14
ENDBRANCH  12  13
ENDBRANCH  11  12
ENDBRANCH  10  11
ENDBRANCH   9  10
ENDBRANCH   8   9
ENDBRANCH   7   8
ENDBRANCH   6   7
ENDBRANCH   5   6
ENDBRANCH   4   5
ENDBRANCH   3   4
ENDBRANCH   2   3
ENDBRANCH   1   2
BRANCH   1  17
ATOM     17  C   UNL     1      19.734  54.116  18.368  1.00  0.00     0.000 C 
BRANCH  17  18
ATOM     18  C   UNL     1      20.044  52.788  17.663  1.00  0.00     0.000 C 
BRANCH  18  19
ATOM     19  C   UNL     1      20.575  52.986  16.231  1.00  0.00     0.000 C 
BRANCH  19  20
ATOM     20  C   UNL     1      19.463  52.904  15.168  1.00  0.00     0.000 C 
BRANCH  20  21
ATOM     21  C   UNL     1      19.692  53.793  13.931  1.00  0.00     0.000 C 
BRANCH  21  22
ATOM     22  C   UNL     1      18.807  55.053  13.930  1.00  0.00    -0.000 C 
BRANCH  22  23
ATOM     23  C   UNL     1      17.732  55.016  12.821  1.00  0.00    -0.000 C 
BRANCH  23  24
ATOM     24  C   UNL     1      16.298  54.820  13.350  1.00  0.00    -0.000 C 
BRANCH  24  25
ATOM     25  C   UNL     1      16.169  54.755  14.882  1.00  0.00    -0.000 C 
BRANCH  25  26
ATOM     26  C   UNL     1      14.912  55.431  15.460  1.00  0.00    -0.000 C 
BRANCH  26  27
ATOM     27  C   UNL     1      15.039  55.760  16.958  1.00  0.00    -0.000 C 
BRANCH  27  28
ATOM     28  C   UNL     1      14.108  54.897  17.826  1.00  0.00    -0.000 C 
BRANCH  28  29
ATOM     29  C   UNL     1      14.714  53.525  18.152  1.00  0.00    -0.003 C 
ATOM     30  C   UNL     1      15.649  53.605  19.354  1.00  0.00     0.004 C 
ENDBRANCH  28  29
ENDBRANCH  27  28
ENDBRANCH  26  27
ENDBRANCH  25  26
ENDBRANCH  24  25
ENDBRANCH  23  24
ENDBRANCH  22  23
ENDBRANCH  21  22
ENDBRANCH  20  21
ENDBRANCH  19  20
ENDBRANCH  18  19
ENDBRANCH  17  18
ENDBRANCH   1  17
TORSDOF 26
ENDMDL
MODEL 2
REMARK VINA RESULT:    -5.253      3.923     10.013
REMARK INTER + INTRA:         -16.776
REMARK INTER:                 -12.933
REMARK INTRA:                  -3.843
REMARK UNBOUND:                -3.538
REMARK SMILES CCCCCCCCCCCCCCCCCCCCCCCCCCCC(=O)[O-]
REMARK SMILES IDX 15 1 16 2 17 3 18 4 19 5 20 6 21 7 22 8 23 9 24 10 25 11
REMARK SMILES IDX 26 12 27 13 28 14 29 15 30 16 14 17 13 18 12 19 11 20 10 21
REMARK SMILES IDX 9 22 8 23 7 24 6 25 5 26 4 27 3 28 2 29 1 30
REMARK H PARENT
REMARK Flexibility Score: inf
ROOT
ATOM      1  C   UNL     1      19.162  56.636  15.179  1.00  0.00     0.000 C 
ENDROOT
BRANCH   1   2
ATOM      2  C   UNL     1      18.304  55.443  14.724  1.00  0.00     0.000 C 
BRANCH   2   3
ATOM      3  C   UNL     1      19.126  54.395  13.950  1.00  0.00     0.000 C 
BRANCH   3   4
ATOM      4  C   UNL     1      19.798  53.375  14.884  1.00  0.00     0.000 C 
BRANCH   4   5
ATOM      5  C   UNL     1      18.761  52.566  15.684  1.00  0.00     0.000 C 
BRANCH   5   6
ATOM      6  C   UNL     1      19.328  52.005  16.996  1.00  0.00     0.000 C 
BRANCH   6   7
ATOM      7  C   UNL     1      20.259  53.001  17.710  1.00  0.00     0.000 C 
BRANCH   7   8
ATOM      8  C   UNL     1      19.551  53.762  18.844  1.00  0.00     0.000 C 
BRANCH   8   9
ATOM      9  C   UNL     1      18.521  52.889  19.584  1.00  0.00     0.000 C 
BRANCH   9  10
ATOM     10  C   UNL     1      17.115  53.517  19.614  1.00  0.00     0.000 C 
BRANCH  10  11
ATOM     11  C   UNL     1      16.793  54.465  18.439  1.00  0.00     0.000 C 
BRANCH  11  12
ATOM     12  C   UNL     1      16.348  55.886  18.843  1.00  0.00     0.006 C 
BRANCH  12  13
ATOM     13  C   UNL     1      15.087  56.387  18.122  1.00  0.00     0.053 C 
BRANCH  13  14
ATOM     14  C   UNL     1      15.317  56.582  16.655  1.00  0.00     0.041 C 
ATOM     15  O   UNL     1      14.926  55.715  15.830  1.00  0.00    -0.550 OA
ATOM     16  O   UNL     1      15.960  57.726  16.199  1.00  0.00    -0.550 OA
ENDBRANCH  13  14
ENDBRANCH  12  13
ENDBRANCH  11  12
ENDBRANCH  10  11
ENDBRANCH   9  10
ENDBRANCH   8   9
ENDBRANCH   7   8
ENDBRANCH   6   7
ENDBRANCH   5   6
ENDBRANCH   4   5
ENDBRANCH   3   4
ENDBRANCH   2   3
ENDBRANCH   1   2
BRANCH   1  17
ATOM     17  C   UNL     1      19.310  56.686  16.710  1.00  0.00     0.000 C 
BRANCH  17  18
ATOM     18  C   UNL     1      20.777  56.739  17.159  1.00  0.00     0.000 C 
BRANCH  18  19
ATOM     19  C   UNL     1      21.754  56.320  16.044  1.00  0.00     0.000 C 
BRANCH  19  20
ATOM     20  C   UNL     1      22.935  55.483  16.572  1.00  0.00     0.000 C 
BRANCH  20  21
ATOM     21  C   UNL     1      24.255  56.263  16.728  1.00  0.00     0.000 C 
BRANCH  21  22
ATOM     22  C   UNL     1      25.472  55.487  16.195  1.00  0.00    -0.000 C 
BRANCH  22  23
ATOM     23  C   UNL     1      25.718  54.173  16.972  1.00  0.00    -0.000 C 
BRANCH  23  24
ATOM     24  C   UNL     1      26.849  54.269  18.015  1.00  0.00    -0.000 C 
BRANCH  24  25
ATOM     25  C   UNL     1      26.593  55.255  19.168  1.00  0.00    -0.000 C 
BRANCH  25  26
ATOM     26  C   UNL     1      27.193  54.842  20.525  1.00  0.00    -0.000 C 
BRANCH  26  27
ATOM     27  C   UNL     1      28.381  55.720  20.952  1.00  0.00    -0.000 C 
BRANCH  27  28
ATOM     28  C   UNL     1      29.657  55.403  20.154  1.00  0.00    -0.000 C 
BRANCH  28  29
ATOM     29  C   UNL     1      30.342  56.668  19.615  1.00  0.00    -0.003 C 
ATOM     30  C   UNL     1      29.635  57.191  18.368  1.00  0.00     0.004 C 
ENDBRANCH  28  29
ENDBRANCH  27  28
ENDBRANCH  26  27
ENDBRANCH  25  26
ENDBRANCH  24  25
ENDBRANCH  23  24
ENDBRANCH  22  23
ENDBRANCH  21  22
ENDBRANCH  20  21
ENDBRANCH  19  20
ENDBRANCH  18  19
ENDBRANCH  17  18
ENDBRANCH   1  17
TORSDOF 26
ENDMDL
MODEL 3
REMARK VINA RESULT:    -5.084      1.316      3.785
REMARK INTER + INTRA:         -16.350
REMARK INTER:                 -12.413
REMARK INTRA:                  -3.938
REMARK UNBOUND:                -3.538
REMARK SMILES CCCCCCCCCCCCCCCCCCCCCCCCCCCC(=O)[O-]
REMARK SMILES IDX 15 1 16 2 17 3 18 4 19 5 20 6 21 7 22 8 23 9 24 10 25 11
REMARK SMILES IDX 26 12 27 13 28 14 29 15 30 16 14 17 13 18 12 19 11 20 10 21
REMARK SMILES IDX 9 22 8 23 7 24 6 25 5 26 4 27 3 28 2 29 1 30
REMARK H PARENT
REMARK Flexibility Score: inf
ROOT
ATOM      1  C   UNL     1      18.395  52.660  16.679  1.00  0.00     0.000 C 
ENDROOT
BRANCH   1   2
ATOM      2  C   UNL     1      19.875  52.469  17.056  1.00  0.00     0.000 C 
BRANCH   2   3
ATOM      3  C   UNL     1      20.604  53.812  17.256  1.00  0.00     0.000 C 
BRANCH   3   4
ATOM      4  C   UNL     1      21.752  54.008  16.252  1.00  0.00     0.000 C 
BRANCH   4   5
ATOM      5  C   UNL     1      22.056  55.498  16.018  1.00  0.00     0.000 C 
BRANCH   5   6
ATOM      6  C   UNL     1      23.256  55.996  16.838  1.00  0.00     0.000 C 
BRANCH   6   7
ATOM      7  C   UNL     1      24.350  56.627  15.958  1.00  0.00     0.000 C 
BRANCH   7   8
ATOM      8  C   UNL     1      25.741  56.027  16.224  1.00  0.00     0.000 C 
BRANCH   8   9
ATOM      9  C   UNL     1      25.671  54.550  16.653  1.00  0.00     0.000 C 
BRANCH   9  10
ATOM     10  C   UNL     1      26.671  54.203  17.773  1.00  0.00     0.000 C 
BRANCH  10  11
ATOM     11  C   UNL     1      26.660  55.161  18.984  1.00  0.00     0.000 C 
BRANCH  11  12
ATOM     12  C   UNL     1      28.025  55.782  19.343  1.00  0.00     0.006 C 
BRANCH  12  13
ATOM     13  C   UNL     1      28.844  56.265  18.136  1.00  0.00     0.053 C 
BRANCH  13  14
ATOM     14  C   UNL     1      29.971  57.163  18.544  1.00  0.00     0.041 C 
ATOM     15  O   UNL     1      29.736  58.325  18.968  1.00  0.00    -0.550 OA
ATOM     16  O   UNL     1      31.282  56.714  18.459  1.00  0.00    -0.550 OA
ENDBRANCH  13  14
ENDBRANCH  12  13
ENDBRANCH  11  12
ENDBRANCH  10  11
ENDBRANCH   9  10
ENDBRANCH   8   9
ENDBRANCH   7   8
ENDBRANCH   6   7
ENDBRANCH   5   6
ENDBRANCH   4   5
ENDBRANCH   3   4
ENDBRANCH   2   3
ENDBRANCH   1   2
BRANCH   1  17
ATOM     17  C   UNL     1      17.457  51.884  17.622  1.00  0.00     0.000 C 
BRANCH  17  18
ATOM     18  C   UNL     1      15.975  52.169  17.344  1.00  0.00     0.000 C 
BRANCH  18  19
ATOM     19  C   UNL     1      15.765  53.082  16.121  1.00  0.00     0.000 C 
BRANCH  19  20
ATOM     20  C   UNL     1      14.530  53.992  16.263  1.00  0.00     0.000 C 
BRANCH  20  21
ATOM     21  C   UNL     1      14.836  55.413  16.775  1.00  0.00     0.000 C 
BRANCH  21  22
ATOM     22  C   UNL     1      14.741  55.528  18.307  1.00  0.00    -0.000 C 
BRANCH  22  23
ATOM     23  C   UNL     1      16.059  56.024  18.943  1.00  0.00    -0.000 C 
BRANCH  23  24
ATOM     24  C   UNL     1      17.311  55.719  18.097  1.00  0.00    -0.000 C 
BRANCH  24  25
ATOM     25  C   UNL     1      18.007  56.952  17.491  1.00  0.00    -0.000 C 
BRANCH  25  26
ATOM     26  C   UNL     1      18.791  56.686  16.193  1.00  0.00    -0.000 C 
BRANCH  26  27
ATOM     27  C   UNL     1      17.933  56.041  15.092  1.00  0.00    -0.000 C 
BRANCH  27  28
ATOM     28  C   UNL     1      18.780  55.253  14.079  1.00  0.00    -0.000 C 
BRANCH  28  29
ATOM     29  C   UNL     1      17.981  54.853  12.830  1.00  0.00    -0.003 C 
ATOM     30  C   UNL     1      16.480  54.875  13.103  1.00  0.00     0.004 C 
ENDBRANCH  28  29
ENDBRANCH  27  28
ENDBRANCH  26  27
ENDBRANCH  25  26
ENDBRANCH  24  25
ENDBRANCH  23  24
ENDBRANCH  22  23
ENDBRANCH  21  22
ENDBRANCH  20  21
ENDBRANCH  19  20
ENDBRANCH  18  19
ENDBRANCH  17  18
ENDBRANCH   1  17
TORSDOF 26
ENDMDL
MODEL 4
REMARK VINA RESULT:    -5.018     12.203     15.018
REMARK INTER + INTRA:         -16.182
REMARK INTER:                 -10.803
REMARK INTRA:                  -5.379
REMARK UNBOUND:                -3.538
REMARK SMILES CCCCCCCCCCCCCCCCCCCCCCCCCCCC(=O)[O-]
REMARK SMILES IDX 15 1 16 2 17 3 18 4 19 5 20 6 21 7 22 8 23 9 24 10 25 11
REMARK SMILES IDX 26 12 27 13 28 14 29 15 30 16 14 17 13 18 12 19 11 20 10 21
REMARK SMILES IDX 9 22 8 23 7 24 6 25 5 26 4 27 3 28 2 29 1 30
REMARK H PARENT
REMARK Flexibility Score: inf
ROOT
ATOM      1  C   UNL     1      27.421  60.686   8.249  1.00  0.00     0.000 C 
ENDROOT
BRANCH   1   2
ATOM      2  C   UNL     1      27.082  61.973   9.023  1.00  0.00     0.000 C 
BRANCH   2   3
ATOM      3  C   UNL     1      28.028  62.202  10.217  1.00  0.00     0.000 C 
BRANCH   3   4
ATOM      4  C   UNL     1      28.442  60.885  10.894  1.00  0.00     0.000 C 
BRANCH   4   5
ATOM      5  C   UNL     1      29.962  60.816  11.127  1.00  0.00     0.000 C 
BRANCH   5   6
ATOM      6  C   UNL     1      30.772  61.282   9.909  1.00  0.00     0.000 C 
BRANCH   6   7
ATOM      7  C   UNL     1      31.951  62.192  10.298  1.00  0.00     0.000 C 
BRANCH   7   8
ATOM      8  C   UNL     1      31.839  62.722  11.738  1.00  0.00     0.000 C 
BRANCH   8   9
ATOM      9  C   UNL     1      31.586  64.240  11.787  1.00  0.00     0.000 C 
BRANCH   9  10
ATOM     10  C   UNL     1      30.786  64.753  10.574  1.00  0.00     0.000 C 
BRANCH  10  11
ATOM     11  C   UNL     1      31.286  66.085   9.973  1.00  0.00     0.000 C 
BRANCH  11  12
ATOM     12  C   UNL     1      30.931  67.347  10.786  1.00  0.00     0.006 C 
BRANCH  12  13
ATOM     13  C   UNL     1      29.450  67.751  10.721  1.00  0.00     0.053 C 
BRANCH  13  14
ATOM     14  C   UNL     1      29.181  68.726   9.616  1.00  0.00     0.041 C 
ATOM     15  O   UNL     1      28.067  68.730   9.029  1.00  0.00    -0.550 OA
ATOM     16  O   UNL     1      30.159  69.636   9.239  1.00  0.00    -0.550 OA
ENDBRANCH  13  14
ENDBRANCH  12  13
ENDBRANCH  11  12
ENDBRANCH  10  11
ENDBRANCH   9  10
ENDBRANCH   8   9
ENDBRANCH   7   8
ENDBRANCH   6   7
ENDBRANCH   5   6
ENDBRANCH   4   5
ENDBRANCH   3   4
ENDBRANCH   2   3
ENDBRANCH   1   2
BRANCH   1  17
ATOM     17  C   UNL     1      27.069  60.804   6.755  1.00  0.00     0.000 C 
BRANCH  17  18
ATOM     18  C   UNL     1      27.639  62.077   6.114  1.00  0.00     0.000 C 
BRANCH  18  19
ATOM     19  C   UNL     1      28.953  61.819   5.353  1.00  0.00     0.000 C 
BRANCH  19  20
ATOM     20  C   UNL     1      30.200  62.182   6.181  1.00  0.00     0.000 C 
BRANCH  20  21
ATOM     21  C   UNL     1      29.990  63.329   7.189  1.00  0.00     0.000 C 
BRANCH  21  22
ATOM     22  C   UNL     1      30.359  64.706   6.611  1.00  0.00    -0.000 C 
BRANCH  22  23
ATOM     23  C   UNL     1      29.294  65.780   6.925  1.00  0.00    -0.000 C 
BRANCH  23  24
ATOM     24  C   UNL     1      28.231  65.325   7.944  1.00  0.00    -0.000 C 
BRANCH  24  25
ATOM     25  C   UNL     1      26.794  65.784   7.639  1.00  0.00    -0.000 C 
BRANCH  25  26
ATOM     26  C   UNL     1      26.387  65.712   6.156  1.00  0.00    -0.000 C 
BRANCH  26  27
ATOM     27  C   UNL     1      25.099  64.904   5.923  1.00  0.00    -0.000 C 
BRANCH  27  28
ATOM     28  C   UNL     1      24.746  64.010   7.124  1.00  0.00    -0.000 C 
BRANCH  28  29
ATOM     29  C   UNL     1      23.236  63.965   7.398  1.00  0.00    -0.003 C 
ATOM     30  C   UNL     1      22.615  62.677   6.866  1.00  0.00     0.004 C 
ENDBRANCH  28  29
ENDBRANCH  27  28
ENDBRANCH  26  27
ENDBRANCH  25  26
ENDBRANCH  24  25
ENDBRANCH  23  24
ENDBRANCH  22  23
ENDBRANCH  21  22
ENDBRANCH  20  21
ENDBRANCH  19  20
ENDBRANCH  18  19
ENDBRANCH  17  18
ENDBRANCH   1  17
TORSDOF 26
ENDMDL
MODEL 5
REMARK VINA RESULT:    -5.014     12.594     15.528
REMARK INTER + INTRA:         -16.174
REMARK INTER:                 -10.682
REMARK INTRA:                  -5.492
REMARK UNBOUND:                -3.538
REMARK SMILES CCCCCCCCCCCCCCCCCCCCCCCCCCCC(=O)[O-]
REMARK SMILES IDX 15 1 16 2 17 3 18 4 19 5 20 6 21 7 22 8 23 9 24 10 25 11
REMARK SMILES IDX 26 12 27 13 28 14 29 15 30 16 14 17 13 18 12 19 11 20 10 21
REMARK SMILES IDX 9 22 8 23 7 24 6 25 5 26 4 27 3 28 2 29 1 30
REMARK H PARENT
REMARK Flexibility Score: inf
ROOT
ATOM      1  C   UNL     1      27.220  62.244   9.562  1.00  0.00     0.000 C 
ENDROOT
BRANCH   1   2
ATOM      2  C   UNL     1      28.326  63.313   9.591  1.00  0.00     0.000 C 
BRANCH   2   3
ATOM      3  C   UNL     1      29.688  62.732  10.016  1.00  0.00     0.000 C 
BRANCH   3   4
ATOM      4  C   UNL     1      30.865  63.430   9.314  1.00  0.00     0.000 C 
BRANCH   4   5
ATOM      5  C   UNL     1      30.382  64.390   8.212  1.00  0.00     0.000 C 
BRANCH   5   6
ATOM      6  C   UNL     1      31.336  65.573   7.994  1.00  0.00     0.000 C 
BRANCH   6   7
ATOM      7  C   UNL     1      30.875  66.501   6.855  1.00  0.00     0.000 C 
BRANCH   7   8
ATOM      8  C   UNL     1      30.527  67.915   7.350  1.00  0.00     0.000 C 
BRANCH   8   9
ATOM      9  C   UNL     1      29.020  68.217   7.250  1.00  0.00     0.000 C 
BRANCH   9  10
ATOM     10  C   UNL     1      28.388  68.567   8.611  1.00  0.00     0.000 C 
BRANCH  10  11
ATOM     11  C   UNL     1      27.844  67.364   9.411  1.00  0.00     0.000 C 
BRANCH  11  12
ATOM     12  C   UNL     1      28.772  66.842  10.527  1.00  0.00     0.006 C 
BRANCH  12  13
ATOM     13  C   UNL     1      29.752  67.888  11.081  1.00  0.00     0.053 C 
BRANCH  13  14
ATOM     14  C   UNL     1      29.824  67.855  12.577  1.00  0.00     0.041 C 
ATOM     15  O   UNL     1      30.651  67.103  13.156  1.00  0.00    -0.550 OA
ATOM     16  O   UNL     1      28.980  68.659  13.331  1.00  0.00    -0.550 OA
ENDBRANCH  13  14
ENDBRANCH  12  13
ENDBRANCH  11  12
ENDBRANCH  10  11
ENDBRANCH   9  10
ENDBRANCH   8   9
ENDBRANCH   7   8
ENDBRANCH   6   7
ENDBRANCH   5   6
ENDBRANCH   4   5
ENDBRANCH   3   4
ENDBRANCH   2   3
ENDBRANCH   1   2
BRANCH   1  17
ATOM     17  C   UNL     1      27.625  61.021   8.719  1.00  0.00     0.000 C 
BRANCH  17  18
ATOM     18  C   UNL     1      26.631  60.732   7.585  1.00  0.00     0.000 C 
BRANCH  18  19
ATOM     19  C   UNL     1      27.266  60.877   6.189  1.00  0.00     0.000 C 
BRANCH  19  20
ATOM     20  C   UNL     1      28.623  61.606   6.227  1.00  0.00     0.000 C 
BRANCH  20  21
ATOM     21  C   UNL     1      29.158  62.038   4.848  1.00  0.00     0.000 C 
BRANCH  21  22
ATOM     22  C   UNL     1      28.050  62.143   3.785  1.00  0.00    -0.000 C 
BRANCH  22  23
ATOM     23  C   UNL     1      27.715  63.609   3.428  1.00  0.00    -0.000 C 
BRANCH  23  24
ATOM     24  C   UNL     1      28.533  64.646   4.223  1.00  0.00    -0.000 C 
BRANCH  24  25
ATOM     25  C   UNL     1      27.711  65.548   5.160  1.00  0.00    -0.000 C 
BRANCH  25  26
ATOM     26  C   UNL     1      27.404  64.944   6.543  1.00  0.00    -0.000 C 
BRANCH  26  27
ATOM     27  C   UNL     1      25.944  65.154   6.982  1.00  0.00    -0.000 C 
BRANCH  27  28
ATOM     28  C   UNL     1      25.117  63.861   6.894  1.00  0.00    -0.000 C 
BRANCH  28  29
ATOM     29  C   UNL     1      23.659  64.122   6.490  1.00  0.00    -0.003 C 
ATOM     30  C   UNL     1      22.754  62.967   6.906  1.00  0.00     0.004 C 
ENDBRANCH  28  29
ENDBRANCH  27  28
ENDBRANCH  26  27
ENDBRANCH  25  26
ENDBRANCH  24  25
ENDBRANCH  23  24
ENDBRANCH  22  23
ENDBRANCH  21  22
ENDBRANCH  20  21
ENDBRANCH  19  20
ENDBRANCH  18  19
ENDBRANCH  17  18
ENDBRANCH   1  17
TORSDOF 26
ENDMDL
MODEL 6
REMARK VINA RESULT:    -5.006     12.491     16.542
REMARK INTER + INTRA:         -16.153
REMARK INTER:                 -11.700
REMARK INTRA:                  -4.453
REMARK UNBOUND:                -3.538
REMARK SMILES CCCCCCCCCCCCCCCCCCCCCCCCCCCC(=O)[O-]
REMARK SMILES IDX 15 1 16 2 17 3 18 4 19 5 20 6 21 7 22 8 23 9 24 10 25 11
REMARK SMILES IDX 26 12 27 13 28 14 29 15 30 16 14 17 13 18 12 19 11 20 10 21
REMARK SMILES IDX 9 22 8 23 7 24 6 25 5 26 4 27 3 28 2 29 1 30
REMARK H PARENT
REMARK Flexibility Score: inf
ROOT
ATOM      1  C   UNL     1      27.430  60.621   8.750  1.00  0.00     0.000 C 
ENDROOT
BRANCH   1   2
ATOM      2  C   UNL     1      27.386  62.159   8.731  1.00  0.00     0.000 C 
BRANCH   2   3
ATOM      3  C   UNL     1      27.955  62.742   7.423  1.00  0.00     0.000 C 
BRANCH   3   4
ATOM      4  C   UNL     1      29.037  61.843   6.805  1.00  0.00     0.000 C 
BRANCH   4   5
ATOM      5  C   UNL     1      29.162  62.062   5.286  1.00  0.00     0.000 C 
BRANCH   5   6
ATOM      6  C   UNL     1      27.835  62.475   4.634  1.00  0.00     0.000 C 
BRANCH   6   7
ATOM      7  C   UNL     1      27.936  63.818   3.889  1.00  0.00     0.000 C 
BRANCH   7   8
ATOM      8  C   UNL     1      29.036  64.729   4.461  1.00  0.00     0.000 C 
BRANCH   8   9
ATOM      9  C   UNL     1      28.469  65.830   5.376  1.00  0.00     0.000 C 
BRANCH   9  10
ATOM     10  C   UNL     1      26.957  66.052   5.179  1.00  0.00     0.000 C 
BRANCH  10  11
ATOM     11  C   UNL     1      26.076  65.690   6.394  1.00  0.00     0.000 C 
BRANCH  11  12
ATOM     12  C   UNL     1      24.954  64.670   6.111  1.00  0.00     0.006 C 
BRANCH  12  13
ATOM     13  C   UNL     1      24.434  63.934   7.356  1.00  0.00     0.053 C 
BRANCH  13  14
ATOM     14  C   UNL     1      22.966  63.648   7.267  1.00  0.00     0.041 C 
ATOM     15  O   UNL     1      22.126  64.541   7.554  1.00  0.00    -0.550 OA
ATOM     16  O   UNL     1      22.526  62.395   6.862  1.00  0.00    -0.550 OA
ENDBRANCH  13  14
ENDBRANCH  12  13
ENDBRANCH  11  12
ENDBRANCH  10  11
ENDBRANCH   9  10
ENDBRANCH   8   9
ENDBRANCH   7   8
ENDBRANCH   6   7
ENDBRANCH   5   6
ENDBRANCH   4   5
ENDBRANCH   3   4
ENDBRANCH   2   3
ENDBRANCH   1   2
BRANCH   1  17
ATOM     17  C   UNL     1      27.788  60.073  10.143  1.00  0.00     0.000 C 
BRANCH  17  18
ATOM     18  C   UNL     1      28.640  61.054  10.961  1.00  0.00     0.000 C 
BRANCH  18  19
ATOM     19  C   UNL     1      29.979  60.442  11.413  1.00  0.00     0.000 C 
BRANCH  19  20
ATOM     20  C   UNL     1      31.194  61.114  10.745  1.00  0.00     0.000 C 
BRANCH  20  21
ATOM     21  C   UNL     1      30.845  62.293   9.817  1.00  0.00     0.000 C 
BRANCH  21  22
ATOM     22  C   UNL     1      30.937  63.656  10.523  1.00  0.00    -0.000 C 
BRANCH  22  23
ATOM     23  C   UNL     1      30.280  64.789   9.703  1.00  0.00    -0.000 C 
BRANCH  23  24
ATOM     24  C   UNL     1      30.269  66.153  10.422  1.00  0.00    -0.000 C 
BRANCH  24  25
ATOM     25  C   UNL     1      28.878  66.788  10.599  1.00  0.00    -0.000 C 
BRANCH  25  26
ATOM     26  C   UNL     1      27.974  66.737   9.353  1.00  0.00    -0.000 C 
BRANCH  26  27
ATOM     27  C   UNL     1      27.958  68.057   8.565  1.00  0.00    -0.000 C 
BRANCH  27  28
ATOM     28  C   UNL     1      29.007  69.057   9.081  1.00  0.00    -0.000 C 
BRANCH  28  29
ATOM     29  C   UNL     1      29.690  69.831   7.945  1.00  0.00    -0.003 C 
ATOM     30  C   UNL     1      30.083  68.902   6.801  1.00  0.00     0.004 C 
ENDBRANCH  28  29
ENDBRANCH  27  28
ENDBRANCH  26  27
ENDBRANCH  25  26
ENDBRANCH  24  25
ENDBRANCH  23  24
ENDBRANCH  22  23
ENDBRANCH  21  22
ENDBRANCH  20  21
ENDBRANCH  19  20
ENDBRANCH  18  19
ENDBRANCH  17  18
ENDBRANCH   1  17
TORSDOF 26
ENDMDL
MODEL 7
REMARK VINA RESULT:    -4.953     12.417     16.367
REMARK INTER + INTRA:         -16.018
REMARK INTER:                 -11.027
REMARK INTRA:                  -4.991
REMARK UNBOUND:                -3.538
REMARK SMILES CCCCCCCCCCCCCCCCCCCCCCCCCCCC(=O)[O-]
REMARK SMILES IDX 15 1 16 2 17 3 18 4 19 5 20 6 21 7 22 8 23 9 24 10 25 11
REMARK SMILES IDX 26 12 27 13 28 14 29 15 30 16 14 17 13 18 12 19 11 20 10 21
REMARK SMILES IDX 9 22 8 23 7 24 6 25 5 26 4 27 3 28 2 29 1 30
REMARK H PARENT
REMARK Flexibility Score: inf
ROOT
ATOM      1  C   UNL     1      31.142  60.707  11.051  1.00  0.00     0.000 C 
ENDROOT
BRANCH   1   2
ATOM      2  C   UNL     1      29.699  60.837  11.570  1.00  0.00     0.000 C 
BRANCH   2   3
ATOM      3  C   UNL     1      28.678  60.169  10.628  1.00  0.00     0.000 C 
BRANCH   3   4
ATOM      4  C   UNL     1      27.744  61.193   9.962  1.00  0.00     0.000 C 
BRANCH   4   5
ATOM      5  C   UNL     1      27.380  60.780   8.524  1.00  0.00     0.000 C 
BRANCH   5   6
ATOM      6  C   UNL     1      27.483  61.943   7.527  1.00  0.00     0.000 C 
BRANCH   6   7
ATOM      7  C   UNL     1      28.648  61.769   6.536  1.00  0.00     0.000 C 
BRANCH   7   8
ATOM      8  C   UNL     1      29.333  63.102   6.189  1.00  0.00     0.000 C 
BRANCH   8   9
ATOM      9  C   UNL     1      28.751  63.748   4.918  1.00  0.00     0.000 C 
BRANCH   9  10
ATOM     10  C   UNL     1      27.705  64.838   5.224  1.00  0.00     0.000 C 
BRANCH  10  11
ATOM     11  C   UNL     1      26.234  64.398   5.071  1.00  0.00     0.000 C 
BRANCH  11  12
ATOM     12  C   UNL     1      25.259  64.990   6.110  1.00  0.00     0.006 C 
BRANCH  12  13
ATOM     13  C   UNL     1      24.576  63.948   7.009  1.00  0.00     0.053 C 
BRANCH  13  14
ATOM     14  C   UNL     1      23.144  63.728   6.628  1.00  0.00     0.041 C 
ATOM     15  O   UNL     1      22.580  62.632   6.886  1.00  0.00    -0.550 OA
ATOM     16  O   UNL     1      22.432  64.735   5.992  1.00  0.00    -0.550 OA
ENDBRANCH  13  14
ENDBRANCH  12  13
ENDBRANCH  11  12
ENDBRANCH  10  11
ENDBRANCH   9  10
ENDBRANCH   8   9
ENDBRANCH   7   8
ENDBRANCH   6   7
ENDBRANCH   5   6
ENDBRANCH   4   5
ENDBRANCH   3   4
ENDBRANCH   2   3
ENDBRANCH   1   2
BRANCH   1  17
ATOM     17  C   UNL     1      31.236  60.982   9.539  1.00  0.00     0.000 C 
BRANCH  17  18
ATOM     18  C   UNL     1      31.938  62.310   9.223  1.00  0.00     0.000 C 
BRANCH  18  19
ATOM     19  C   UNL     1      32.212  63.150  10.484  1.00  0.00     0.000 C 
BRANCH  19  20
ATOM     20  C   UNL     1      31.252  64.347  10.621  1.00  0.00     0.000 C 
BRANCH  20  21
ATOM     21  C   UNL     1      30.301  64.547   9.426  1.00  0.00     0.000 C 
BRANCH  21  22
ATOM     22  C   UNL     1      28.847  64.807   9.857  1.00  0.00    -0.000 C 
BRANCH  22  23
ATOM     23  C   UNL     1      27.998  65.423   8.722  1.00  0.00    -0.000 C 
BRANCH  23  24
ATOM     24  C   UNL     1      28.554  66.754   8.180  1.00  0.00    -0.000 C 
BRANCH  24  25
ATOM     25  C   UNL     1      27.874  68.020   8.733  1.00  0.00    -0.000 C 
BRANCH  25  26
ATOM     26  C   UNL     1      28.720  68.833   9.730  1.00  0.00    -0.000 C 
BRANCH  26  27
ATOM     27  C   UNL     1      30.229  68.566   9.598  1.00  0.00    -0.000 C 
BRANCH  27  28
ATOM     28  C   UNL     1      30.829  67.964  10.881  1.00  0.00    -0.000 C 
BRANCH  28  29
ATOM     29  C   UNL     1      29.891  68.104  12.088  1.00  0.00    -0.003 C 
ATOM     30  C   UNL     1      30.401  67.301  13.281  1.00  0.00     0.004 C 
ENDBRANCH  28  29
ENDBRANCH  27  28
ENDBRANCH  26  27
ENDBRANCH  25  26
ENDBRANCH  24  25
ENDBRANCH  23  24
ENDBRANCH  22  23
ENDBRANCH  21  22
ENDBRANCH  20  21
ENDBRANCH  19  20
ENDBRANCH  18  19
ENDBRANCH  17  18
ENDBRANCH   1  17
TORSDOF 26
ENDMDL
MODEL 8
REMARK VINA RESULT:    -4.949     12.578     16.511
REMARK INTER + INTRA:         -16.008
REMARK INTER:                 -10.915
REMARK INTRA:                  -5.093
REMARK UNBOUND:                -3.538
REMARK SMILES CCCCCCCCCCCCCCCCCCCCCCCCCCCC(=O)[O-]
REMARK SMILES IDX 15 1 16 2 17 3 18 4 19 5 20 6 21 7 22 8 23 9 24 10 25 11
REMARK SMILES IDX 26 12 27 13 28 14 29 15 30 16 14 17 13 18 12 19 11 20 10 21
REMARK SMILES IDX 9 22 8 23 7 24 6 25 5 26 4 27 3 28 2 29 1 30
REMARK H PARENT
REMARK Flexibility Score: inf
ROOT
ATOM      1  C   UNL     1      27.957  61.272   8.731  1.00  0.00     0.000 C 
ENDROOT
BRANCH   1   2
ATOM      2  C   UNL     1      26.992  60.334   7.986  1.00  0.00     0.000 C 
BRANCH   2   3
ATOM      3  C   UNL     1      26.661  60.842   6.569  1.00  0.00     0.000 C 
BRANCH   3   4
ATOM      4  C   UNL     1      27.437  62.121   6.212  1.00  0.00     0.000 C 
BRANCH   4   5
ATOM      5  C   UNL     1      28.109  62.013   4.831  1.00  0.00     0.000 C 
BRANCH   5   6
ATOM      6  C   UNL     1      28.705  63.345   4.354  1.00  0.00     0.000 C 
BRANCH   6   7
ATOM      7  C   UNL     1      28.019  63.876   3.083  1.00  0.00     0.000 C 
BRANCH   7   8
ATOM      8  C   UNL     1      27.897  65.410   3.074  1.00  0.00     0.000 C 
BRANCH   8   9
ATOM      9  C   UNL     1      28.677  66.067   4.227  1.00  0.00     0.000 C 
BRANCH   9  10
ATOM     10  C   UNL     1      27.770  66.860   5.188  1.00  0.00     0.000 C 
BRANCH  10  11
ATOM     11  C   UNL     1      26.284  66.446   5.181  1.00  0.00     0.000 C 
BRANCH  11  12
ATOM     12  C   UNL     1      25.892  65.385   6.230  1.00  0.00     0.006 C 
BRANCH  12  13
ATOM     13  C   UNL     1      24.584  64.639   5.924  1.00  0.00     0.053 C 
BRANCH  13  14
ATOM     14  C   UNL     1      24.148  63.774   7.067  1.00  0.00     0.041 C 
ATOM     15  O   UNL     1      23.196  62.963   6.923  1.00  0.00    -0.550 OA
ATOM     16  O   UNL     1      24.799  63.860   8.290  1.00  0.00    -0.550 OA
ENDBRANCH  13  14
ENDBRANCH  12  13
ENDBRANCH  11  12
ENDBRANCH  10  11
ENDBRANCH   9  10
ENDBRANCH   8   9
ENDBRANCH   7   8
ENDBRANCH   6   7
ENDBRANCH   5   6
ENDBRANCH   4   5
ENDBRANCH   3   4
ENDBRANCH   2   3
ENDBRANCH   1   2
BRANCH   1  17
ATOM     17  C   UNL     1      27.837  61.126  10.258  1.00  0.00     0.000 C 
BRANCH  17  18
ATOM     18  C   UNL     1      29.203  61.039  10.952  1.00  0.00     0.000 C 
BRANCH  18  19
ATOM     19  C   UNL     1      30.346  61.595  10.082  1.00  0.00     0.000 C 
BRANCH  19  20
ATOM     20  C   UNL     1      31.021  62.831  10.706  1.00  0.00     0.000 C 
BRANCH  20  21
ATOM     21  C   UNL     1      30.596  64.176  10.086  1.00  0.00     0.000 C 
BRANCH  21  22
ATOM     22  C   UNL     1      30.450  64.108   8.556  1.00  0.00    -0.000 C 
BRANCH  22  23
ATOM     23  C   UNL     1      29.178  64.828   8.054  1.00  0.00    -0.000 C 
BRANCH  23  24
ATOM     24  C   UNL     1      28.098  65.014   9.138  1.00  0.00    -0.000 C 
BRANCH  24  25
ATOM     25  C   UNL     1      27.873  66.466   9.595  1.00  0.00    -0.000 C 
BRANCH  25  26
ATOM     26  C   UNL     1      28.421  67.543   8.639  1.00  0.00    -0.000 C 
BRANCH  26  27
ATOM     27  C   UNL     1      29.065  68.730   9.375  1.00  0.00    -0.000 C 
BRANCH  27  28
ATOM     28  C   UNL     1      29.192  68.479  10.887  1.00  0.00    -0.000 C 
BRANCH  28  29
ATOM     29  C   UNL     1      30.610  68.053  11.294  1.00  0.00    -0.003 C 
ATOM     30  C   UNL     1      30.576  66.979  12.377  1.00  0.00     0.004 C 
ENDBRANCH  28  29
ENDBRANCH  27  28
ENDBRANCH  26  27
ENDBRANCH  25  26
ENDBRANCH  24  25
ENDBRANCH  23  24
ENDBRANCH  22  23
ENDBRANCH  21  22
ENDBRANCH  20  21
ENDBRANCH  19  20
ENDBRANCH  18  19
ENDBRANCH  17  18
ENDBRANCH   1  17
TORSDOF 26
ENDMDL
MODEL 9
REMARK VINA RESULT:    -4.945     12.643     16.523
REMARK INTER + INTRA:         -16.000
REMARK INTER:                 -11.071
REMARK INTRA:                  -4.929
REMARK UNBOUND:                -3.538
REMARK SMILES CCCCCCCCCCCCCCCCCCCCCCCCCCCC(=O)[O-]
REMARK SMILES IDX 15 1 16 2 17 3 18 4 19 5 20 6 21 7 22 8 23 9 24 10 25 11
REMARK SMILES IDX 26 12 27 13 28 14 29 15 30 16 14 17 13 18 12 19 11 20 10 21
REMARK SMILES IDX 9 22 8 23 7 24 6 25 5 26 4 27 3 28 2 29 1 30
REMARK H PARENT
REMARK Flexibility Score: inf
ROOT
ATOM      1  C   UNL     1      27.157  60.969   6.535  1.00  0.00     0.000 C 
ENDROOT
BRANCH   1   2
ATOM      2  C   UNL     1      28.574  61.452   6.181  1.00  0.00     0.000 C 
BRANCH   2   3
ATOM      3  C   UNL     1      28.558  62.760   5.367  1.00  0.00     0.000 C 
BRANCH   3   4
ATOM      4  C   UNL     1      29.618  63.763   5.854  1.00  0.00     0.000 C 
BRANCH   4   5
ATOM      5  C   UNL     1      29.819  63.684   7.378  1.00  0.00     0.000 C 
BRANCH   5   6
ATOM      6  C   UNL     1      29.526  65.014   8.086  1.00  0.00     0.000 C 
BRANCH   6   7
ATOM      7  C   UNL     1      28.032  65.194   8.408  1.00  0.00     0.000 C 
BRANCH   7   8
ATOM      8  C   UNL     1      27.500  66.577   7.992  1.00  0.00     0.000 C 
BRANCH   8   9
ATOM      9  C   UNL     1      28.026  67.017   6.613  1.00  0.00     0.000 C 
BRANCH   9  10
ATOM     10  C   UNL     1      27.243  66.387   5.445  1.00  0.00     0.000 C 
BRANCH  10  11
ATOM     11  C   UNL     1      25.771  66.040   5.751  1.00  0.00     0.000 C 
BRANCH  11  12
ATOM     12  C   UNL     1      25.433  64.535   5.738  1.00  0.00     0.006 C 
BRANCH  12  13
ATOM     13  C   UNL     1      24.610  64.056   6.944  1.00  0.00     0.053 C 
BRANCH  13  14
ATOM     14  C   UNL     1      23.176  63.815   6.587  1.00  0.00     0.041 C 
ATOM     15  O   UNL     1      22.506  64.712   6.010  1.00  0.00    -0.550 OA
ATOM     16  O   UNL     1      22.581  62.597   6.886  1.00  0.00    -0.550 OA
ENDBRANCH  13  14
ENDBRANCH  12  13
ENDBRANCH  11  12
ENDBRANCH  10  11
ENDBRANCH   9  10
ENDBRANCH   8   9
ENDBRANCH   7   8
ENDBRANCH   6   7
ENDBRANCH   5   6
ENDBRANCH   4   5
ENDBRANCH   3   4
ENDBRANCH   2   3
ENDBRANCH   1   2
BRANCH   1  17
ATOM     17  C   UNL     1      27.001  60.698   8.042  1.00  0.00     0.000 C 
BRANCH  17  18
ATOM     18  C   UNL     1      26.992  61.987   8.875  1.00  0.00     0.000 C 
BRANCH  18  19
ATOM     19  C   UNL     1      27.740  61.834  10.213  1.00  0.00     0.000 C 
BRANCH  19  20
ATOM     20  C   UNL     1      28.618  60.568  10.261  1.00  0.00     0.000 C 
BRANCH  20  21
ATOM     21  C   UNL     1      29.945  60.737  11.025  1.00  0.00     0.000 C 
BRANCH  21  22
ATOM     22  C   UNL     1      30.468  62.184  11.000  1.00  0.00    -0.000 C 
BRANCH  22  23
ATOM     23  C   UNL     1      31.946  62.267  10.555  1.00  0.00    -0.000 C 
BRANCH  23  24
ATOM     24  C   UNL     1      32.457  63.708  10.359  1.00  0.00    -0.000 C 
BRANCH  24  25
ATOM     25  C   UNL     1      31.646  64.794  11.088  1.00  0.00    -0.000 C 
BRANCH  25  26
ATOM     26  C   UNL     1      31.880  66.231  10.586  1.00  0.00    -0.000 C 
BRANCH  26  27
ATOM     27  C   UNL     1      31.676  67.293  11.680  1.00  0.00    -0.000 C 
BRANCH  27  28
ATOM     28  C   UNL     1      30.239  67.298  12.227  1.00  0.00    -0.000 C 
BRANCH  28  29
ATOM     29  C   UNL     1      29.193  67.531  11.127  1.00  0.00    -0.003 C 
ATOM     30  C   UNL     1      29.519  68.777  10.310  1.00  0.00     0.004 C 
ENDBRANCH  28  29
ENDBRANCH  27  28
ENDBRANCH  26  27
ENDBRANCH  25  26
ENDBRANCH  24  25
ENDBRANCH  23  24
ENDBRANCH  22  23
ENDBRANCH  21  22
ENDBRANCH  20  21
ENDBRANCH  19  20
ENDBRANCH  18  19
ENDBRANCH  17  18
ENDBRANCH   1  17
TORSDOF 26
ENDMDL
