MODEL 1
REMARK VINA RESULT:    -3.558      0.000      0.000
REMARK INTER + INTRA:          -5.324
REMARK INTER:                  -5.014
REMARK INTRA:                  -0.310
REMARK UNBOUND:                -0.310
REMARK SMILES CCCCCCCCC(=O)[O-]
REMARK SMILES IDX 6 1 7 2 8 3 9 4 10 5 11 6 5 7 4 8 3 9 2 10 1 11
REMARK H PARENT
REMARK Flexibility Score: inf
ROOT
ATOM      1  C   UNL     1      60.995  32.157  60.791  1.00  0.00     0.000 C 
ENDROOT
BRANCH   1   2
ATOM      2  C   UNL     1      61.065  31.102  61.908  1.00  0.00     0.006 C 
BRANCH   2   3
ATOM      3  C   UNL     1      61.301  29.686  61.369  1.00  0.00     0.053 C 
BRANCH   3   4
ATOM      4  C   UNL     1      62.703  29.247  61.653  1.00  0.00     0.041 C 
ATOM      5  O   UNL     1      62.995  28.021  61.654  1.00  0.00    -0.550 OA
ATOM      6  O   UNL     1      63.676  30.187  61.963  1.00  0.00    -0.550 OA
ENDBRANCH   3   4
ENDBRANCH   2   3
ENDBRANCH   1   2
BRANCH   1   7
ATOM      7  C   UNL     1      62.117  33.200  60.888  1.00  0.00     0.000 C 
BRANCH   7   8
ATOM      8  C   UNL     1      61.560  34.622  60.723  1.00  0.00    -0.000 C 
BRANCH   8   9
ATOM      9  C   UNL     1      62.522  35.708  61.236  1.00  0.00    -0.000 C 
BRANCH   9  10
ATOM     10  C   UNL     1      64.003  35.480  60.878  1.00  0.00    -0.003 C 
ATOM     11  C   UNL     1      64.934  35.606  62.082  1.00  0.00     0.004 C 
ENDBRANCH   9  10
ENDBRANCH   8   9
ENDBRANCH   7   8
ENDBRANCH   1   7
TORSDOF 7
ENDMDL
MODEL 2
REMARK VINA RESULT:    -3.479      0.782      1.291
REMARK INTER + INTRA:          -5.212
REMARK INTER:                  -4.801
REMARK INTRA:                  -0.411
REMARK UNBOUND:                -0.310
REMARK SMILES CCCCCCCCC(=O)[O-]
REMARK SMILES IDX 6 1 7 2 8 3 9 4 10 5 11 6 5 7 4 8 3 9 2 10 1 11
REMARK H PARENT
REMARK Flexibility Score: inf
ROOT
ATOM      1  C   UNL     1      60.762  31.707  60.295  1.00  0.00     0.000 C 
ENDROOT
BRANCH   1   2
ATOM      2  C   UNL     1      61.196  31.411  61.740  1.00  0.00     0.006 C 
BRANCH   2   3
ATOM      3  C   UNL     1      61.591  29.944  61.949  1.00  0.00     0.053 C 
BRANCH   3   4
ATOM      4  C   UNL     1      63.060  29.763  61.728  1.00  0.00     0.041 C 
ATOM      5  O   UNL     1      63.844  30.740  61.854  1.00  0.00    -0.550 OA
ATOM      6  O   UNL     1      63.556  28.527  61.334  1.00  0.00    -0.550 OA
ENDBRANCH   3   4
ENDBRANCH   2   3
ENDBRANCH   1   2
BRANCH   1   7
ATOM      7  C   UNL     1      61.214  33.093  59.812  1.00  0.00     0.000 C 
BRANCH   7   8
ATOM      8  C   UNL     1      62.307  33.664  60.728  1.00  0.00    -0.000 C 
BRANCH   8   9
ATOM      9  C   UNL     1      62.138  35.170  60.998  1.00  0.00    -0.000 C 
BRANCH   9  10
ATOM     10  C   UNL     1      63.418  35.891  61.458  1.00  0.00    -0.003 C 
ATOM     11  C   UNL     1      64.563  34.931  61.778  1.00  0.00     0.004 C 
ENDBRANCH   9  10
ENDBRANCH   8   9
ENDBRANCH   7   8
ENDBRANCH   1   7
TORSDOF 7
ENDMDL
MODEL 3
REMARK VINA RESULT:    -3.433      3.432      5.632
REMARK INTER + INTRA:          -5.148
REMARK INTER:                  -4.451
REMARK INTRA:                  -0.697
REMARK UNBOUND:                -0.310
REMARK SMILES CCCCCCCCC(=O)[O-]
REMARK SMILES IDX 6 1 7 2 8 3 9 4 10 5 11 6 5 7 4 8 3 9 2 10 1 11
REMARK H PARENT
REMARK Flexibility Score: inf
ROOT
ATOM      1  C   UNL     1      63.985  32.777  60.358  1.00  0.00     0.000 C 
ENDROOT
BRANCH   1   2
ATOM      2  C   UNL     1      63.585  34.013  61.179  1.00  0.00     0.006 C 
BRANCH   2   3
ATOM      3  C   UNL     1      62.155  34.483  60.880  1.00  0.00     0.053 C 
BRANCH   3   4
ATOM      4  C   UNL     1      62.025  35.951  61.132  1.00  0.00     0.041 C 
ATOM      5  O   UNL     1      62.981  36.593  61.643  1.00  0.00    -0.550 OA
ATOM      6  O   UNL     1      60.833  36.603  60.847  1.00  0.00    -0.550 OA
ENDBRANCH   3   4
ENDBRANCH   2   3
ENDBRANCH   1   2
BRANCH   1   7
ATOM      7  C   UNL     1      64.276  31.550  61.236  1.00  0.00     0.000 C 
BRANCH   7   8
ATOM      8  C   UNL     1      63.265  30.427  60.960  1.00  0.00    -0.000 C 
BRANCH   8   9
ATOM      9  C   UNL     1      62.213  30.279  62.074  1.00  0.00    -0.000 C 
BRANCH   9  10
ATOM     10  C   UNL     1      60.896  31.037  61.824  1.00  0.00    -0.003 C 
ATOM     11  C   UNL     1      60.562  31.180  60.340  1.00  0.00     0.004 C 
ENDBRANCH   9  10
ENDBRANCH   8   9
ENDBRANCH   7   8
ENDBRANCH   1   7
TORSDOF 7
ENDMDL
MODEL 4
REMARK VINA RESULT:    -3.414      3.019      5.059
REMARK INTER + INTRA:          -5.121
REMARK INTER:                  -4.399
REMARK INTRA:                  -0.722
REMARK UNBOUND:                -0.310
REMARK SMILES CCCCCCCCC(=O)[O-]
REMARK SMILES IDX 6 1 7 2 8 3 9 4 10 5 11 6 5 7 4 8 3 9 2 10 1 11
REMARK H PARENT
REMARK Flexibility Score: inf
ROOT
ATOM      1  C   UNL     1      61.585  32.879  59.736  1.00  0.00     0.000 C 
ENDROOT
BRANCH   1   2
ATOM      2  C   UNL     1      62.036  33.793  60.887  1.00  0.00     0.006 C 
BRANCH   2   3
ATOM      3  C   UNL     1      63.561  33.935  60.965  1.00  0.00     0.053 C 
BRANCH   3   4
ATOM      4  C   UNL     1      63.932  35.277  61.510  1.00  0.00     0.041 C 
ATOM      5  O   UNL     1      63.084  36.209  61.532  1.00  0.00    -0.550 OA
ATOM      6  O   UNL     1      65.228  35.515  61.949  1.00  0.00    -0.550 OA
ENDBRANCH   3   4
ENDBRANCH   2   3
ENDBRANCH   1   2
BRANCH   1   7
ATOM      7  C   UNL     1      60.708  31.712  60.213  1.00  0.00     0.000 C 
BRANCH   7   8
ATOM      8  C   UNL     1      61.026  31.348  61.671  1.00  0.00    -0.000 C 
BRANCH   8   9
ATOM      9  C   UNL     1      61.867  30.066  61.801  1.00  0.00    -0.000 C 
BRANCH   9  10
ATOM     10  C   UNL     1      63.391  30.291  61.817  1.00  0.00    -0.003 C 
ATOM     11  C   UNL     1      64.039  30.083  60.449  1.00  0.00     0.004 C 
ENDBRANCH   9  10
ENDBRANCH   8   9
ENDBRANCH   7   8
ENDBRANCH   1   7
TORSDOF 7
ENDMDL
MODEL 5
REMARK VINA RESULT:    -3.373     13.001     13.866
REMARK INTER + INTRA:          -5.064
REMARK INTER:                  -4.652
REMARK INTRA:                  -0.412
REMARK UNBOUND:                -0.310
REMARK SMILES CCCCCCCCC(=O)[O-]
REMARK SMILES IDX 6 1 7 2 8 3 9 4 10 5 11 6 5 7 4 8 3 9 2 10 1 11
REMARK H PARENT
REMARK Flexibility Score: inf
ROOT
ATOM      1  C   UNL     1      59.261  28.382  49.264  1.00  0.00     0.000 C 
ENDROOT
BRANCH   1   2
ATOM      2  C   UNL     1      59.257  26.872  49.554  1.00  0.00     0.006 C 
BRANCH   2   3
ATOM      3  C   UNL     1      60.672  26.294  49.685  1.00  0.00     0.053 C 
BRANCH   3   4
ATOM      4  C   UNL     1      60.610  24.838  50.025  1.00  0.00     0.041 C 
ATOM      5  O   UNL     1      59.503  24.295  50.283  1.00  0.00    -0.550 OA
ATOM      6  O   UNL     1      61.779  24.093  50.106  1.00  0.00    -0.550 OA
ENDBRANCH   3   4
ENDBRANCH   2   3
ENDBRANCH   1   2
BRANCH   1   7
ATOM      7  C   UNL     1      58.053  29.106  49.876  1.00  0.00     0.000 C 
BRANCH   7   8
ATOM      8  C   UNL     1      57.092  28.107  50.538  1.00  0.00    -0.000 C 
BRANCH   8   9
ATOM      9  C   UNL     1      55.611  28.450  50.300  1.00  0.00    -0.000 C 
BRANCH   9  10
ATOM     10  C   UNL     1      54.679  27.232  50.166  1.00  0.00    -0.003 C 
ATOM     11  C   UNL     1      55.409  25.967  49.720  1.00  0.00     0.004 C 
ENDBRANCH   9  10
ENDBRANCH   8   9
ENDBRANCH   7   8
ENDBRANCH   1   7
TORSDOF 7
ENDMDL
MODEL 6
REMARK VINA RESULT:    -3.365      1.461      2.066
REMARK INTER + INTRA:          -5.052
REMARK INTER:                  -4.582
REMARK INTRA:                  -0.470
REMARK UNBOUND:                -0.310
REMARK SMILES CCCCCCCCC(=O)[O-]
REMARK SMILES IDX 6 1 7 2 8 3 9 4 10 5 11 6 5 7 4 8 3 9 2 10 1 11
REMARK H PARENT
REMARK Flexibility Score: inf
ROOT
ATOM      1  C   UNL     1      61.638  32.393  60.895  1.00  0.00     0.000 C 
ENDROOT
BRANCH   1   2
ATOM      2  C   UNL     1      61.074  31.214  61.704  1.00  0.00     0.006 C 
BRANCH   2   3
ATOM      3  C   UNL     1      62.148  30.183  62.072  1.00  0.00     0.053 C 
BRANCH   3   4
ATOM      4  C   UNL     1      61.862  28.873  61.408  1.00  0.00     0.041 C 
ATOM      5  O   UNL     1      61.497  28.840  60.203  1.00  0.00    -0.550 OA
ATOM      6  O   UNL     1      61.950  27.692  62.133  1.00  0.00    -0.550 OA
ENDBRANCH   3   4
ENDBRANCH   2   3
ENDBRANCH   1   2
BRANCH   1   7
ATOM      7  C   UNL     1      63.172  32.386  60.827  1.00  0.00     0.000 C 
BRANCH   7   8
ATOM      8  C   UNL     1      63.745  33.753  61.231  1.00  0.00    -0.000 C 
BRANCH   8   9
ATOM      9  C   UNL     1      63.157  34.916  60.414  1.00  0.00    -0.000 C 
BRANCH   9  10
ATOM     10  C   UNL     1      62.421  35.984  61.245  1.00  0.00    -0.003 C 
ATOM     11  C   UNL     1      60.944  36.112  60.877  1.00  0.00     0.004 C 
ENDBRANCH   9  10
ENDBRANCH   8   9
ENDBRANCH   7   8
ENDBRANCH   1   7
TORSDOF 7
ENDMDL
MODEL 7
REMARK VINA RESULT:    -3.344     12.905     14.088
REMARK INTER + INTRA:          -5.023
REMARK INTER:                  -4.551
REMARK INTRA:                  -0.473
REMARK UNBOUND:                -0.310
REMARK SMILES CCCCCCCCC(=O)[O-]
REMARK SMILES IDX 6 1 7 2 8 3 9 4 10 5 11 6 5 7 4 8 3 9 2 10 1 11
REMARK H PARENT
REMARK Flexibility Score: inf
ROOT
ATOM      1  C   UNL     1      55.558  28.875  50.572  1.00  0.00     0.000 C 
ENDROOT
BRANCH   1   2
ATOM      2  C   UNL     1      54.608  27.786  50.046  1.00  0.00     0.006 C 
BRANCH   2   3
ATOM      3  C   UNL     1      55.288  26.416  49.930  1.00  0.00     0.053 C 
BRANCH   3   4
ATOM      4  C   UNL     1      54.299  25.321  50.174  1.00  0.00     0.041 C 
ATOM      5  O   UNL     1      53.634  24.843  49.216  1.00  0.00    -0.550 OA
ATOM      6  O   UNL     1      54.075  24.860  51.464  1.00  0.00    -0.550 OA
ENDBRANCH   3   4
ENDBRANCH   2   3
ENDBRANCH   1   2
BRANCH   1   7
ATOM      7  C   UNL     1      56.828  28.296  51.212  1.00  0.00     0.000 C 
BRANCH   7   8
ATOM      8  C   UNL     1      58.055  29.153  50.869  1.00  0.00    -0.000 C 
BRANCH   8   9
ATOM      9  C   UNL     1      58.498  29.007  49.402  1.00  0.00    -0.000 C 
BRANCH   9  10
ATOM     10  C   UNL     1      59.756  28.145  49.189  1.00  0.00    -0.003 C 
ATOM     11  C   UNL     1      59.490  26.650  49.356  1.00  0.00     0.004 C 
ENDBRANCH   9  10
ENDBRANCH   8   9
ENDBRANCH   7   8
ENDBRANCH   1   7
TORSDOF 7
ENDMDL
MODEL 8
REMARK VINA RESULT:    -3.329     12.764     14.316
REMARK INTER + INTRA:          -5.001
REMARK INTER:                  -4.574
REMARK INTRA:                  -0.427
REMARK UNBOUND:                -0.310
REMARK SMILES CCCCCCCCC(=O)[O-]
REMARK SMILES IDX 6 1 7 2 8 3 9 4 10 5 11 6 5 7 4 8 3 9 2 10 1 11
REMARK H PARENT
REMARK Flexibility Score: inf
ROOT
ATOM      1  C   UNL     1      56.727  28.468  50.301  1.00  0.00     0.000 C 
ENDROOT
BRANCH   1   2
ATOM      2  C   UNL     1      58.173  28.959  50.480  1.00  0.00     0.006 C 
BRANCH   2   3
ATOM      3  C   UNL     1      58.973  28.926  49.171  1.00  0.00     0.053 C 
BRANCH   3   4
ATOM      4  C   UNL     1      59.988  27.828  49.209  1.00  0.00     0.041 C 
ATOM      5  O   UNL     1      59.631  26.629  49.059  1.00  0.00    -0.550 OA
ATOM      6  O   UNL     1      61.322  28.122  49.460  1.00  0.00    -0.550 OA
ENDBRANCH   3   4
ENDBRANCH   2   3
ENDBRANCH   1   2
BRANCH   1   7
ATOM      7  C   UNL     1      56.553  26.989  50.677  1.00  0.00     0.000 C 
BRANCH   7   8
ATOM      8  C   UNL     1      55.424  26.344  49.858  1.00  0.00    -0.000 C 
BRANCH   8   9
ATOM      9  C   UNL     1      54.051  26.443  50.546  1.00  0.00    -0.000 C 
BRANCH   9  10
ATOM     10  C   UNL     1      53.004  27.275  49.783  1.00  0.00    -0.003 C 
ATOM     11  C   UNL     1      53.060  28.763  50.123  1.00  0.00     0.004 C 
ENDBRANCH   9  10
ENDBRANCH   8   9
ENDBRANCH   7   8
ENDBRANCH   1   7
TORSDOF 7
ENDMDL
MODEL 9
REMARK VINA RESULT:    -3.317     12.290     13.710
REMARK INTER + INTRA:          -4.984
REMARK INTER:                  -4.535
REMARK INTRA:                  -0.449
REMARK UNBOUND:                -0.310
REMARK SMILES CCCCCCCCC(=O)[O-]
REMARK SMILES IDX 6 1 7 2 8 3 9 4 10 5 11 6 5 7 4 8 3 9 2 10 1 11
REMARK H PARENT
REMARK Flexibility Score: inf
ROOT
ATOM      1  C   UNL     1      58.764  29.089  50.931  1.00  0.00     0.000 C 
ENDROOT
BRANCH   1   2
ATOM      2  C   UNL     1      58.858  28.671  49.454  1.00  0.00     0.006 C 
BRANCH   2   3
ATOM      3  C   UNL     1      60.037  27.728  49.181  1.00  0.00     0.053 C 
BRANCH   3   4
ATOM      4  C   UNL     1      59.658  26.316  49.497  1.00  0.00     0.041 C 
ATOM      5  O   UNL     1      60.550  25.436  49.631  1.00  0.00    -0.550 OA
ATOM      6  O   UNL     1      58.319  25.960  49.595  1.00  0.00    -0.550 OA
ENDBRANCH   3   4
ENDBRANCH   2   3
ENDBRANCH   1   2
BRANCH   1   7
ATOM      7  C   UNL     1      57.347  28.934  51.502  1.00  0.00     0.000 C 
BRANCH   7   8
ATOM      8  C   UNL     1      56.306  28.864  50.374  1.00  0.00    -0.000 C 
BRANCH   8   9
ATOM      9  C   UNL     1      55.357  27.660  50.507  1.00  0.00    -0.000 C 
BRANCH   9  10
ATOM     10  C   UNL     1      53.911  27.923  50.046  1.00  0.00    -0.003 C 
ATOM     11  C   UNL     1      53.450  29.354  50.313  1.00  0.00     0.004 C 
ENDBRANCH   9  10
ENDBRANCH   8   9
ENDBRANCH   7   8
ENDBRANCH   1   7
TORSDOF 7
ENDMDL
