MODEL 1
REMARK VINA RESULT:    -3.539      0.000      0.000
REMARK INTER + INTRA:          -4.219
REMARK INTER:                  -4.160
REMARK INTRA:                  -0.058
REMARK UNBOUND:                -0.058
REMARK SMILES CCCCC(=O)[O-]
REMARK SMILES IDX 4 1 5 2 6 3 7 4 3 5 2 6 1 7
REMARK H PARENT
REMARK Flexibility Score: inf
ROOT
ATOM      1  C   UNL     1      26.211   7.839   6.036  1.00  0.00     0.053 C 
ENDROOT
BRANCH   1   2
ATOM      2  C   UNL     1      24.894   8.470   5.701  1.00  0.00     0.041 C 
ATOM      3  O   UNL     1      23.866   7.755   5.570  1.00  0.00    -0.550 OA
ATOM      4  O   UNL     1      24.810   9.841   5.501  1.00  0.00    -0.550 OA
ENDBRANCH   1   2
BRANCH   1   5
ATOM      5  C   UNL     1      26.550   6.685   5.084  1.00  0.00     0.006 C 
BRANCH   5   6
ATOM      6  C   UNL     1      27.352   5.575   5.779  1.00  0.00    -0.003 C 
ATOM      7  C   UNL     1      27.141   5.609   7.290  1.00  0.00     0.004 C 
ENDBRANCH   5   6
ENDBRANCH   1   5
TORSDOF 3
ENDMDL
MODEL 2
REMARK VINA RESULT:    -3.514     10.694     12.223
REMARK INTER + INTRA:          -4.188
REMARK INTER:                  -4.151
REMARK INTRA:                  -0.037
REMARK UNBOUND:                -0.058
REMARK SMILES CCCCC(=O)[O-]
REMARK SMILES IDX 4 1 5 2 6 3 7 4 3 5 2 6 1 7
REMARK H PARENT
REMARK Flexibility Score: inf
ROOT
ATOM      1  C   UNL     1      18.158  17.392   7.947  1.00  0.00     0.053 C 
ENDROOT
BRANCH   1   2
ATOM      2  C   UNL     1      18.673  18.187   9.108  1.00  0.00     0.041 C 
ATOM      3  O   UNL     1      18.171  18.033  10.252  1.00  0.00    -0.550 OA
ATOM      4  O   UNL     1      19.682  19.122   8.919  1.00  0.00    -0.550 OA
ENDBRANCH   1   2
BRANCH   1   5
ATOM      5  C   UNL     1      19.004  16.137   7.697  1.00  0.00     0.006 C 
BRANCH   5   6
ATOM      6  C   UNL     1      19.707  16.173   6.331  1.00  0.00    -0.003 C 
ATOM      7  C   UNL     1      20.320  14.818   5.993  1.00  0.00     0.004 C 
ENDBRANCH   5   6
ENDBRANCH   1   5
TORSDOF 3
ENDMDL
MODEL 3
REMARK VINA RESULT:    -3.497     10.032     11.870
REMARK INTER + INTRA:          -4.169
REMARK INTER:                  -4.145
REMARK INTRA:                  -0.024
REMARK UNBOUND:                -0.058
REMARK SMILES CCCCC(=O)[O-]
REMARK SMILES IDX 4 1 5 2 6 3 7 4 3 5 2 6 1 7
REMARK H PARENT
REMARK Flexibility Score: inf
ROOT
ATOM      1  C   UNL     1      19.035  16.018   7.368  1.00  0.00     0.053 C 
ENDROOT
BRANCH   1   2
ATOM      2  C   UNL     1      19.900  15.554   6.236  1.00  0.00     0.041 C 
ATOM      3  O   UNL     1      20.365  14.385   6.233  1.00  0.00    -0.550 OA
ATOM      4  O   UNL     1      20.217  16.425   5.202  1.00  0.00    -0.550 OA
ENDBRANCH   1   2
BRANCH   1   5
ATOM      5  C   UNL     1      19.423  17.424   7.843  1.00  0.00     0.006 C 
BRANCH   5   6
ATOM      6  C   UNL     1      18.221  18.201   8.401  1.00  0.00    -0.003 C 
ATOM      7  C   UNL     1      18.277  18.280   9.924  1.00  0.00     0.004 C 
ENDBRANCH   5   6
ENDBRANCH   1   5
TORSDOF 3
ENDMDL
MODEL 4
REMARK VINA RESULT:    -3.354      3.131      4.088
REMARK INTER + INTRA:          -4.001
REMARK INTER:                  -3.978
REMARK INTRA:                  -0.023
REMARK UNBOUND:                -0.058
REMARK SMILES CCCCC(=O)[O-]
REMARK SMILES IDX 4 1 5 2 6 3 7 4 3 5 2 6 1 7
REMARK H PARENT
REMARK Flexibility Score: inf
ROOT
ATOM      1  C   UNL     1      26.627   6.442   6.947  1.00  0.00     0.053 C 
ENDROOT
BRANCH   1   2
ATOM      2  C   UNL     1      27.408   5.195   7.230  1.00  0.00     0.041 C 
ATOM      3  O   UNL     1      27.655   4.379   6.304  1.00  0.00    -0.550 OA
ATOM      4  O   UNL     1      27.831   4.918   8.523  1.00  0.00    -0.550 OA
ENDBRANCH   1   2
BRANCH   1   5
ATOM      5  C   UNL     1      26.493   6.701   5.440  1.00  0.00     0.006 C 
BRANCH   5   6
ATOM      6  C   UNL     1      25.919   8.093   5.140  1.00  0.00    -0.003 C 
ATOM      7  C   UNL     1      24.451   8.181   5.545  1.00  0.00     0.004 C 
ENDBRANCH   5   6
ENDBRANCH   1   5
TORSDOF 3
ENDMDL
MODEL 5
REMARK VINA RESULT:    -3.203     13.319     13.932
REMARK INTER + INTRA:          -3.823
REMARK INTER:                  -3.767
REMARK INTRA:                  -0.056
REMARK UNBOUND:                -0.058
REMARK SMILES CCCCC(=O)[O-]
REMARK SMILES IDX 4 1 5 2 6 3 7 4 3 5 2 6 1 7
REMARK H PARENT
REMARK Flexibility Score: inf
ROOT
ATOM      1  C   UNL     1      16.533   2.158  -1.685  1.00  0.00     0.053 C 
ENDROOT
BRANCH   1   2
ATOM      2  C   UNL     1      15.876   3.471  -1.387  1.00  0.00     0.041 C 
ATOM      3  O   UNL     1      15.148   4.025  -2.251  1.00  0.00    -0.550 OA
ATOM      4  O   UNL     1      16.095   4.097  -0.167  1.00  0.00    -0.550 OA
ENDBRANCH   1   2
BRANCH   1   5
ATOM      5  C   UNL     1      15.663   0.972  -1.250  1.00  0.00     0.006 C 
BRANCH   5   6
ATOM      6  C   UNL     1      14.801   0.431  -2.401  1.00  0.00    -0.003 C 
ATOM      7  C   UNL     1      15.623  -0.452  -3.334  1.00  0.00     0.004 C 
ENDBRANCH   5   6
ENDBRANCH   1   5
TORSDOF 3
ENDMDL
MODEL 6
REMARK VINA RESULT:    -3.196     13.256     14.374
REMARK INTER + INTRA:          -3.815
REMARK INTER:                  -3.682
REMARK INTRA:                  -0.133
REMARK UNBOUND:                -0.058
REMARK SMILES CCCCC(=O)[O-]
REMARK SMILES IDX 4 1 5 2 6 3 7 4 3 5 2 6 1 7
REMARK H PARENT
REMARK Flexibility Score: inf
ROOT
ATOM      1  C   UNL     1      15.573  16.529  -0.964  1.00  0.00     0.053 C 
ENDROOT
BRANCH   1   2
ATOM      2  C   UNL     1      15.331  16.388   0.508  1.00  0.00     0.041 C 
ATOM      3  O   UNL     1      14.657  15.420   0.948  1.00  0.00    -0.550 OA
ATOM      4  O   UNL     1      15.821  17.343   1.388  1.00  0.00    -0.550 OA
ENDBRANCH   1   2
BRANCH   1   5
ATOM      5  C   UNL     1      17.009  16.977  -1.265  1.00  0.00     0.006 C 
BRANCH   5   6
ATOM      6  C   UNL     1      18.034  15.867  -0.987  1.00  0.00    -0.003 C 
ATOM      7  C   UNL     1      19.086  16.329   0.017  1.00  0.00     0.004 C 
ENDBRANCH   5   6
ENDBRANCH   1   5
TORSDOF 3
ENDMDL
MODEL 7
REMARK VINA RESULT:    -3.165     12.335     12.948
REMARK INTER + INTRA:          -3.779
REMARK INTER:                  -3.662
REMARK INTRA:                  -0.117
REMARK UNBOUND:                -0.058
REMARK SMILES CCCCC(=O)[O-]
REMARK SMILES IDX 4 1 5 2 6 3 7 4 3 5 2 6 1 7
REMARK H PARENT
REMARK Flexibility Score: inf
ROOT
ATOM      1  C   UNL     1      15.243   2.095  -0.945  1.00  0.00     0.053 C 
ENDROOT
BRANCH   1   2
ATOM      2  C   UNL     1      15.624   3.505  -1.280  1.00  0.00     0.041 C 
ATOM      3  O   UNL     1      16.371   4.159  -0.506  1.00  0.00    -0.550 OA
ATOM      4  O   UNL     1      15.126   4.105  -2.428  1.00  0.00    -0.550 OA
ENDBRANCH   1   2
BRANCH   1   5
ATOM      5  C   UNL     1      16.475   1.197  -0.770  1.00  0.00     0.006 C 
BRANCH   5   6
ATOM      6  C   UNL     1      17.336   1.139  -2.041  1.00  0.00    -0.003 C 
ATOM      7  C   UNL     1      18.821   1.192  -1.701  1.00  0.00     0.004 C 
ENDBRANCH   5   6
ENDBRANCH   1   5
TORSDOF 3
ENDMDL
MODEL 8
REMARK VINA RESULT:    -3.027     12.243     12.877
REMARK INTER + INTRA:          -3.616
REMARK INTER:                  -3.508
REMARK INTRA:                  -0.109
REMARK UNBOUND:                -0.058
REMARK SMILES CCCCC(=O)[O-]
REMARK SMILES IDX 4 1 5 2 6 3 7 4 3 5 2 6 1 7
REMARK H PARENT
REMARK Flexibility Score: inf
ROOT
ATOM      1  C   UNL     1      16.120   2.707  -1.626  1.00  0.00     0.053 C 
ENDROOT
BRANCH   1   2
ATOM      2  C   UNL     1      16.906   1.446  -1.432  1.00  0.00     0.041 C 
ATOM      3  O   UNL     1      16.371   0.444  -0.890  1.00  0.00    -0.550 OA
ATOM      4  O   UNL     1      18.238   1.391  -1.820  1.00  0.00    -0.550 OA
ENDBRANCH   1   2
BRANCH   1   5
ATOM      5  C   UNL     1      16.358   3.708  -0.489  1.00  0.00     0.006 C 
BRANCH   5   6
ATOM      6  C   UNL     1      15.231   3.681   0.554  1.00  0.00    -0.003 C 
ATOM      7  C   UNL     1      15.669   2.949   1.818  1.00  0.00     0.004 C 
ENDBRANCH   5   6
ENDBRANCH   1   5
TORSDOF 3
ENDMDL
