MODEL 1
REMARK VINA RESULT:    -6.042      0.000      0.000
REMARK INTER + INTRA:          -9.806
REMARK INTER:                  -8.868
REMARK INTRA:                  -0.938
REMARK UNBOUND:                -0.938
REMARK SMILES Cc1cc2c(C(C)C)c(O)c(O)c(C=O)c2c(O)c1-c1c(C)cc2c(C(C)C)c(O)c(O)c(C=O)c2c1O
REMARK SMILES IDX 1 1 2 2 3 3 4 4 16 5 13 6 11 7 9 8 5 9 17 10 19 11 20 12
REMARK SMILES IDX 37 13 21 14 36 15 23 16 22 17 24 18 33 19 25 20 31 21 29 22
REMARK SMILES IDX 38 23 34 25 35 26 26 27 27 28 28 29 32 30 30 32 18 34 6 36
REMARK SMILES IDX 7 37 8 38 14 39 15 40 10 41 12 43
REMARK H PARENT 38 24 32 31 30 33 18 35 10 42 12 44
REMARK Flexibility Score: inf
ROOT
ATOM      1  C   UNL     1     -19.343   3.831 -13.510  1.00  0.00     0.045 C 
ATOM      2  C   UNL     1     -18.138   3.991 -14.405  1.00  0.00    -0.039 A 
ATOM      3  C   UNL     1     -17.896   5.222 -15.016  1.00  0.00     0.013 A 
ATOM      4  C   UNL     1     -16.790   5.424 -15.873  1.00  0.00    -0.006 A 
ATOM      5  C   UNL     1     -15.831   4.379 -16.005  1.00  0.00     0.039 A 
ATOM      6  C   UNL     1     -14.602   4.652 -16.673  1.00  0.00     0.072 A 
ATOM      7  C   UNL     1     -14.375   5.918 -17.245  1.00  0.00     0.169 A 
ATOM      8  C   UNL     1     -15.358   6.924 -17.165  1.00  0.00     0.162 A 
ATOM      9  C   UNL     1     -16.612   6.655 -16.572  1.00  0.00     0.008 A 
ATOM     10  C   UNL     1     -16.147   3.088 -15.487  1.00  0.00     0.132 A 
ATOM     11  C   UNL     1     -17.288   2.906 -14.676  1.00  0.00     0.031 A 
ENDROOT
BRANCH  11  12
ATOM     12  C   UNL     1     -17.590   1.572 -14.095  1.00  0.00     0.031 A 
ATOM     13  C   UNL     1     -17.252   1.286 -12.755  1.00  0.00     0.132 A 
ATOM     14  C   UNL     1     -18.216   0.594 -14.887  1.00  0.00    -0.039 A 
ATOM     15  C   UNL     1     -17.542   0.005 -12.193  1.00  0.00     0.039 A 
ATOM     16  C   UNL     1     -18.436  -0.680 -14.359  1.00  0.00     0.013 A 
ATOM     17  C   UNL     1     -18.664   0.900 -16.295  1.00  0.00     0.045 C 
ATOM     18  C   UNL     1     -18.037  -1.022 -13.050  1.00  0.00    -0.006 A 
ATOM     19  C   UNL     1     -17.343  -0.289 -10.810  1.00  0.00     0.072 A 
ATOM     20  C   UNL     1     -18.147  -2.363 -12.575  1.00  0.00     0.008 A 
ATOM     21  C   UNL     1     -17.640  -1.577 -10.318  1.00  0.00     0.169 A 
ATOM     22  C   UNL     1     -18.030  -2.599 -11.189  1.00  0.00     0.162 A 
BRANCH  13  23
ATOM     23  O   UNL     1     -16.609   2.265 -11.989  1.00  0.00    -0.507 OA
ATOM     24  H   UNL     1     -15.618   2.467 -12.045  1.00  0.00     0.293 HD
ENDBRANCH  13  23
BRANCH  19  25
ATOM     25  C   UNL     1     -16.916   0.745  -9.845  1.00  0.00     0.264 C 
ATOM     26  O   UNL     1     -15.759   0.716  -9.347  1.00  0.00    -0.298 OA
ENDBRANCH  19  25
BRANCH  20  27
ATOM     27  C   UNL     1     -18.397  -3.542 -13.532  1.00  0.00     0.017 C 
ATOM     28  C   UNL     1     -17.216  -3.733 -14.489  1.00  0.00     0.012 C 
ATOM     29  C   UNL     1     -19.730  -3.446 -14.299  1.00  0.00     0.012 C 
ENDBRANCH  20  27
BRANCH  21  30
ATOM     30  O   UNL     1     -17.577  -1.871  -8.950  1.00  0.00    -0.504 OA
ATOM     31  H   UNL     1     -18.379  -2.119  -8.385  1.00  0.00     0.293 HD
ENDBRANCH  21  30
BRANCH  22  32
ATOM     32  O   UNL     1     -18.328  -3.862 -10.670  1.00  0.00    -0.504 OA
ATOM     33  H   UNL     1     -17.982  -4.188  -9.776  1.00  0.00     0.293 HD
ENDBRANCH  22  32
ENDBRANCH  11  12
BRANCH  10  34
ATOM     34  O   UNL     1     -15.355   1.983 -15.813  1.00  0.00    -0.507 OA
ATOM     35  H   UNL     1     -14.400   2.051 -16.143  1.00  0.00     0.293 HD
ENDBRANCH  10  34
BRANCH   9  36
ATOM     36  C   UNL     1     -17.744   7.693 -16.674  1.00  0.00     0.017 C 
ATOM     37  C   UNL     1     -17.446   8.920 -15.807  1.00  0.00     0.012 C 
ATOM     38  C   UNL     1     -18.087   8.097 -18.120  1.00  0.00     0.012 C 
ENDBRANCH   9  36
BRANCH   6  39
ATOM     39  C   UNL     1     -13.478   3.685 -16.675  1.00  0.00     0.264 C 
ATOM     40  O   UNL     1     -12.305   4.053 -16.396  1.00  0.00    -0.298 OA
ENDBRANCH   6  39
BRANCH   8  41
ATOM     41  O   UNL     1     -15.097   8.217 -17.629  1.00  0.00    -0.504 OA
ATOM     42  H   UNL     1     -15.753   8.983 -17.602  1.00  0.00     0.293 HD
ENDBRANCH   8  41
BRANCH   7  43
ATOM     43  O   UNL     1     -13.151   6.148 -17.887  1.00  0.00    -0.504 OA
ATOM     44  H   UNL     1     -12.690   5.489 -18.499  1.00  0.00     0.293 HD
ENDBRANCH   7  43
TORSDOF 11
ENDMDL
MODEL 2
REMARK VINA RESULT:    -3.988     15.228     19.473
REMARK INTER + INTRA:          -6.792
REMARK INTER:                  -7.999
REMARK INTRA:                   1.207
REMARK UNBOUND:                -0.938
REMARK SMILES Cc1cc2c(C(C)C)c(O)c(O)c(C=O)c2c(O)c1-c1c(C)cc2c(C(C)C)c(O)c(O)c(C=O)c2c1O
REMARK SMILES IDX 1 1 2 2 3 3 4 4 16 5 13 6 11 7 9 8 5 9 17 10 19 11 20 12
REMARK SMILES IDX 37 13 21 14 36 15 23 16 22 17 24 18 33 19 25 20 31 21 29 22
REMARK SMILES IDX 38 23 34 25 35 26 26 27 27 28 28 29 32 30 30 32 18 34 6 36
REMARK SMILES IDX 7 37 8 38 14 39 15 40 10 41 12 43
REMARK H PARENT 38 24 32 31 30 33 18 35 10 42 12 44
REMARK Flexibility Score: inf
ROOT
ATOM      1  C   UNL     1      -4.638  -2.603  -5.541  1.00  0.00     0.045 C 
ATOM      2  C   UNL     1      -4.177  -2.447  -4.112  1.00  0.00    -0.039 A 
ATOM      3  C   UNL     1      -4.718  -3.271  -3.123  1.00  0.00     0.013 A 
ATOM      4  C   UNL     1      -4.332  -3.160  -1.769  1.00  0.00    -0.006 A 
ATOM      5  C   UNL     1      -3.267  -2.276  -1.434  1.00  0.00     0.039 A 
ATOM      6  C   UNL     1      -2.715  -2.328  -0.121  1.00  0.00     0.072 A 
ATOM      7  C   UNL     1      -3.260  -3.198   0.841  1.00  0.00     0.169 A 
ATOM      8  C   UNL     1      -4.356  -4.024   0.518  1.00  0.00     0.162 A 
ATOM      9  C   UNL     1      -4.967  -3.937  -0.753  1.00  0.00     0.008 A 
ATOM     10  C   UNL     1      -2.811  -1.349  -2.417  1.00  0.00     0.132 A 
ATOM     11  C   UNL     1      -3.254  -1.451  -3.753  1.00  0.00     0.031 A 
ENDROOT
BRANCH  11  12
ATOM     12  C   UNL     1      -2.740  -0.517  -4.788  1.00  0.00     0.031 A 
ATOM     13  C   UNL     1      -3.591   0.458  -5.351  1.00  0.00     0.132 A 
ATOM     14  C   UNL     1      -1.400  -0.605  -5.202  1.00  0.00    -0.039 A 
ATOM     15  C   UNL     1      -3.102   1.359  -6.346  1.00  0.00     0.039 A 
ATOM     16  C   UNL     1      -0.941   0.228  -6.223  1.00  0.00     0.013 A 
ATOM     17  C   UNL     1      -0.446  -1.580  -4.556  1.00  0.00     0.045 C 
ATOM     18  C   UNL     1      -1.787   1.158  -6.863  1.00  0.00    -0.006 A 
ATOM     19  C   UNL     1      -3.881   2.444  -6.849  1.00  0.00     0.072 A 
ATOM     20  C   UNL     1      -1.338   1.906  -7.993  1.00  0.00     0.008 A 
ATOM     21  C   UNL     1      -3.343   3.294  -7.837  1.00  0.00     0.169 A 
ATOM     22  C   UNL     1      -2.093   3.023  -8.405  1.00  0.00     0.162 A 
BRANCH  13  23
ATOM     23  O   UNL     1      -4.929   0.515  -4.942  1.00  0.00    -0.507 OA
ATOM     24  H   UNL     1      -5.698   0.758  -5.554  1.00  0.00     0.293 HD
ENDBRANCH  13  23
BRANCH  19  25
ATOM     25  C   UNL     1      -5.215   2.768  -6.302  1.00  0.00     0.264 C 
ATOM     26  O   UNL     1      -6.252   2.252  -6.798  1.00  0.00    -0.298 OA
ENDBRANCH  19  25
BRANCH  20  27
ATOM     27  C   UNL     1      -0.056   1.526  -8.755  1.00  0.00     0.017 C 
ATOM     28  C   UNL     1       0.028   2.270 -10.092  1.00  0.00     0.012 C 
ATOM     29  C   UNL     1       0.125   0.008  -8.947  1.00  0.00     0.012 C 
ENDBRANCH  20  27
BRANCH  21  30
ATOM     30  O   UNL     1      -4.024   4.440  -8.268  1.00  0.00    -0.504 OA
ATOM     31  H   UNL     1      -4.119   5.283  -7.718  1.00  0.00     0.293 HD
ENDBRANCH  21  30
BRANCH  22  32
ATOM     32  O   UNL     1      -1.582   3.890  -9.374  1.00  0.00    -0.504 OA
ATOM     33  H   UNL     1      -1.462   3.626 -10.344  1.00  0.00     0.293 HD
ENDBRANCH  22  32
ENDBRANCH  11  12
BRANCH  10  34
ATOM     34  O   UNL     1      -1.953  -0.303  -2.058  1.00  0.00    -0.507 OA
ATOM     35  H   UNL     1      -2.200   0.676  -2.124  1.00  0.00     0.293 HD
ENDBRANCH  10  34
BRANCH   9  36
ATOM     36  C   UNL     1      -6.282  -4.691  -1.023  1.00  0.00     0.017 C 
ATOM     37  C   UNL     1      -6.211  -6.127  -0.498  1.00  0.00     0.012 C 
ATOM     38  C   UNL     1      -7.533  -3.961  -0.497  1.00  0.00     0.012 C 
ENDBRANCH   9  36
BRANCH   6  39
ATOM     39  C   UNL     1      -1.482  -1.588   0.242  1.00  0.00     0.264 C 
ATOM     40  O   UNL     1      -1.526  -0.591   1.012  1.00  0.00    -0.298 OA
ENDBRANCH   6  39
BRANCH   8  41
ATOM     41  O   UNL     1      -4.831  -4.971   1.429  1.00  0.00    -0.504 OA
ATOM     42  H   UNL     1      -5.421  -4.764   2.222  1.00  0.00     0.293 HD
ENDBRANCH   8  41
BRANCH   7  43
ATOM     43  O   UNL     1      -2.684  -3.225   2.118  1.00  0.00    -0.504 OA
ATOM     44  H   UNL     1      -1.933  -3.838   2.396  1.00  0.00     0.293 HD
ENDBRANCH   7  43
TORSDOF 11
ENDMDL
MODEL 3
REMARK VINA RESULT:    -3.855      1.990      3.469
REMARK INTER + INTRA:          -6.595
REMARK INTER:                  -5.972
REMARK INTRA:                  -0.624
REMARK UNBOUND:                -0.938
REMARK SMILES Cc1cc2c(C(C)C)c(O)c(O)c(C=O)c2c(O)c1-c1c(C)cc2c(C(C)C)c(O)c(O)c(C=O)c2c1O
REMARK SMILES IDX 1 1 2 2 3 3 4 4 16 5 13 6 11 7 9 8 5 9 17 10 19 11 20 12
REMARK SMILES IDX 37 13 21 14 36 15 23 16 22 17 24 18 33 19 25 20 31 21 29 22
REMARK SMILES IDX 38 23 34 25 35 26 26 27 27 28 28 29 32 30 30 32 18 34 6 36
REMARK SMILES IDX 7 37 8 38 14 39 15 40 10 41 12 43
REMARK H PARENT 38 24 32 31 30 33 18 35 10 42 12 44
REMARK Flexibility Score: inf
ROOT
ATOM      1  C   UNL     1     -20.026   3.108 -13.864  1.00  0.00     0.045 C 
ATOM      2  C   UNL     1     -18.838   3.431 -14.737  1.00  0.00    -0.039 A 
ATOM      3  C   UNL     1     -18.743   4.692 -15.327  1.00  0.00     0.013 A 
ATOM      4  C   UNL     1     -17.660   5.043 -16.164  1.00  0.00    -0.006 A 
ATOM      5  C   UNL     1     -16.576   4.129 -16.296  1.00  0.00     0.039 A 
ATOM      6  C   UNL     1     -15.383   4.564 -16.941  1.00  0.00     0.072 A 
ATOM      7  C   UNL     1     -15.307   5.856 -17.492  1.00  0.00     0.169 A 
ATOM      8  C   UNL     1     -16.409   6.731 -17.413  1.00  0.00     0.162 A 
ATOM      9  C   UNL     1     -17.627   6.299 -16.843  1.00  0.00     0.008 A 
ATOM     10  C   UNL     1     -16.736   2.800 -15.801  1.00  0.00     0.132 A 
ATOM     11  C   UNL     1     -17.856   2.465 -15.010  1.00  0.00     0.031 A 
ENDROOT
BRANCH  11  12
ATOM     12  C   UNL     1     -17.997   1.094 -14.454  1.00  0.00     0.031 A 
ATOM     13  C   UNL     1     -18.737   0.116 -15.152  1.00  0.00     0.132 A 
ATOM     14  C   UNL     1     -17.389   0.774 -13.228  1.00  0.00    -0.039 A 
ATOM     15  C   UNL     1     -18.874  -1.204 -14.622  1.00  0.00     0.039 A 
ATOM     16  C   UNL     1     -17.581  -0.493 -12.676  1.00  0.00     0.013 A 
ATOM     17  C   UNL     1     -16.522   1.775 -12.503  1.00  0.00     0.045 C 
ATOM     18  C   UNL     1     -18.381  -1.468 -13.309  1.00  0.00    -0.006 A 
ATOM     19  C   UNL     1     -19.496  -2.263 -15.349  1.00  0.00     0.072 A 
ATOM     20  C   UNL     1     -18.676  -2.708 -12.667  1.00  0.00     0.008 A 
ATOM     21  C   UNL     1     -19.609  -3.542 -14.765  1.00  0.00     0.169 A 
ATOM     22  C   UNL     1     -19.211  -3.757 -13.442  1.00  0.00     0.162 A 
BRANCH  13  23
ATOM     23  O   UNL     1     -19.354   0.460 -16.361  1.00  0.00    -0.507 OA
ATOM     24  H   UNL     1     -20.357   0.498 -16.493  1.00  0.00     0.293 HD
ENDBRANCH  13  23
BRANCH  19  25
ATOM     25  C   UNL     1     -19.953  -2.089 -16.744  1.00  0.00     0.264 C 
ATOM     26  O   UNL     1     -19.423  -2.748 -17.677  1.00  0.00    -0.298 OA
ENDBRANCH  19  25
BRANCH  20  27
ATOM     27  C   UNL     1     -18.417  -2.922 -11.165  1.00  0.00     0.017 C 
ATOM     28  C   UNL     1     -19.488  -2.226 -10.318  1.00  0.00     0.012 C 
ATOM     29  C   UNL     1     -16.999  -2.519 -10.717  1.00  0.00     0.012 C 
ENDBRANCH  20  27
BRANCH  21  30
ATOM     30  O   UNL     1     -20.100  -4.636 -15.489  1.00  0.00    -0.504 OA
ATOM     31  H   UNL     1     -21.029  -4.684 -15.884  1.00  0.00     0.293 HD
ENDBRANCH  21  30
BRANCH  22  32
ATOM     32  O   UNL     1     -19.325  -5.039 -12.896  1.00  0.00    -0.504 OA
ATOM     33  H   UNL     1     -19.584  -5.207 -11.931  1.00  0.00     0.293 HD
ENDBRANCH  22  32
ENDBRANCH  11  12
BRANCH  10  34
ATOM     34  O   UNL     1     -15.807   1.808 -16.131  1.00  0.00    -0.507 OA
ATOM     35  H   UNL     1     -16.061   0.888 -16.469  1.00  0.00     0.293 HD
ENDBRANCH  10  34
BRANCH   9  36
ATOM     36  C   UNL     1     -18.879   7.189 -16.947  1.00  0.00     0.017 C 
ATOM     37  C   UNL     1     -19.768   6.754 -18.116  1.00  0.00     0.012 C 
ATOM     38  C   UNL     1     -19.683   7.284 -15.636  1.00  0.00     0.012 C 
ENDBRANCH   9  36
BRANCH   6  39
ATOM     39  C   UNL     1     -14.146   3.745 -16.940  1.00  0.00     0.264 C 
ATOM     40  O   UNL     1     -13.020   4.269 -16.729  1.00  0.00    -0.298 OA
ENDBRANCH   6  39
BRANCH   8  41
ATOM     41  O   UNL     1     -16.305   8.054 -17.855  1.00  0.00    -0.504 OA
ATOM     42  H   UNL     1     -16.929   8.491 -18.517  1.00  0.00     0.293 HD
ENDBRANCH   8  41
BRANCH   7  43
ATOM     43  O   UNL     1     -14.113   6.247 -18.112  1.00  0.00    -0.504 OA
ATOM     44  H   UNL     1     -13.198   5.896 -17.869  1.00  0.00     0.293 HD
ENDBRANCH   7  43
TORSDOF 11
ENDMDL
MODEL 4
REMARK VINA RESULT:    -3.718     16.677     20.633
REMARK INTER + INTRA:          -6.395
REMARK INTER:                  -5.426
REMARK INTRA:                  -0.969
REMARK UNBOUND:                -0.938
REMARK SMILES Cc1cc2c(C(C)C)c(O)c(O)c(C=O)c2c(O)c1-c1c(C)cc2c(C(C)C)c(O)c(O)c(C=O)c2c1O
REMARK SMILES IDX 1 1 2 2 3 3 4 4 16 5 13 6 11 7 9 8 5 9 17 10 19 11 20 12
REMARK SMILES IDX 37 13 21 14 36 15 23 16 22 17 24 18 33 19 25 20 31 21 29 22
REMARK SMILES IDX 38 23 34 25 35 26 26 27 27 28 28 29 32 30 30 32 18 34 6 36
REMARK SMILES IDX 7 37 8 38 14 39 15 40 10 41 12 43
REMARK H PARENT 38 24 32 31 30 33 18 35 10 42 12 44
REMARK Flexibility Score: inf
ROOT
ATOM      1  C   UNL     1      -3.109  -0.334  -0.891  1.00  0.00     0.045 C 
ATOM      2  C   UNL     1      -2.362  -1.560  -1.358  1.00  0.00    -0.039 A 
ATOM      3  C   UNL     1      -2.111  -2.595  -0.455  1.00  0.00     0.013 A 
ATOM      4  C   UNL     1      -1.405  -3.759  -0.835  1.00  0.00    -0.006 A 
ATOM      5  C   UNL     1      -1.063  -3.931  -2.207  1.00  0.00     0.039 A 
ATOM      6  C   UNL     1      -0.565  -5.194  -2.639  1.00  0.00     0.072 A 
ATOM      7  C   UNL     1      -0.359  -6.230  -1.708  1.00  0.00     0.169 A 
ATOM      8  C   UNL     1      -0.641  -6.027  -0.342  1.00  0.00     0.162 A 
ATOM      9  C   UNL     1      -1.065  -4.762   0.122  1.00  0.00     0.008 A 
ATOM     10  C   UNL     1      -1.205  -2.823  -3.093  1.00  0.00     0.132 A 
ATOM     11  C   UNL     1      -1.869  -1.652  -2.669  1.00  0.00     0.031 A 
ENDROOT
BRANCH  11  12
ATOM     12  C   UNL     1      -2.060  -0.516  -3.609  1.00  0.00     0.031 A 
ATOM     13  C   UNL     1      -3.215  -0.449  -4.417  1.00  0.00     0.132 A 
ATOM     14  C   UNL     1      -1.086   0.493  -3.688  1.00  0.00    -0.039 A 
ATOM     15  C   UNL     1      -3.403   0.642  -5.321  1.00  0.00     0.039 A 
ATOM     16  C   UNL     1      -1.236   1.521  -4.620  1.00  0.00     0.013 A 
ATOM     17  C   UNL     1       0.117   0.490  -2.775  1.00  0.00     0.045 C 
ATOM     18  C   UNL     1      -2.338   1.574  -5.499  1.00  0.00    -0.006 A 
ATOM     19  C   UNL     1      -4.611   0.826  -6.060  1.00  0.00     0.072 A 
ATOM     20  C   UNL     1      -2.408   2.554  -6.534  1.00  0.00     0.008 A 
ATOM     21  C   UNL     1      -4.731   1.919  -6.943  1.00  0.00     0.169 A 
ATOM     22  C   UNL     1      -3.643   2.765  -7.181  1.00  0.00     0.162 A 
BRANCH  13  23
ATOM     23  O   UNL     1      -4.163  -1.475  -4.340  1.00  0.00    -0.507 OA
ATOM     24  H   UNL     1      -3.955  -2.452  -4.506  1.00  0.00     0.293 HD
ENDBRANCH  13  23
BRANCH  19  25
ATOM     25  C   UNL     1      -5.787  -0.047  -5.865  1.00  0.00     0.264 C 
ATOM     26  O   UNL     1      -6.001  -1.014  -6.643  1.00  0.00    -0.298 OA
ENDBRANCH  19  25
BRANCH  20  27
ATOM     27  C   UNL     1      -1.178   3.382  -6.946  1.00  0.00     0.017 C 
ATOM     28  C   UNL     1      -0.043   2.475  -7.432  1.00  0.00     0.012 C 
ATOM     29  C   UNL     1      -0.691   4.355  -5.855  1.00  0.00     0.012 C 
ENDBRANCH  20  27
BRANCH  21  30
ATOM     30  O   UNL     1      -5.938   2.206  -7.593  1.00  0.00    -0.504 OA
ATOM     31  H   UNL     1      -6.106   2.041  -8.576  1.00  0.00     0.293 HD
ENDBRANCH  21  30
BRANCH  22  32
ATOM     32  O   UNL     1      -3.797   3.846  -8.053  1.00  0.00    -0.504 OA
ATOM     33  H   UNL     1      -4.492   3.868  -8.789  1.00  0.00     0.293 HD
ENDBRANCH  22  32
ENDBRANCH  11  12
BRANCH  10  34
ATOM     34  O   UNL     1      -0.649  -2.869  -4.376  1.00  0.00    -0.507 OA
ATOM     35  H   UNL     1       0.186  -2.366  -4.647  1.00  0.00     0.293 HD
ENDBRANCH  10  34
BRANCH   9  36
ATOM     36  C   UNL     1      -1.171  -4.498   1.635  1.00  0.00     0.017 C 
ATOM     37  C   UNL     1      -0.005  -3.634   2.125  1.00  0.00     0.012 C 
ATOM     38  C   UNL     1      -2.527  -3.910   2.069  1.00  0.00     0.012 C 
ENDBRANCH   9  36
BRANCH   6  39
ATOM     39  C   UNL     1      -0.378  -5.515  -4.075  1.00  0.00     0.264 C 
ATOM     40  O   UNL     1      -0.801  -6.599  -4.559  1.00  0.00    -0.298 OA
ENDBRANCH   6  39
BRANCH   8  41
ATOM     41  O   UNL     1      -0.548  -7.082   0.571  1.00  0.00    -0.504 OA
ATOM     42  H   UNL     1      -1.190  -7.244   1.333  1.00  0.00     0.293 HD
ENDBRANCH   8  41
BRANCH   7  43
ATOM     43  O   UNL     1       0.124  -7.459  -2.175  1.00  0.00    -0.504 OA
ATOM     44  H   UNL     1       1.016  -7.859  -1.921  1.00  0.00     0.293 HD
ENDBRANCH   7  43
TORSDOF 11
ENDMDL
MODEL 5
REMARK VINA RESULT:    -3.327     13.239     15.572
REMARK INTER + INTRA:          -5.820
REMARK INTER:                  -6.305
REMARK INTRA:                   0.485
REMARK UNBOUND:                -0.938
REMARK SMILES Cc1cc2c(C(C)C)c(O)c(O)c(C=O)c2c(O)c1-c1c(C)cc2c(C(C)C)c(O)c(O)c(C=O)c2c1O
REMARK SMILES IDX 1 1 2 2 3 3 4 4 16 5 13 6 11 7 9 8 5 9 17 10 19 11 20 12
REMARK SMILES IDX 37 13 21 14 36 15 23 16 22 17 24 18 33 19 25 20 31 21 29 22
REMARK SMILES IDX 38 23 34 25 35 26 26 27 27 28 28 29 32 30 30 32 18 34 6 36
REMARK SMILES IDX 7 37 8 38 14 39 15 40 10 41 12 43
REMARK H PARENT 38 24 32 31 30 33 18 35 10 42 12 44
REMARK Flexibility Score: inf
ROOT
ATOM      1  C   UNL     1       0.125   5.381  -9.200  1.00  0.00     0.045 C 
ATOM      2  C   UNL     1      -0.875   5.382 -10.331  1.00  0.00    -0.039 A 
ATOM      3  C   UNL     1      -0.846   6.413 -11.272  1.00  0.00     0.013 A 
ATOM      4  C   UNL     1      -1.766   6.471 -12.342  1.00  0.00    -0.006 A 
ATOM      5  C   UNL     1      -2.656   5.375 -12.536  1.00  0.00     0.039 A 
ATOM      6  C   UNL     1      -3.420   5.312 -13.737  1.00  0.00     0.072 A 
ATOM      7  C   UNL     1      -3.338   6.351 -14.683  1.00  0.00     0.169 A 
ATOM      8  C   UNL     1      -2.502   7.462 -14.452  1.00  0.00     0.162 A 
ATOM      9  C   UNL     1      -1.791   7.583 -13.237  1.00  0.00     0.008 A 
ATOM     10  C   UNL     1      -2.770   4.395 -11.506  1.00  0.00     0.132 A 
ATOM     11  C   UNL     1      -1.869   4.393 -10.420  1.00  0.00     0.031 A 
ENDROOT
BRANCH  11  12
ATOM     12  C   UNL     1      -1.957   3.343  -9.373  1.00  0.00     0.031 A 
ATOM     13  C   UNL     1      -3.021   3.351  -8.446  1.00  0.00     0.132 A 
ATOM     14  C   UNL     1      -0.977   2.338  -9.310  1.00  0.00    -0.039 A 
ATOM     15  C   UNL     1      -3.111   2.342  -7.438  1.00  0.00     0.039 A 
ATOM     16  C   UNL     1      -1.025   1.394  -8.283  1.00  0.00     0.013 A 
ATOM     17  C   UNL     1       0.124   2.257 -10.340  1.00  0.00     0.045 C 
ATOM     18  C   UNL     1      -2.030   1.422  -7.293  1.00  0.00    -0.006 A 
ATOM     19  C   UNL     1      -4.234   2.227  -6.564  1.00  0.00     0.072 A 
ATOM     20  C   UNL     1      -1.988   0.533  -6.178  1.00  0.00     0.008 A 
ATOM     21  C   UNL     1      -4.258   1.214  -5.583  1.00  0.00     0.169 A 
ATOM     22  C   UNL     1      -3.149   0.385  -5.390  1.00  0.00     0.162 A 
BRANCH  13  23
ATOM     23  O   UNL     1      -3.976   4.372  -8.511  1.00  0.00    -0.507 OA
ATOM     24  H   UNL     1      -3.904   5.176  -9.121  1.00  0.00     0.293 HD
ENDBRANCH  13  23
BRANCH  19  25
ATOM     25  C   UNL     1      -5.427   3.087  -6.708  1.00  0.00     0.264 C 
ATOM     26  O   UNL     1      -6.465   2.652  -7.274  1.00  0.00    -0.298 OA
ENDBRANCH  19  25
BRANCH  20  27
ATOM     27  C   UNL     1      -0.719  -0.264  -5.827  1.00  0.00     0.017 C 
ATOM     28  C   UNL     1       0.125   0.478  -4.785  1.00  0.00     0.012 C 
ATOM     29  C   UNL     1       0.124  -0.660  -7.054  1.00  0.00     0.012 C 
ENDBRANCH  20  27
BRANCH  21  30
ATOM     30  O   UNL     1      -5.390   0.990  -4.790  1.00  0.00    -0.504 OA
ATOM     31  H   UNL     1      -5.421   1.140  -3.790  1.00  0.00     0.293 HD
ENDBRANCH  21  30
BRANCH  22  32
ATOM     32  O   UNL     1      -3.207  -0.617  -4.418  1.00  0.00    -0.504 OA
ATOM     33  H   UNL     1      -3.510  -0.448  -3.466  1.00  0.00     0.293 HD
ENDBRANCH  22  32
ENDBRANCH  11  12
BRANCH  10  34
ATOM     34  O   UNL     1      -3.804   3.453 -11.539  1.00  0.00    -0.507 OA
ATOM     35  H   UNL     1      -4.496   3.402 -12.276  1.00  0.00     0.293 HD
ENDBRANCH  10  34
BRANCH   9  36
ATOM     36  C   UNL     1      -1.048   8.892 -12.912  1.00  0.00     0.017 C 
ATOM     37  C   UNL     1      -0.275   9.402 -14.131  1.00  0.00     0.012 C 
ATOM     38  C   UNL     1      -1.954   9.988 -12.321  1.00  0.00     0.012 C 
ENDBRANCH   9  36
BRANCH   6  39
ATOM     39  C   UNL     1      -4.211   4.112 -14.101  1.00  0.00     0.264 C 
ATOM     40  O   UNL     1      -4.512   3.873 -15.302  1.00  0.00    -0.298 OA
ENDBRANCH   6  39
BRANCH   8  41
ATOM     41  O   UNL     1      -2.327   8.441 -15.434  1.00  0.00    -0.504 OA
ATOM     42  H   UNL     1      -2.452   9.432 -15.289  1.00  0.00     0.293 HD
ENDBRANCH   8  41
BRANCH   7  43
ATOM     43  O   UNL     1      -4.100   6.247 -15.853  1.00  0.00    -0.504 OA
ATOM     44  H   UNL     1      -3.735   6.358 -16.788  1.00  0.00     0.293 HD
ENDBRANCH   7  43
TORSDOF 11
ENDMDL
MODEL 6
REMARK VINA RESULT:    -3.058     13.342     15.787
REMARK INTER + INTRA:          -5.427
REMARK INTER:                  -5.474
REMARK INTRA:                   0.047
REMARK UNBOUND:                -0.938
REMARK SMILES Cc1cc2c(C(C)C)c(O)c(O)c(C=O)c2c(O)c1-c1c(C)cc2c(C(C)C)c(O)c(O)c(C=O)c2c1O
REMARK SMILES IDX 1 1 2 2 3 3 4 4 16 5 13 6 11 7 9 8 5 9 17 10 19 11 20 12
REMARK SMILES IDX 37 13 21 14 36 15 23 16 22 17 24 18 33 19 25 20 31 21 29 22
REMARK SMILES IDX 38 23 34 25 35 26 26 27 27 28 28 29 32 30 30 32 18 34 6 36
REMARK SMILES IDX 7 37 8 38 14 39 15 40 10 41 12 43
REMARK H PARENT 38 24 32 31 30 33 18 35 10 42 12 44
REMARK Flexibility Score: inf
ROOT
ATOM      1  C   UNL     1      -3.947   2.938 -12.219  1.00  0.00     0.045 C 
ATOM      2  C   UNL     1      -3.077   4.164 -12.347  1.00  0.00    -0.039 A 
ATOM      3  C   UNL     1      -3.123   4.918 -13.521  1.00  0.00     0.013 A 
ATOM      4  C   UNL     1      -2.321   6.067 -13.700  1.00  0.00    -0.006 A 
ATOM      5  C   UNL     1      -1.549   6.538 -12.599  1.00  0.00     0.039 A 
ATOM      6  C   UNL     1      -0.925   7.815 -12.691  1.00  0.00     0.072 A 
ATOM      7  C   UNL     1      -1.023   8.567 -13.877  1.00  0.00     0.169 A 
ATOM      8  C   UNL     1      -1.736   8.063 -14.984  1.00  0.00     0.162 A 
ATOM      9  C   UNL     1      -2.301   6.769 -14.943  1.00  0.00     0.008 A 
ATOM     10  C   UNL     1      -1.405   5.699 -11.455  1.00  0.00     0.132 A 
ATOM     11  C   UNL     1      -2.182   4.528 -11.327  1.00  0.00     0.031 A 
ENDROOT
BRANCH  11  12
ATOM     12  C   UNL     1      -2.068   3.680 -10.112  1.00  0.00     0.031 A 
ATOM     13  C   UNL     1      -3.088   3.695  -9.137  1.00  0.00     0.132 A 
ATOM     14  C   UNL     1      -0.940   2.862  -9.937  1.00  0.00    -0.039 A 
ATOM     15  C   UNL     1      -2.983   2.881  -7.967  1.00  0.00     0.039 A 
ATOM     16  C   UNL     1      -0.804   2.120  -8.763  1.00  0.00     0.013 A 
ATOM     17  C   UNL     1       0.125   2.763 -11.003  1.00  0.00     0.045 C 
ATOM     18  C   UNL     1      -1.766   2.174  -7.733  1.00  0.00    -0.006 A 
ATOM     19  C   UNL     1      -4.044   2.758  -7.020  1.00  0.00     0.072 A 
ATOM     20  C   UNL     1      -1.547   1.516  -6.485  1.00  0.00     0.008 A 
ATOM     21  C   UNL     1      -3.875   1.945  -5.880  1.00  0.00     0.169 A 
ATOM     22  C   UNL     1      -2.642   1.339  -5.615  1.00  0.00     0.162 A 
BRANCH  13  23
ATOM     23  O   UNL     1      -4.194   4.533  -9.317  1.00  0.00    -0.507 OA
ATOM     24  H   UNL     1      -4.290   5.445  -8.887  1.00  0.00     0.293 HD
ENDBRANCH  13  23
BRANCH  19  25
ATOM     25  C   UNL     1      -5.363   3.390  -7.236  1.00  0.00     0.264 C 
ATOM     26  O   UNL     1      -6.411   2.692  -7.252  1.00  0.00    -0.298 OA
ENDBRANCH  19  25
BRANCH  20  27
ATOM     27  C   UNL     1      -0.157   0.994  -6.081  1.00  0.00     0.017 C 
ATOM     28  C   UNL     1       0.069  -0.428  -6.604  1.00  0.00     0.012 C 
ATOM     29  C   UNL     1       0.124   1.086  -4.569  1.00  0.00     0.012 C 
ENDBRANCH  20  27
BRANCH  21  30
ATOM     30  O   UNL     1      -4.930   1.699  -4.992  1.00  0.00    -0.504 OA
ATOM     31  H   UNL     1      -5.321   0.784  -4.816  1.00  0.00     0.293 HD
ENDBRANCH  21  30
BRANCH  22  32
ATOM     32  O   UNL     1      -2.509   0.530  -4.483  1.00  0.00    -0.504 OA
ATOM     33  H   UNL     1      -2.562  -0.480  -4.517  1.00  0.00     0.293 HD
ENDBRANCH  22  32
ENDBRANCH  11  12
BRANCH  10  34
ATOM     34  O   UNL     1      -0.461   6.005 -10.468  1.00  0.00    -0.507 OA
ATOM     35  H   UNL     1      -0.694   6.422  -9.576  1.00  0.00     0.293 HD
ENDBRANCH  10  34
BRANCH   9  36
ATOM     36  C   UNL     1      -2.896   6.153 -16.223  1.00  0.00     0.017 C 
ATOM     37  C   UNL     1      -1.861   5.290 -16.950  1.00  0.00     0.012 C 
ATOM     38  C   UNL     1      -4.207   5.379 -15.986  1.00  0.00     0.012 C 
ENDBRANCH   9  36
BRANCH   6  39
ATOM     39  C   UNL     1      -0.277   8.459 -11.523  1.00  0.00     0.264 C 
ATOM     40  O   UNL     1      -0.509   9.664 -11.233  1.00  0.00    -0.298 OA
ENDBRANCH   6  39
BRANCH   8  41
ATOM     41  O   UNL     1      -1.935   8.848 -16.123  1.00  0.00    -0.504 OA
ATOM     42  H   UNL     1      -1.207   9.340 -16.619  1.00  0.00     0.293 HD
ENDBRANCH   8  41
BRANCH   7  43
ATOM     43  O   UNL     1      -0.402   9.821 -13.924  1.00  0.00    -0.504 OA
ATOM     44  H   UNL     1       0.597   9.969 -13.906  1.00  0.00     0.293 HD
ENDBRANCH   7  43
TORSDOF 11
ENDMDL
