MODEL 1
REMARK VINA RESULT:    -3.302      0.000      0.000
REMARK INTER + INTRA:          -7.947
REMARK INTER:                  -6.198
REMARK INTRA:                  -1.749
REMARK UNBOUND:                -1.749
REMARK SMILES O=C([O-])CCCCCCCCCCCCCCC(=O)[O-]
REMARK SMILES IDX 10 1 9 2 8 3 7 4 6 5 5 6 4 7 2 8 1 9 3 10 11 11 12 12 13 13
REMARK SMILES IDX 14 14 15 15 16 16 17 17 18 18 19 19 20 20
REMARK H PARENT
REMARK Flexibility Score: inf
ROOT
ATOM      1  C   UNL     1      -3.885  35.387   2.644  1.00  0.00     0.000 C 
ENDROOT
BRANCH   1   2
ATOM      2  C   UNL     1      -3.888  34.149   1.734  1.00  0.00     0.000 C 
BRANCH   2   3
ATOM      3  C   UNL     1      -4.205  34.488   0.269  1.00  0.00     0.000 C 
BRANCH   3   4
ATOM      4  C   UNL     1      -5.580  33.943  -0.136  1.00  0.00     0.000 C 
BRANCH   4   5
ATOM      5  C   UNL     1      -6.621  34.204   0.962  1.00  0.00     0.000 C 
BRANCH   5   6
ATOM      6  C   UNL     1      -7.416  32.944   1.338  1.00  0.00     0.006 C 
BRANCH   6   7
ATOM      7  C   UNL     1      -6.516  31.724   1.575  1.00  0.00     0.053 C 
BRANCH   7   8
ATOM      8  C   UNL     1      -7.332  30.470   1.597  1.00  0.00     0.041 C 
ATOM      9  O   UNL     1      -7.737  29.959   0.519  1.00  0.00    -0.550 OA
ATOM     10  O   UNL     1      -7.685  29.892   2.808  1.00  0.00    -0.550 OA
ENDBRANCH   7   8
ENDBRANCH   6   7
ENDBRANCH   5   6
ENDBRANCH   4   5
ENDBRANCH   3   4
ENDBRANCH   2   3
ENDBRANCH   1   2
BRANCH   1  11
ATOM     11  C   UNL     1      -4.041  36.700   1.857  1.00  0.00     0.000 C 
BRANCH  11  12
ATOM     12  C   UNL     1      -5.094  37.635   2.475  1.00  0.00     0.000 C 
BRANCH  12  13
ATOM     13  C   UNL     1      -6.128  38.125   1.446  1.00  0.00     0.000 C 
BRANCH  13  14
ATOM     14  C   UNL     1      -5.743  37.754   0.005  1.00  0.00     0.000 C 
BRANCH  14  15
ATOM     15  C   UNL     1      -6.866  38.054  -1.002  1.00  0.00     0.000 C 
BRANCH  15  16
ATOM     16  C   UNL     1      -8.271  37.755  -0.446  1.00  0.00     0.006 C 
BRANCH  16  17
ATOM     17  C   UNL     1      -9.327  37.486  -1.533  1.00  0.00     0.053 C 
BRANCH  17  18
ATOM     18  C   UNL     1     -10.209  36.318  -1.208  1.00  0.00     0.041 C 
ATOM     19  O   UNL     1      -9.797  35.402  -0.448  1.00  0.00    -0.550 OA
ATOM     20  O   UNL     1     -11.499  36.256  -1.723  1.00  0.00    -0.550 OA
ENDBRANCH  17  18
ENDBRANCH  16  17
ENDBRANCH  15  16
ENDBRANCH  14  15
ENDBRANCH  13  14
ENDBRANCH  12  13
ENDBRANCH  11  12
ENDBRANCH   1  11
TORSDOF 15
ENDMDL
MODEL 2
REMARK VINA RESULT:    -3.236      0.972      5.595
REMARK INTER + INTRA:          -7.822
REMARK INTER:                  -6.677
REMARK INTRA:                  -1.145
REMARK UNBOUND:                -1.749
REMARK SMILES O=C([O-])CCCCCCCCCCCCCCC(=O)[O-]
REMARK SMILES IDX 10 1 9 2 8 3 7 4 6 5 5 6 4 7 2 8 1 9 3 10 11 11 12 12 13 13
REMARK SMILES IDX 14 14 15 15 16 16 17 17 18 18 19 19 20 20
REMARK H PARENT
REMARK Flexibility Score: inf
ROOT
ATOM      1  C   UNL     1      -4.956  35.577  -1.088  1.00  0.00     0.000 C 
ENDROOT
BRANCH   1   2
ATOM      2  C   UNL     1      -4.421  36.955  -1.509  1.00  0.00     0.000 C 
BRANCH   2   3
ATOM      3  C   UNL     1      -4.443  37.978  -0.362  1.00  0.00     0.000 C 
BRANCH   3   4
ATOM      4  C   UNL     1      -5.856  38.125   0.215  1.00  0.00     0.000 C 
BRANCH   4   5
ATOM      5  C   UNL     1      -6.918  37.976  -0.884  1.00  0.00     0.000 C 
BRANCH   5   6
ATOM      6  C   UNL     1      -8.185  37.259  -0.392  1.00  0.00     0.006 C 
BRANCH   6   7
ATOM      7  C   UNL     1      -9.373  37.435  -1.347  1.00  0.00     0.053 C 
BRANCH   7   8
ATOM      8  C   UNL     1     -10.335  36.299  -1.197  1.00  0.00     0.041 C 
ATOM      9  O   UNL     1     -11.484  36.369  -1.707  1.00  0.00    -0.550 OA
ATOM     10  O   UNL     1      -9.980  35.181  -0.453  1.00  0.00    -0.550 OA
ENDBRANCH   7   8
ENDBRANCH   6   7
ENDBRANCH   5   6
ENDBRANCH   4   5
ENDBRANCH   3   4
ENDBRANCH   2   3
ENDBRANCH   1   2
BRANCH   1  11
ATOM     11  C   UNL     1      -3.875  34.698  -0.436  1.00  0.00     0.000 C 
BRANCH  11  12
ATOM     12  C   UNL     1      -4.362  34.035   0.864  1.00  0.00     0.000 C 
BRANCH  12  13
ATOM     13  C   UNL     1      -5.014  35.038   1.832  1.00  0.00     0.000 C 
BRANCH  13  14
ATOM     14  C   UNL     1      -6.519  34.787   2.014  1.00  0.00     0.000 C 
BRANCH  14  15
ATOM     15  C   UNL     1      -7.140  34.039   0.822  1.00  0.00     0.000 C 
BRANCH  15  16
ATOM     16  C   UNL     1      -7.804  32.709   1.223  1.00  0.00     0.006 C 
BRANCH  16  17
ATOM     17  C   UNL     1      -6.805  31.566   1.481  1.00  0.00     0.053 C 
BRANCH  17  18
ATOM     18  C   UNL     1      -7.467  30.222   1.547  1.00  0.00     0.041 C 
ATOM     19  O   UNL     1      -7.845  29.648   0.492  1.00  0.00    -0.550 OA
ATOM     20  O   UNL     1      -7.639  29.590   2.773  1.00  0.00    -0.550 OA
ENDBRANCH  17  18
ENDBRANCH  16  17
ENDBRANCH  15  16
ENDBRANCH  14  15
ENDBRANCH  13  14
ENDBRANCH  12  13
ENDBRANCH  11  12
ENDBRANCH   1  11
TORSDOF 15
ENDMDL
MODEL 3
REMARK VINA RESULT:    -2.409      0.990      5.806
REMARK INTER + INTRA:          -6.270
REMARK INTER:                  -5.536
REMARK INTRA:                  -0.734
REMARK UNBOUND:                -1.749
REMARK SMILES O=C([O-])CCCCCCCCCCCCCCC(=O)[O-]
REMARK SMILES IDX 10 1 9 2 8 3 7 4 6 5 5 6 4 7 2 8 1 9 3 10 11 11 12 12 13 13
REMARK SMILES IDX 14 14 15 15 16 16 17 17 18 18 19 19 20 20
REMARK H PARENT
REMARK Flexibility Score: inf
ROOT
ATOM      1  C   UNL     1      -5.576  37.163   0.688  1.00  0.00     0.000 C 
ENDROOT
BRANCH   1   2
ATOM      2  C   UNL     1      -4.745  36.989  -0.593  1.00  0.00     0.000 C 
BRANCH   2   3
ATOM      3  C   UNL     1      -5.235  37.879  -1.746  1.00  0.00     0.000 C 
BRANCH   3   4
ATOM      4  C   UNL     1      -6.746  38.125  -1.646  1.00  0.00     0.000 C 
BRANCH   4   5
ATOM      5  C   UNL     1      -7.421  37.975  -3.017  1.00  0.00     0.000 C 
BRANCH   5   6
ATOM      6  C   UNL     1      -8.835  37.380  -2.921  1.00  0.00     0.006 C 
BRANCH   6   7
ATOM      7  C   UNL     1      -9.542  37.743  -1.608  1.00  0.00     0.053 C 
BRANCH   7   8
ATOM      8  C   UNL     1     -10.397  36.606  -1.145  1.00  0.00     0.041 C 
ATOM      9  O   UNL     1      -9.869  35.515  -0.801  1.00  0.00    -0.550 OA
ATOM     10  O   UNL     1     -11.779  36.735  -1.137  1.00  0.00    -0.550 OA
ENDBRANCH   7   8
ENDBRANCH   6   7
ENDBRANCH   5   6
ENDBRANCH   4   5
ENDBRANCH   3   4
ENDBRANCH   2   3
ENDBRANCH   1   2
BRANCH   1  11
ATOM     11  C   UNL     1      -4.858  36.623   1.936  1.00  0.00     0.000 C 
BRANCH  11  12
ATOM     12  C   UNL     1      -3.927  35.442   1.615  1.00  0.00     0.000 C 
BRANCH  12  13
ATOM     13  C   UNL     1      -4.699  34.162   1.247  1.00  0.00     0.000 C 
BRANCH  13  14
ATOM     14  C   UNL     1      -6.144  34.177   1.770  1.00  0.00     0.000 C 
BRANCH  14  15
ATOM     15  C   UNL     1      -7.170  33.839   0.676  1.00  0.00     0.000 C 
BRANCH  15  16
ATOM     16  C   UNL     1      -7.753  32.420   0.813  1.00  0.00     0.006 C 
BRANCH  16  17
ATOM     17  C   UNL     1      -6.899  31.476   1.678  1.00  0.00     0.053 C 
BRANCH  17  18
ATOM     18  C   UNL     1      -7.466  30.090   1.759  1.00  0.00     0.041 C 
ATOM     19  O   UNL     1      -7.639  29.538   2.877  1.00  0.00    -0.550 OA
ATOM     20  O   UNL     1      -7.831  29.419   0.597  1.00  0.00    -0.550 OA
ENDBRANCH  17  18
ENDBRANCH  16  17
ENDBRANCH  15  16
ENDBRANCH  14  15
ENDBRANCH  13  14
ENDBRANCH  12  13
ENDBRANCH  11  12
ENDBRANCH   1  11
TORSDOF 15
ENDMDL
MODEL 4
REMARK VINA RESULT:    -1.956      1.163      1.874
REMARK INTER + INTRA:          -5.420
REMARK INTER:                  -4.872
REMARK INTRA:                  -0.548
REMARK UNBOUND:                -1.749
REMARK SMILES O=C([O-])CCCCCCCCCCCCCCC(=O)[O-]
REMARK SMILES IDX 10 1 9 2 8 3 7 4 6 5 5 6 4 7 2 8 1 9 3 10 11 11 12 12 13 13
REMARK SMILES IDX 14 14 15 15 16 16 17 17 18 18 19 19 20 20
REMARK H PARENT
REMARK Flexibility Score: inf
ROOT
ATOM      1  C   UNL     1      -5.337  35.821   1.660  1.00  0.00     0.000 C 
ENDROOT
BRANCH   1   2
ATOM      2  C   UNL     1      -3.939  35.221   1.440  1.00  0.00     0.000 C 
BRANCH   2   3
ATOM      3  C   UNL     1      -3.936  33.685   1.491  1.00  0.00     0.000 C 
BRANCH   3   4
ATOM      4  C   UNL     1      -5.281  33.150   1.996  1.00  0.00     0.000 C 
BRANCH   4   5
ATOM      5  C   UNL     1      -6.361  33.259   0.910  1.00  0.00     0.000 C 
BRANCH   5   6
ATOM      6  C   UNL     1      -7.665  32.543   1.295  1.00  0.00     0.006 C 
BRANCH   6   7
ATOM      7  C   UNL     1      -7.715  31.093   0.795  1.00  0.00     0.053 C 
BRANCH   7   8
ATOM      8  C   UNL     1      -7.305  30.152   1.882  1.00  0.00     0.041 C 
ATOM      9  O   UNL     1      -6.345  29.356   1.703  1.00  0.00    -0.550 OA
ATOM     10  O   UNL     1      -8.012  30.120   3.077  1.00  0.00    -0.550 OA
ENDBRANCH   7   8
ENDBRANCH   6   7
ENDBRANCH   5   6
ENDBRANCH   4   5
ENDBRANCH   3   4
ENDBRANCH   2   3
ENDBRANCH   1   2
BRANCH   1  11
ATOM     11  C   UNL     1      -5.745  36.796   0.542  1.00  0.00     0.000 C 
BRANCH  11  12
ATOM     12  C   UNL     1      -4.623  37.012  -0.488  1.00  0.00     0.000 C 
BRANCH  12  13
ATOM     13  C   UNL     1      -5.148  37.556  -1.829  1.00  0.00     0.000 C 
BRANCH  13  14
ATOM     14  C   UNL     1      -6.571  38.125  -1.715  1.00  0.00     0.000 C 
BRANCH  14  15
ATOM     15  C   UNL     1      -7.367  37.987  -3.023  1.00  0.00     0.000 C 
BRANCH  15  16
ATOM     16  C   UNL     1      -8.857  37.671  -2.793  1.00  0.00     0.006 C 
BRANCH  16  17
ATOM     17  C   UNL     1      -9.225  37.446  -1.316  1.00  0.00     0.053 C 
BRANCH  17  18
ATOM     18  C   UNL     1     -10.212  36.332  -1.128  1.00  0.00     0.041 C 
ATOM     19  O   UNL     1     -11.367  36.415  -1.624  1.00  0.00    -0.550 OA
ATOM     20  O   UNL     1      -9.846  35.189  -0.427  1.00  0.00    -0.550 OA
ENDBRANCH  17  18
ENDBRANCH  16  17
ENDBRANCH  15  16
ENDBRANCH  14  15
ENDBRANCH  13  14
ENDBRANCH  12  13
ENDBRANCH  11  12
ENDBRANCH   1  11
TORSDOF 15
ENDMDL
MODEL 5
REMARK VINA RESULT:    -1.297     12.505     16.427
REMARK INTER + INTRA:          -4.183
REMARK INTER:                  -3.794
REMARK INTRA:                  -0.388
REMARK UNBOUND:                -1.749
REMARK SMILES O=C([O-])CCCCCCCCCCCCCCC(=O)[O-]
REMARK SMILES IDX 10 1 9 2 8 3 7 4 6 5 5 6 4 7 2 8 1 9 3 10 11 11 12 12 13 13
REMARK SMILES IDX 14 14 15 15 16 16 17 17 18 18 19 19 20 20
REMARK H PARENT
REMARK Flexibility Score: inf
ROOT
ATOM      1  C   UNL     1     -18.216  33.060 -10.347  1.00  0.00     0.000 C 
ENDROOT
BRANCH   1   2
ATOM      2  C   UNL     1     -18.462  33.777 -11.684  1.00  0.00     0.000 C 
BRANCH   2   3
ATOM      3  C   UNL     1     -17.170  34.002 -12.485  1.00  0.00     0.000 C 
BRANCH   3   4
ATOM      4  C   UNL     1     -15.988  33.271 -11.837  1.00  0.00     0.000 C 
BRANCH   4   5
ATOM      5  C   UNL     1     -15.078  34.253 -11.085  1.00  0.00     0.000 C 
BRANCH   5   6
ATOM      6  C   UNL     1     -14.696  33.753  -9.683  1.00  0.00     0.006 C 
BRANCH   6   7
ATOM      7  C   UNL     1     -14.479  34.898  -8.685  1.00  0.00     0.053 C 
BRANCH   7   8
ATOM      8  C   UNL     1     -13.343  35.767  -9.127  1.00  0.00     0.041 C 
ATOM      9  O   UNL     1     -12.739  35.520 -10.204  1.00  0.00    -0.550 OA
ATOM     10  O   UNL     1     -12.923  36.820  -8.326  1.00  0.00    -0.550 OA
ENDBRANCH   7   8
ENDBRANCH   6   7
ENDBRANCH   5   6
ENDBRANCH   4   5
ENDBRANCH   3   4
ENDBRANCH   2   3
ENDBRANCH   1   2
BRANCH   1  11
ATOM     11  C   UNL     1     -18.397  33.989  -9.135  1.00  0.00     0.000 C 
BRANCH  11  12
ATOM     12  C   UNL     1     -19.875  34.299  -8.846  1.00  0.00     0.000 C 
BRANCH  12  13
ATOM     13  C   UNL     1     -20.461  33.408  -7.735  1.00  0.00     0.000 C 
BRANCH  13  14
ATOM     14  C   UNL     1     -21.997  33.418  -7.724  1.00  0.00     0.000 C 
BRANCH  14  15
ATOM     15  C   UNL     1     -22.575  34.775  -7.288  1.00  0.00     0.000 C 
BRANCH  15  16
ATOM     16  C   UNL     1     -23.819  35.189  -8.096  1.00  0.00     0.006 C 
BRANCH  16  17
ATOM     17  C   UNL     1     -24.125  36.697  -8.040  1.00  0.00     0.053 C 
BRANCH  17  18
ATOM     18  C   UNL     1     -23.489  37.459  -9.165  1.00  0.00     0.041 C 
ATOM     19  O   UNL     1     -22.381  38.033  -8.997  1.00  0.00    -0.550 OA
ATOM     20  O   UNL     1     -24.109  37.512 -10.408  1.00  0.00    -0.550 OA
ENDBRANCH  17  18
ENDBRANCH  16  17
ENDBRANCH  15  16
ENDBRANCH  14  15
ENDBRANCH  13  14
ENDBRANCH  12  13
ENDBRANCH  11  12
ENDBRANCH   1  11
TORSDOF 15
ENDMDL
MODEL 6
REMARK VINA RESULT:    -0.770     11.696     15.632
REMARK INTER + INTRA:          -3.193
REMARK INTER:                  -3.076
REMARK INTRA:                  -0.117
REMARK UNBOUND:                -1.749
REMARK SMILES O=C([O-])CCCCCCCCCCCCCCC(=O)[O-]
REMARK SMILES IDX 10 1 9 2 8 3 7 4 6 5 5 6 4 7 2 8 1 9 3 10 11 11 12 12 13 13
REMARK SMILES IDX 14 14 15 15 16 16 17 17 18 18 19 19 20 20
REMARK H PARENT
REMARK Flexibility Score: inf
ROOT
ATOM      1  C   UNL     1     -16.816  32.906 -12.217  1.00  0.00     0.000 C 
ENDROOT
BRANCH   1   2
ATOM      2  C   UNL     1     -15.430  33.478 -12.558  1.00  0.00     0.000 C 
BRANCH   2   3
ATOM      3  C   UNL     1     -14.680  33.998 -11.321  1.00  0.00     0.000 C 
BRANCH   3   4
ATOM      4  C   UNL     1     -15.573  33.943 -10.075  1.00  0.00     0.000 C 
BRANCH   4   5
ATOM      5  C   UNL     1     -14.733  33.751  -8.804  1.00  0.00     0.000 C 
BRANCH   5   6
ATOM      6  C   UNL     1     -14.892  34.908  -7.806  1.00  0.00     0.006 C 
BRANCH   6   7
ATOM      7  C   UNL     1     -13.549  35.528  -7.398  1.00  0.00     0.053 C 
BRANCH   7   8
ATOM      8  C   UNL     1     -12.925  36.233  -8.561  1.00  0.00     0.041 C 
ATOM      9  O   UNL     1     -12.904  37.491  -8.603  1.00  0.00    -0.550 OA
ATOM     10  O   UNL     1     -12.408  35.500  -9.621  1.00  0.00    -0.550 OA
ENDBRANCH   7   8
ENDBRANCH   6   7
ENDBRANCH   5   6
ENDBRANCH   4   5
ENDBRANCH   3   4
ENDBRANCH   2   3
ENDBRANCH   1   2
BRANCH   1  11
ATOM     11  C   UNL     1     -17.922  33.451 -13.136  1.00  0.00     0.000 C 
BRANCH  11  12
ATOM     12  C   UNL     1     -18.909  34.365 -12.390  1.00  0.00     0.000 C 
BRANCH  12  13
ATOM     13  C   UNL     1     -18.530  34.564 -10.912  1.00  0.00     0.000 C 
BRANCH  13  14
ATOM     14  C   UNL     1     -18.910  33.357 -10.040  1.00  0.00     0.000 C 
BRANCH  14  15
ATOM     15  C   UNL     1     -19.030  33.719  -8.551  1.00  0.00     0.000 C 
BRANCH  15  16
ATOM     16  C   UNL     1     -20.362  33.264  -7.925  1.00  0.00     0.006 C 
BRANCH  16  17
ATOM     17  C   UNL     1     -21.356  34.412  -7.671  1.00  0.00     0.053 C 
BRANCH  17  18
ATOM     18  C   UNL     1     -22.766  33.931  -7.501  1.00  0.00     0.041 C 
ATOM     19  O   UNL     1     -23.002  32.862  -6.877  1.00  0.00    -0.550 OA
ATOM     20  O   UNL     1     -23.822  34.679  -8.008  1.00  0.00    -0.550 OA
ENDBRANCH  17  18
ENDBRANCH  16  17
ENDBRANCH  15  16
ENDBRANCH  14  15
ENDBRANCH  13  14
ENDBRANCH  12  13
ENDBRANCH  11  12
ENDBRANCH   1  11
TORSDOF 15
ENDMDL
MODEL 7
REMARK VINA RESULT:    -0.749     12.756     17.205
REMARK INTER + INTRA:          -3.155
REMARK INTER:                  -2.501
REMARK INTRA:                  -0.654
REMARK UNBOUND:                -1.749
REMARK SMILES O=C([O-])CCCCCCCCCCCCCCC(=O)[O-]
REMARK SMILES IDX 10 1 9 2 8 3 7 4 6 5 5 6 4 7 2 8 1 9 3 10 11 11 12 12 13 13
REMARK SMILES IDX 14 14 15 15 16 16 17 17 18 18 19 19 20 20
REMARK H PARENT
REMARK Flexibility Score: inf
ROOT
ATOM      1  C   UNL     1     -18.866  33.366  -8.289  1.00  0.00     0.000 C 
ENDROOT
BRANCH   1   2
ATOM      2  C   UNL     1     -20.389  33.292  -8.482  1.00  0.00     0.000 C 
BRANCH   2   3
ATOM      3  C   UNL     1     -21.118  34.535  -7.948  1.00  0.00     0.000 C 
BRANCH   3   4
ATOM      4  C   UNL     1     -22.231  34.141  -6.969  1.00  0.00     0.000 C 
BRANCH   4   5
ATOM      5  C   UNL     1     -23.491  33.690  -7.721  1.00  0.00     0.000 C 
BRANCH   5   6
ATOM      6  C   UNL     1     -24.099  34.806  -8.585  1.00  0.00     0.006 C 
BRANCH   6   7
ATOM      7  C   UNL     1     -23.983  36.190  -7.932  1.00  0.00     0.053 C 
BRANCH   7   8
ATOM      8  C   UNL     1     -23.478  37.192  -8.921  1.00  0.00     0.041 C 
ATOM      9  O   UNL     1     -22.495  37.926  -8.635  1.00  0.00    -0.550 OA
ATOM     10  O   UNL     1     -24.121  37.349 -10.142  1.00  0.00    -0.550 OA
ENDBRANCH   7   8
ENDBRANCH   6   7
ENDBRANCH   5   6
ENDBRANCH   4   5
ENDBRANCH   3   4
ENDBRANCH   2   3
ENDBRANCH   1   2
BRANCH   1  11
ATOM     11  C   UNL     1     -18.149  34.006  -9.490  1.00  0.00     0.000 C 
BRANCH  11  12
ATOM     12  C   UNL     1     -18.935  33.840 -10.802  1.00  0.00     0.000 C 
BRANCH  12  13
ATOM     13  C   UNL     1     -18.141  33.076 -11.876  1.00  0.00     0.000 C 
BRANCH  13  14
ATOM     14  C   UNL     1     -16.943  33.882 -12.404  1.00  0.00     0.000 C 
BRANCH  14  15
ATOM     15  C   UNL     1     -15.594  33.235 -12.049  1.00  0.00     0.000 C 
BRANCH  15  16
ATOM     16  C   UNL     1     -15.027  33.724 -10.703  1.00  0.00     0.006 C 
BRANCH  16  17
ATOM     17  C   UNL     1     -13.894  34.757 -10.842  1.00  0.00     0.053 C 
BRANCH  17  18
ATOM     18  C   UNL     1     -13.500  35.366  -9.530  1.00  0.00     0.041 C 
ATOM     19  O   UNL     1     -12.537  36.176  -9.468  1.00  0.00    -0.550 OA
ATOM     20  O   UNL     1     -14.216  35.060  -8.378  1.00  0.00    -0.550 OA
ENDBRANCH  17  18
ENDBRANCH  16  17
ENDBRANCH  15  16
ENDBRANCH  14  15
ENDBRANCH  13  14
ENDBRANCH  12  13
ENDBRANCH  11  12
ENDBRANCH   1  11
TORSDOF 15
ENDMDL
MODEL 8
REMARK VINA RESULT:    -0.382     12.038     16.220
REMARK INTER + INTRA:          -2.465
REMARK INTER:                  -2.927
REMARK INTRA:                   0.462
REMARK UNBOUND:                -1.749
REMARK SMILES O=C([O-])CCCCCCCCCCCCCCC(=O)[O-]
REMARK SMILES IDX 10 1 9 2 8 3 7 4 6 5 5 6 4 7 2 8 1 9 3 10 11 11 12 12 13 13
REMARK SMILES IDX 14 14 15 15 16 16 17 17 18 18 19 19 20 20
REMARK H PARENT
REMARK Flexibility Score: inf
ROOT
ATOM      1  C   UNL     1     -18.781  34.407 -12.834  1.00  0.00     0.000 C 
ENDROOT
BRANCH   1   2
ATOM      2  C   UNL     1     -18.868  34.671 -11.323  1.00  0.00     0.000 C 
BRANCH   2   3
ATOM      3  C   UNL     1     -18.563  33.422 -10.481  1.00  0.00     0.000 C 
BRANCH   3   4
ATOM      4  C   UNL     1     -18.623  33.742  -8.982  1.00  0.00     0.000 C 
BRANCH   4   5
ATOM      5  C   UNL     1     -19.935  33.241  -8.364  1.00  0.00     0.000 C 
BRANCH   5   6
ATOM      6  C   UNL     1     -20.899  34.385  -8.009  1.00  0.00     0.006 C 
BRANCH   6   7
ATOM      7  C   UNL     1     -21.978  33.960  -7.004  1.00  0.00     0.053 C 
BRANCH   7   8
ATOM      8  C   UNL     1     -23.340  34.131  -7.597  1.00  0.00     0.041 C 
ATOM      9  O   UNL     1     -24.125  33.150  -7.677  1.00  0.00    -0.550 OA
ATOM     10  O   UNL     1     -23.726  35.364  -8.106  1.00  0.00    -0.550 OA
ENDBRANCH   7   8
ENDBRANCH   6   7
ENDBRANCH   5   6
ENDBRANCH   4   5
ENDBRANCH   3   4
ENDBRANCH   2   3
ENDBRANCH   1   2
BRANCH   1  11
ATOM     11  C   UNL     1     -17.791  33.283 -13.182  1.00  0.00     0.000 C 
BRANCH  11  12
ATOM     12  C   UNL     1     -16.723  33.083 -12.094  1.00  0.00     0.000 C 
BRANCH  12  13
ATOM     13  C   UNL     1     -15.347  33.639 -12.505  1.00  0.00     0.000 C 
BRANCH  13  14
ATOM     14  C   UNL     1     -14.517  34.102 -11.297  1.00  0.00     0.000 C 
BRANCH  14  15
ATOM     15  C   UNL     1     -15.302  34.027  -9.977  1.00  0.00     0.000 C 
BRANCH  15  16
ATOM     16  C   UNL     1     -14.392  33.975  -8.736  1.00  0.00     0.006 C 
BRANCH  16  17
ATOM     17  C   UNL     1     -14.163  35.346  -8.073  1.00  0.00     0.053 C 
BRANCH  17  18
ATOM     18  C   UNL     1     -13.034  36.110  -8.698  1.00  0.00     0.041 C 
ATOM     19  O   UNL     1     -12.230  35.533  -9.478  1.00  0.00    -0.550 OA
ATOM     20  O   UNL     1     -12.887  37.468  -8.441  1.00  0.00    -0.550 OA
ENDBRANCH  17  18
ENDBRANCH  16  17
ENDBRANCH  15  16
ENDBRANCH  14  15
ENDBRANCH  13  14
ENDBRANCH  12  13
ENDBRANCH  11  12
ENDBRANCH   1  11
TORSDOF 15
ENDMDL
