MODEL 1
REMARK VINA RESULT:    -6.716      0.000      0.000
REMARK INTER + INTRA:         -11.241
REMARK INTER:                  -9.856
REMARK INTRA:                  -1.384
REMARK UNBOUND:                -1.384
REMARK SMILES O=c1c(O[C@@H]2O[C@H](CO)[C@H](O)[C@H](O)[C@H]2O)c(-c2ccc(O)c(O)c2)oc2cc(O)cc(O)c12
REMARK SMILES IDX 4 1 3 2 16 3 25 4 2 5 26 6 1 7 33 8 27 9 31 10 28 11 30 12
REMARK SMILES IDX 17 13 18 14 19 15 20 16 24 17 22 18 21 19 23 21 32 23 29 25
REMARK SMILES IDX 5 27 14 28 6 29 12 30 7 31 10 32 15 33 13 35 8 37 9 38 11 40
REMARK H PARENT 21 20 23 22 32 24 29 26 15 34 13 36 9 39 11 41
REMARK Flexibility Score: inf
ROOT
ATOM      1  O   UNL     1     -37.675   5.314  81.931  1.00  0.00    -0.454 OA
ENDROOT
BRANCH   1   2
ATOM      2  C   UNL     1     -38.457   4.828  80.871  1.00  0.00     0.214 A 
ATOM      3  C   UNL     1     -37.932   4.813  79.561  1.00  0.00     0.180 A 
ATOM      4  O   UNL     1     -38.659   4.315  78.566  1.00  0.00    -0.452 OA
ATOM      5  C   UNL     1     -39.775   4.379  81.075  1.00  0.00     0.239 A 
ATOM      6  C   UNL     1     -39.888   3.838  78.722  1.00  0.00     0.146 A 
ATOM      7  O   UNL     1     -40.308   4.501  82.208  1.00  0.00    -0.285 OA
ATOM      8  C   UNL     1     -40.506   3.842  79.994  1.00  0.00     0.111 A 
ATOM      9  C   UNL     1     -40.573   3.343  77.606  1.00  0.00     0.094 A 
ATOM     10  C   UNL     1     -41.818   3.326  80.127  1.00  0.00     0.134 A 
ATOM     11  C   UNL     1     -41.870   2.834  77.743  1.00  0.00     0.123 A 
ATOM     12  C   UNL     1     -42.484   2.821  79.000  1.00  0.00     0.093 A 
BRANCH   3  13
ATOM     13  C   UNL     1     -36.563   5.302  79.247  1.00  0.00     0.025 A 
ATOM     14  C   UNL     1     -36.407   6.581  78.695  1.00  0.00     0.016 A 
ATOM     15  C   UNL     1     -35.139   7.080  78.403  1.00  0.00     0.051 A 
ATOM     16  C   UNL     1     -33.996   6.326  78.680  1.00  0.00     0.157 A 
ATOM     17  C   UNL     1     -35.415   4.542  79.534  1.00  0.00     0.062 A 
ATOM     18  C   UNL     1     -34.136   5.032  79.239  1.00  0.00     0.158 A 
BRANCH  16  19
ATOM     19  O   UNL     1     -32.755   6.901  78.406  1.00  0.00    -0.504 OA
ATOM     20  H   UNL     1     -32.284   7.532  79.044  1.00  0.00     0.293 HD
ENDBRANCH  16  19
BRANCH  18  21
ATOM     21  O   UNL     1     -33.043   4.201  79.503  1.00  0.00    -0.504 OA
ATOM     22  H   UNL     1     -32.459   4.288  80.322  1.00  0.00     0.293 HD
ENDBRANCH  18  21
ENDBRANCH   3  13
BRANCH  10  23
ATOM     23  O   UNL     1     -42.466   3.313  81.364  1.00  0.00    -0.507 OA
ATOM     24  H   UNL     1     -41.980   3.063  82.216  1.00  0.00     0.293 HD
ENDBRANCH  10  23
BRANCH  11  25
ATOM     25  O   UNL     1     -42.558   2.342  76.637  1.00  0.00    -0.508 OA
ATOM     26  H   UNL     1     -42.508   2.799  75.733  1.00  0.00     0.293 HD
ENDBRANCH  11  25
ENDBRANCH   1   2
BRANCH   1  27
ATOM     27  C   UNL     1     -37.932   6.512  82.663  1.00  0.00     0.339 C 
ATOM     28  C   UNL     1     -37.207   6.435  84.027  1.00  0.00     0.214 C 
ATOM     29  O   UNL     1     -37.441   7.598  81.895  1.00  0.00    -0.332 OA
ATOM     30  C   UNL     1     -37.273   7.776  84.806  1.00  0.00     0.180 C 
ATOM     31  C   UNL     1     -37.552   8.877  82.523  1.00  0.00     0.179 C 
ATOM     32  C   UNL     1     -38.046   8.845  83.999  1.00  0.00     0.177 C 
BRANCH  28  33
ATOM     33  O   UNL     1     -37.766   5.406  84.813  1.00  0.00    -0.384 OA
ATOM     34  H   UNL     1     -38.417   4.909  84.249  1.00  0.00     0.211 HD
ENDBRANCH  28  33
BRANCH  30  35
ATOM     35  O   UNL     1     -35.965   8.209  85.086  1.00  0.00    -0.387 OA
ATOM     36  H   UNL     1     -35.878   9.159  84.794  1.00  0.00     0.211 HD
ENDBRANCH  30  35
BRANCH  31  37
ATOM     37  C   UNL     1     -36.212   9.648  82.352  1.00  0.00     0.191 C 
BRANCH  37  38
ATOM     38  O   UNL     1     -35.120   8.785  82.177  1.00  0.00    -0.394 OA
ATOM     39  H   UNL     1     -35.436   8.031  81.608  1.00  0.00     0.210 HD
ENDBRANCH  37  38
ENDBRANCH  31  37
BRANCH  32  40
ATOM     40  O   UNL     1     -37.955  10.122  84.584  1.00  0.00    -0.387 OA
ATOM     41  H   UNL     1     -38.578  10.129  85.354  1.00  0.00     0.211 HD
ENDBRANCH  32  40
ENDBRANCH   1  27
TORSDOF 12
ENDMDL
MODEL 2
REMARK VINA RESULT:    -6.406     11.997     14.930
REMARK INTER + INTRA:         -10.787
REMARK INTER:                  -9.300
REMARK INTRA:                  -1.486
REMARK UNBOUND:                -1.384
REMARK SMILES O=c1c(O[C@@H]2O[C@H](CO)[C@H](O)[C@H](O)[C@H]2O)c(-c2ccc(O)c(O)c2)oc2cc(O)cc(O)c12
REMARK SMILES IDX 4 1 3 2 16 3 25 4 2 5 26 6 1 7 33 8 27 9 31 10 28 11 30 12
REMARK SMILES IDX 17 13 18 14 19 15 20 16 24 17 22 18 21 19 23 21 32 23 29 25
REMARK SMILES IDX 5 27 14 28 6 29 12 30 7 31 10 32 15 33 13 35 8 37 9 38 11 40
REMARK H PARENT 21 20 23 22 32 24 29 26 15 34 13 36 9 39 11 41
REMARK Flexibility Score: inf
ROOT
ATOM      1  O   UNL     1     -42.336  -8.651  81.631  1.00  0.00    -0.454 OA
ENDROOT
BRANCH   1   2
ATOM      2  C   UNL     1     -41.028  -8.174  81.818  1.00  0.00     0.214 A 
ATOM      3  C   UNL     1     -40.811  -6.999  82.569  1.00  0.00     0.180 A 
ATOM      4  O   UNL     1     -39.569  -6.572  82.779  1.00  0.00    -0.452 OA
ATOM      5  C   UNL     1     -39.919  -8.824  81.245  1.00  0.00     0.239 A 
ATOM      6  C   UNL     1     -38.492  -7.181  82.296  1.00  0.00     0.146 A 
ATOM      7  O   UNL     1     -40.099  -9.798  80.468  1.00  0.00    -0.285 OA
ATOM      8  C   UNL     1     -38.617  -8.348  81.506  1.00  0.00     0.111 A 
ATOM      9  C   UNL     1     -37.228  -6.645  82.568  1.00  0.00     0.094 A 
ATOM     10  C   UNL     1     -37.449  -8.973  81.007  1.00  0.00     0.134 A 
ATOM     11  C   UNL     1     -36.076  -7.267  82.073  1.00  0.00     0.123 A 
ATOM     12  C   UNL     1     -36.189  -8.430  81.302  1.00  0.00     0.093 A 
BRANCH   3  13
ATOM     13  C   UNL     1     -41.925  -6.227  83.179  1.00  0.00     0.025 A 
ATOM     14  C   UNL     1     -42.275  -6.477  84.514  1.00  0.00     0.016 A 
ATOM     15  C   UNL     1     -43.303  -5.761  85.125  1.00  0.00     0.051 A 
ATOM     16  C   UNL     1     -43.987  -4.761  84.429  1.00  0.00     0.157 A 
ATOM     17  C   UNL     1     -42.605  -5.217  82.477  1.00  0.00     0.062 A 
ATOM     18  C   UNL     1     -43.644  -4.495  83.081  1.00  0.00     0.158 A 
BRANCH  16  19
ATOM     19  O   UNL     1     -44.974  -4.052  85.113  1.00  0.00    -0.504 OA
ATOM     20  H   UNL     1     -45.513  -4.448  85.875  1.00  0.00     0.293 HD
ENDBRANCH  16  19
BRANCH  18  21
ATOM     21  O   UNL     1     -44.312  -3.542  82.306  1.00  0.00    -0.504 OA
ATOM     22  H   UNL     1     -44.775  -3.754  81.435  1.00  0.00     0.293 HD
ENDBRANCH  18  21
ENDBRANCH   3  13
BRANCH  10  23
ATOM     23  O   UNL     1     -37.527 -10.125  80.222  1.00  0.00    -0.507 OA
ATOM     24  H   UNL     1     -37.066 -10.186  79.322  1.00  0.00     0.293 HD
ENDBRANCH  10  23
BRANCH  11  25
ATOM     25  O   UNL     1     -34.816  -6.738  82.337  1.00  0.00    -0.508 OA
ATOM     26  H   UNL     1     -34.094  -7.286  82.794  1.00  0.00     0.293 HD
ENDBRANCH  11  25
ENDBRANCH   1   2
BRANCH   1  27
ATOM     27  C   UNL     1     -43.226  -8.231  80.597  1.00  0.00     0.339 C 
ATOM     28  C   UNL     1     -44.533  -7.710  81.239  1.00  0.00     0.214 C 
ATOM     29  O   UNL     1     -42.580  -7.201  79.867  1.00  0.00    -0.332 OA
ATOM     30  C   UNL     1     -45.479  -7.052  80.199  1.00  0.00     0.180 C 
ATOM     31  C   UNL     1     -43.371  -6.610  78.834  1.00  0.00     0.179 C 
ATOM     32  C   UNL     1     -44.852  -7.086  78.785  1.00  0.00     0.177 C 
BRANCH  28  33
ATOM     33  O   UNL     1     -45.207  -8.765  81.887  1.00  0.00    -0.384 OA
ATOM     34  H   UNL     1     -46.033  -8.394  82.298  1.00  0.00     0.211 HD
ENDBRANCH  28  33
BRANCH  30  35
ATOM     35  O   UNL     1     -45.750  -5.730  80.594  1.00  0.00    -0.387 OA
ATOM     36  H   UNL     1     -46.382  -5.328  79.937  1.00  0.00     0.211 HD
ENDBRANCH  30  35
BRANCH  31  37
ATOM     37  C   UNL     1     -43.236  -5.063  78.908  1.00  0.00     0.191 C 
BRANCH  37  38
ATOM     38  O   UNL     1     -43.260  -4.465  77.639  1.00  0.00    -0.394 OA
ATOM     39  H   UNL     1     -43.820  -5.046  77.056  1.00  0.00     0.210 HD
ENDBRANCH  37  38
ENDBRANCH  31  37
BRANCH  32  40
ATOM     40  O   UNL     1     -45.590  -6.327  77.857  1.00  0.00    -0.387 OA
ATOM     41  H   UNL     1     -44.933  -5.847  77.293  1.00  0.00     0.211 HD
ENDBRANCH  32  40
ENDBRANCH   1  27
TORSDOF 12
ENDMDL
MODEL 3
REMARK VINA RESULT:    -6.400      1.833      2.584
REMARK INTER + INTRA:         -10.777
REMARK INTER:                 -10.476
REMARK INTRA:                  -0.302
REMARK UNBOUND:                -1.384
REMARK SMILES O=c1c(O[C@@H]2O[C@H](CO)[C@H](O)[C@H](O)[C@H]2O)c(-c2ccc(O)c(O)c2)oc2cc(O)cc(O)c12
REMARK SMILES IDX 4 1 3 2 16 3 25 4 2 5 26 6 1 7 33 8 27 9 31 10 28 11 30 12
REMARK SMILES IDX 17 13 18 14 19 15 20 16 24 17 22 18 21 19 23 21 32 23 29 25
REMARK SMILES IDX 5 27 14 28 6 29 12 30 7 31 10 32 15 33 13 35 8 37 9 38 11 40
REMARK H PARENT 21 20 23 22 32 24 29 26 15 34 13 36 9 39 11 41
REMARK Flexibility Score: inf
ROOT
ATOM      1  O   UNL     1     -37.881   6.156  81.550  1.00  0.00    -0.454 OA
ENDROOT
BRANCH   1   2
ATOM      2  C   UNL     1     -38.647   5.462  80.599  1.00  0.00     0.214 A 
ATOM      3  C   UNL     1     -38.200   5.378  79.263  1.00  0.00     0.180 A 
ATOM      4  O   UNL     1     -38.906   4.686  78.375  1.00  0.00    -0.452 OA
ATOM      5  C   UNL     1     -39.878   4.870  80.937  1.00  0.00     0.239 A 
ATOM      6  C   UNL     1     -40.048   4.072  78.662  1.00  0.00     0.146 A 
ATOM      7  O   UNL     1     -40.358   5.040  82.088  1.00  0.00    -0.285 OA
ATOM      8  C   UNL     1     -40.589   4.131  79.968  1.00  0.00     0.111 A 
ATOM      9  C   UNL     1     -40.720   3.376  77.650  1.00  0.00     0.094 A 
ATOM     10  C   UNL     1     -41.808   3.465  80.242  1.00  0.00     0.134 A 
ATOM     11  C   UNL     1     -41.925   2.720  77.927  1.00  0.00     0.123 A 
ATOM     12  C   UNL     1     -42.460   2.760  79.219  1.00  0.00     0.093 A 
BRANCH   3  13
ATOM     13  C   UNL     1     -36.931   6.005  78.808  1.00  0.00     0.025 A 
ATOM     14  C   UNL     1     -36.987   7.173  78.035  1.00  0.00     0.016 A 
ATOM     15  C   UNL     1     -35.819   7.799  77.605  1.00  0.00     0.051 A 
ATOM     16  C   UNL     1     -34.567   7.290  77.958  1.00  0.00     0.157 A 
ATOM     17  C   UNL     1     -35.673   5.493  79.172  1.00  0.00     0.062 A 
ATOM     18  C   UNL     1     -34.492   6.111  78.740  1.00  0.00     0.158 A 
BRANCH  16  19
ATOM     19  O   UNL     1     -33.437   7.989  77.533  1.00  0.00    -0.504 OA
ATOM     20  H   UNL     1     -32.662   8.213  78.145  1.00  0.00     0.293 HD
ENDBRANCH  16  19
BRANCH  18  21
ATOM     21  O   UNL     1     -33.277   5.517  79.096  1.00  0.00    -0.504 OA
ATOM     22  H   UNL     1     -32.876   5.575  80.020  1.00  0.00     0.293 HD
ENDBRANCH  18  21
ENDBRANCH   3  13
BRANCH  10  23
ATOM     23  O   UNL     1     -42.378   3.498  81.516  1.00  0.00    -0.507 OA
ATOM     24  H   UNL     1     -42.123   2.826  82.230  1.00  0.00     0.293 HD
ENDBRANCH  10  23
BRANCH  11  25
ATOM     25  O   UNL     1     -42.600   2.028  76.925  1.00  0.00    -0.508 OA
ATOM     26  H   UNL     1     -43.154   2.511  76.225  1.00  0.00     0.293 HD
ENDBRANCH  11  25
ENDBRANCH   1   2
BRANCH   1  27
ATOM     27  C   UNL     1     -37.059   5.549  82.547  1.00  0.00     0.339 C 
ATOM     28  C   UNL     1     -36.373   4.302  81.943  1.00  0.00     0.214 C 
ATOM     29  O   UNL     1     -36.094   6.508  82.948  1.00  0.00    -0.332 OA
ATOM     30  C   UNL     1     -35.310   3.694  82.898  1.00  0.00     0.180 C 
ATOM     31  C   UNL     1     -35.135   6.034  83.896  1.00  0.00     0.179 C 
ATOM     32  C   UNL     1     -35.215   4.511  84.208  1.00  0.00     0.177 C 
BRANCH  28  33
ATOM     33  O   UNL     1     -37.339   3.324  81.630  1.00  0.00    -0.384 OA
ATOM     34  H   UNL     1     -36.888   2.438  81.632  1.00  0.00     0.211 HD
ENDBRANCH  28  33
BRANCH  30  35
ATOM     35  O   UNL     1     -34.068   3.656  82.240  1.00  0.00    -0.387 OA
ATOM     36  H   UNL     1     -33.351   3.827  82.911  1.00  0.00     0.211 HD
ENDBRANCH  30  35
BRANCH  31  37
ATOM     37  C   UNL     1     -33.714   6.486  83.454  1.00  0.00     0.191 C 
BRANCH  37  38
ATOM     38  O   UNL     1     -33.604   6.611  82.061  1.00  0.00    -0.394 OA
ATOM     39  H   UNL     1     -34.435   7.061  81.745  1.00  0.00     0.210 HD
ENDBRANCH  37  38
ENDBRANCH  31  37
BRANCH  32  40
ATOM     40  O   UNL     1     -34.129   4.107  85.008  1.00  0.00    -0.387 OA
ATOM     41  H   UNL     1     -34.457   4.081  85.943  1.00  0.00     0.211 HD
ENDBRANCH  32  40
ENDBRANCH   1  27
TORSDOF 12
ENDMDL
MODEL 4
REMARK VINA RESULT:    -6.400      2.996      7.118
REMARK INTER + INTRA:         -10.777
REMARK INTER:                  -9.373
REMARK INTRA:                  -1.404
REMARK UNBOUND:                -1.384
REMARK SMILES O=c1c(O[C@@H]2O[C@H](CO)[C@H](O)[C@H](O)[C@H]2O)c(-c2ccc(O)c(O)c2)oc2cc(O)cc(O)c12
REMARK SMILES IDX 4 1 3 2 16 3 25 4 2 5 26 6 1 7 33 8 27 9 31 10 28 11 30 12
REMARK SMILES IDX 17 13 18 14 19 15 20 16 24 17 22 18 21 19 23 21 32 23 29 25
REMARK SMILES IDX 5 27 14 28 6 29 12 30 7 31 10 32 15 33 13 35 8 37 9 38 11 40
REMARK H PARENT 21 20 23 22 32 24 29 26 15 34 13 36 9 39 11 41
REMARK Flexibility Score: inf
ROOT
ATOM      1  O   UNL     1     -38.320   5.408  77.911  1.00  0.00    -0.454 OA
ENDROOT
BRANCH   1   2
ATOM      2  C   UNL     1     -37.247   6.252  78.236  1.00  0.00     0.214 A 
ATOM      3  C   UNL     1     -37.373   7.648  78.060  1.00  0.00     0.180 A 
ATOM      4  O   UNL     1     -36.370   8.448  78.408  1.00  0.00    -0.452 OA
ATOM      5  C   UNL     1     -36.024   5.740  78.707  1.00  0.00     0.239 A 
ATOM      6  C   UNL     1     -35.217   8.010  78.899  1.00  0.00     0.146 A 
ATOM      7  O   UNL     1     -35.844   4.495  78.750  1.00  0.00    -0.285 OA
ATOM      8  C   UNL     1     -34.990   6.625  79.079  1.00  0.00     0.111 A 
ATOM      9  C   UNL     1     -34.220   8.937  79.226  1.00  0.00     0.094 A 
ATOM     10  C   UNL     1     -33.750   6.191  79.607  1.00  0.00     0.134 A 
ATOM     11  C   UNL     1     -32.996   8.502  79.747  1.00  0.00     0.123 A 
ATOM     12  C   UNL     1     -32.768   7.135  79.942  1.00  0.00     0.093 A 
BRANCH   3  13
ATOM     13  C   UNL     1     -38.614   8.274  77.534  1.00  0.00     0.025 A 
ATOM     14  C   UNL     1     -38.651   8.693  76.196  1.00  0.00     0.016 A 
ATOM     15  C   UNL     1     -39.802   9.268  75.663  1.00  0.00     0.051 A 
ATOM     16  C   UNL     1     -40.952   9.415  76.441  1.00  0.00     0.157 A 
ATOM     17  C   UNL     1     -39.772   8.412  78.320  1.00  0.00     0.062 A 
ATOM     18  C   UNL     1     -40.933   8.995  77.794  1.00  0.00     0.158 A 
BRANCH  16  19
ATOM     19  O   UNL     1     -42.084   9.957  75.834  1.00  0.00    -0.504 OA
ATOM     20  H   UNL     1     -42.053  10.465  74.957  1.00  0.00     0.293 HD
ENDBRANCH  16  19
BRANCH  18  21
ATOM     21  O   UNL     1     -42.029   9.149  78.648  1.00  0.00    -0.504 OA
ATOM     22  H   UNL     1     -41.946   9.314  79.641  1.00  0.00     0.293 HD
ENDBRANCH  18  21
ENDBRANCH   3  13
BRANCH  10  23
ATOM     23  O   UNL     1     -33.484   4.834  79.799  1.00  0.00    -0.507 OA
ATOM     24  H   UNL     1     -34.212   4.133  79.724  1.00  0.00     0.293 HD
ENDBRANCH  10  23
BRANCH  11  25
ATOM     25  O   UNL     1     -31.999   9.417  80.072  1.00  0.00    -0.508 OA
ATOM     26  H   UNL     1     -32.154  10.153  80.755  1.00  0.00     0.293 HD
ENDBRANCH  11  25
ENDBRANCH   1   2
BRANCH   1  27
ATOM     27  C   UNL     1     -39.256   4.869  78.844  1.00  0.00     0.339 C 
ATOM     28  C   UNL     1     -38.884   3.397  79.138  1.00  0.00     0.214 C 
ATOM     29  O   UNL     1     -39.183   5.651  80.025  1.00  0.00    -0.332 OA
ATOM     30  C   UNL     1     -39.733   2.793  80.289  1.00  0.00     0.180 C 
ATOM     31  C   UNL     1     -40.009   5.195  81.099  1.00  0.00     0.179 C 
ATOM     32  C   UNL     1     -40.728   3.838  80.846  1.00  0.00     0.177 C 
BRANCH  28  33
ATOM     33  O   UNL     1     -39.047   2.617  77.974  1.00  0.00    -0.384 OA
ATOM     34  H   UNL     1     -38.655   1.720  78.151  1.00  0.00     0.211 HD
ENDBRANCH  28  33
BRANCH  30  35
ATOM     35  O   UNL     1     -38.872   2.332  81.301  1.00  0.00    -0.387 OA
ATOM     36  H   UNL     1     -39.354   1.638  81.831  1.00  0.00     0.211 HD
ENDBRANCH  30  35
BRANCH  31  37
ATOM     37  C   UNL     1     -39.184   5.206  82.418  1.00  0.00     0.191 C 
BRANCH  37  38
ATOM     38  O   UNL     1     -37.813   5.015  82.190  1.00  0.00    -0.394 OA
ATOM     39  H   UNL     1     -37.678   4.040  82.037  1.00  0.00     0.210 HD
ENDBRANCH  37  38
ENDBRANCH  31  37
BRANCH  32  40
ATOM     40  O   UNL     1     -41.371   3.389  82.016  1.00  0.00    -0.387 OA
ATOM     41  H   UNL     1     -40.714   2.836  82.509  1.00  0.00     0.211 HD
ENDBRANCH  32  40
ENDBRANCH   1  27
TORSDOF 12
ENDMDL
MODEL 5
REMARK VINA RESULT:    -6.348      3.240      5.748
REMARK INTER + INTRA:         -10.700
REMARK INTER:                  -9.267
REMARK INTRA:                  -1.434
REMARK UNBOUND:                -1.384
REMARK SMILES O=c1c(O[C@@H]2O[C@H](CO)[C@H](O)[C@H](O)[C@H]2O)c(-c2ccc(O)c(O)c2)oc2cc(O)cc(O)c12
REMARK SMILES IDX 4 1 3 2 16 3 25 4 2 5 26 6 1 7 33 8 27 9 31 10 28 11 30 12
REMARK SMILES IDX 17 13 18 14 19 15 20 16 24 17 22 18 21 19 23 21 32 23 29 25
REMARK SMILES IDX 5 27 14 28 6 29 12 30 7 31 10 32 15 33 13 35 8 37 9 38 11 40
REMARK H PARENT 21 20 23 22 32 24 29 26 15 34 13 36 9 39 11 41
REMARK Flexibility Score: inf
ROOT
ATOM      1  O   UNL     1     -37.061   5.547  79.213  1.00  0.00    -0.454 OA
ENDROOT
BRANCH   1   2
ATOM      2  C   UNL     1     -38.224   6.303  78.997  1.00  0.00     0.214 A 
ATOM      3  C   UNL     1     -39.276   6.257  79.938  1.00  0.00     0.180 A 
ATOM      4  O   UNL     1     -40.359   7.005  79.751  1.00  0.00    -0.452 OA
ATOM      5  C   UNL     1     -38.386   7.090  77.842  1.00  0.00     0.239 A 
ATOM      6  C   UNL     1     -40.533   7.796  78.700  1.00  0.00     0.146 A 
ATOM      7  O   UNL     1     -37.519   7.048  76.931  1.00  0.00    -0.285 OA
ATOM      8  C   UNL     1     -39.544   7.882  77.691  1.00  0.00     0.111 A 
ATOM      9  C   UNL     1     -41.715   8.538  78.594  1.00  0.00     0.094 A 
ATOM     10  C   UNL     1     -39.760   8.736  76.583  1.00  0.00     0.134 A 
ATOM     11  C   UNL     1     -41.923   9.381  77.495  1.00  0.00     0.123 A 
ATOM     12  C   UNL     1     -40.945   9.482  76.500  1.00  0.00     0.093 A 
BRANCH   3  13
ATOM     13  C   UNL     1     -39.207   5.425  81.168  1.00  0.00     0.025 A 
ATOM     14  C   UNL     1     -39.178   6.059  82.418  1.00  0.00     0.016 A 
ATOM     15  C   UNL     1     -39.130   5.312  83.593  1.00  0.00     0.051 A 
ATOM     16  C   UNL     1     -39.139   3.915  83.551  1.00  0.00     0.157 A 
ATOM     17  C   UNL     1     -39.223   4.019  81.120  1.00  0.00     0.062 A 
ATOM     18  C   UNL     1     -39.170   3.259  82.296  1.00  0.00     0.158 A 
BRANCH  16  19
ATOM     19  O   UNL     1     -39.135   3.228  84.764  1.00  0.00    -0.504 OA
ATOM     20  H   UNL     1     -39.668   2.381  84.922  1.00  0.00     0.293 HD
ENDBRANCH  16  19
BRANCH  18  21
ATOM     21  O   UNL     1     -39.135   1.867  82.171  1.00  0.00    -0.504 OA
ATOM     22  H   UNL     1     -38.511   1.274  82.696  1.00  0.00     0.293 HD
ENDBRANCH  18  21
ENDBRANCH   3  13
BRANCH  10  23
ATOM     23  O   UNL     1     -38.812   8.848  75.564  1.00  0.00    -0.507 OA
ATOM     24  H   UNL     1     -38.235   8.064  75.286  1.00  0.00     0.293 HD
ENDBRANCH  10  23
BRANCH  11  25
ATOM     25  O   UNL     1     -43.098  10.119  77.382  1.00  0.00    -0.508 OA
ATOM     26  H   UNL     1     -44.006   9.669  77.321  1.00  0.00     0.293 HD
ENDBRANCH  11  25
ENDBRANCH   1   2
BRANCH   1  27
ATOM     27  C   UNL     1     -35.874   6.024  79.848  1.00  0.00     0.339 C 
ATOM     28  C   UNL     1     -34.650   5.626  78.991  1.00  0.00     0.214 C 
ATOM     29  O   UNL     1     -35.979   7.435  79.948  1.00  0.00    -0.332 OA
ATOM     30  C   UNL     1     -33.335   6.272  79.505  1.00  0.00     0.180 C 
ATOM     31  C   UNL     1     -34.830   8.086  80.495  1.00  0.00     0.179 C 
ATOM     32  C   UNL     1     -33.605   7.158  80.744  1.00  0.00     0.177 C 
BRANCH  28  33
ATOM     33  O   UNL     1     -34.509   4.223  78.974  1.00  0.00    -0.384 OA
ATOM     34  H   UNL     1     -35.170   3.857  78.328  1.00  0.00     0.211 HD
ENDBRANCH  28  33
BRANCH  30  35
ATOM     35  O   UNL     1     -32.757   7.025  78.468  1.00  0.00    -0.387 OA
ATOM     36  H   UNL     1     -33.150   6.723  77.603  1.00  0.00     0.211 HD
ENDBRANCH  30  35
BRANCH  31  37
ATOM     37  C   UNL     1     -34.481   9.326  79.625  1.00  0.00     0.191 C 
BRANCH  37  38
ATOM     38  O   UNL     1     -34.848   9.154  78.281  1.00  0.00    -0.394 OA
ATOM     39  H   UNL     1     -35.386   8.317  78.234  1.00  0.00     0.210 HD
ENDBRANCH  37  38
ENDBRANCH  31  37
BRANCH  32  40
ATOM     40  O   UNL     1     -32.475   7.912  81.115  1.00  0.00    -0.387 OA
ATOM     41  H   UNL     1     -32.158   8.374  80.298  1.00  0.00     0.211 HD
ENDBRANCH  32  40
ENDBRANCH   1  27
TORSDOF 12
ENDMDL
MODEL 6
REMARK VINA RESULT:    -6.339      2.442      6.502
REMARK INTER + INTRA:         -10.688
REMARK INTER:                  -9.581
REMARK INTRA:                  -1.107
REMARK UNBOUND:                -1.384
REMARK SMILES O=c1c(O[C@@H]2O[C@H](CO)[C@H](O)[C@H](O)[C@H]2O)c(-c2ccc(O)c(O)c2)oc2cc(O)cc(O)c12
REMARK SMILES IDX 4 1 3 2 16 3 25 4 2 5 26 6 1 7 33 8 27 9 31 10 28 11 30 12
REMARK SMILES IDX 17 13 18 14 19 15 20 16 24 17 22 18 21 19 23 21 32 23 29 25
REMARK SMILES IDX 5 27 14 28 6 29 12 30 7 31 10 32 15 33 13 35 8 37 9 38 11 40
REMARK H PARENT 21 20 23 22 32 24 29 26 15 34 13 36 9 39 11 41
REMARK Flexibility Score: inf
ROOT
ATOM      1  O   UNL     1     -37.879   6.168  81.615  1.00  0.00    -0.454 OA
ENDROOT
BRANCH   1   2
ATOM      2  C   UNL     1     -37.167   6.742  80.550  1.00  0.00     0.214 A 
ATOM      3  C   UNL     1     -37.357   6.258  79.237  1.00  0.00     0.180 A 
ATOM      4  O   UNL     1     -36.713   6.830  78.225  1.00  0.00    -0.452 OA
ATOM      5  C   UNL     1     -36.236   7.776  80.760  1.00  0.00     0.239 A 
ATOM      6  C   UNL     1     -35.862   7.838  78.372  1.00  0.00     0.146 A 
ATOM      7  O   UNL     1     -35.957   8.136  81.932  1.00  0.00    -0.285 OA
ATOM      8  C   UNL     1     -35.586   8.367  79.656  1.00  0.00     0.111 A 
ATOM      9  C   UNL     1     -35.228   8.365  77.241  1.00  0.00     0.094 A 
ATOM     10  C   UNL     1     -34.674   9.442  79.779  1.00  0.00     0.134 A 
ATOM     11  C   UNL     1     -34.326   9.429  77.369  1.00  0.00     0.123 A 
ATOM     12  C   UNL     1     -34.058   9.967  78.632  1.00  0.00     0.093 A 
BRANCH   3  13
ATOM     13  C   UNL     1     -38.292   5.144  78.927  1.00  0.00     0.025 A 
ATOM     14  C   UNL     1     -39.653   5.428  78.748  1.00  0.00     0.016 A 
ATOM     15  C   UNL     1     -40.556   4.413  78.439  1.00  0.00     0.051 A 
ATOM     16  C   UNL     1     -40.120   3.096  78.276  1.00  0.00     0.157 A 
ATOM     17  C   UNL     1     -37.846   3.821  78.757  1.00  0.00     0.062 A 
ATOM     18  C   UNL     1     -38.748   2.792  78.453  1.00  0.00     0.158 A 
BRANCH  16  19
ATOM     19  O   UNL     1     -41.068   2.135  77.924  1.00  0.00    -0.504 OA
ATOM     20  H   UNL     1     -41.835   2.322  77.288  1.00  0.00     0.293 HD
ENDBRANCH  16  19
BRANCH  18  21
ATOM     21  O   UNL     1     -38.243   1.492  78.349  1.00  0.00    -0.504 OA
ATOM     22  H   UNL     1     -37.779   1.011  79.106  1.00  0.00     0.293 HD
ENDBRANCH  18  21
ENDBRANCH   3  13
BRANCH  10  23
ATOM     23  O   UNL     1     -34.371   9.993  81.026  1.00  0.00    -0.507 OA
ATOM     24  H   UNL     1     -33.450   9.902  81.437  1.00  0.00     0.293 HD
ENDBRANCH  10  23
BRANCH  11  25
ATOM     25  O   UNL     1     -33.690   9.956  76.248  1.00  0.00    -0.508 OA
ATOM     26  H   UNL     1     -34.215  10.284  75.443  1.00  0.00     0.293 HD
ENDBRANCH  11  25
ENDBRANCH   1   2
BRANCH   1  27
ATOM     27  C   UNL     1     -37.877   4.781  81.955  1.00  0.00     0.339 C 
ATOM     28  C   UNL     1     -37.205   4.603  83.337  1.00  0.00     0.214 C 
ATOM     29  O   UNL     1     -39.226   4.347  81.995  1.00  0.00    -0.332 OA
ATOM     30  C   UNL     1     -37.334   3.151  83.872  1.00  0.00     0.180 C 
ATOM     31  C   UNL     1     -39.409   2.988  82.399  1.00  0.00     0.179 C 
ATOM     32  C   UNL     1     -38.116   2.264  82.875  1.00  0.00     0.177 C 
BRANCH  28  33
ATOM     33  O   UNL     1     -35.841   4.956  83.259  1.00  0.00    -0.384 OA
ATOM     34  H   UNL     1     -35.361   4.219  82.796  1.00  0.00     0.211 HD
ENDBRANCH  28  33
BRANCH  30  35
ATOM     35  O   UNL     1     -37.971   3.178  85.125  1.00  0.00    -0.387 OA
ATOM     36  H   UNL     1     -38.237   4.119  85.323  1.00  0.00     0.211 HD
ENDBRANCH  30  35
BRANCH  31  37
ATOM     37  C   UNL     1     -40.560   2.915  83.442  1.00  0.00     0.191 C 
BRANCH  37  38
ATOM     38  O   UNL     1     -40.613   4.056  84.257  1.00  0.00    -0.394 OA
ATOM     39  H   UNL     1     -41.485   4.502  84.074  1.00  0.00     0.210 HD
ENDBRANCH  37  38
ENDBRANCH  31  37
BRANCH  32  40
ATOM     40  O   UNL     1     -38.422   1.000  83.414  1.00  0.00    -0.387 OA
ATOM     41  H   UNL     1     -38.243   1.053  84.387  1.00  0.00     0.211 HD
ENDBRANCH  32  40
ENDBRANCH   1  27
TORSDOF 12
ENDMDL
MODEL 7
REMARK VINA RESULT:    -6.276      2.866      5.299
REMARK INTER + INTRA:         -10.595
REMARK INTER:                  -9.027
REMARK INTRA:                  -1.568
REMARK UNBOUND:                -1.384
REMARK SMILES O=c1c(O[C@@H]2O[C@H](CO)[C@H](O)[C@H](O)[C@H]2O)c(-c2ccc(O)c(O)c2)oc2cc(O)cc(O)c12
REMARK SMILES IDX 4 1 3 2 16 3 25 4 2 5 26 6 1 7 33 8 27 9 31 10 28 11 30 12
REMARK SMILES IDX 17 13 18 14 19 15 20 16 24 17 22 18 21 19 23 21 32 23 29 25
REMARK SMILES IDX 5 27 14 28 6 29 12 30 7 31 10 32 15 33 13 35 8 37 9 38 11 40
REMARK H PARENT 21 20 23 22 32 24 29 26 15 34 13 36 9 39 11 41
REMARK Flexibility Score: inf
ROOT
ATOM      1  O   UNL     1     -37.592   8.054  80.615  1.00  0.00    -0.454 OA
ENDROOT
BRANCH   1   2
ATOM      2  C   UNL     1     -38.451   7.005  80.978  1.00  0.00     0.214 A 
ATOM      3  C   UNL     1     -39.569   6.701  80.170  1.00  0.00     0.180 A 
ATOM      4  O   UNL     1     -40.358   5.682  80.493  1.00  0.00    -0.452 OA
ATOM      5  C   UNL     1     -38.247   6.259  82.154  1.00  0.00     0.239 A 
ATOM      6  C   UNL     1     -40.175   4.923  81.567  1.00  0.00     0.146 A 
ATOM      7  O   UNL     1     -37.335   6.592  82.954  1.00  0.00    -0.285 OA
ATOM      8  C   UNL     1     -39.099   5.174  82.451  1.00  0.00     0.111 A 
ATOM      9  C   UNL     1     -41.069   3.877  81.823  1.00  0.00     0.094 A 
ATOM     10  C   UNL     1     -38.931   4.346  83.588  1.00  0.00     0.134 A 
ATOM     11  C   UNL     1     -40.898   3.062  82.948  1.00  0.00     0.123 A 
ATOM     12  C   UNL     1     -39.828   3.294  83.821  1.00  0.00     0.093 A 
BRANCH   3  13
ATOM     13  C   UNL     1     -39.883   7.460  78.931  1.00  0.00     0.025 A 
ATOM     14  C   UNL     1     -40.844   8.480  78.981  1.00  0.00     0.016 A 
ATOM     15  C   UNL     1     -41.153   9.223  77.845  1.00  0.00     0.051 A 
ATOM     16  C   UNL     1     -40.492   8.987  76.637  1.00  0.00     0.157 A 
ATOM     17  C   UNL     1     -39.210   7.222  77.719  1.00  0.00     0.062 A 
ATOM     18  C   UNL     1     -39.517   7.961  76.568  1.00  0.00     0.158 A 
BRANCH  16  19
ATOM     19  O   UNL     1     -40.816   9.796  75.548  1.00  0.00    -0.504 OA
ATOM     20  H   UNL     1     -41.605   9.614  74.938  1.00  0.00     0.293 HD
ENDBRANCH  16  19
BRANCH  18  21
ATOM     21  O   UNL     1     -38.846   7.635  75.386  1.00  0.00    -0.504 OA
ATOM     22  H   UNL     1     -38.125   8.211  74.975  1.00  0.00     0.293 HD
ENDBRANCH  18  21
ENDBRANCH   3  13
BRANCH  10  23
ATOM     23  O   UNL     1     -37.884   4.560  84.487  1.00  0.00    -0.507 OA
ATOM     24  H   UNL     1     -38.037   5.003  85.385  1.00  0.00     0.293 HD
ENDBRANCH  10  23
BRANCH  11  25
ATOM     25  O   UNL     1     -41.785   2.022  83.211  1.00  0.00    -0.508 OA
ATOM     26  H   UNL     1     -41.474   1.057  83.258  1.00  0.00     0.293 HD
ENDBRANCH  11  25
ENDBRANCH   1   2
BRANCH   1  27
ATOM     27  C   UNL     1     -36.357   7.902  79.915  1.00  0.00     0.339 C 
ATOM     28  C   UNL     1     -35.193   8.291  80.857  1.00  0.00     0.214 C 
ATOM     29  O   UNL     1     -36.251   6.544  79.521  1.00  0.00    -0.332 OA
ATOM     30  C   UNL     1     -33.804   7.970  80.242  1.00  0.00     0.180 C 
ATOM     31  C   UNL     1     -35.026   6.201  78.869  1.00  0.00     0.179 C 
ATOM     32  C   UNL     1     -33.957   7.333  78.840  1.00  0.00     0.177 C 
BRANCH  28  33
ATOM     33  O   UNL     1     -35.263   9.664  81.169  1.00  0.00    -0.384 OA
ATOM     34  H   UNL     1     -34.360   9.957  81.464  1.00  0.00     0.211 HD
ENDBRANCH  28  33
BRANCH  30  35
ATOM     35  O   UNL     1     -33.105   7.112  81.108  1.00  0.00    -0.387 OA
ATOM     36  H   UNL     1     -33.639   6.278  81.225  1.00  0.00     0.211 HD
ENDBRANCH  30  35
BRANCH  31  37
ATOM     37  C   UNL     1     -34.483   4.872  79.467  1.00  0.00     0.191 C 
BRANCH  37  38
ATOM     38  O   UNL     1     -34.911   4.669  80.788  1.00  0.00    -0.394 OA
ATOM     39  H   UNL     1     -34.210   4.122  81.238  1.00  0.00     0.210 HD
ENDBRANCH  37  38
ENDBRANCH  31  37
BRANCH  32  40
ATOM     40  O   UNL     1     -32.733   6.850  78.340  1.00  0.00    -0.387 OA
ATOM     41  H   UNL     1     -32.263   7.624  77.938  1.00  0.00     0.211 HD
ENDBRANCH  32  40
ENDBRANCH   1  27
TORSDOF 12
ENDMDL
MODEL 8
REMARK VINA RESULT:    -6.254      3.026      4.951
REMARK INTER + INTRA:         -10.563
REMARK INTER:                  -8.816
REMARK INTRA:                  -1.747
REMARK UNBOUND:                -1.384
REMARK SMILES O=c1c(O[C@@H]2O[C@H](CO)[C@H](O)[C@H](O)[C@H]2O)c(-c2ccc(O)c(O)c2)oc2cc(O)cc(O)c12
REMARK SMILES IDX 4 1 3 2 16 3 25 4 2 5 26 6 1 7 33 8 27 9 31 10 28 11 30 12
REMARK SMILES IDX 17 13 18 14 19 15 20 16 24 17 22 18 21 19 23 21 32 23 29 25
REMARK SMILES IDX 5 27 14 28 6 29 12 30 7 31 10 32 15 33 13 35 8 37 9 38 11 40
REMARK H PARENT 21 20 23 22 32 24 29 26 15 34 13 36 9 39 11 41
REMARK Flexibility Score: inf
ROOT
ATOM      1  O   UNL     1     -38.485   6.653  80.727  1.00  0.00    -0.454 OA
ENDROOT
BRANCH   1   2
ATOM      2  C   UNL     1     -38.369   5.454  81.448  1.00  0.00     0.214 A 
ATOM      3  C   UNL     1     -37.100   5.024  81.894  1.00  0.00     0.180 A 
ATOM      4  O   UNL     1     -36.998   3.910  82.612  1.00  0.00    -0.452 OA
ATOM      5  C   UNL     1     -39.488   4.644  81.714  1.00  0.00     0.239 A 
ATOM      6  C   UNL     1     -38.034   3.141  82.926  1.00  0.00     0.146 A 
ATOM      7  O   UNL     1     -40.606   4.941  81.218  1.00  0.00    -0.285 OA
ATOM      8  C   UNL     1     -39.338   3.478  82.494  1.00  0.00     0.111 A 
ATOM      9  C   UNL     1     -37.818   1.982  83.680  1.00  0.00     0.094 A 
ATOM     10  C   UNL     1     -40.421   2.637  82.846  1.00  0.00     0.134 A 
ATOM     11  C   UNL     1     -38.892   1.154  84.025  1.00  0.00     0.123 A 
ATOM     12  C   UNL     1     -40.188   1.486  83.614  1.00  0.00     0.093 A 
BRANCH   3  13
ATOM     13  C   UNL     1     -35.859   5.797  81.626  1.00  0.00     0.025 A 
ATOM     14  C   UNL     1     -35.533   6.874  82.462  1.00  0.00     0.016 A 
ATOM     15  C   UNL     1     -34.370   7.611  82.253  1.00  0.00     0.051 A 
ATOM     16  C   UNL     1     -33.488   7.274  81.222  1.00  0.00     0.157 A 
ATOM     17  C   UNL     1     -34.971   5.448  80.592  1.00  0.00     0.062 A 
ATOM     18  C   UNL     1     -33.801   6.187  80.370  1.00  0.00     0.158 A 
BRANCH  16  19
ATOM     19  O   UNL     1     -32.319   8.023  81.095  1.00  0.00    -0.504 OA
ATOM     20  H   UNL     1     -31.399   7.605  81.022  1.00  0.00     0.293 HD
ENDBRANCH  16  19
BRANCH  18  21
ATOM     21  O   UNL     1     -32.992   5.816  79.291  1.00  0.00    -0.504 OA
ATOM     22  H   UNL     1     -32.981   6.304  78.408  1.00  0.00     0.293 HD
ENDBRANCH  18  21
ENDBRANCH   3  13
BRANCH  10  23
ATOM     23  O   UNL     1     -41.725   2.931  82.439  1.00  0.00    -0.507 OA
ATOM     24  H   UNL     1     -42.507   2.340  82.694  1.00  0.00     0.293 HD
ENDBRANCH  10  23
BRANCH  11  25
ATOM     25  O   UNL     1     -38.684  -0.002  84.773  1.00  0.00    -0.508 OA
ATOM     26  H   UNL     1     -37.802  -0.182  85.240  1.00  0.00     0.293 HD
ENDBRANCH  11  25
ENDBRANCH   1   2
BRANCH   1  27
ATOM     27  C   UNL     1     -38.641   6.751  79.311  1.00  0.00     0.339 C 
ATOM     28  C   UNL     1     -39.814   7.710  78.999  1.00  0.00     0.214 C 
ATOM     29  O   UNL     1     -37.427   7.256  78.780  1.00  0.00    -0.332 OA
ATOM     30  C   UNL     1     -39.929   8.027  77.483  1.00  0.00     0.180 C 
ATOM     31  C   UNL     1     -37.439   7.489  77.370  1.00  0.00     0.179 C 
ATOM     32  C   UNL     1     -38.823   7.299  76.683  1.00  0.00     0.177 C 
BRANCH  28  33
ATOM     33  O   UNL     1     -41.027   7.153  79.456  1.00  0.00    -0.384 OA
ATOM     34  H   UNL     1     -41.125   6.254  79.043  1.00  0.00     0.211 HD
ENDBRANCH  28  33
BRANCH  30  35
ATOM     35  O   UNL     1     -39.849   9.418  77.298  1.00  0.00    -0.387 OA
ATOM     36  H   UNL     1     -38.887   9.669  77.209  1.00  0.00     0.211 HD
ENDBRANCH  30  35
BRANCH  31  37
ATOM     37  C   UNL     1     -36.805   8.878  77.076  1.00  0.00     0.191 C 
BRANCH  37  38
ATOM     38  O   UNL     1     -37.017   9.792  78.120  1.00  0.00    -0.394 OA
ATOM     39  H   UNL     1     -37.565  10.535  77.746  1.00  0.00     0.210 HD
ENDBRANCH  37  38
ENDBRANCH  31  37
BRANCH  32  40
ATOM     40  O   UNL     1     -38.776   7.719  75.340  1.00  0.00    -0.387 OA
ATOM     41  H   UNL     1     -37.819   7.759  75.086  1.00  0.00     0.211 HD
ENDBRANCH  32  40
ENDBRANCH   1  27
TORSDOF 12
ENDMDL
MODEL 9
REMARK VINA RESULT:    -6.187      3.179      5.179
REMARK INTER + INTRA:         -10.464
REMARK INTER:                  -9.124
REMARK INTRA:                  -1.340
REMARK UNBOUND:                -1.384
REMARK SMILES O=c1c(O[C@@H]2O[C@H](CO)[C@H](O)[C@H](O)[C@H]2O)c(-c2ccc(O)c(O)c2)oc2cc(O)cc(O)c12
REMARK SMILES IDX 4 1 3 2 16 3 25 4 2 5 26 6 1 7 33 8 27 9 31 10 28 11 30 12
REMARK SMILES IDX 17 13 18 14 19 15 20 16 24 17 22 18 21 19 23 21 32 23 29 25
REMARK SMILES IDX 5 27 14 28 6 29 12 30 7 31 10 32 15 33 13 35 8 37 9 38 11 40
REMARK H PARENT 21 20 23 22 32 24 29 26 15 34 13 36 9 39 11 41
REMARK Flexibility Score: inf
ROOT
ATOM      1  O   UNL     1     -36.603   5.550  79.242  1.00  0.00    -0.454 OA
ENDROOT
BRANCH   1   2
ATOM      2  C   UNL     1     -37.700   5.073  79.976  1.00  0.00     0.214 A 
ATOM      3  C   UNL     1     -39.000   5.536  79.677  1.00  0.00     0.180 A 
ATOM      4  O   UNL     1     -40.042   5.053  80.347  1.00  0.00    -0.452 OA
ATOM      5  C   UNL     1     -37.536   4.160  81.035  1.00  0.00     0.239 A 
ATOM      6  C   UNL     1     -39.937   4.156  81.320  1.00  0.00     0.146 A 
ATOM      7  O   UNL     1     -36.379   3.832  81.402  1.00  0.00    -0.285 OA
ATOM      8  C   UNL     1     -38.670   3.660  81.709  1.00  0.00     0.111 A 
ATOM      9  C   UNL     1     -41.096   3.717  81.969  1.00  0.00     0.094 A 
ATOM     10  C   UNL     1     -38.593   2.704  82.751  1.00  0.00     0.134 A 
ATOM     11  C   UNL     1     -41.014   2.772  82.999  1.00  0.00     0.123 A 
ATOM     12  C   UNL     1     -39.767   2.264  83.381  1.00  0.00     0.093 A 
BRANCH   3  13
ATOM     13  C   UNL     1     -39.263   6.527  78.601  1.00  0.00     0.025 A 
ATOM     14  C   UNL     1     -38.760   6.286  77.314  1.00  0.00     0.016 A 
ATOM     15  C   UNL     1     -39.001   7.183  76.277  1.00  0.00     0.051 A 
ATOM     16  C   UNL     1     -39.771   8.330  76.489  1.00  0.00     0.157 A 
ATOM     17  C   UNL     1     -40.044   7.676  78.819  1.00  0.00     0.062 A 
ATOM     18  C   UNL     1     -40.287   8.588  77.783  1.00  0.00     0.158 A 
BRANCH  16  19
ATOM     19  O   UNL     1     -40.011   9.164  75.398  1.00  0.00    -0.504 OA
ATOM     20  H   UNL     1     -40.785   9.028  74.758  1.00  0.00     0.293 HD
ENDBRANCH  16  19
BRANCH  18  21
ATOM     21  O   UNL     1     -41.028   9.735  78.085  1.00  0.00    -0.504 OA
ATOM     22  H   UNL     1     -40.614  10.608  78.377  1.00  0.00     0.293 HD
ENDBRANCH  18  21
ENDBRANCH   3  13
BRANCH  10  23
ATOM     23  O   UNL     1     -37.363   2.189  83.167  1.00  0.00    -0.507 OA
ATOM     24  H   UNL     1     -37.305   1.396  83.796  1.00  0.00     0.293 HD
ENDBRANCH  10  23
BRANCH  11  25
ATOM     25  O   UNL     1     -42.163   2.333  83.651  1.00  0.00    -0.508 OA
ATOM     26  H   UNL     1     -42.189   1.446  84.144  1.00  0.00     0.293 HD
ENDBRANCH  11  25
ENDBRANCH   1   2
BRANCH   1  27
ATOM     27  C   UNL     1     -35.659   6.515  79.704  1.00  0.00     0.339 C 
ATOM     28  C   UNL     1     -34.232   5.936  79.556  1.00  0.00     0.214 C 
ATOM     29  O   UNL     1     -35.812   7.680  78.909  1.00  0.00    -0.332 OA
ATOM     30  C   UNL     1     -33.133   6.992  79.853  1.00  0.00     0.180 C 
ATOM     31  C   UNL     1     -34.882   8.727  79.192  1.00  0.00     0.179 C 
ATOM     32  C   UNL     1     -33.765   8.358  80.212  1.00  0.00     0.177 C 
BRANCH  28  33
ATOM     33  O   UNL     1     -34.068   4.832  80.418  1.00  0.00    -0.384 OA
ATOM     34  H   UNL     1     -34.197   4.005  79.882  1.00  0.00     0.211 HD
ENDBRANCH  28  33
BRANCH  30  35
ATOM     35  O   UNL     1     -32.293   7.108  78.731  1.00  0.00    -0.387 OA
ATOM     36  H   UNL     1     -31.808   6.246  78.611  1.00  0.00     0.211 HD
ENDBRANCH  30  35
BRANCH  31  37
ATOM     37  C   UNL     1     -34.318   9.286  77.855  1.00  0.00     0.191 C 
BRANCH  37  38
ATOM     38  O   UNL     1     -34.138   8.281  76.892  1.00  0.00    -0.394 OA
ATOM     39  H   UNL     1     -33.161   8.092  76.851  1.00  0.00     0.210 HD
ENDBRANCH  37  38
ENDBRANCH  31  37
BRANCH  32  40
ATOM     40  O   UNL     1     -32.803   9.384  80.293  1.00  0.00    -0.387 OA
ATOM     41  H   UNL     1     -31.920   8.960  80.148  1.00  0.00     0.211 HD
ENDBRANCH  32  40
ENDBRANCH   1  27
TORSDOF 12
ENDMDL
