MODEL 1
REMARK VINA RESULT:    -8.329      0.000      0.000
REMARK INTER + INTRA:         -10.293
REMARK INTER:                 -10.034
REMARK INTRA:                  -0.260
REMARK UNBOUND:                -0.260
REMARK SMILES O=c1c(O)c(-c2ccc(O)c(O)c2)oc2cc(O)cc(O)c12
REMARK SMILES IDX 5 1 3 2 2 3 1 4 22 5 20 6 19 7 17 8 16 9 15 10 14 11 6 12
REMARK SMILES IDX 7 13 8 14 9 15 13 16 11 17 10 18 12 20 4 22 21 24 18 26
REMARK H PARENT 10 19 12 21 4 23 21 25 18 27
REMARK Flexibility Score: inf
ROOT
ATOM      1  C   UNL     1     -67.300 -39.120 -38.101  1.00  0.00     0.180 A 
ATOM      2  C   UNL     1     -67.444 -40.234 -37.255  1.00  0.00     0.208 A 
ATOM      3  C   UNL     1     -67.528 -41.514 -37.824  1.00  0.00     0.238 A 
ATOM      4  O   UNL     1     -67.602 -42.512 -37.059  1.00  0.00    -0.285 OA
ATOM      5  C   UNL     1     -67.482 -41.665 -39.230  1.00  0.00     0.111 A 
ATOM      6  C   UNL     1     -67.598 -42.911 -39.916  1.00  0.00     0.134 A 
ATOM      7  C   UNL     1     -67.408 -42.957 -41.303  1.00  0.00     0.093 A 
ATOM      8  C   UNL     1     -67.172 -41.792 -42.037  1.00  0.00     0.123 A 
ATOM      9  C   UNL     1     -67.116 -40.563 -41.384  1.00  0.00     0.094 A 
ATOM     10  C   UNL     1     -67.266 -40.490 -39.997  1.00  0.00     0.146 A 
ATOM     11  O   UNL     1     -67.195 -39.300 -39.413  1.00  0.00    -0.452 OA
ENDROOT
BRANCH   1  12
ATOM     12  C   UNL     1     -67.230 -37.736 -37.578  1.00  0.00     0.025 A 
ATOM     13  C   UNL     1     -68.360 -36.909 -37.661  1.00  0.00     0.016 A 
ATOM     14  C   UNL     1     -68.323 -35.607 -37.155  1.00  0.00     0.051 A 
ATOM     15  C   UNL     1     -67.160 -35.119 -36.542  1.00  0.00     0.157 A 
ATOM     16  C   UNL     1     -66.073 -37.251 -36.944  1.00  0.00     0.062 A 
ATOM     17  C   UNL     1     -66.032 -35.949 -36.434  1.00  0.00     0.158 A 
BRANCH  15  18
ATOM     18  O   UNL     1     -67.126 -33.820 -36.041  1.00  0.00    -0.504 OA
ATOM     19  H   UNL     1     -67.579 -33.574 -35.168  1.00  0.00     0.293 HD
ENDBRANCH  15  18
BRANCH  17  20
ATOM     20  O   UNL     1     -64.865 -35.499 -35.817  1.00  0.00    -0.504 OA
ATOM     21  H   UNL     1     -64.066 -36.105 -35.669  1.00  0.00     0.293 HD
ENDBRANCH  17  20
ENDBRANCH   1  12
BRANCH   2  22
ATOM     22  O   UNL     1     -67.464 -40.064 -35.868  1.00  0.00    -0.502 OA
ATOM     23  H   UNL     1     -67.600 -39.159 -35.433  1.00  0.00     0.293 HD
ENDBRANCH   2  22
BRANCH   6  24
ATOM     24  O   UNL     1     -67.922 -44.119 -39.291  1.00  0.00    -0.507 OA
ATOM     25  H   UNL     1     -68.482 -44.201 -38.455  1.00  0.00     0.293 HD
ENDBRANCH   6  24
BRANCH   8  26
ATOM     26  O   UNL     1     -67.000 -41.844 -43.418  1.00  0.00    -0.508 OA
ATOM     27  H   UNL     1     -66.391 -41.195 -43.901  1.00  0.00     0.293 HD
ENDBRANCH   8  26
TORSDOF 6
ENDMDL
MODEL 2
REMARK VINA RESULT:    -8.246      6.946      9.454
REMARK INTER + INTRA:         -10.193
REMARK INTER:                 -10.034
REMARK INTRA:                  -0.159
REMARK UNBOUND:                -0.260
REMARK SMILES O=c1c(O)c(-c2ccc(O)c(O)c2)oc2cc(O)cc(O)c12
REMARK SMILES IDX 5 1 3 2 2 3 1 4 22 5 20 6 19 7 17 8 16 9 15 10 14 11 6 12
REMARK SMILES IDX 7 13 8 14 9 15 13 16 11 17 10 18 12 20 4 22 21 24 18 26
REMARK H PARENT 10 19 12 21 4 23 21 25 18 27
REMARK Flexibility Score: inf
ROOT
ATOM      1  C   UNL     1     -65.643 -38.319 -30.158  1.00  0.00     0.180 A 
ATOM      2  C   UNL     1     -65.941 -39.378 -31.033  1.00  0.00     0.208 A 
ATOM      3  C   UNL     1     -66.212 -39.093 -32.380  1.00  0.00     0.238 A 
ATOM      4  O   UNL     1     -66.424 -40.049 -33.170  1.00  0.00    -0.285 OA
ATOM      5  C   UNL     1     -66.198 -37.751 -32.833  1.00  0.00     0.111 A 
ATOM      6  C   UNL     1     -66.498 -37.343 -34.167  1.00  0.00     0.134 A 
ATOM      7  C   UNL     1     -66.326 -36.003 -34.535  1.00  0.00     0.093 A 
ATOM      8  C   UNL     1     -65.928 -35.044 -33.599  1.00  0.00     0.123 A 
ATOM      9  C   UNL     1     -65.691 -35.423 -32.280  1.00  0.00     0.094 A 
ATOM     10  C   UNL     1     -65.819 -36.759 -31.891  1.00  0.00     0.146 A 
ATOM     11  O   UNL     1     -65.573 -37.078 -30.627  1.00  0.00    -0.452 OA
ENDROOT
BRANCH   1  12
ATOM     12  C   UNL     1     -65.370 -38.538 -28.719  1.00  0.00     0.025 A 
ATOM     13  C   UNL     1     -64.143 -38.127 -28.178  1.00  0.00     0.016 A 
ATOM     14  C   UNL     1     -63.873 -38.305 -26.818  1.00  0.00     0.051 A 
ATOM     15  C   UNL     1     -64.833 -38.881 -25.977  1.00  0.00     0.157 A 
ATOM     16  C   UNL     1     -66.340 -39.097 -27.867  1.00  0.00     0.062 A 
ATOM     17  C   UNL     1     -66.074 -39.275 -26.504  1.00  0.00     0.158 A 
BRANCH  15  18
ATOM     18  O   UNL     1     -64.560 -39.059 -24.622  1.00  0.00    -0.504 OA
ATOM     19  H   UNL     1     -65.281 -39.341 -23.967  1.00  0.00     0.293 HD
ENDBRANCH  15  18
BRANCH  17  20
ATOM     20  O   UNL     1     -67.057 -39.837 -25.691  1.00  0.00    -0.504 OA
ATOM     21  H   UNL     1     -67.780 -40.444 -26.060  1.00  0.00     0.293 HD
ENDBRANCH  17  20
ENDBRANCH   1  12
BRANCH   2  22
ATOM     22  O   UNL     1     -65.926 -40.696 -30.570  1.00  0.00    -0.502 OA
ATOM     23  H   UNL     1     -65.755 -40.930 -29.599  1.00  0.00     0.293 HD
ENDBRANCH   2  22
BRANCH   6  24
ATOM     24  O   UNL     1     -66.989 -38.203 -35.154  1.00  0.00    -0.507 OA
ATOM     25  H   UNL     1     -66.688 -38.203 -36.117  1.00  0.00     0.293 HD
ENDBRANCH   6  24
BRANCH   8  26
ATOM     26  O   UNL     1     -65.775 -33.710 -33.970  1.00  0.00    -0.508 OA
ATOM     27  H   UNL     1     -66.444 -33.248 -34.574  1.00  0.00     0.293 HD
ENDBRANCH   8  26
TORSDOF 6
ENDMDL
MODEL 3
REMARK VINA RESULT:    -8.167      1.838      2.831
REMARK INTER + INTRA:         -10.098
REMARK INTER:                 -10.321
REMARK INTRA:                   0.223
REMARK UNBOUND:                -0.260
REMARK SMILES O=c1c(O)c(-c2ccc(O)c(O)c2)oc2cc(O)cc(O)c12
REMARK SMILES IDX 5 1 3 2 2 3 1 4 22 5 20 6 19 7 17 8 16 9 15 10 14 11 6 12
REMARK SMILES IDX 7 13 8 14 9 15 13 16 11 17 10 18 12 20 4 22 21 24 18 26
REMARK H PARENT 10 19 12 21 4 23 21 25 18 27
REMARK Flexibility Score: inf
ROOT
ATOM      1  C   UNL     1     -67.306 -37.847 -36.933  1.00  0.00     0.180 A 
ATOM      2  C   UNL     1     -66.772 -38.292 -35.711  1.00  0.00     0.208 A 
ATOM      3  C   UNL     1     -66.590 -39.668 -35.507  1.00  0.00     0.238 A 
ATOM      4  O   UNL     1     -66.061 -40.057 -34.433  1.00  0.00    -0.285 OA
ATOM      5  C   UNL     1     -66.959 -40.585 -36.521  1.00  0.00     0.111 A 
ATOM      6  C   UNL     1     -66.857 -42.004 -36.407  1.00  0.00     0.134 A 
ATOM      7  C   UNL     1     -67.128 -42.808 -37.521  1.00  0.00     0.093 A 
ATOM      8  C   UNL     1     -67.562 -42.248 -38.725  1.00  0.00     0.123 A 
ATOM      9  C   UNL     1     -67.723 -40.869 -38.828  1.00  0.00     0.094 A 
ATOM     10  C   UNL     1     -67.425 -40.037 -37.745  1.00  0.00     0.146 A 
ATOM     11  O   UNL     1     -67.581 -38.727 -37.889  1.00  0.00    -0.452 OA
ENDROOT
BRANCH   1  12
ATOM     12  C   UNL     1     -67.550 -36.413 -37.212  1.00  0.00     0.025 A 
ATOM     13  C   UNL     1     -68.688 -36.035 -37.940  1.00  0.00     0.016 A 
ATOM     14  C   UNL     1     -68.948 -34.687 -38.197  1.00  0.00     0.051 A 
ATOM     15  C   UNL     1     -68.083 -33.695 -37.714  1.00  0.00     0.157 A 
ATOM     16  C   UNL     1     -66.695 -35.415 -36.712  1.00  0.00     0.062 A 
ATOM     17  C   UNL     1     -66.954 -34.063 -36.965  1.00  0.00     0.158 A 
BRANCH  15  18
ATOM     18  O   UNL     1     -68.345 -32.352 -37.974  1.00  0.00    -0.504 OA
ATOM     19  H   UNL     1     -67.831 -31.836 -38.680  1.00  0.00     0.293 HD
ENDBRANCH  15  18
BRANCH  17  20
ATOM     20  O   UNL     1     -66.082 -33.100 -36.458  1.00  0.00    -0.504 OA
ATOM     21  H   UNL     1     -65.417 -32.612 -37.047  1.00  0.00     0.293 HD
ENDBRANCH  17  20
ENDBRANCH   1  12
BRANCH   2  22
ATOM     22  O   UNL     1     -66.393 -37.368 -34.733  1.00  0.00    -0.502 OA
ATOM     23  H   UNL     1     -66.452 -36.367 -34.878  1.00  0.00     0.293 HD
ENDBRANCH   2  22
BRANCH   6  24
ATOM     24  O   UNL     1     -66.521 -42.670 -35.224  1.00  0.00    -0.507 OA
ATOM     25  H   UNL     1     -66.233 -42.215 -34.371  1.00  0.00     0.293 HD
ENDBRANCH   6  24
BRANCH   8  26
ATOM     26  O   UNL     1     -67.846 -43.057 -39.823  1.00  0.00    -0.508 OA
ATOM     27  H   UNL     1     -67.295 -43.010 -40.672  1.00  0.00     0.293 HD
ENDBRANCH   8  26
TORSDOF 6
ENDMDL
MODEL 4
REMARK VINA RESULT:    -8.085      5.244      7.902
REMARK INTER + INTRA:          -9.999
REMARK INTER:                  -9.847
REMARK INTRA:                  -0.152
REMARK UNBOUND:                -0.260
REMARK SMILES O=c1c(O)c(-c2ccc(O)c(O)c2)oc2cc(O)cc(O)c12
REMARK SMILES IDX 5 1 3 2 2 3 1 4 22 5 20 6 19 7 17 8 16 9 15 10 14 11 6 12
REMARK SMILES IDX 7 13 8 14 9 15 13 16 11 17 10 18 12 20 4 22 21 24 18 26
REMARK H PARENT 10 19 12 21 4 23 21 25 18 27
REMARK Flexibility Score: inf
ROOT
ATOM      1  C   UNL     1     -65.817 -38.009 -32.254  1.00  0.00     0.180 A 
ATOM      2  C   UNL     1     -66.386 -38.956 -33.124  1.00  0.00     0.208 A 
ATOM      3  C   UNL     1     -66.869 -38.532 -34.371  1.00  0.00     0.238 A 
ATOM      4  O   UNL     1     -67.328 -39.393 -35.167  1.00  0.00    -0.285 OA
ATOM      5  C   UNL     1     -66.793 -37.165 -34.728  1.00  0.00     0.111 A 
ATOM      6  C   UNL     1     -67.289 -36.617 -35.949  1.00  0.00     0.134 A 
ATOM      7  C   UNL     1     -67.042 -35.272 -36.253  1.00  0.00     0.093 A 
ATOM      8  C   UNL     1     -66.376 -34.439 -35.351  1.00  0.00     0.123 A 
ATOM      9  C   UNL     1     -65.941 -34.950 -34.130  1.00  0.00     0.094 A 
ATOM     10  C   UNL     1     -66.140 -36.297 -33.814  1.00  0.00     0.146 A 
ATOM     11  O   UNL     1     -65.701 -36.745 -32.644  1.00  0.00    -0.452 OA
ENDROOT
BRANCH   1  12
ATOM     12  C   UNL     1     -65.308 -38.376 -30.912  1.00  0.00     0.025 A 
ATOM     13  C   UNL     1     -65.954 -37.882 -29.770  1.00  0.00     0.016 A 
ATOM     14  C   UNL     1     -65.504 -38.232 -28.494  1.00  0.00     0.051 A 
ATOM     15  C   UNL     1     -64.410 -39.095 -28.343  1.00  0.00     0.157 A 
ATOM     16  C   UNL     1     -64.224 -39.258 -30.757  1.00  0.00     0.062 A 
ATOM     17  C   UNL     1     -63.771 -39.613 -29.481  1.00  0.00     0.158 A 
BRANCH  15  18
ATOM     18  O   UNL     1     -63.962 -39.440 -27.070  1.00  0.00    -0.504 OA
ATOM     19  H   UNL     1     -63.009 -39.263 -26.775  1.00  0.00     0.293 HD
ENDBRANCH  15  18
BRANCH  17  20
ATOM     20  O   UNL     1     -62.690 -40.486 -29.365  1.00  0.00    -0.504 OA
ATOM     21  H   UNL     1     -61.833 -40.222 -28.892  1.00  0.00     0.293 HD
ENDBRANCH  17  20
ENDBRANCH   1  12
BRANCH   2  22
ATOM     22  O   UNL     1     -66.430 -40.305 -32.760  1.00  0.00    -0.502 OA
ATOM     23  H   UNL     1     -65.603 -40.889 -32.735  1.00  0.00     0.293 HD
ENDBRANCH   2  22
BRANCH   6  24
ATOM     24  O   UNL     1     -68.045 -37.338 -36.877  1.00  0.00    -0.507 OA
ATOM     25  H   UNL     1     -67.703 -38.123 -37.411  1.00  0.00     0.293 HD
ENDBRANCH   6  24
BRANCH   8  26
ATOM     26  O   UNL     1     -66.149 -33.099 -35.655  1.00  0.00    -0.508 OA
ATOM     27  H   UNL     1     -65.463 -32.821 -36.346  1.00  0.00     0.293 HD
ENDBRANCH   8  26
TORSDOF 6
ENDMDL
MODEL 5
REMARK VINA RESULT:    -8.023      4.922      7.945
REMARK INTER + INTRA:          -9.924
REMARK INTER:                  -9.713
REMARK INTRA:                  -0.211
REMARK UNBOUND:                -0.260
REMARK SMILES O=c1c(O)c(-c2ccc(O)c(O)c2)oc2cc(O)cc(O)c12
REMARK SMILES IDX 5 1 3 2 2 3 1 4 22 5 20 6 19 7 17 8 16 9 15 10 14 11 6 12
REMARK SMILES IDX 7 13 8 14 9 15 13 16 11 17 10 18 12 20 4 22 21 24 18 26
REMARK H PARENT 10 19 12 21 4 23 21 25 18 27
REMARK Flexibility Score: inf
ROOT
ATOM      1  C   UNL     1     -66.029 -37.030 -32.505  1.00  0.00     0.180 A 
ATOM      2  C   UNL     1     -65.756 -35.657 -32.637  1.00  0.00     0.208 A 
ATOM      3  C   UNL     1     -66.235 -34.973 -33.765  1.00  0.00     0.238 A 
ATOM      4  O   UNL     1     -66.034 -33.733 -33.851  1.00  0.00    -0.285 OA
ATOM      5  C   UNL     1     -66.967 -35.672 -34.755  1.00  0.00     0.111 A 
ATOM      6  C   UNL     1     -67.465 -35.088 -35.958  1.00  0.00     0.134 A 
ATOM      7  C   UNL     1     -68.288 -35.842 -36.803  1.00  0.00     0.093 A 
ATOM      8  C   UNL     1     -68.576 -37.181 -36.522  1.00  0.00     0.123 A 
ATOM      9  C   UNL     1     -68.046 -37.777 -35.381  1.00  0.00     0.094 A 
ATOM     10  C   UNL     1     -67.251 -37.039 -34.499  1.00  0.00     0.146 A 
ATOM     11  O   UNL     1     -66.774 -37.643 -33.418  1.00  0.00    -0.452 OA
ENDROOT
BRANCH   1  12
ATOM     12  C   UNL     1     -65.537 -37.825 -31.356  1.00  0.00     0.025 A 
ATOM     13  C   UNL     1     -64.499 -38.748 -31.550  1.00  0.00     0.016 A 
ATOM     14  C   UNL     1     -64.005 -39.493 -30.476  1.00  0.00     0.051 A 
ATOM     15  C   UNL     1     -64.531 -39.314 -29.189  1.00  0.00     0.157 A 
ATOM     16  C   UNL     1     -66.049 -37.633 -30.061  1.00  0.00     0.062 A 
ATOM     17  C   UNL     1     -65.556 -38.375 -28.982  1.00  0.00     0.158 A 
BRANCH  15  18
ATOM     18  O   UNL     1     -64.038 -40.060 -28.121  1.00  0.00    -0.504 OA
ATOM     19  H   UNL     1     -64.646 -40.402 -27.385  1.00  0.00     0.293 HD
ENDBRANCH  15  18
BRANCH  17  20
ATOM     20  O   UNL     1     -66.091 -38.163 -27.712  1.00  0.00    -0.504 OA
ATOM     21  H   UNL     1     -65.831 -38.734 -26.916  1.00  0.00     0.293 HD
ENDBRANCH  17  20
ENDBRANCH   1  12
BRANCH   2  22
ATOM     22  O   UNL     1     -65.051 -34.982 -31.637  1.00  0.00    -0.502 OA
ATOM     23  H   UNL     1     -64.094 -34.675 -31.759  1.00  0.00     0.293 HD
ENDBRANCH   2  22
BRANCH   6  24
ATOM     24  O   UNL     1     -67.162 -33.789 -36.379  1.00  0.00    -0.507 OA
ATOM     25  H   UNL     1     -67.515 -32.948 -35.947  1.00  0.00     0.293 HD
ENDBRANCH   6  24
BRANCH   8  26
ATOM     26  O   UNL     1     -69.382 -37.928 -37.377  1.00  0.00    -0.508 OA
ATOM     27  H   UNL     1     -69.418 -37.740 -38.371  1.00  0.00     0.293 HD
ENDBRANCH   8  26
TORSDOF 6
ENDMDL
MODEL 6
REMARK VINA RESULT:    -7.782      1.495      6.910
REMARK INTER + INTRA:          -9.634
REMARK INTER:                  -9.352
REMARK INTRA:                  -0.282
REMARK UNBOUND:                -0.260
REMARK SMILES O=c1c(O)c(-c2ccc(O)c(O)c2)oc2cc(O)cc(O)c12
REMARK SMILES IDX 5 1 3 2 2 3 1 4 22 5 20 6 19 7 17 8 16 9 15 10 14 11 6 12
REMARK SMILES IDX 7 13 8 14 9 15 13 16 11 17 10 18 12 20 4 22 21 24 18 26
REMARK H PARENT 10 19 12 21 4 23 21 25 18 27
REMARK Flexibility Score: inf
ROOT
ATOM      1  C   UNL     1     -66.985 -38.772 -37.888  1.00  0.00     0.180 A 
ATOM      2  C   UNL     1     -66.021 -38.908 -36.874  1.00  0.00     0.208 A 
ATOM      3  C   UNL     1     -65.661 -37.780 -36.121  1.00  0.00     0.238 A 
ATOM      4  O   UNL     1     -64.837 -37.919 -35.179  1.00  0.00    -0.285 OA
ATOM      5  C   UNL     1     -66.256 -36.527 -36.401  1.00  0.00     0.111 A 
ATOM      6  C   UNL     1     -65.936 -35.309 -35.729  1.00  0.00     0.134 A 
ATOM      7  C   UNL     1     -66.681 -34.155 -35.999  1.00  0.00     0.093 A 
ATOM      8  C   UNL     1     -67.691 -34.158 -36.965  1.00  0.00     0.123 A 
ATOM      9  C   UNL     1     -67.970 -35.327 -37.669  1.00  0.00     0.094 A 
ATOM     10  C   UNL     1     -67.268 -36.504 -37.397  1.00  0.00     0.146 A 
ATOM     11  O   UNL     1     -67.573 -37.597 -38.084  1.00  0.00    -0.452 OA
ENDROOT
BRANCH   1  12
ATOM     12  C   UNL     1     -67.398 -39.911 -38.741  1.00  0.00     0.025 A 
ATOM     13  C   UNL     1     -68.318 -40.847 -38.244  1.00  0.00     0.016 A 
ATOM     14  C   UNL     1     -68.738 -41.917 -39.039  1.00  0.00     0.051 A 
ATOM     15  C   UNL     1     -68.257 -42.057 -40.348  1.00  0.00     0.157 A 
ATOM     16  C   UNL     1     -66.934 -40.043 -40.061  1.00  0.00     0.062 A 
ATOM     17  C   UNL     1     -67.354 -41.112 -40.861  1.00  0.00     0.158 A 
BRANCH  15  18
ATOM     18  O   UNL     1     -68.676 -43.126 -41.137  1.00  0.00    -0.504 OA
ATOM     19  H   UNL     1     -68.566 -43.119 -42.144  1.00  0.00     0.293 HD
ENDBRANCH  15  18
BRANCH  17  20
ATOM     20  O   UNL     1     -66.868 -41.214 -42.164  1.00  0.00    -0.504 OA
ATOM     21  H   UNL     1     -65.906 -41.463 -42.362  1.00  0.00     0.293 HD
ENDBRANCH  17  20
ENDBRANCH   1  12
BRANCH   2  22
ATOM     22  O   UNL     1     -65.463 -40.160 -36.599  1.00  0.00    -0.502 OA
ATOM     23  H   UNL     1     -65.033 -40.380 -35.708  1.00  0.00     0.293 HD
ENDBRANCH   2  22
BRANCH   6  24
ATOM     24  O   UNL     1     -64.888 -35.175 -34.814  1.00  0.00    -0.507 OA
ATOM     25  H   UNL     1     -64.999 -35.159 -33.811  1.00  0.00     0.293 HD
ENDBRANCH   6  24
BRANCH   8  26
ATOM     26  O   UNL     1     -68.416 -33.001 -37.239  1.00  0.00    -0.508 OA
ATOM     27  H   UNL     1     -69.264 -32.774 -36.733  1.00  0.00     0.293 HD
ENDBRANCH   8  26
TORSDOF 6
ENDMDL
MODEL 7
REMARK VINA RESULT:    -7.703      1.509      6.994
REMARK INTER + INTRA:          -9.538
REMARK INTER:                  -9.461
REMARK INTRA:                  -0.077
REMARK UNBOUND:                -0.260
REMARK SMILES O=c1c(O)c(-c2ccc(O)c(O)c2)oc2cc(O)cc(O)c12
REMARK SMILES IDX 5 1 3 2 2 3 1 4 22 5 20 6 19 7 17 8 16 9 15 10 14 11 6 12
REMARK SMILES IDX 7 13 8 14 9 15 13 16 11 17 10 18 12 20 4 22 21 24 18 26
REMARK H PARENT 10 19 12 21 4 23 21 25 18 27
REMARK Flexibility Score: inf
ROOT
ATOM      1  C   UNL     1     -66.509 -39.062 -37.400  1.00  0.00     0.180 A 
ATOM      2  C   UNL     1     -65.536 -39.105 -36.387  1.00  0.00     0.208 A 
ATOM      3  C   UNL     1     -65.215 -37.925 -35.700  1.00  0.00     0.238 A 
ATOM      4  O   UNL     1     -64.383 -37.981 -34.757  1.00  0.00    -0.285 OA
ATOM      5  C   UNL     1     -65.859 -36.712 -36.044  1.00  0.00     0.111 A 
ATOM      6  C   UNL     1     -65.582 -35.448 -35.441  1.00  0.00     0.134 A 
ATOM      7  C   UNL     1     -66.371 -34.339 -35.769  1.00  0.00     0.093 A 
ATOM      8  C   UNL     1     -67.384 -34.433 -36.727  1.00  0.00     0.123 A 
ATOM      9  C   UNL     1     -67.622 -35.648 -37.364  1.00  0.00     0.094 A 
ATOM     10  C   UNL     1     -66.876 -36.781 -37.032  1.00  0.00     0.146 A 
ATOM     11  O   UNL     1     -67.142 -37.922 -37.656  1.00  0.00    -0.452 OA
ENDROOT
BRANCH   1  12
ATOM     12  C   UNL     1     -66.884 -40.260 -38.186  1.00  0.00     0.025 A 
ATOM     13  C   UNL     1     -66.700 -40.259 -39.577  1.00  0.00     0.016 A 
ATOM     14  C   UNL     1     -67.027 -41.386 -40.335  1.00  0.00     0.051 A 
ATOM     15  C   UNL     1     -67.527 -42.537 -39.711  1.00  0.00     0.157 A 
ATOM     16  C   UNL     1     -67.367 -41.423 -37.561  1.00  0.00     0.062 A 
ATOM     17  C   UNL     1     -67.693 -42.556 -38.316  1.00  0.00     0.158 A 
BRANCH  15  18
ATOM     18  O   UNL     1     -67.854 -43.659 -40.470  1.00  0.00    -0.504 OA
ATOM     19  H   UNL     1     -68.646 -44.248 -40.236  1.00  0.00     0.293 HD
ENDBRANCH  15  18
BRANCH  17  20
ATOM     20  O   UNL     1     -68.174 -43.690 -37.664  1.00  0.00    -0.504 OA
ATOM     21  H   UNL     1     -69.029 -43.676 -37.119  1.00  0.00     0.293 HD
ENDBRANCH  17  20
ENDBRANCH   1  12
BRANCH   2  22
ATOM     22  O   UNL     1     -64.930 -40.318 -36.048  1.00  0.00    -0.502 OA
ATOM     23  H   UNL     1     -65.246 -41.206 -36.418  1.00  0.00     0.293 HD
ENDBRANCH   2  22
BRANCH   6  24
ATOM     24  O   UNL     1     -64.535 -35.225 -34.542  1.00  0.00    -0.507 OA
ATOM     25  H   UNL     1     -64.619 -35.277 -33.538  1.00  0.00     0.293 HD
ENDBRANCH   6  24
BRANCH   8  26
ATOM     26  O   UNL     1     -68.154 -33.320 -37.059  1.00  0.00    -0.508 OA
ATOM     27  H   UNL     1     -68.354 -32.594 -36.382  1.00  0.00     0.293 HD
ENDBRANCH   8  26
TORSDOF 6
ENDMDL
MODEL 8
REMARK VINA RESULT:    -7.693      2.878      7.629
REMARK INTER + INTRA:          -9.527
REMARK INTER:                  -9.234
REMARK INTRA:                  -0.293
REMARK UNBOUND:                -0.260
REMARK SMILES O=c1c(O)c(-c2ccc(O)c(O)c2)oc2cc(O)cc(O)c12
REMARK SMILES IDX 5 1 3 2 2 3 1 4 22 5 20 6 19 7 17 8 16 9 15 10 14 11 6 12
REMARK SMILES IDX 7 13 8 14 9 15 13 16 11 17 10 18 12 20 4 22 21 24 18 26
REMARK H PARENT 10 19 12 21 4 23 21 25 18 27
REMARK Flexibility Score: inf
ROOT
ATOM      1  C   UNL     1     -67.603 -37.999 -36.110  1.00  0.00     0.180 A 
ATOM      2  C   UNL     1     -67.620 -36.611 -36.331  1.00  0.00     0.208 A 
ATOM      3  C   UNL     1     -67.148 -35.755 -35.325  1.00  0.00     0.238 A 
ATOM      4  O   UNL     1     -67.115 -34.517 -35.550  1.00  0.00    -0.285 OA
ATOM      5  C   UNL     1     -66.681 -36.295 -34.102  1.00  0.00     0.111 A 
ATOM      6  C   UNL     1     -66.219 -35.518 -32.997  1.00  0.00     0.134 A 
ATOM      7  C   UNL     1     -65.658 -36.162 -31.887  1.00  0.00     0.093 A 
ATOM      8  C   UNL     1     -65.603 -37.557 -31.814  1.00  0.00     0.123 A 
ATOM      9  C   UNL     1     -66.107 -38.324 -32.862  1.00  0.00     0.094 A 
ATOM     10  C   UNL     1     -66.639 -37.710 -33.998  1.00  0.00     0.146 A 
ATOM     11  O   UNL     1     -67.099 -38.478 -34.978  1.00  0.00    -0.452 OA
ENDROOT
BRANCH   1  12
ATOM     12  C   UNL     1     -68.107 -38.964 -37.114  1.00  0.00     0.025 A 
ATOM     13  C   UNL     1     -69.414 -39.461 -37.001  1.00  0.00     0.016 A 
ATOM     14  C   UNL     1     -69.916 -40.356 -37.949  1.00  0.00     0.051 A 
ATOM     15  C   UNL     1     -69.124 -40.755 -39.033  1.00  0.00     0.157 A 
ATOM     16  C   UNL     1     -67.322 -39.351 -38.215  1.00  0.00     0.062 A 
ATOM     17  C   UNL     1     -67.822 -40.246 -39.168  1.00  0.00     0.158 A 
BRANCH  15  18
ATOM     18  O   UNL     1     -69.627 -41.650 -39.976  1.00  0.00    -0.504 OA
ATOM     19  H   UNL     1     -69.842 -42.611 -39.735  1.00  0.00     0.293 HD
ENDBRANCH  15  18
BRANCH  17  20
ATOM     20  O   UNL     1     -67.013 -40.612 -40.243  1.00  0.00    -0.504 OA
ATOM     21  H   UNL     1     -66.007 -40.498 -40.224  1.00  0.00     0.293 HD
ENDBRANCH  17  20
ENDBRANCH   1  12
BRANCH   2  22
ATOM     22  O   UNL     1     -68.064 -36.101 -37.555  1.00  0.00    -0.502 OA
ATOM     23  H   UNL     1     -67.462 -35.569 -38.173  1.00  0.00     0.293 HD
ENDBRANCH   2  22
BRANCH   6  24
ATOM     24  O   UNL     1     -66.312 -34.125 -32.929  1.00  0.00    -0.507 OA
ATOM     25  H   UNL     1     -65.877 -33.554 -32.220  1.00  0.00     0.293 HD
ENDBRANCH   6  24
BRANCH   8  26
ATOM     26  O   UNL     1     -65.059 -38.189 -30.699  1.00  0.00    -0.508 OA
ATOM     27  H   UNL     1     -64.140 -37.946 -30.349  1.00  0.00     0.293 HD
ENDBRANCH   8  26
TORSDOF 6
ENDMDL
MODEL 9
REMARK VINA RESULT:    -7.692      5.386      7.428
REMARK INTER + INTRA:          -9.525
REMARK INTER:                  -9.496
REMARK INTRA:                  -0.029
REMARK UNBOUND:                -0.260
REMARK SMILES O=c1c(O)c(-c2ccc(O)c(O)c2)oc2cc(O)cc(O)c12
REMARK SMILES IDX 5 1 3 2 2 3 1 4 22 5 20 6 19 7 17 8 16 9 15 10 14 11 6 12
REMARK SMILES IDX 7 13 8 14 9 15 13 16 11 17 10 18 12 20 4 22 21 24 18 26
REMARK H PARENT 10 19 12 21 4 23 21 25 18 27
REMARK Flexibility Score: inf
ROOT
ATOM      1  C   UNL     1     -65.526 -38.260 -32.244  1.00  0.00     0.180 A 
ATOM      2  C   UNL     1     -65.863 -36.950 -32.628  1.00  0.00     0.208 A 
ATOM      3  C   UNL     1     -65.992 -36.653 -33.994  1.00  0.00     0.238 A 
ATOM      4  O   UNL     1     -66.347 -35.493 -34.329  1.00  0.00    -0.285 OA
ATOM      5  C   UNL     1     -65.768 -37.664 -34.959  1.00  0.00     0.111 A 
ATOM      6  C   UNL     1     -65.831 -37.465 -36.371  1.00  0.00     0.134 A 
ATOM      7  C   UNL     1     -65.720 -38.566 -37.229  1.00  0.00     0.093 A 
ATOM      8  C   UNL     1     -65.481 -39.849 -36.729  1.00  0.00     0.123 A 
ATOM      9  C   UNL     1     -65.358 -40.043 -35.356  1.00  0.00     0.094 A 
ATOM     10  C   UNL     1     -65.500 -38.971 -34.472  1.00  0.00     0.146 A 
ATOM     11  O   UNL     1     -65.386 -39.202 -33.170  1.00  0.00    -0.452 OA
ENDROOT
BRANCH   1  12
ATOM     12  C   UNL     1     -65.348 -38.644 -30.825  1.00  0.00     0.025 A 
ATOM     13  C   UNL     1     -65.973 -39.802 -30.339  1.00  0.00     0.016 A 
ATOM     14  C   UNL     1     -65.802 -40.195 -29.009  1.00  0.00     0.051 A 
ATOM     15  C   UNL     1     -64.988 -39.444 -28.149  1.00  0.00     0.157 A 
ATOM     16  C   UNL     1     -64.516 -37.905 -29.966  1.00  0.00     0.062 A 
ATOM     17  C   UNL     1     -64.339 -38.295 -28.633  1.00  0.00     0.158 A 
BRANCH  15  18
ATOM     18  O   UNL     1     -64.821 -39.836 -26.823  1.00  0.00    -0.504 OA
ATOM     19  H   UNL     1     -65.151 -39.265 -26.053  1.00  0.00     0.293 HD
ENDBRANCH  15  18
BRANCH  17  20
ATOM     20  O   UNL     1     -63.512 -37.535 -27.808  1.00  0.00    -0.504 OA
ATOM     21  H   UNL     1     -63.417 -37.726 -26.817  1.00  0.00     0.293 HD
ENDBRANCH  17  20
ENDBRANCH   1  12
BRANCH   2  22
ATOM     22  O   UNL     1     -66.102 -35.974 -31.658  1.00  0.00    -0.502 OA
ATOM     23  H   UNL     1     -65.420 -35.732 -30.949  1.00  0.00     0.293 HD
ENDBRANCH   2  22
BRANCH   6  24
ATOM     24  O   UNL     1     -65.975 -36.213 -36.977  1.00  0.00    -0.507 OA
ATOM     25  H   UNL     1     -66.323 -35.387 -36.513  1.00  0.00     0.293 HD
ENDBRANCH   6  24
BRANCH   8  26
ATOM     26  O   UNL     1     -65.356 -40.935 -37.592  1.00  0.00    -0.508 OA
ATOM     27  H   UNL     1     -64.534 -41.528 -37.581  1.00  0.00     0.293 HD
ENDBRANCH   8  26
TORSDOF 6
ENDMDL
