MODEL 1
REMARK VINA RESULT:    -4.860      0.000      0.000
REMARK INTER + INTRA:          -8.941
REMARK INTER:                  -7.133
REMARK INTRA:                  -1.807
REMARK UNBOUND:                -1.807
REMARK SMILES CC(C)COC(=O)c1ccccc1C(=O)OCC(C)C
REMARK SMILES IDX 8 1 9 2 10 3 11 4 12 5 13 6 6 7 7 8 5 9 4 10 2 11 1 12 3 13
REMARK SMILES IDX 14 14 15 15 16 16 17 17 18 18 19 19 20 20
REMARK H PARENT
REMARK Flexibility Score: inf
ROOT
ATOM      1  C   UNL     1      18.412  12.846  12.260  1.00  0.00     0.074 A 
ATOM      2  C   UNL     1      17.634  12.444  13.361  1.00  0.00     0.016 A 
ATOM      3  C   UNL     1      17.308  13.348  14.371  1.00  0.00     0.001 A 
ATOM      4  C   UNL     1      17.751  14.668  14.298  1.00  0.00     0.001 A 
ATOM      5  C   UNL     1      18.543  15.081  13.227  1.00  0.00     0.016 A 
ATOM      6  C   UNL     1      18.904  14.179  12.207  1.00  0.00     0.074 A 
ENDROOT
BRANCH   1   7
ATOM      7  C   UNL     1      18.625  11.867  11.172  1.00  0.00     0.339 C 
ATOM      8  O   UNL     1      19.742  11.298  11.039  1.00  0.00    -0.246 OA
BRANCH   7   9
ATOM      9  O   UNL     1      17.596  11.623  10.258  1.00  0.00    -0.462 OA
BRANCH   9  10
ATOM     10  C   UNL     1      17.107  10.313   9.982  1.00  0.00     0.236 C 
BRANCH  10  11
ATOM     11  C   UNL     1      15.752  10.087  10.671  1.00  0.00     0.021 C 
ATOM     12  C   UNL     1      14.942  11.389  10.736  1.00  0.00     0.011 C 
ATOM     13  C   UNL     1      15.934   9.490  12.072  1.00  0.00     0.011 C 
ENDBRANCH  10  11
ENDBRANCH   9  10
ENDBRANCH   7   9
ENDBRANCH   1   7
BRANCH   6  14
ATOM     14  C   UNL     1      19.851  14.641  11.164  1.00  0.00     0.339 C 
ATOM     15  O   UNL     1      21.066  14.306  11.229  1.00  0.00    -0.246 OA
BRANCH  14  16
ATOM     16  O   UNL     1      19.382  15.389  10.077  1.00  0.00    -0.462 OA
BRANCH  16  17
ATOM     17  C   UNL     1      18.437  14.908   9.122  1.00  0.00     0.236 C 
BRANCH  17  18
ATOM     18  C   UNL     1      17.085  15.634   9.261  1.00  0.00     0.021 C 
ATOM     19  C   UNL     1      17.287  17.012   9.903  1.00  0.00     0.011 C 
ATOM     20  C   UNL     1      16.081  14.815  10.083  1.00  0.00     0.011 C 
ENDBRANCH  17  18
ENDBRANCH  16  17
ENDBRANCH  14  16
ENDBRANCH   6  14
TORSDOF 8
ENDMDL
MODEL 2
REMARK VINA RESULT:    -4.858      7.054      9.802
REMARK INTER + INTRA:          -8.938
REMARK INTER:                  -7.686
REMARK INTRA:                  -1.252
REMARK UNBOUND:                -1.807
REMARK SMILES CC(C)COC(=O)c1ccccc1C(=O)OCC(C)C
REMARK SMILES IDX 8 1 9 2 10 3 11 4 12 5 13 6 6 7 7 8 5 9 4 10 2 11 1 12 3 13
REMARK SMILES IDX 14 14 15 15 16 16 17 17 18 18 19 19 20 20
REMARK H PARENT
REMARK Flexibility Score: inf
ROOT
ATOM      1  C   UNL     1      20.269  23.031   8.080  1.00  0.00     0.074 A 
ATOM      2  C   UNL     1      20.888  23.765   7.053  1.00  0.00     0.016 A 
ATOM      3  C   UNL     1      20.448  25.050   6.732  1.00  0.00     0.001 A 
ATOM      4  C   UNL     1      19.386  25.620   7.430  1.00  0.00     0.001 A 
ATOM      5  C   UNL     1      18.742  24.898   8.435  1.00  0.00     0.016 A 
ATOM      6  C   UNL     1      19.154  23.592   8.762  1.00  0.00     0.074 A 
ENDROOT
BRANCH   1   7
ATOM      7  C   UNL     1      20.856  21.723   8.443  1.00  0.00     0.339 C 
ATOM      8  O   UNL     1      21.682  21.638   9.392  1.00  0.00    -0.246 OA
BRANCH   7   9
ATOM      9  O   UNL     1      20.532  20.592   7.689  1.00  0.00    -0.462 OA
BRANCH   9  10
ATOM     10  C   UNL     1      20.820  19.266   8.127  1.00  0.00     0.236 C 
BRANCH  10  11
ATOM     11  C   UNL     1      19.546  18.581   8.647  1.00  0.00     0.021 C 
ATOM     12  C   UNL     1      18.337  18.923   7.767  1.00  0.00     0.011 C 
ATOM     13  C   UNL     1      19.275  18.951  10.110  1.00  0.00     0.011 C 
ENDBRANCH  10  11
ENDBRANCH   9  10
ENDBRANCH   7   9
ENDBRANCH   1   7
BRANCH   6  14
ATOM     14  C   UNL     1      18.353  22.829   9.749  1.00  0.00     0.339 C 
ATOM     15  O   UNL     1      18.479  23.074  10.980  1.00  0.00    -0.246 OA
BRANCH  14  16
ATOM     16  O   UNL     1      17.414  21.887   9.309  1.00  0.00    -0.462 OA
BRANCH  16  17
ATOM     17  C   UNL     1      16.019  21.950   9.606  1.00  0.00     0.236 C 
BRANCH  17  18
ATOM     18  C   UNL     1      15.340  20.585   9.385  1.00  0.00     0.021 C 
ATOM     19  C   UNL     1      13.832  20.773   9.166  1.00  0.00     0.011 C 
ATOM     20  C   UNL     1      15.583  19.631  10.561  1.00  0.00     0.011 C 
ENDBRANCH  17  18
ENDBRANCH  16  17
ENDBRANCH  14  16
ENDBRANCH   6  14
TORSDOF 8
ENDMDL
MODEL 3
REMARK VINA RESULT:    -4.807      7.093      9.634
REMARK INTER + INTRA:          -8.863
REMARK INTER:                  -7.825
REMARK INTRA:                  -1.038
REMARK UNBOUND:                -1.807
REMARK SMILES CC(C)COC(=O)c1ccccc1C(=O)OCC(C)C
REMARK SMILES IDX 8 1 9 2 10 3 11 4 12 5 13 6 6 7 7 8 5 9 4 10 2 11 1 12 3 13
REMARK SMILES IDX 14 14 15 15 16 16 17 17 18 18 19 19 20 20
REMARK H PARENT
REMARK Flexibility Score: inf
ROOT
ATOM      1  C   UNL     1      18.062  23.250   9.235  1.00  0.00     0.074 A 
ATOM      2  C   UNL     1      17.186  24.344   9.119  1.00  0.00     0.016 A 
ATOM      3  C   UNL     1      17.585  25.510   8.466  1.00  0.00     0.001 A 
ATOM      4  C   UNL     1      18.863  25.602   7.917  1.00  0.00     0.001 A 
ATOM      5  C   UNL     1      19.755  24.537   8.043  1.00  0.00     0.016 A 
ATOM      6  C   UNL     1      19.382  23.359   8.718  1.00  0.00     0.074 A 
ENDROOT
BRANCH   1   7
ATOM      7  C   UNL     1      17.537  22.007   9.840  1.00  0.00     0.339 C 
ATOM      8  O   UNL     1      17.726  21.765  11.062  1.00  0.00    -0.246 OA
BRANCH   7   9
ATOM      9  O   UNL     1      16.880  21.075   9.031  1.00  0.00    -0.462 OA
BRANCH   9  10
ATOM     10  C   UNL     1      15.916  20.157   9.542  1.00  0.00     0.236 C 
BRANCH  10  11
ATOM     11  C   UNL     1      14.572  20.863   9.780  1.00  0.00     0.021 C 
ATOM     12  C   UNL     1      13.780  20.178  10.901  1.00  0.00     0.011 C 
ATOM     13  C   UNL     1      13.743  20.928   8.491  1.00  0.00     0.011 C 
ENDBRANCH  10  11
ENDBRANCH   9  10
ENDBRANCH   7   9
ENDBRANCH   1   7
BRANCH   6  14
ATOM     14  C   UNL     1      20.413  22.314   8.929  1.00  0.00     0.339 C 
ATOM     15  O   UNL     1      21.012  22.242  10.037  1.00  0.00    -0.246 OA
BRANCH  14  16
ATOM     16  O   UNL     1      20.670  21.372   7.925  1.00  0.00    -0.462 OA
BRANCH  16  17
ATOM     17  C   UNL     1      21.044  20.018   8.176  1.00  0.00     0.236 C 
BRANCH  17  18
ATOM     18  C   UNL     1      19.993  19.300   9.044  1.00  0.00     0.021 C 
ATOM     19  C   UNL     1      20.685  18.419  10.092  1.00  0.00     0.011 C 
ATOM     20  C   UNL     1      19.037  18.452   8.196  1.00  0.00     0.011 C 
ENDBRANCH  17  18
ENDBRANCH  16  17
ENDBRANCH  14  16
ENDBRANCH   6  14
TORSDOF 8
ENDMDL
MODEL 4
REMARK VINA RESULT:    -4.780      1.603      2.117
REMARK INTER + INTRA:          -8.823
REMARK INTER:                  -7.740
REMARK INTRA:                  -1.083
REMARK UNBOUND:                -1.807
REMARK SMILES CC(C)COC(=O)c1ccccc1C(=O)OCC(C)C
REMARK SMILES IDX 8 1 9 2 10 3 11 4 12 5 13 6 6 7 7 8 5 9 4 10 2 11 1 12 3 13
REMARK SMILES IDX 14 14 15 15 16 16 17 17 18 18 19 19 20 20
REMARK H PARENT
REMARK Flexibility Score: inf
ROOT
ATOM      1  C   UNL     1      18.013  12.899  12.896  1.00  0.00     0.074 A 
ATOM      2  C   UNL     1      17.644  13.149  14.230  1.00  0.00     0.016 A 
ATOM      3  C   UNL     1      18.031  14.329  14.867  1.00  0.00     0.001 A 
ATOM      4  C   UNL     1      18.790  15.276  14.183  1.00  0.00     0.001 A 
ATOM      5  C   UNL     1      19.186  15.037  12.867  1.00  0.00     0.016 A 
ATOM      6  C   UNL     1      18.827  13.844  12.212  1.00  0.00     0.074 A 
ENDROOT
BRANCH   1   7
ATOM      7  C   UNL     1      17.476  11.684  12.248  1.00  0.00     0.339 C 
ATOM      8  O   UNL     1      16.282  11.652  11.845  1.00  0.00    -0.246 OA
BRANCH   7   9
ATOM      9  O   UNL     1      18.286  10.550  12.138  1.00  0.00    -0.462 OA
BRANCH   9  10
ATOM     10  C   UNL     1      17.760   9.249  11.885  1.00  0.00     0.236 C 
BRANCH  10  11
ATOM     11  C   UNL     1      18.105   8.797  10.457  1.00  0.00     0.021 C 
ATOM     12  C   UNL     1      16.834   8.556   9.632  1.00  0.00     0.011 C 
ATOM     13  C   UNL     1      18.989   7.544  10.471  1.00  0.00     0.011 C 
ENDBRANCH  10  11
ENDBRANCH   9  10
ENDBRANCH   7   9
ENDBRANCH   1   7
BRANCH   6  14
ATOM     14  C   UNL     1      19.383  13.589  10.861  1.00  0.00     0.339 C 
ATOM     15  O   UNL     1      20.391  12.842  10.730  1.00  0.00    -0.246 OA
BRANCH  14  16
ATOM     16  O   UNL     1      18.750  14.124   9.732  1.00  0.00    -0.462 OA
BRANCH  16  17
ATOM     17  C   UNL     1      19.386  14.994   8.795  1.00  0.00     0.236 C 
BRANCH  17  18
ATOM     18  C   UNL     1      18.852  16.434   8.919  1.00  0.00     0.021 C 
ATOM     19  C   UNL     1      19.800  17.277   9.782  1.00  0.00     0.011 C 
ATOM     20  C   UNL     1      17.437  16.468   9.510  1.00  0.00     0.011 C 
ENDBRANCH  17  18
ENDBRANCH  16  17
ENDBRANCH  14  16
ENDBRANCH   6  14
TORSDOF 8
ENDMDL
MODEL 5
REMARK VINA RESULT:    -4.760      1.154      4.884
REMARK INTER + INTRA:          -8.794
REMARK INTER:                  -7.255
REMARK INTRA:                  -1.538
REMARK UNBOUND:                -1.807
REMARK SMILES CC(C)COC(=O)c1ccccc1C(=O)OCC(C)C
REMARK SMILES IDX 8 1 9 2 10 3 11 4 12 5 13 6 6 7 7 8 5 9 4 10 2 11 1 12 3 13
REMARK SMILES IDX 14 14 15 15 16 16 17 17 18 18 19 19 20 20
REMARK H PARENT
REMARK Flexibility Score: inf
ROOT
ATOM      1  C   UNL     1      19.503  14.408  12.203  1.00  0.00     0.074 A 
ATOM      2  C   UNL     1      19.584  15.195  13.365  1.00  0.00     0.016 A 
ATOM      3  C   UNL     1      18.827  14.878  14.494  1.00  0.00     0.001 A 
ATOM      4  C   UNL     1      17.981  13.771  14.480  1.00  0.00     0.001 A 
ATOM      5  C   UNL     1      17.869  12.992  13.329  1.00  0.00     0.016 A 
ATOM      6  C   UNL     1      18.605  13.306  12.170  1.00  0.00     0.074 A 
ENDROOT
BRANCH   1   7
ATOM      7  C   UNL     1      20.415  14.734  11.085  1.00  0.00     0.339 C 
ATOM      8  O   UNL     1      21.367  13.962  10.795  1.00  0.00    -0.246 OA
BRANCH   7   9
ATOM      9  O   UNL     1      20.245  15.935  10.389  1.00  0.00    -0.462 OA
BRANCH   9  10
ATOM     10  C   UNL     1      19.217  16.124   9.419  1.00  0.00     0.236 C 
BRANCH  10  11
ATOM     11  C   UNL     1      18.176  17.134   9.926  1.00  0.00     0.021 C 
ATOM     12  C   UNL     1      18.763  18.027  11.027  1.00  0.00     0.011 C 
ATOM     13  C   UNL     1      16.910  16.424  10.421  1.00  0.00     0.011 C 
ENDBRANCH  10  11
ENDBRANCH   9  10
ENDBRANCH   7   9
ENDBRANCH   1   7
BRANCH   6  14
ATOM     14  C   UNL     1      18.350  12.519  10.940  1.00  0.00     0.339 C 
ATOM     15  O   UNL     1      17.611  12.995  10.035  1.00  0.00    -0.246 OA
BRANCH  14  16
ATOM     16  O   UNL     1      18.980  11.281  10.758  1.00  0.00    -0.462 OA
BRANCH  16  17
ATOM     17  C   UNL     1      18.467  10.042  11.248  1.00  0.00     0.236 C 
BRANCH  17  18
ATOM     18  C   UNL     1      16.929  10.004  11.165  1.00  0.00     0.021 C 
ATOM     19  C   UNL     1      16.334   9.649  12.535  1.00  0.00     0.011 C 
ATOM     20  C   UNL     1      16.440   9.005  10.108  1.00  0.00     0.011 C 
ENDBRANCH  17  18
ENDBRANCH  16  17
ENDBRANCH  14  16
ENDBRANCH   6  14
TORSDOF 8
ENDMDL
MODEL 6
REMARK VINA RESULT:    -4.748      2.083      3.222
REMARK INTER + INTRA:          -8.776
REMARK INTER:                  -7.009
REMARK INTRA:                  -1.767
REMARK UNBOUND:                -1.807
REMARK SMILES CC(C)COC(=O)c1ccccc1C(=O)OCC(C)C
REMARK SMILES IDX 8 1 9 2 10 3 11 4 12 5 13 6 6 7 7 8 5 9 4 10 2 11 1 12 3 13
REMARK SMILES IDX 14 14 15 15 16 16 17 17 18 18 19 19 20 20
REMARK H PARENT
REMARK Flexibility Score: inf
ROOT
ATOM      1  C   UNL     1      18.981  14.896  11.553  1.00  0.00     0.074 A 
ATOM      2  C   UNL     1      19.471  15.071  12.859  1.00  0.00     0.016 A 
ATOM      3  C   UNL     1      18.984  16.095  13.671  1.00  0.00     0.001 A 
ATOM      4  C   UNL     1      18.000  16.958  13.193  1.00  0.00     0.001 A 
ATOM      5  C   UNL     1      17.518  16.817  11.892  1.00  0.00     0.016 A 
ATOM      6  C   UNL     1      18.011  15.805  11.047  1.00  0.00     0.074 A 
ENDROOT
BRANCH   1   7
ATOM      7  C   UNL     1      19.459  13.725  10.787  1.00  0.00     0.339 C 
ATOM      8  O   UNL     1      20.584  13.750  10.221  1.00  0.00    -0.246 OA
BRANCH   7   9
ATOM      9  O   UNL     1      18.627  12.610  10.650  1.00  0.00    -0.462 OA
BRANCH   9  10
ATOM     10  C   UNL     1      18.503  11.612  11.660  1.00  0.00     0.236 C 
BRANCH  10  11
ATOM     11  C   UNL     1      17.119  11.686  12.325  1.00  0.00     0.021 C 
ATOM     12  C   UNL     1      16.113  12.416  11.426  1.00  0.00     0.011 C 
ATOM     13  C   UNL     1      17.202  12.355  13.703  1.00  0.00     0.011 C 
ENDBRANCH  10  11
ENDBRANCH   9  10
ENDBRANCH   7   9
ENDBRANCH   1   7
BRANCH   6  14
ATOM     14  C   UNL     1      17.554  15.783   9.637  1.00  0.00     0.339 C 
ATOM     15  O   UNL     1      16.500  15.161   9.330  1.00  0.00    -0.246 OA
BRANCH  14  16
ATOM     16  O   UNL     1      18.254  16.507   8.663  1.00  0.00    -0.462 OA
BRANCH  16  17
ATOM     17  C   UNL     1      18.769  17.824   8.860  1.00  0.00     0.236 C 
BRANCH  17  18
ATOM     18  C   UNL     1      20.309  17.834   8.811  1.00  0.00     0.021 C 
ATOM     19  C   UNL     1      20.883  17.936  10.230  1.00  0.00     0.011 C 
ATOM     20  C   UNL     1      20.843  18.982   7.946  1.00  0.00     0.011 C 
ENDBRANCH  17  18
ENDBRANCH  16  17
ENDBRANCH  14  16
ENDBRANCH   6  14
TORSDOF 8
ENDMDL
MODEL 7
REMARK VINA RESULT:    -4.714      1.791      3.960
REMARK INTER + INTRA:          -8.727
REMARK INTER:                  -6.923
REMARK INTRA:                  -1.803
REMARK UNBOUND:                -1.807
REMARK SMILES CC(C)COC(=O)c1ccccc1C(=O)OCC(C)C
REMARK SMILES IDX 8 1 9 2 10 3 11 4 12 5 13 6 6 7 7 8 5 9 4 10 2 11 1 12 3 13
REMARK SMILES IDX 14 14 15 15 16 16 17 17 18 18 19 19 20 20
REMARK H PARENT
REMARK Flexibility Score: inf
ROOT
ATOM      1  C   UNL     1      18.603  13.725  12.609  1.00  0.00     0.074 A 
ATOM      2  C   UNL     1      17.670  13.009  13.378  1.00  0.00     0.016 A 
ATOM      3  C   UNL     1      17.340  11.692  13.054  1.00  0.00     0.001 A 
ATOM      4  C   UNL     1      17.937  11.072  11.958  1.00  0.00     0.001 A 
ATOM      5  C   UNL     1      18.848  11.773  11.168  1.00  0.00     0.016 A 
ATOM      6  C   UNL     1      19.178  13.110  11.463  1.00  0.00     0.074 A 
ENDROOT
BRANCH   1   7
ATOM      7  C   UNL     1      18.990  15.075  13.075  1.00  0.00     0.339 C 
ATOM      8  O   UNL     1      19.995  15.227  13.819  1.00  0.00    -0.246 OA
BRANCH   7   9
ATOM      9  O   UNL     1      18.197  16.173  12.729  1.00  0.00    -0.462 OA
BRANCH   9  10
ATOM     10  C   UNL     1      17.662  17.071  13.698  1.00  0.00     0.236 C 
BRANCH  10  11
ATOM     11  C   UNL     1      16.178  16.764  13.957  1.00  0.00     0.021 C 
ATOM     12  C   UNL     1      16.010  15.820  15.154  1.00  0.00     0.011 C 
ATOM     13  C   UNL     1      15.506  16.182  12.708  1.00  0.00     0.011 C 
ENDBRANCH  10  11
ENDBRANCH   9  10
ENDBRANCH   7   9
ENDBRANCH   1   7
BRANCH   6  14
ATOM     14  C   UNL     1      20.053  13.843  10.516  1.00  0.00     0.339 C 
ATOM     15  O   UNL     1      21.305  13.812  10.669  1.00  0.00    -0.246 OA
BRANCH  14  16
ATOM     16  O   UNL     1      19.492  14.510   9.420  1.00  0.00    -0.462 OA
BRANCH  16  17
ATOM     17  C   UNL     1      19.231  15.913   9.385  1.00  0.00     0.236 C 
BRANCH  17  18
ATOM     18  C   UNL     1      17.773  16.199   8.977  1.00  0.00     0.021 C 
ATOM     19  C   UNL     1      17.292  17.510   9.615  1.00  0.00     0.011 C 
ATOM     20  C   UNL     1      16.836  15.051   9.371  1.00  0.00     0.011 C 
ENDBRANCH  17  18
ENDBRANCH  16  17
ENDBRANCH  14  16
ENDBRANCH   6  14
TORSDOF 8
ENDMDL
MODEL 8
REMARK VINA RESULT:    -4.699      1.791      4.148
REMARK INTER + INTRA:          -8.704
REMARK INTER:                  -6.931
REMARK INTRA:                  -1.773
REMARK UNBOUND:                -1.807
REMARK SMILES CC(C)COC(=O)c1ccccc1C(=O)OCC(C)C
REMARK SMILES IDX 8 1 9 2 10 3 11 4 12 5 13 6 6 7 7 8 5 9 4 10 2 11 1 12 3 13
REMARK SMILES IDX 14 14 15 15 16 16 17 17 18 18 19 19 20 20
REMARK H PARENT
REMARK Flexibility Score: inf
ROOT
ATOM      1  C   UNL     1      19.161  13.091  11.423  1.00  0.00     0.074 A 
ATOM      2  C   UNL     1      18.930  11.748  11.078  1.00  0.00     0.016 A 
ATOM      3  C   UNL     1      18.049  10.962  11.823  1.00  0.00     0.001 A 
ATOM      4  C   UNL     1      17.387  11.505  12.922  1.00  0.00     0.001 A 
ATOM      5  C   UNL     1      17.622  12.828  13.296  1.00  0.00     0.016 A 
ATOM      6  C   UNL     1      18.523  13.633  12.573  1.00  0.00     0.074 A 
ENDROOT
BRANCH   1   7
ATOM      7  C   UNL     1      20.018  13.896  10.526  1.00  0.00     0.339 C 
ATOM      8  O   UNL     1      21.247  14.030  10.771  1.00  0.00    -0.246 OA
BRANCH   7   9
ATOM      9  O   UNL     1      19.441  14.555   9.436  1.00  0.00    -0.462 OA
BRANCH   9  10
ATOM     10  C   UNL     1      19.172  15.955   9.438  1.00  0.00     0.236 C 
BRANCH  10  11
ATOM     11  C   UNL     1      17.730  16.228   8.982  1.00  0.00     0.021 C 
ATOM     12  C   UNL     1      17.163  17.480   9.663  1.00  0.00     0.011 C 
ATOM     13  C   UNL     1      16.828  15.014   9.239  1.00  0.00     0.011 C 
ENDBRANCH  10  11
ENDBRANCH   9  10
ENDBRANCH   7   9
ENDBRANCH   1   7
BRANCH   6  14
ATOM     14  C   UNL     1      18.827  14.988  13.092  1.00  0.00     0.339 C 
ATOM     15  O   UNL     1      19.879  15.180  13.761  1.00  0.00    -0.246 OA
BRANCH  14  16
ATOM     16  O   UNL     1      17.982  16.061  12.782  1.00  0.00    -0.462 OA
BRANCH  16  17
ATOM     17  C   UNL     1      17.294  16.845  13.758  1.00  0.00     0.236 C 
BRANCH  17  18
ATOM     18  C   UNL     1      15.809  16.445  13.848  1.00  0.00     0.021 C 
ATOM     19  C   UNL     1      15.603  15.424  14.975  1.00  0.00     0.011 C 
ATOM     20  C   UNL     1      15.291  15.874  12.523  1.00  0.00     0.011 C 
ENDBRANCH  17  18
ENDBRANCH  16  17
ENDBRANCH  14  16
ENDBRANCH   6  14
TORSDOF 8
ENDMDL
MODEL 9
REMARK VINA RESULT:    -4.685      4.091      6.669
REMARK INTER + INTRA:          -8.683
REMARK INTER:                  -7.274
REMARK INTRA:                  -1.409
REMARK UNBOUND:                -1.807
REMARK SMILES CC(C)COC(=O)c1ccccc1C(=O)OCC(C)C
REMARK SMILES IDX 8 1 9 2 10 3 11 4 12 5 13 6 6 7 7 8 5 9 4 10 2 11 1 12 3 13
REMARK SMILES IDX 14 14 15 15 16 16 17 17 18 18 19 19 20 20
REMARK H PARENT
REMARK Flexibility Score: inf
ROOT
ATOM      1  C   UNL     1      19.379  18.587  10.211  1.00  0.00     0.074 A 
ATOM      2  C   UNL     1      18.242  18.370  11.008  1.00  0.00     0.016 A 
ATOM      3  C   UNL     1      16.977  18.761  10.567  1.00  0.00     0.001 A 
ATOM      4  C   UNL     1      16.829  19.374   9.324  1.00  0.00     0.001 A 
ATOM      5  C   UNL     1      17.948  19.620   8.528  1.00  0.00     0.016 A 
ATOM      6  C   UNL     1      19.236  19.254   8.963  1.00  0.00     0.074 A 
ENDROOT
BRANCH   1   7
ATOM      7  C   UNL     1      20.670  18.047  10.689  1.00  0.00     0.339 C 
ATOM      8  O   UNL     1      21.453  18.772  11.360  1.00  0.00    -0.246 OA
BRANCH   7   9
ATOM      9  O   UNL     1      21.040  16.745  10.341  1.00  0.00    -0.462 OA
BRANCH   9  10
ATOM     10  C   UNL     1      20.555  15.596  11.032  1.00  0.00     0.236 C 
BRANCH  10  11
ATOM     11  C   UNL     1      20.098  14.520  10.035  1.00  0.00     0.021 C 
ATOM     12  C   UNL     1      19.392  15.149   8.827  1.00  0.00     0.011 C 
ATOM     13  C   UNL     1      19.192  13.484  10.714  1.00  0.00     0.011 C 
ENDBRANCH  10  11
ENDBRANCH   9  10
ENDBRANCH   7   9
ENDBRANCH   1   7
BRANCH   6  14
ATOM     14  C   UNL     1      20.398  19.656   8.133  1.00  0.00     0.339 C 
ATOM     15  O   UNL     1      21.055  18.777   7.510  1.00  0.00    -0.246 OA
BRANCH  14  16
ATOM     16  O   UNL     1      20.721  21.011   7.991  1.00  0.00    -0.462 OA
BRANCH  16  17
ATOM     17  C   UNL     1      20.762  21.942   9.073  1.00  0.00     0.236 C 
BRANCH  17  18
ATOM     18  C   UNL     1      19.569  22.915   9.017  1.00  0.00     0.021 C 
ATOM     19  C   UNL     1      20.069  24.355   8.837  1.00  0.00     0.011 C 
ATOM     20  C   UNL     1      18.695  22.817  10.273  1.00  0.00     0.011 C 
ENDBRANCH  17  18
ENDBRANCH  16  17
ENDBRANCH  14  16
ENDBRANCH   6  14
TORSDOF 8
ENDMDL
