MODEL 1
REMARK VINA RESULT:    -6.210      0.000      0.000
REMARK INTER + INTRA:          -8.926
REMARK INTER:                  -8.389
REMARK INTRA:                  -0.537
REMARK UNBOUND:                -0.537
REMARK SMILES COc1ccc(-c2cc(=O)c3c(OC)c(OC)c(OC)c(OC)c3o2)cc1
REMARK SMILES IDX 7 1 8 2 9 3 10 4 11 5 24 6 25 7 21 8 18 9 15 10 12 11 6 12
REMARK SMILES IDX 3 13 4 14 27 15 5 16 26 17 2 18 1 19 22 20 23 21 13 22 14 23
REMARK SMILES IDX 19 24 20 25 16 26 17 27
REMARK H PARENT
REMARK Flexibility Score: inf
ROOT
ATOM      1  C   UNL     1       9.521  11.802  24.735  1.00  0.00     0.138 A 
ATOM      2  C   UNL     1       9.881  11.610  23.392  1.00  0.00     0.100 A 
ATOM      3  C   UNL     1      10.136  12.718  22.586  1.00  0.00     0.197 A 
ATOM      4  O   UNL     1      10.457  12.531  21.381  1.00  0.00    -0.289 OA
ATOM      5  C   UNL     1      10.037  14.016  23.130  1.00  0.00     0.115 A 
ATOM      6  C   UNL     1       9.694  14.129  24.496  1.00  0.00     0.188 A 
ATOM      7  O   UNL     1       9.454  13.039  25.222  1.00  0.00    -0.452 OA
ATOM      8  C   UNL     1       9.574  15.393  25.091  1.00  0.00     0.209 A 
ATOM      9  C   UNL     1       9.784  16.559  24.344  1.00  0.00     0.211 A 
ATOM     10  C   UNL     1      10.164  16.456  22.983  1.00  0.00     0.208 A 
ATOM     11  C   UNL     1      10.237  15.188  22.365  1.00  0.00     0.179 A 
ENDROOT
BRANCH   1  12
ATOM     12  C   UNL     1       9.221  10.658  25.632  1.00  0.00     0.018 A 
ATOM     13  C   UNL     1       8.611   8.510  27.364  1.00  0.00     0.118 A 
ATOM     14  C   UNL     1       8.572   9.837  27.831  1.00  0.00     0.047 A 
ATOM     15  C   UNL     1       8.947   8.269  26.029  1.00  0.00     0.047 A 
ATOM     16  C   UNL     1       8.870  10.898  26.970  1.00  0.00     0.016 A 
ATOM     17  C   UNL     1       9.245   9.329  25.166  1.00  0.00     0.016 A 
BRANCH  13  18
ATOM     18  O   UNL     1       8.321   7.413  28.188  1.00  0.00    -0.497 OA
ATOM     19  C   UNL     1       8.031   6.103  27.710  1.00  0.00     0.278 C 
ENDBRANCH  13  18
ENDBRANCH   1  12
BRANCH   8  20
ATOM     20  O   UNL     1       9.226  15.512  26.440  1.00  0.00    -0.490 OA
ATOM     21  C   UNL     1       7.875  15.440  26.880  1.00  0.00     0.278 C 
ENDBRANCH   8  20
BRANCH  11  22
ATOM     22  O   UNL     1      10.491  15.085  20.993  1.00  0.00    -0.492 OA
ATOM     23  C   UNL     1       9.485  15.323  20.014  1.00  0.00     0.278 C 
ENDBRANCH  11  22
BRANCH   9  24
ATOM     24  O   UNL     1       9.617  17.782  25.021  1.00  0.00    -0.490 OA
ATOM     25  C   UNL     1       8.485  18.641  24.955  1.00  0.00     0.279 C 
ENDBRANCH   9  24
BRANCH  10  26
ATOM     26  O   UNL     1      10.481  17.609  22.258  1.00  0.00    -0.490 OA
ATOM     27  C   UNL     1      11.630  18.400  22.541  1.00  0.00     0.278 C 
ENDBRANCH  10  26
TORSDOF 6
ENDMDL
MODEL 2
REMARK VINA RESULT:    -5.100     15.011     17.740
REMARK INTER + INTRA:          -7.427
REMARK INTER:                  -6.825
REMARK INTRA:                  -0.602
REMARK UNBOUND:                -0.537
REMARK SMILES COc1ccc(-c2cc(=O)c3c(OC)c(OC)c(OC)c(OC)c3o2)cc1
REMARK SMILES IDX 7 1 8 2 9 3 10 4 11 5 24 6 25 7 21 8 18 9 15 10 12 11 6 12
REMARK SMILES IDX 3 13 4 14 27 15 5 16 26 17 2 18 1 19 22 20 23 21 13 22 14 23
REMARK SMILES IDX 19 24 20 25 16 26 17 27
REMARK H PARENT
REMARK Flexibility Score: inf
ROOT
ATOM      1  C   UNL     1      23.278   9.049  29.928  1.00  0.00     0.138 A 
ATOM      2  C   UNL     1      22.557   8.907  31.123  1.00  0.00     0.100 A 
ATOM      3  C   UNL     1      22.154   7.639  31.534  1.00  0.00     0.197 A 
ATOM      4  O   UNL     1      21.505   7.525  32.609  1.00  0.00    -0.289 OA
ATOM      5  C   UNL     1      22.479   6.513  30.747  1.00  0.00     0.115 A 
ATOM      6  C   UNL     1      23.228   6.732  29.569  1.00  0.00     0.188 A 
ATOM      7  O   UNL     1      23.585   7.966  29.219  1.00  0.00    -0.452 OA
ATOM      8  C   UNL     1      23.577   5.653  28.744  1.00  0.00     0.209 A 
ATOM      9  C   UNL     1      23.184   4.348  29.068  1.00  0.00     0.211 A 
ATOM     10  C   UNL     1      22.465   4.113  30.265  1.00  0.00     0.208 A 
ATOM     11  C   UNL     1      22.068   5.201  31.075  1.00  0.00     0.179 A 
ENDROOT
BRANCH   1  12
ATOM     12  C   UNL     1      23.716  10.380  29.435  1.00  0.00     0.018 A 
ATOM     13  C   UNL     1      24.497  12.928  28.498  1.00  0.00     0.118 A 
ATOM     14  C   UNL     1      23.286  12.352  28.072  1.00  0.00     0.047 A 
ATOM     15  C   UNL     1      25.305  12.227  29.398  1.00  0.00     0.047 A 
ATOM     16  C   UNL     1      22.900  11.093  28.542  1.00  0.00     0.016 A 
ATOM     17  C   UNL     1      24.920  10.967  29.868  1.00  0.00     0.016 A 
BRANCH  13  18
ATOM     18  O   UNL     1      24.928  14.187  28.056  1.00  0.00    -0.497 OA
ATOM     19  C   UNL     1      25.783  15.051  28.799  1.00  0.00     0.278 C 
ENDBRANCH  13  18
ENDBRANCH   1  12
BRANCH   8  20
ATOM     20  O   UNL     1      24.310   5.863  27.573  1.00  0.00    -0.490 OA
ATOM     21  C   UNL     1      23.688   6.248  26.352  1.00  0.00     0.278 C 
ENDBRANCH   8  20
BRANCH  11  22
ATOM     22  O   UNL     1      21.252   4.988  32.192  1.00  0.00    -0.492 OA
ATOM     23  C   UNL     1      19.864   4.692  32.075  1.00  0.00     0.278 C 
ENDBRANCH  11  22
BRANCH   9  24
ATOM     24  O   UNL     1      23.560   3.334  28.167  1.00  0.00    -0.490 OA
ATOM     25  C   UNL     1      24.735   2.533  28.232  1.00  0.00     0.279 C 
ENDBRANCH   9  24
BRANCH  10  26
ATOM     26  O   UNL     1      22.162   2.804  30.653  1.00  0.00    -0.490 OA
ATOM     27  C   UNL     1      23.001   2.048  31.520  1.00  0.00     0.278 C 
ENDBRANCH  10  26
TORSDOF 6
ENDMDL
MODEL 3
REMARK VINA RESULT:    -4.905     15.050     17.891
REMARK INTER + INTRA:          -7.163
REMARK INTER:                  -6.773
REMARK INTRA:                  -0.390
REMARK UNBOUND:                -0.537
REMARK SMILES COc1ccc(-c2cc(=O)c3c(OC)c(OC)c(OC)c(OC)c3o2)cc1
REMARK SMILES IDX 7 1 8 2 9 3 10 4 11 5 24 6 25 7 21 8 18 9 15 10 12 11 6 12
REMARK SMILES IDX 3 13 4 14 27 15 5 16 26 17 2 18 1 19 22 20 23 21 13 22 14 23
REMARK SMILES IDX 19 24 20 25 16 26 17 27
REMARK H PARENT
REMARK Flexibility Score: inf
ROOT
ATOM      1  C   UNL     1      22.689   8.110  30.620  1.00  0.00     0.138 A 
ATOM      2  C   UNL     1      21.984   7.707  31.764  1.00  0.00     0.100 A 
ATOM      3  C   UNL     1      21.739   6.352  31.977  1.00  0.00     0.197 A 
ATOM      4  O   UNL     1      21.103   6.004  33.009  1.00  0.00    -0.289 OA
ATOM      5  C   UNL     1      22.209   5.402  31.045  1.00  0.00     0.115 A 
ATOM      6  C   UNL     1      22.932   5.881  29.930  1.00  0.00     0.188 A 
ATOM      7  O   UNL     1      23.133   7.188  29.770  1.00  0.00    -0.452 OA
ATOM      8  C   UNL     1      23.418   4.986  28.966  1.00  0.00     0.209 A 
ATOM      9  C   UNL     1      23.189   3.610  29.089  1.00  0.00     0.211 A 
ATOM     10  C   UNL     1      22.498   3.115  30.221  1.00  0.00     0.208 A 
ATOM     11  C   UNL     1      21.962   4.016  31.169  1.00  0.00     0.179 A 
ENDROOT
BRANCH   1  12
ATOM     12  C   UNL     1      22.960   9.542  30.336  1.00  0.00     0.018 A 
ATOM     13  C   UNL     1      23.502  12.271  29.843  1.00  0.00     0.118 A 
ATOM     14  C   UNL     1      23.223  11.823  31.148  1.00  0.00     0.047 A 
ATOM     15  C   UNL     1      23.516  11.345  28.795  1.00  0.00     0.047 A 
ATOM     16  C   UNL     1      22.960  10.471  31.389  1.00  0.00     0.016 A 
ATOM     17  C   UNL     1      23.252   9.993  29.035  1.00  0.00     0.016 A 
BRANCH  13  18
ATOM     18  O   UNL     1      23.771  13.615  29.550  1.00  0.00    -0.497 OA
ATOM     19  C   UNL     1      24.426  14.065  28.368  1.00  0.00     0.278 C 
ENDBRANCH  13  18
ENDBRANCH   1  12
BRANCH   8  20
ATOM     20  O   UNL     1      24.127   5.454  27.856  1.00  0.00    -0.490 OA
ATOM     21  C   UNL     1      23.470   5.933  26.689  1.00  0.00     0.278 C 
ENDBRANCH   8  20
BRANCH  11  22
ATOM     22  O   UNL     1      21.172   3.544  32.224  1.00  0.00    -0.492 OA
ATOM     23  C   UNL     1      21.736   2.964  33.396  1.00  0.00     0.278 C 
ENDBRANCH  11  22
BRANCH   9  24
ATOM     24  O   UNL     1      23.695   2.791  28.060  1.00  0.00    -0.490 OA
ATOM     25  C   UNL     1      24.987   2.197  28.007  1.00  0.00     0.279 C 
ENDBRANCH   9  24
BRANCH  10  26
ATOM     26  O   UNL     1      22.359   1.736  30.408  1.00  0.00    -0.490 OA
ATOM     27  C   UNL     1      23.371   0.939  31.014  1.00  0.00     0.278 C 
ENDBRANCH  10  26
TORSDOF 6
ENDMDL
MODEL 4
REMARK VINA RESULT:    -4.796     11.714     15.127
REMARK INTER + INTRA:          -7.015
REMARK INTER:                  -6.413
REMARK INTRA:                  -0.602
REMARK UNBOUND:                -0.537
REMARK SMILES COc1ccc(-c2cc(=O)c3c(OC)c(OC)c(OC)c(OC)c3o2)cc1
REMARK SMILES IDX 7 1 8 2 9 3 10 4 11 5 24 6 25 7 21 8 18 9 15 10 12 11 6 12
REMARK SMILES IDX 3 13 4 14 27 15 5 16 26 17 2 18 1 19 22 20 23 21 13 22 14 23
REMARK SMILES IDX 19 24 20 25 16 26 17 27
REMARK H PARENT
REMARK Flexibility Score: inf
ROOT
ATOM      1  C   UNL     1      21.583  19.354  26.460  1.00  0.00     0.138 A 
ATOM      2  C   UNL     1      20.257  19.654  26.111  1.00  0.00     0.100 A 
ATOM      3  C   UNL     1      19.222  19.283  26.967  1.00  0.00     0.197 A 
ATOM      4  O   UNL     1      18.036  19.557  26.640  1.00  0.00    -0.289 OA
ATOM      5  C   UNL     1      19.519  18.618  28.176  1.00  0.00     0.115 A 
ATOM      6  C   UNL     1      20.879  18.372  28.471  1.00  0.00     0.188 A 
ATOM      7  O   UNL     1      21.830  18.741  27.616  1.00  0.00    -0.452 OA
ATOM      8  C   UNL     1      21.236  17.709  29.654  1.00  0.00     0.209 A 
ATOM      9  C   UNL     1      20.254  17.276  30.555  1.00  0.00     0.211 A 
ATOM     10  C   UNL     1      18.891  17.549  30.287  1.00  0.00     0.208 A 
ATOM     11  C   UNL     1      18.522  18.172  29.073  1.00  0.00     0.179 A 
ENDROOT
BRANCH   1  12
ATOM     12  C   UNL     1      22.721  19.709  25.576  1.00  0.00     0.018 A 
ATOM     13  C   UNL     1      24.856  20.376  23.849  1.00  0.00     0.118 A 
ATOM     14  C   UNL     1      23.961  19.344  23.511  1.00  0.00     0.047 A 
ATOM     15  C   UNL     1      24.670  21.073  25.047  1.00  0.00     0.047 A 
ATOM     16  C   UNL     1      22.902  19.020  24.365  1.00  0.00     0.016 A 
ATOM     17  C   UNL     1      23.612  20.749  25.902  1.00  0.00     0.016 A 
BRANCH  13  18
ATOM     18  O   UNL     1      25.933  20.738  23.027  1.00  0.00    -0.497 OA
ATOM     19  C   UNL     1      25.847  20.900  21.615  1.00  0.00     0.278 C 
ENDBRANCH  13  18
ENDBRANCH   1  12
BRANCH   8  20
ATOM     20  O   UNL     1      22.578  17.455  29.948  1.00  0.00    -0.490 OA
ATOM     21  C   UNL     1      23.251  16.299  29.463  1.00  0.00     0.278 C 
ENDBRANCH   8  20
BRANCH  11  22
ATOM     22  O   UNL     1      17.171  18.334  28.745  1.00  0.00    -0.492 OA
ATOM     23  C   UNL     1      16.360  17.250  28.306  1.00  0.00     0.278 C 
ENDBRANCH  11  22
BRANCH   9  24
ATOM     24  O   UNL     1      20.707  16.598  31.703  1.00  0.00    -0.490 OA
ATOM     25  C   UNL     1      21.012  17.179  32.966  1.00  0.00     0.279 C 
ENDBRANCH   9  24
BRANCH  10  26
ATOM     26  O   UNL     1      17.913  17.218  31.230  1.00  0.00    -0.490 OA
ATOM     27  C   UNL     1      17.454  18.138  32.214  1.00  0.00     0.278 C 
ENDBRANCH  10  26
TORSDOF 6
ENDMDL
MODEL 5
REMARK VINA RESULT:    -4.773     15.329     17.868
REMARK INTER + INTRA:          -6.984
REMARK INTER:                  -6.424
REMARK INTRA:                  -0.560
REMARK UNBOUND:                -0.537
REMARK SMILES COc1ccc(-c2cc(=O)c3c(OC)c(OC)c(OC)c(OC)c3o2)cc1
REMARK SMILES IDX 7 1 8 2 9 3 10 4 11 5 24 6 25 7 21 8 18 9 15 10 12 11 6 12
REMARK SMILES IDX 3 13 4 14 27 15 5 16 26 17 2 18 1 19 22 20 23 21 13 22 14 23
REMARK SMILES IDX 19 24 20 25 16 26 17 27
REMARK H PARENT
REMARK Flexibility Score: inf
ROOT
ATOM      1  C   UNL     1      23.594   8.071  28.796  1.00  0.00     0.138 A 
ATOM      2  C   UNL     1      23.754   7.370  27.591  1.00  0.00     0.100 A 
ATOM      3  C   UNL     1      23.708   5.977  27.598  1.00  0.00     0.197 A 
ATOM      4  O   UNL     1      23.855   5.359  26.509  1.00  0.00    -0.289 OA
ATOM      5  C   UNL     1      23.497   5.290  28.813  1.00  0.00     0.115 A 
ATOM      6  C   UNL     1      23.321   6.066  29.981  1.00  0.00     0.188 A 
ATOM      7  O   UNL     1      23.378   7.395  29.921  1.00  0.00    -0.452 OA
ATOM      8  C   UNL     1      23.113   5.440  31.218  1.00  0.00     0.209 A 
ATOM      9  C   UNL     1      23.084   4.043  31.318  1.00  0.00     0.211 A 
ATOM     10  C   UNL     1      23.223   3.257  30.148  1.00  0.00     0.208 A 
ATOM     11  C   UNL     1      23.482   3.880  28.907  1.00  0.00     0.179 A 
ENDROOT
BRANCH   1  12
ATOM     12  C   UNL     1      23.652   9.554  28.847  1.00  0.00     0.018 A 
ATOM     13  C   UNL     1      23.817  12.373  28.952  1.00  0.00     0.118 A 
ATOM     14  C   UNL     1      24.666  11.579  29.744  1.00  0.00     0.047 A 
ATOM     15  C   UNL     1      22.896  11.748  28.105  1.00  0.00     0.047 A 
ATOM     16  C   UNL     1      24.585  10.184  29.687  1.00  0.00     0.016 A 
ATOM     17  C   UNL     1      22.814  10.354  28.047  1.00  0.00     0.016 A 
BRANCH  13  18
ATOM     18  O   UNL     1      23.858  13.775  28.974  1.00  0.00    -0.497 OA
ATOM     19  C   UNL     1      24.922  14.556  28.441  1.00  0.00     0.278 C 
ENDBRANCH  13  18
ENDBRANCH   1  12
BRANCH   8  20
ATOM     20  O   UNL     1      22.946   6.201  32.379  1.00  0.00    -0.490 OA
ATOM     21  C   UNL     1      21.684   6.745  32.749  1.00  0.00     0.278 C 
ENDBRANCH   8  20
BRANCH  11  22
ATOM     22  O   UNL     1      23.744   3.107  27.770  1.00  0.00    -0.492 OA
ATOM     23  C   UNL     1      25.009   2.495  27.541  1.00  0.00     0.278 C 
ENDBRANCH  11  22
BRANCH   9  24
ATOM     24  O   UNL     1      22.894   3.506  32.605  1.00  0.00    -0.490 OA
ATOM     25  C   UNL     1      21.669   3.033  33.155  1.00  0.00     0.279 C 
ENDBRANCH   9  24
BRANCH  10  26
ATOM     26  O   UNL     1      23.088   1.867  30.220  1.00  0.00    -0.490 OA
ATOM     27  C   UNL     1      24.117   1.022  30.723  1.00  0.00     0.278 C 
ENDBRANCH  10  26
TORSDOF 6
ENDMDL
MODEL 6
REMARK VINA RESULT:    -4.574     11.939     14.277
REMARK INTER + INTRA:          -6.716
REMARK INTER:                  -6.234
REMARK INTRA:                  -0.481
REMARK UNBOUND:                -0.537
REMARK SMILES COc1ccc(-c2cc(=O)c3c(OC)c(OC)c(OC)c(OC)c3o2)cc1
REMARK SMILES IDX 7 1 8 2 9 3 10 4 11 5 24 6 25 7 21 8 18 9 15 10 12 11 6 12
REMARK SMILES IDX 3 13 4 14 27 15 5 16 26 17 2 18 1 19 22 20 23 21 13 22 14 23
REMARK SMILES IDX 19 24 20 25 16 26 17 27
REMARK H PARENT
REMARK Flexibility Score: inf
ROOT
ATOM      1  C   UNL     1      19.874  18.757  27.380  1.00  0.00     0.138 A 
ATOM      2  C   UNL     1      20.334  19.582  26.343  1.00  0.00     0.100 A 
ATOM      3  C   UNL     1      21.695  19.619  26.049  1.00  0.00     0.197 A 
ATOM      4  O   UNL     1      22.096  20.366  25.116  1.00  0.00    -0.289 OA
ATOM      5  C   UNL     1      22.593  18.823  26.793  1.00  0.00     0.115 A 
ATOM      6  C   UNL     1      22.053  18.000  27.806  1.00  0.00     0.188 A 
ATOM      7  O   UNL     1      20.744  18.005  28.050  1.00  0.00    -0.452 OA
ATOM      8  C   UNL     1      22.895  17.191  28.583  1.00  0.00     0.209 A 
ATOM      9  C   UNL     1      24.280  17.193  28.373  1.00  0.00     0.211 A 
ATOM     10  C   UNL     1      24.828  17.986  27.336  1.00  0.00     0.208 A 
ATOM     11  C   UNL     1      23.991  18.840  26.584  1.00  0.00     0.179 A 
ENDROOT
BRANCH   1  12
ATOM     12  C   UNL     1      18.436  18.694  27.746  1.00  0.00     0.018 A 
ATOM     13  C   UNL     1      15.709  18.524  28.464  1.00  0.00     0.118 A 
ATOM     14  C   UNL     1      16.412  17.375  28.058  1.00  0.00     0.047 A 
ATOM     15  C   UNL     1      16.380  19.749  28.515  1.00  0.00     0.047 A 
ATOM     16  C   UNL     1      17.763  17.461  27.708  1.00  0.00     0.016 A 
ATOM     17  C   UNL     1      17.730  19.838  28.165  1.00  0.00     0.016 A 
BRANCH  13  18
ATOM     18  O   UNL     1      14.354  18.490  28.824  1.00  0.00    -0.497 OA
ATOM     19  C   UNL     1      13.606  19.624  29.250  1.00  0.00     0.278 C 
ENDBRANCH  13  18
ENDBRANCH   1  12
BRANCH   8  20
ATOM     20  O   UNL     1      22.368  16.380  29.592  1.00  0.00    -0.490 OA
ATOM     21  C   UNL     1      22.147  16.866  30.911  1.00  0.00     0.278 C 
ENDBRANCH   8  20
BRANCH  11  22
ATOM     22  O   UNL     1      24.540  19.718  25.643  1.00  0.00    -0.492 OA
ATOM     23  C   UNL     1      25.068  19.268  24.400  1.00  0.00     0.278 C 
ENDBRANCH  11  22
BRANCH   9  24
ATOM     24  O   UNL     1      25.047  16.367  29.217  1.00  0.00    -0.490 OA
ATOM     25  C   UNL     1      25.527  15.060  28.919  1.00  0.00     0.279 C 
ENDBRANCH   9  24
BRANCH  10  26
ATOM     26  O   UNL     1      26.195  17.913  27.048  1.00  0.00    -0.490 OA
ATOM     27  C   UNL     1      27.165  18.700  27.730  1.00  0.00     0.278 C 
ENDBRANCH  10  26
TORSDOF 6
ENDMDL
MODEL 7
REMARK VINA RESULT:    -4.428     12.994     15.211
REMARK INTER + INTRA:          -6.519
REMARK INTER:                  -6.014
REMARK INTRA:                  -0.505
REMARK UNBOUND:                -0.537
REMARK SMILES COc1ccc(-c2cc(=O)c3c(OC)c(OC)c(OC)c(OC)c3o2)cc1
REMARK SMILES IDX 7 1 8 2 9 3 10 4 11 5 24 6 25 7 21 8 18 9 15 10 12 11 6 12
REMARK SMILES IDX 3 13 4 14 27 15 5 16 26 17 2 18 1 19 22 20 23 21 13 22 14 23
REMARK SMILES IDX 19 24 20 25 16 26 17 27
REMARK H PARENT
REMARK Flexibility Score: inf
ROOT
ATOM      1  C   UNL     1      21.286  18.691  27.103  1.00  0.00     0.138 A 
ATOM      2  C   UNL     1      21.265  19.350  25.864  1.00  0.00     0.100 A 
ATOM      3  C   UNL     1      22.468  19.655  25.230  1.00  0.00     0.197 A 
ATOM      4  O   UNL     1      22.435  20.248  24.118  1.00  0.00    -0.289 OA
ATOM      5  C   UNL     1      23.690  19.292  25.836  1.00  0.00     0.115 A 
ATOM      6  C   UNL     1      23.630  18.610  27.071  1.00  0.00     0.188 A 
ATOM      7  O   UNL     1      22.455  18.347  27.639  1.00  0.00    -0.452 OA
ATOM      8  C   UNL     1      24.811  18.229  27.725  1.00  0.00     0.209 A 
ATOM      9  C   UNL     1      26.063  18.525  27.170  1.00  0.00     0.211 A 
ATOM     10  C   UNL     1      26.134  19.176  25.915  1.00  0.00     0.208 A 
ATOM     11  C   UNL     1      24.949  19.606  25.276  1.00  0.00     0.179 A 
ENDROOT
BRANCH   1  12
ATOM     12  C   UNL     1      20.035  18.359  27.830  1.00  0.00     0.018 A 
ATOM     13  C   UNL     1      17.673  17.755  29.257  1.00  0.00     0.118 A 
ATOM     14  C   UNL     1      18.911  17.820  29.922  1.00  0.00     0.047 A 
ATOM     15  C   UNL     1      17.625  18.002  27.882  1.00  0.00     0.047 A 
ATOM     16  C   UNL     1      20.077  18.124  29.214  1.00  0.00     0.016 A 
ATOM     17  C   UNL     1      18.791  18.305  27.172  1.00  0.00     0.016 A 
BRANCH  13  18
ATOM     18  O   UNL     1      16.475  17.454  29.922  1.00  0.00    -0.497 OA
ATOM     19  C   UNL     1      15.364  16.797  29.320  1.00  0.00     0.278 C 
ENDBRANCH  13  18
ENDBRANCH   1  12
BRANCH   8  20
ATOM     20  O   UNL     1      24.760  17.561  28.952  1.00  0.00    -0.490 OA
ATOM     21  C   UNL     1      24.611  16.149  29.035  1.00  0.00     0.278 C 
ENDBRANCH   8  20
BRANCH  11  22
ATOM     22  O   UNL     1      25.016  20.358  24.098  1.00  0.00    -0.492 OA
ATOM     23  C   UNL     1      25.356  19.778  22.843  1.00  0.00     0.278 C 
ENDBRANCH  11  22
BRANCH   9  24
ATOM     24  O   UNL     1      27.192  18.125  27.910  1.00  0.00    -0.490 OA
ATOM     25  C   UNL     1      28.009  16.986  27.663  1.00  0.00     0.279 C 
ENDBRANCH   9  24
BRANCH  10  26
ATOM     26  O   UNL     1      27.374  19.379  25.302  1.00  0.00    -0.490 OA
ATOM     27  C   UNL     1      28.117  20.584  25.455  1.00  0.00     0.278 C 
ENDBRANCH  10  26
TORSDOF 6
ENDMDL
MODEL 8
REMARK VINA RESULT:    -4.268     15.043     16.549
REMARK INTER + INTRA:          -6.303
REMARK INTER:                  -5.835
REMARK INTRA:                  -0.467
REMARK UNBOUND:                -0.537
REMARK SMILES COc1ccc(-c2cc(=O)c3c(OC)c(OC)c(OC)c(OC)c3o2)cc1
REMARK SMILES IDX 7 1 8 2 9 3 10 4 11 5 24 6 25 7 21 8 18 9 15 10 12 11 6 12
REMARK SMILES IDX 3 13 4 14 27 15 5 16 26 17 2 18 1 19 22 20 23 21 13 22 14 23
REMARK SMILES IDX 19 24 20 25 16 26 17 27
REMARK H PARENT
REMARK Flexibility Score: inf
ROOT
ATOM      1  C   UNL     1      22.707   5.557  30.480  1.00  0.00     0.138 A 
ATOM      2  C   UNL     1      21.977   5.452  31.673  1.00  0.00     0.100 A 
ATOM      3  C   UNL     1      21.683   6.603  32.401  1.00  0.00     0.197 A 
ATOM      4  O   UNL     1      21.028   6.494  33.472  1.00  0.00    -0.289 OA
ATOM      5  C   UNL     1      22.117   7.860  31.926  1.00  0.00     0.115 A 
ATOM      6  C   UNL     1      22.826   7.888  30.705  1.00  0.00     0.188 A 
ATOM      7  O   UNL     1      23.086   6.758  30.050  1.00  0.00    -0.452 OA
ATOM      8  C   UNL     1      23.288   9.107  30.185  1.00  0.00     0.209 A 
ATOM      9  C   UNL     1      23.062  10.307  30.870  1.00  0.00     0.211 A 
ATOM     10  C   UNL     1      22.321  10.294  32.076  1.00  0.00     0.208 A 
ATOM     11  C   UNL     1      21.896   9.066  32.630  1.00  0.00     0.179 A 
ENDROOT
BRANCH   1  12
ATOM     12  C   UNL     1      23.063   4.360  29.676  1.00  0.00     0.018 A 
ATOM     13  C   UNL     1      23.690   2.061  28.157  1.00  0.00     0.118 A 
ATOM     14  C   UNL     1      22.895   1.957  29.314  1.00  0.00     0.047 A 
ATOM     15  C   UNL     1      24.158   3.319  27.765  1.00  0.00     0.047 A 
ATOM     16  C   UNL     1      22.583   3.097  30.061  1.00  0.00     0.016 A 
ATOM     17  C   UNL     1      23.847   4.460  28.511  1.00  0.00     0.016 A 
BRANCH  13  18
ATOM     18  O   UNL     1      24.031   0.948  27.376  1.00  0.00    -0.497 OA
ATOM     19  C   UNL     1      24.379   1.011  25.996  1.00  0.00     0.278 C 
ENDBRANCH  13  18
ENDBRANCH   1  12
BRANCH   8  20
ATOM     20  O   UNL     1      23.997   9.142  28.981  1.00  0.00    -0.490 OA
ATOM     21  C   UNL     1      25.392   8.867  28.920  1.00  0.00     0.278 C 
ENDBRANCH   8  20
BRANCH  11  22
ATOM     22  O   UNL     1      21.273   9.033  33.882  1.00  0.00    -0.492 OA
ATOM     23  C   UNL     1      19.936   9.485  34.078  1.00  0.00     0.278 C 
ENDBRANCH  11  22
BRANCH   9  24
ATOM     24  O   UNL     1      23.584  11.476  30.283  1.00  0.00    -0.490 OA
ATOM     25  C   UNL     1      24.762  12.171  30.678  1.00  0.00     0.279 C 
ENDBRANCH   9  24
BRANCH  10  26
ATOM     26  O   UNL     1      21.997  11.498  32.710  1.00  0.00    -0.490 OA
ATOM     27  C   UNL     1      20.957  12.353  32.247  1.00  0.00     0.278 C 
ENDBRANCH  10  26
TORSDOF 6
ENDMDL
MODEL 9
REMARK VINA RESULT:    -4.247     15.103     17.807
REMARK INTER + INTRA:          -6.274
REMARK INTER:                  -5.770
REMARK INTRA:                  -0.504
REMARK UNBOUND:                -0.537
REMARK SMILES COc1ccc(-c2cc(=O)c3c(OC)c(OC)c(OC)c(OC)c3o2)cc1
REMARK SMILES IDX 7 1 8 2 9 3 10 4 11 5 24 6 25 7 21 8 18 9 15 10 12 11 6 12
REMARK SMILES IDX 3 13 4 14 27 15 5 16 26 17 2 18 1 19 22 20 23 21 13 22 14 23
REMARK SMILES IDX 19 24 20 25 16 26 17 27
REMARK H PARENT
REMARK Flexibility Score: inf
ROOT
ATOM      1  C   UNL     1      22.940   7.977  30.739  1.00  0.00     0.138 A 
ATOM      2  C   UNL     1      23.761   7.700  29.636  1.00  0.00     0.100 A 
ATOM      3  C   UNL     1      24.072   6.377  29.328  1.00  0.00     0.197 A 
ATOM      4  O   UNL     1      24.813   6.142  28.336  1.00  0.00    -0.289 OA
ATOM      5  C   UNL     1      23.552   5.333  30.123  1.00  0.00     0.115 A 
ATOM      6  C   UNL     1      22.712   5.689  31.202  1.00  0.00     0.188 A 
ATOM      7  O   UNL     1      22.450   6.969  31.458  1.00  0.00    -0.452 OA
ATOM      8  C   UNL     1      22.170   4.697  32.032  1.00  0.00     0.209 A 
ATOM      9  C   UNL     1      22.458   3.344  31.810  1.00  0.00     0.211 A 
ATOM     10  C   UNL     1      23.269   2.974  30.710  1.00  0.00     0.208 A 
ATOM     11  C   UNL     1      23.858   3.971  29.901  1.00  0.00     0.179 A 
ENDROOT
BRANCH   1  12
ATOM     12  C   UNL     1      22.593   9.369  31.121  1.00  0.00     0.018 A 
ATOM     13  C   UNL     1      21.931  12.032  31.796  1.00  0.00     0.118 A 
ATOM     14  C   UNL     1      22.747  11.760  30.683  1.00  0.00     0.047 A 
ATOM     15  C   UNL     1      21.445  10.966  32.559  1.00  0.00     0.047 A 
ATOM     16  C   UNL     1      23.069  10.441  30.349  1.00  0.00     0.016 A 
ATOM     17  C   UNL     1      21.766   9.646  32.227  1.00  0.00     0.016 A 
BRANCH  13  18
ATOM     18  O   UNL     1      21.581  13.336  32.173  1.00  0.00    -0.497 OA
ATOM     19  C   UNL     1      20.264  13.745  32.529  1.00  0.00     0.278 C 
ENDBRANCH  13  18
ENDBRANCH   1  12
BRANCH   8  20
ATOM     20  O   UNL     1      21.345   5.042  33.106  1.00  0.00    -0.490 OA
ATOM     21  C   UNL     1      19.926   5.031  33.001  1.00  0.00     0.278 C 
ENDBRANCH   8  20
BRANCH  11  22
ATOM     22  O   UNL     1      24.758   3.619  28.890  1.00  0.00    -0.492 OA
ATOM     23  C   UNL     1      24.344   2.953  27.701  1.00  0.00     0.278 C 
ENDBRANCH  11  22
BRANCH   9  24
ATOM     24  O   UNL     1      21.888   2.422  32.709  1.00  0.00    -0.490 OA
ATOM     25  C   UNL     1      22.501   1.884  33.876  1.00  0.00     0.279 C 
ENDBRANCH   9  24
BRANCH  10  26
ATOM     26  O   UNL     1      23.473   1.622  30.416  1.00  0.00    -0.490 OA
ATOM     27  C   UNL     1      24.569   0.881  30.941  1.00  0.00     0.278 C 
ENDBRANCH  10  26
TORSDOF 6
ENDMDL
