MODEL 1
REMARK VINA RESULT:    -3.591      0.000      0.000
REMARK INTER + INTRA:          -5.511
REMARK INTER:                  -4.850
REMARK INTRA:                  -0.660
REMARK UNBOUND:                -0.660
REMARK SMILES CCCCCCCC(=O)[O-]
REMARK SMILES IDX 5 1 6 2 7 3 8 4 9 5 10 6 4 7 3 8 2 9 1 10
REMARK H PARENT
REMARK Flexibility Score: inf
ROOT
ATOM      1  C   UNL     1      -7.148  38.428  19.626  1.00  0.00     0.000 C 
ENDROOT
BRANCH   1   2
ATOM      2  C   UNL     1      -7.150  39.567  20.662  1.00  0.00     0.006 C 
BRANCH   2   3
ATOM      3  C   UNL     1      -7.580  39.128  22.073  1.00  0.00     0.053 C 
BRANCH   3   4
ATOM      4  C   UNL     1      -6.543  38.291  22.760  1.00  0.00     0.041 C 
ATOM      5  O   UNL     1      -5.617  38.837  23.414  1.00  0.00    -0.550 OA
ATOM      6  O   UNL     1      -6.584  36.906  22.651  1.00  0.00    -0.550 OA
ENDBRANCH   3   4
ENDBRANCH   2   3
ENDBRANCH   1   2
BRANCH   1   7
ATOM      7  C   UNL     1      -5.748  38.118  19.075  1.00  0.00     0.000 C 
BRANCH   7   8
ATOM      8  C   UNL     1      -4.726  39.157  19.555  1.00  0.00    -0.000 C 
BRANCH   8   9
ATOM      9  C   UNL     1      -3.611  38.494  20.371  1.00  0.00    -0.003 C 
ATOM     10  C   UNL     1      -3.792  36.980  20.424  1.00  0.00     0.004 C 
ENDBRANCH   8   9
ENDBRANCH   7   8
ENDBRANCH   1   7
TORSDOF 6
ENDMDL
MODEL 2
REMARK VINA RESULT:    -3.548      2.472      3.386
REMARK INTER + INTRA:          -5.452
REMARK INTER:                  -4.833
REMARK INTRA:                  -0.619
REMARK UNBOUND:                -0.660
REMARK SMILES CCCCCCCC(=O)[O-]
REMARK SMILES IDX 5 1 6 2 7 3 8 4 9 5 10 6 4 7 3 8 2 9 1 10
REMARK H PARENT
REMARK Flexibility Score: inf
ROOT
ATOM      1  C   UNL     1      -7.444  39.015  21.681  1.00  0.00     0.000 C 
ENDROOT
BRANCH   1   2
ATOM      2  C   UNL     1      -7.209  39.047  20.160  1.00  0.00     0.006 C 
BRANCH   2   3
ATOM      3  C   UNL     1      -6.722  37.709  19.574  1.00  0.00     0.053 C 
BRANCH   3   4
ATOM      4  C   UNL     1      -5.524  37.868  18.687  1.00  0.00     0.041 C 
ATOM      5  O   UNL     1      -4.489  38.442  19.113  1.00  0.00    -0.550 OA
ATOM      6  O   UNL     1      -5.564  37.407  17.377  1.00  0.00    -0.550 OA
ENDBRANCH   3   4
ENDBRANCH   2   3
ENDBRANCH   1   2
BRANCH   1   7
ATOM      7  C   UNL     1      -6.600  37.951  22.398  1.00  0.00     0.000 C 
BRANCH   7   8
ATOM      8  C   UNL     1      -5.315  38.562  22.971  1.00  0.00    -0.000 C 
BRANCH   8   9
ATOM      9  C   UNL     1      -4.082  37.768  22.525  1.00  0.00    -0.003 C 
ATOM     10  C   UNL     1      -4.442  36.318  22.216  1.00  0.00     0.004 C 
ENDBRANCH   8   9
ENDBRANCH   7   8
ENDBRANCH   1   7
TORSDOF 6
ENDMDL
MODEL 3
REMARK VINA RESULT:    -3.543      1.512      2.440
REMARK INTER + INTRA:          -5.446
REMARK INTER:                  -4.807
REMARK INTRA:                  -0.638
REMARK UNBOUND:                -0.660
REMARK SMILES CCCCCCCC(=O)[O-]
REMARK SMILES IDX 5 1 6 2 7 3 8 4 9 5 10 6 4 7 3 8 2 9 1 10
REMARK H PARENT
REMARK Flexibility Score: inf
ROOT
ATOM      1  C   UNL     1      -7.556  39.134  21.718  1.00  0.00     0.000 C 
ENDROOT
BRANCH   1   2
ATOM      2  C   UNL     1      -6.715  38.098  22.486  1.00  0.00     0.006 C 
BRANCH   2   3
ATOM      3  C   UNL     1      -5.379  38.647  23.017  1.00  0.00     0.053 C 
BRANCH   3   4
ATOM      4  C   UNL     1      -4.222  37.740  22.721  1.00  0.00     0.041 C 
ATOM      5  O   UNL     1      -3.069  38.023  23.138  1.00  0.00    -0.550 OA
ATOM      6  O   UNL     1      -4.414  36.596  21.956  1.00  0.00    -0.550 OA
ENDBRANCH   3   4
ENDBRANCH   2   3
ENDBRANCH   1   2
BRANCH   1   7
ATOM      7  C   UNL     1      -7.244  39.166  20.214  1.00  0.00     0.000 C 
BRANCH   7   8
ATOM      8  C   UNL     1      -6.869  37.770  19.700  1.00  0.00    -0.000 C 
BRANCH   8   9
ATOM      9  C   UNL     1      -5.679  37.840  18.737  1.00  0.00    -0.003 C 
ATOM     10  C   UNL     1      -4.681  38.908  19.171  1.00  0.00     0.004 C 
ENDBRANCH   8   9
ENDBRANCH   7   8
ENDBRANCH   1   7
TORSDOF 6
ENDMDL
MODEL 4
REMARK VINA RESULT:    -3.535      1.399      3.438
REMARK INTER + INTRA:          -5.435
REMARK INTER:                  -4.853
REMARK INTRA:                  -0.582
REMARK UNBOUND:                -0.660
REMARK SMILES CCCCCCCC(=O)[O-]
REMARK SMILES IDX 5 1 6 2 7 3 8 4 9 5 10 6 4 7 3 8 2 9 1 10
REMARK H PARENT
REMARK Flexibility Score: inf
ROOT
ATOM      1  C   UNL     1      -5.977  37.759  18.589  1.00  0.00     0.000 C 
ENDROOT
BRANCH   1   2
ATOM      2  C   UNL     1      -4.684  38.504  18.965  1.00  0.00     0.006 C 
BRANCH   2   3
ATOM      3  C   UNL     1      -3.565  37.588  19.493  1.00  0.00     0.053 C 
BRANCH   3   4
ATOM      4  C   UNL     1      -3.739  37.238  20.941  1.00  0.00     0.041 C 
ATOM      5  O   UNL     1      -4.167  36.102  21.274  1.00  0.00    -0.550 OA
ATOM      6  O   UNL     1      -3.456  38.180  21.922  1.00  0.00    -0.550 OA
ENDBRANCH   3   4
ENDBRANCH   2   3
ENDBRANCH   1   2
BRANCH   1   7
ATOM      7  C   UNL     1      -7.144  38.059  19.541  1.00  0.00     0.000 C 
BRANCH   7   8
ATOM      8  C   UNL     1      -6.848  39.296  20.400  1.00  0.00    -0.000 C 
BRANCH   8   9
ATOM      9  C   UNL     1      -7.567  39.211  21.751  1.00  0.00    -0.003 C 
ATOM     10  C   UNL     1      -6.978  38.105  22.620  1.00  0.00     0.004 C 
ENDBRANCH   8   9
ENDBRANCH   7   8
ENDBRANCH   1   7
TORSDOF 6
ENDMDL
MODEL 5
REMARK VINA RESULT:    -3.525      1.943      3.524
REMARK INTER + INTRA:          -5.422
REMARK INTER:                  -4.811
REMARK INTRA:                  -0.610
REMARK UNBOUND:                -0.660
REMARK SMILES CCCCCCCC(=O)[O-]
REMARK SMILES IDX 5 1 6 2 7 3 8 4 9 5 10 6 4 7 3 8 2 9 1 10
REMARK H PARENT
REMARK Flexibility Score: inf
ROOT
ATOM      1  C   UNL     1      -7.072  38.149  19.590  1.00  0.00     0.000 C 
ENDROOT
BRANCH   1   2
ATOM      2  C   UNL     1      -5.768  37.958  18.796  1.00  0.00     0.006 C 
BRANCH   2   3
ATOM      3  C   UNL     1      -4.548  38.663  19.417  1.00  0.00     0.053 C 
BRANCH   3   4
ATOM      4  C   UNL     1      -3.569  37.701  20.021  1.00  0.00     0.041 C 
ATOM      5  O   UNL     1      -2.333  37.853  19.836  1.00  0.00    -0.550 OA
ATOM      6  O   UNL     1      -4.025  36.617  20.761  1.00  0.00    -0.550 OA
ENDBRANCH   3   4
ENDBRANCH   2   3
ENDBRANCH   1   2
BRANCH   1   7
ATOM      7  C   UNL     1      -7.109  39.464  20.381  1.00  0.00     0.000 C 
BRANCH   7   8
ATOM      8  C   UNL     1      -7.701  39.249  21.780  1.00  0.00    -0.000 C 
BRANCH   8   9
ATOM      9  C   UNL     1      -6.856  38.258  22.588  1.00  0.00    -0.003 C 
ATOM     10  C   UNL     1      -5.543  38.890  23.038  1.00  0.00     0.004 C 
ENDBRANCH   8   9
ENDBRANCH   7   8
ENDBRANCH   1   7
TORSDOF 6
ENDMDL
MODEL 6
REMARK VINA RESULT:    -3.427      1.600      2.323
REMARK INTER + INTRA:          -5.289
REMARK INTER:                  -4.631
REMARK INTRA:                  -0.657
REMARK UNBOUND:                -0.660
REMARK SMILES CCCCCCCC(=O)[O-]
REMARK SMILES IDX 5 1 6 2 7 3 8 4 9 5 10 6 4 7 3 8 2 9 1 10
REMARK H PARENT
REMARK Flexibility Score: inf
ROOT
ATOM      1  C   UNL     1      -7.569  38.977  21.443  1.00  0.00     0.000 C 
ENDROOT
BRANCH   1   2
ATOM      2  C   UNL     1      -6.803  38.391  22.643  1.00  0.00     0.006 C 
BRANCH   2   3
ATOM      3  C   UNL     1      -6.239  36.980  22.397  1.00  0.00     0.053 C 
BRANCH   3   4
ATOM      4  C   UNL     1      -4.758  36.982  22.162  1.00  0.00     0.041 C 
ATOM      5  O   UNL     1      -4.001  37.683  22.883  1.00  0.00    -0.550 OA
ATOM      6  O   UNL     1      -4.218  36.231  21.126  1.00  0.00    -0.550 OA
ENDBRANCH   3   4
ENDBRANCH   2   3
ENDBRANCH   1   2
BRANCH   1   7
ATOM      7  C   UNL     1      -6.647  39.622  20.397  1.00  0.00     0.000 C 
BRANCH   7   8
ATOM      8  C   UNL     1      -5.627  40.554  21.064  1.00  0.00    -0.000 C 
BRANCH   8   9
ATOM      9  C   UNL     1      -4.223  40.333  20.490  1.00  0.00    -0.003 C 
ATOM     10  C   UNL     1      -4.244  39.304  19.364  1.00  0.00     0.004 C 
ENDBRANCH   8   9
ENDBRANCH   7   8
ENDBRANCH   1   7
TORSDOF 6
ENDMDL
MODEL 7
REMARK VINA RESULT:    -3.300     11.437     13.024
REMARK INTER + INTRA:          -5.118
REMARK INTER:                  -4.889
REMARK INTRA:                  -0.229
REMARK UNBOUND:                -0.660
REMARK SMILES CCCCCCCC(=O)[O-]
REMARK SMILES IDX 5 1 6 2 7 3 8 4 9 5 10 6 4 7 3 8 2 9 1 10
REMARK H PARENT
REMARK Flexibility Score: inf
ROOT
ATOM      1  C   UNL     1      -4.165  36.520  34.217  1.00  0.00     0.000 C 
ENDROOT
BRANCH   1   2
ATOM      2  C   UNL     1      -4.557  35.044  34.414  1.00  0.00     0.006 C 
BRANCH   2   3
ATOM      3  C   UNL     1      -5.870  34.844  35.190  1.00  0.00     0.053 C 
BRANCH   3   4
ATOM      4  C   UNL     1      -6.528  33.532  34.887  1.00  0.00     0.041 C 
ATOM      5  O   UNL     1      -7.764  33.480  34.648  1.00  0.00    -0.550 OA
ATOM      6  O   UNL     1      -5.781  32.360  34.898  1.00  0.00    -0.550 OA
ENDBRANCH   3   4
ENDBRANCH   2   3
ENDBRANCH   1   2
BRANCH   1   7
ATOM      7  C   UNL     1      -3.818  36.861  32.760  1.00  0.00     0.000 C 
BRANCH   7   8
ATOM      8  C   UNL     1      -3.809  35.600  31.887  1.00  0.00    -0.000 C 
BRANCH   8   9
ATOM      9  C   UNL     1      -3.710  35.961  30.401  1.00  0.00    -0.003 C 
ATOM     10  C   UNL     1      -2.402  36.682  30.094  1.00  0.00     0.004 C 
ENDBRANCH   8   9
ENDBRANCH   7   8
ENDBRANCH   1   7
TORSDOF 6
ENDMDL
MODEL 8
REMARK VINA RESULT:    -3.254     11.283     13.162
REMARK INTER + INTRA:          -5.056
REMARK INTER:                  -4.834
REMARK INTRA:                  -0.222
REMARK UNBOUND:                -0.660
REMARK SMILES CCCCCCCC(=O)[O-]
REMARK SMILES IDX 5 1 6 2 7 3 8 4 9 5 10 6 4 7 3 8 2 9 1 10
REMARK H PARENT
REMARK Flexibility Score: inf
ROOT
ATOM      1  C   UNL     1      -0.158  26.536  16.719  1.00  0.00     0.000 C 
ENDROOT
BRANCH   1   2
ATOM      2  C   UNL     1       0.409  25.803  17.949  1.00  0.00     0.006 C 
BRANCH   2   3
ATOM      3  C   UNL     1      -0.668  25.244  18.895  1.00  0.00     0.053 C 
BRANCH   3   4
ATOM      4  C   UNL     1      -0.433  25.621  20.327  1.00  0.00     0.041 C 
ATOM      5  O   UNL     1       0.708  25.484  20.841  1.00  0.00    -0.550 OA
ATOM      6  O   UNL     1      -1.484  26.095  21.103  1.00  0.00    -0.550 OA
ENDBRANCH   3   4
ENDBRANCH   2   3
ENDBRANCH   1   2
BRANCH   1   7
ATOM      7  C   UNL     1       0.444  27.935  16.523  1.00  0.00     0.000 C 
BRANCH   7   8
ATOM      8  C   UNL     1      -0.282  28.972  17.390  1.00  0.00    -0.000 C 
BRANCH   8   9
ATOM      9  C   UNL     1       0.133  30.397  17.006  1.00  0.00    -0.003 C 
ATOM     10  C   UNL     1       1.545  30.423  16.429  1.00  0.00     0.004 C 
ENDBRANCH   8   9
ENDBRANCH   7   8
ENDBRANCH   1   7
TORSDOF 6
ENDMDL
MODEL 9
REMARK VINA RESULT:    -3.253     10.664     12.677
REMARK INTER + INTRA:          -5.054
REMARK INTER:                  -4.820
REMARK INTRA:                  -0.234
REMARK UNBOUND:                -0.660
REMARK SMILES CCCCCCCC(=O)[O-]
REMARK SMILES IDX 5 1 6 2 7 3 8 4 9 5 10 6 4 7 3 8 2 9 1 10
REMARK H PARENT
REMARK Flexibility Score: inf
ROOT
ATOM      1  C   UNL     1      -0.142  28.487  17.318  1.00  0.00     0.000 C 
ENDROOT
BRANCH   1   2
ATOM      2  C   UNL     1      -0.324  27.049  16.800  1.00  0.00     0.006 C 
BRANCH   2   3
ATOM      3  C   UNL     1       0.369  25.981  17.665  1.00  0.00     0.053 C 
BRANCH   3   4
ATOM      4  C   UNL     1      -0.534  25.414  18.719  1.00  0.00     0.041 C 
ATOM      5  O   UNL     1      -1.199  24.369  18.492  1.00  0.00    -0.550 OA
ATOM      6  O   UNL     1      -0.665  26.059  19.942  1.00  0.00    -0.550 OA
ENDBRANCH   3   4
ENDBRANCH   2   3
ENDBRANCH   1   2
BRANCH   1   7
ATOM      7  C   UNL     1       0.971  29.253  16.588  1.00  0.00     0.000 C 
BRANCH   7   8
ATOM      8  C   UNL     1       0.831  30.765  16.805  1.00  0.00    -0.000 C 
BRANCH   8   9
ATOM      9  C   UNL     1      -0.551  31.115  17.369  1.00  0.00    -0.003 C 
ATOM     10  C   UNL     1      -0.755  32.625  17.432  1.00  0.00     0.004 C 
ENDBRANCH   8   9
ENDBRANCH   7   8
ENDBRANCH   1   7
TORSDOF 6
ENDMDL
