MODEL 1
REMARK VINA RESULT:    -3.165      0.000      0.000
REMARK INTER + INTRA:          -3.443
REMARK INTER:                  -3.443
REMARK INTRA:                   0.000
REMARK UNBOUND:                 0.000
REMARK SMILES [NH3+]CC(=O)[O-]
REMARK SMILES IDX 2 1 1 2 3 6 4 7 5 8
REMARK H PARENT 1 3 1 4 1 5
REMARK Flexibility Score: inf
ROOT
ATOM      1  C   UNL     1      14.739  -5.395  17.644  1.00  0.00     0.312 C 
ENDROOT
BRANCH   1   2
ATOM      2  N   UNL     1      13.735  -5.800  18.626  1.00  0.00    -0.353 N 
ATOM      3  H   UNL     1      13.625  -5.040  19.336  1.00  0.00     0.344 HD
ATOM      4  H   UNL     1      12.815  -5.958  18.154  1.00  0.00     0.344 HD
ATOM      5  H   UNL     1      14.040  -6.675  19.111  1.00  0.00     0.344 HD
ENDBRANCH   1   2
BRANCH   1   6
ATOM      6  C   UNL     1      15.609  -4.309  18.195  1.00  0.00     0.096 C 
ATOM      7  O   UNL     1      16.550  -4.589  18.981  1.00  0.00    -0.544 OA
ATOM      8  O   UNL     1      15.348  -2.981  17.879  1.00  0.00    -0.544 OA
ENDBRANCH   1   6
TORSDOF 2
ENDMDL
MODEL 2
REMARK VINA RESULT:    -3.134      0.151      1.452
REMARK INTER + INTRA:          -3.409
REMARK INTER:                  -3.409
REMARK INTRA:                   0.000
REMARK UNBOUND:                 0.000
REMARK SMILES [NH3+]CC(=O)[O-]
REMARK SMILES IDX 2 1 1 2 3 6 4 7 5 8
REMARK H PARENT 1 3 1 4 1 5
REMARK Flexibility Score: inf
ROOT
ATOM      1  C   UNL     1      14.779  -5.351  17.564  1.00  0.00     0.312 C 
ENDROOT
BRANCH   1   2
ATOM      2  N   UNL     1      13.804  -5.770  18.570  1.00  0.00    -0.353 N 
ATOM      3  H   UNL     1      13.505  -4.934  19.125  1.00  0.00     0.344 HD
ATOM      4  H   UNL     1      12.964  -6.185  18.104  1.00  0.00     0.344 HD
ATOM      5  H   UNL     1      14.233  -6.470  19.217  1.00  0.00     0.344 HD
ENDBRANCH   1   2
BRANCH   1   6
ATOM      6  C   UNL     1      15.626  -4.231  18.083  1.00  0.00     0.096 C 
ATOM      7  O   UNL     1      15.443  -3.056  17.672  1.00  0.00    -0.544 OA
ATOM      8  O   UNL     1      16.652  -4.494  18.983  1.00  0.00    -0.544 OA
ENDBRANCH   1   6
TORSDOF 2
ENDMDL
MODEL 3
REMARK VINA RESULT:    -3.125      1.037      1.037
REMARK INTER + INTRA:          -3.399
REMARK INTER:                  -3.399
REMARK INTRA:                   0.000
REMARK UNBOUND:                 0.000
REMARK SMILES [NH3+]CC(=O)[O-]
REMARK SMILES IDX 2 1 1 2 3 6 4 7 5 8
REMARK H PARENT 1 3 1 4 1 5
REMARK Flexibility Score: inf
ROOT
ATOM      1  C   UNL     1      14.667  -5.580  17.329  1.00  0.00     0.312 C 
ENDROOT
BRANCH   1   2
ATOM      2  N   UNL     1      13.964  -5.601  18.611  1.00  0.00    -0.353 N 
ATOM      3  H   UNL     1      12.979  -5.281  18.466  1.00  0.00     0.344 HD
ATOM      4  H   UNL     1      13.950  -6.574  18.997  1.00  0.00     0.344 HD
ATOM      5  H   UNL     1      14.433  -4.958  19.288  1.00  0.00     0.344 HD
ENDBRANCH   1   2
BRANCH   1   6
ATOM      6  C   UNL     1      15.682  -4.480  17.302  1.00  0.00     0.096 C 
ATOM      7  O   UNL     1      16.866  -4.720  16.949  1.00  0.00    -0.544 OA
ATOM      8  O   UNL     1      15.332  -3.201  17.715  1.00  0.00    -0.544 OA
ENDBRANCH   1   6
TORSDOF 2
ENDMDL
MODEL 4
REMARK VINA RESULT:    -3.113      6.778      7.151
REMARK INTER + INTRA:          -3.386
REMARK INTER:                  -3.386
REMARK INTRA:                   0.000
REMARK UNBOUND:                 0.000
REMARK SMILES [NH3+]CC(=O)[O-]
REMARK SMILES IDX 2 1 1 2 3 6 4 7 5 8
REMARK H PARENT 1 3 1 4 1 5
REMARK Flexibility Score: inf
ROOT
ATOM      1  C   UNL     1      22.372  -4.881  16.864  1.00  0.00     0.312 C 
ENDROOT
BRANCH   1   2
ATOM      2  N   UNL     1      23.276  -3.889  16.285  1.00  0.00    -0.353 N 
ATOM      3  H   UNL     1      22.875  -3.547  15.381  1.00  0.00     0.344 HD
ATOM      4  H   UNL     1      23.383  -3.077  16.937  1.00  0.00     0.344 HD
ATOM      5  H   UNL     1      24.210  -4.320  16.100  1.00  0.00     0.344 HD
ENDBRANCH   1   2
BRANCH   1   6
ATOM      6  C   UNL     1      21.432  -4.237  17.835  1.00  0.00     0.096 C 
ATOM      7  O   UNL     1      20.658  -3.321  17.454  1.00  0.00    -0.544 OA
ATOM      8  O   UNL     1      21.448  -4.614  19.172  1.00  0.00    -0.544 OA
ENDBRANCH   1   6
TORSDOF 2
ENDMDL
MODEL 5
REMARK VINA RESULT:    -3.107      6.773      7.020
REMARK INTER + INTRA:          -3.380
REMARK INTER:                  -3.380
REMARK INTRA:                   0.000
REMARK UNBOUND:                 0.000
REMARK SMILES [NH3+]CC(=O)[O-]
REMARK SMILES IDX 2 1 1 2 3 6 4 7 5 8
REMARK H PARENT 1 3 1 4 1 5
REMARK Flexibility Score: inf
ROOT
ATOM      1  C   UNL     1      22.414  -4.916  16.834  1.00  0.00     0.312 C 
ENDROOT
BRANCH   1   2
ATOM      2  N   UNL     1      23.299  -3.886  16.293  1.00  0.00    -0.353 N 
ATOM      3  H   UNL     1      23.995  -3.615  17.025  1.00  0.00     0.344 HD
ATOM      4  H   UNL     1      23.811  -4.256  15.458  1.00  0.00     0.344 HD
ATOM      5  H   UNL     1      22.744  -3.042  16.023  1.00  0.00     0.344 HD
ENDBRANCH   1   2
BRANCH   1   6
ATOM      6  C   UNL     1      21.466  -4.327  17.832  1.00  0.00     0.096 C 
ATOM      7  O   UNL     1      21.432  -4.768  19.010  1.00  0.00    -0.544 OA
ATOM      8  O   UNL     1      20.584  -3.325  17.445  1.00  0.00    -0.544 OA
ENDBRANCH   1   6
TORSDOF 2
ENDMDL
MODEL 6
REMARK VINA RESULT:    -2.814      7.767      8.181
REMARK INTER + INTRA:          -3.061
REMARK INTER:                  -3.061
REMARK INTRA:                   0.000
REMARK UNBOUND:                 0.000
REMARK SMILES [NH3+]CC(=O)[O-]
REMARK SMILES IDX 2 1 1 2 3 6 4 7 5 8
REMARK H PARENT 1 3 1 4 1 5
REMARK Flexibility Score: inf
ROOT
ATOM      1  C   UNL     1      21.324  -3.610  23.064  1.00  0.00     0.312 C 
ENDROOT
BRANCH   1   2
ATOM      2  N   UNL     1      21.989  -4.705  23.769  1.00  0.00    -0.353 N 
ATOM      3  H   UNL     1      22.524  -4.315  24.579  1.00  0.00     0.344 HD
ATOM      4  H   UNL     1      21.279  -5.384  24.127  1.00  0.00     0.344 HD
ATOM      5  H   UNL     1      22.654  -5.193  23.127  1.00  0.00     0.344 HD
ENDBRANCH   1   2
BRANCH   1   6
ATOM      6  C   UNL     1      22.043  -3.288  21.790  1.00  0.00     0.096 C 
ATOM      7  O   UNL     1      21.548  -3.620  20.683  1.00  0.00    -0.544 OA
ATOM      8  O   UNL     1      23.285  -2.666  21.832  1.00  0.00    -0.544 OA
ENDBRANCH   1   6
TORSDOF 2
ENDMDL
MODEL 7
REMARK VINA RESULT:    -2.755      2.390      2.555
REMARK INTER + INTRA:          -2.997
REMARK INTER:                  -2.997
REMARK INTRA:                   0.000
REMARK UNBOUND:                 0.000
REMARK SMILES [NH3+]CC(=O)[O-]
REMARK SMILES IDX 2 1 1 2 3 6 4 7 5 8
REMARK H PARENT 1 3 1 4 1 5
REMARK Flexibility Score: inf
ROOT
ATOM      1  C   UNL     1      15.701  -4.529  18.430  1.00  0.00     0.312 C 
ENDROOT
BRANCH   1   2
ATOM      2  N   UNL     1      15.043  -3.223  18.430  1.00  0.00    -0.353 N 
ATOM      3  H   UNL     1      14.278  -3.226  17.717  1.00  0.00     0.344 HD
ATOM      4  H   UNL     1      14.628  -3.031  19.371  1.00  0.00     0.344 HD
ATOM      5  H   UNL     1      15.731  -2.475  18.187  1.00  0.00     0.344 HD
ENDBRANCH   1   2
BRANCH   1   6
ATOM      6  C   UNL     1      15.131  -5.408  17.361  1.00  0.00     0.096 C 
ATOM      7  O   UNL     1      15.794  -5.649  16.319  1.00  0.00    -0.544 OA
ATOM      8  O   UNL     1      13.845  -5.918  17.494  1.00  0.00    -0.544 OA
ENDBRANCH   1   6
TORSDOF 2
ENDMDL
MODEL 8
REMARK VINA RESULT:    -2.745      6.599      6.806
REMARK INTER + INTRA:          -2.985
REMARK INTER:                  -2.985
REMARK INTRA:                   0.000
REMARK UNBOUND:                 0.000
REMARK SMILES [NH3+]CC(=O)[O-]
REMARK SMILES IDX 2 1 1 2 3 6 4 7 5 8
REMARK H PARENT 1 3 1 4 1 5
REMARK Flexibility Score: inf
ROOT
ATOM      1  C   UNL     1      18.161  -9.686  13.428  1.00  0.00     0.312 C 
ENDROOT
BRANCH   1   2
ATOM      2  N   UNL     1      18.655 -10.901  14.074  1.00  0.00    -0.353 N 
ATOM      3  H   UNL     1      18.835 -10.701  15.085  1.00  0.00     0.344 HD
ATOM      4  H   UNL     1      17.940 -11.662  14.002  1.00  0.00     0.344 HD
ATOM      5  H   UNL     1      19.547 -11.209  13.625  1.00  0.00     0.344 HD
ENDBRANCH   1   2
BRANCH   1   6
ATOM      6  C   UNL     1      18.211  -8.527  14.374  1.00  0.00     0.096 C 
ATOM      7  O   UNL     1      19.288  -8.226  14.950  1.00  0.00    -0.544 OA
ATOM      8  O   UNL     1      17.055  -7.811  14.657  1.00  0.00    -0.544 OA
ENDBRANCH   1   6
TORSDOF 2
ENDMDL
MODEL 9
REMARK VINA RESULT:    -2.670      7.303      7.575
REMARK INTER + INTRA:          -2.905
REMARK INTER:                  -2.905
REMARK INTRA:                   0.000
REMARK UNBOUND:                 0.000
REMARK SMILES [NH3+]CC(=O)[O-]
REMARK SMILES IDX 2 1 1 2 3 6 4 7 5 8
REMARK H PARENT 1 3 1 4 1 5
REMARK Flexibility Score: inf
ROOT
ATOM      1  C   UNL     1      18.021  -8.455  14.378  1.00  0.00     0.312 C 
ENDROOT
BRANCH   1   2
ATOM      2  N   UNL     1      19.107  -7.896  15.181  1.00  0.00    -0.353 N 
ATOM      3  H   UNL     1      19.170  -6.867  15.002  1.00  0.00     0.344 HD
ATOM      4  H   UNL     1      18.917  -8.052  16.198  1.00  0.00     0.344 HD
ATOM      5  H   UNL     1      20.014  -8.342  14.917  1.00  0.00     0.344 HD
ENDBRANCH   1   2
BRANCH   1   6
ATOM      6  C   UNL     1      18.550  -9.455  13.397  1.00  0.00     0.096 C 
ATOM      7  O   UNL     1      19.777  -9.736  13.379  1.00  0.00    -0.544 OA
ATOM      8  O   UNL     1      17.696 -10.039  12.471  1.00  0.00    -0.544 OA
ENDBRANCH   1   6
TORSDOF 2
ENDMDL
