MODEL 1
REMARK VINA RESULT:     1.640      0.000      0.000
REMARK INTER + INTRA:           3.437
REMARK INTER:                   2.312
REMARK INTRA:                   1.126
REMARK UNBOUND:                 1.126
REMARK SMILES C=CC(=C)CCC=C(C)CCC=C(C)C
REMARK SMILES IDX 8 1 7 2 9 3 10 4 11 5 12 6 14 7 13 8 15 9 6 10 5 11 3 12
REMARK SMILES IDX 4 13 2 14 1 15
REMARK H PARENT
REMARK Flexibility Score: inf
ROOT
ATOM      1  C   UNL     1      10.956   7.444  -6.630  1.00  0.00    -0.077 C 
ATOM      2  C   UNL     1       9.626   7.692  -6.624  1.00  0.00    -0.028 C 
ATOM      3  C   UNL     1      11.554   6.281  -5.875  1.00  0.00     0.039 C 
ENDROOT
BRANCH   1   4
ATOM      4  C   UNL     1      11.873   8.367  -7.411  1.00  0.00     0.034 C 
BRANCH   4   5
ATOM      5  C   UNL     1      11.752   8.157  -8.928  1.00  0.00     0.032 C 
BRANCH   5   6
ATOM      6  C   UNL     1      13.073   7.777  -9.558  1.00  0.00    -0.028 C 
ATOM      7  C   UNL     1      14.978   8.033 -11.090  1.00  0.00     0.039 C 
ATOM      8  C   UNL     1      13.659   8.501 -10.533  1.00  0.00    -0.080 C 
ATOM      9  C   UNL     1      13.024   9.762 -11.072  1.00  0.00     0.039 C 
ENDBRANCH   5   6
ENDBRANCH   4   5
ENDBRANCH   1   4
BRANCH   2  10
ATOM     10  C   UNL     1       8.603   6.871  -5.881  1.00  0.00     0.032 C 
BRANCH  10  11
ATOM     11  C   UNL     1       7.237   7.568  -5.875  1.00  0.00     0.039 C 
BRANCH  11  12
ATOM     12  C   UNL     1       7.337   8.954  -6.476  1.00  0.00    -0.055 C 
ATOM     13  C   UNL     1       8.103   9.140  -7.557  1.00  0.00     0.012 C 
BRANCH  12  14
ATOM     14  C   UNL     1       6.574  10.109  -5.937  1.00  0.00    -0.005 C 
ATOM     15  C   UNL     1       5.244  10.167  -5.887  1.00  0.00     0.009 C 
ENDBRANCH  12  14
ENDBRANCH  11  12
ENDBRANCH  10  11
ENDBRANCH   2  10
TORSDOF 7
ENDMDL
MODEL 2
REMARK VINA RESULT:     3.862      9.619     12.583
REMARK INTER + INTRA:           6.568
REMARK INTER:                   7.590
REMARK INTRA:                  -1.022
REMARK UNBOUND:                 1.126
REMARK SMILES C=CC(=C)CCC=C(C)CCC=C(C)C
REMARK SMILES IDX 8 1 7 2 9 3 10 4 11 5 12 6 14 7 13 8 15 9 6 10 5 11 3 12
REMARK SMILES IDX 4 13 2 14 1 15
REMARK H PARENT
REMARK Flexibility Score: inf
ROOT
ATOM      1  C   UNL     1       1.130   5.177  -9.775  1.00  0.00    -0.077 C 
ATOM      2  C   UNL     1       0.475   6.084 -10.536  1.00  0.00    -0.028 C 
ATOM      3  C   UNL     1       1.248   3.728 -10.184  1.00  0.00     0.039 C 
ENDROOT
BRANCH   1   4
ATOM      4  C   UNL     1       1.755   5.628  -8.468  1.00  0.00     0.034 C 
BRANCH   4   5
ATOM      5  C   UNL     1       0.726   5.713  -7.331  1.00  0.00     0.032 C 
BRANCH   5   6
ATOM      6  C   UNL     1       0.302   7.137  -7.051  1.00  0.00    -0.028 C 
ATOM      7  C   UNL     1      -1.223   9.065  -7.076  1.00  0.00     0.039 C 
ATOM      8  C   UNL     1      -0.903   7.630  -7.404  1.00  0.00    -0.080 C 
ATOM      9  C   UNL     1      -1.927   6.778  -8.116  1.00  0.00     0.039 C 
ENDBRANCH   5   6
ENDBRANCH   4   5
ENDBRANCH   1   4
BRANCH   2  10
ATOM     10  C   UNL     1      -0.206   5.774 -11.846  1.00  0.00     0.032 C 
BRANCH  10  11
ATOM     11  C   UNL     1      -1.697   5.488 -11.636  1.00  0.00     0.039 C 
BRANCH  11  12
ATOM     12  C   UNL     1      -2.379   5.188 -12.954  1.00  0.00    -0.055 C 
ATOM     13  C   UNL     1      -1.728   4.463 -13.872  1.00  0.00     0.012 C 
BRANCH  12  14
ATOM     14  C   UNL     1      -3.766   5.630 -13.249  1.00  0.00    -0.005 C 
ATOM     15  C   UNL     1      -4.125   6.903 -13.410  1.00  0.00     0.009 C 
ENDBRANCH  12  14
ENDBRANCH  11  12
ENDBRANCH  10  11
ENDBRANCH   2  10
TORSDOF 7
ENDMDL
MODEL 3
REMARK VINA RESULT:     4.060      9.583     12.591
REMARK INTER + INTRA:           6.848
REMARK INTER:                   7.329
REMARK INTRA:                  -0.482
REMARK UNBOUND:                 1.126
REMARK SMILES C=CC(=C)CCC=C(C)CCC=C(C)C
REMARK SMILES IDX 8 1 7 2 9 3 10 4 11 5 12 6 14 7 13 8 15 9 6 10 5 11 3 12
REMARK SMILES IDX 4 13 2 14 1 15
REMARK H PARENT
REMARK Flexibility Score: inf
ROOT
ATOM      1  C   UNL     1       1.159   5.226  -9.699  1.00  0.00    -0.077 C 
ATOM      2  C   UNL     1       0.469   6.039 -10.532  1.00  0.00    -0.028 C 
ATOM      3  C   UNL     1       1.351   3.758  -9.996  1.00  0.00     0.039 C 
ENDROOT
BRANCH   1   4
ATOM      4  C   UNL     1       1.747   5.804  -8.426  1.00  0.00     0.034 C 
BRANCH   4   5
ATOM      5  C   UNL     1       0.734   5.816  -7.272  1.00  0.00     0.032 C 
BRANCH   5   6
ATOM      6  C   UNL     1       0.200   7.204  -6.996  1.00  0.00    -0.028 C 
ATOM      7  C   UNL     1      -1.448   9.026  -7.081  1.00  0.00     0.039 C 
ATOM      8  C   UNL     1      -1.014   7.621  -7.410  1.00  0.00    -0.080 C 
ATOM      9  C   UNL     1      -1.937   6.716  -8.191  1.00  0.00     0.039 C 
ENDBRANCH   5   6
ENDBRANCH   4   5
ENDBRANCH   1   4
BRANCH   2  10
ATOM     10  C   UNL     1      -0.181   5.598 -11.819  1.00  0.00     0.032 C 
BRANCH  10  11
ATOM     11  C   UNL     1      -1.707   5.726 -11.736  1.00  0.00     0.039 C 
BRANCH  11  12
ATOM     12  C   UNL     1      -2.369   5.056 -12.921  1.00  0.00    -0.055 C 
ATOM     13  C   UNL     1      -3.705   4.998 -12.972  1.00  0.00     0.012 C 
BRANCH  12  14
ATOM     14  C   UNL     1      -1.589   4.499 -14.056  1.00  0.00    -0.005 C 
ATOM     15  C   UNL     1      -0.713   5.202 -14.774  1.00  0.00     0.009 C 
ENDBRANCH  12  14
ENDBRANCH  11  12
ENDBRANCH  10  11
ENDBRANCH   2  10
TORSDOF 7
ENDMDL
