MODEL 1
REMARK VINA RESULT:    -3.937      0.000      0.000
REMARK INTER + INTRA:          -7.006
REMARK INTER:                  -6.008
REMARK INTRA:                  -0.998
REMARK UNBOUND:                -0.998
REMARK SMILES CCCCCCCCCCC(=O)[O-]
REMARK SMILES IDX 7 1 8 2 9 3 10 4 11 5 12 6 13 7 6 8 5 9 4 10 3 11 2 12 1 13
REMARK H PARENT
REMARK Flexibility Score: inf
ROOT
ATOM      1  C   UNL     1      14.543 -33.395  21.347  1.00  0.00     0.000 C 
ENDROOT
BRANCH   1   2
ATOM      2  C   UNL     1      15.309 -33.819  22.611  1.00  0.00     0.000 C 
BRANCH   2   3
ATOM      3  C   UNL     1      15.112 -32.839  23.780  1.00  0.00     0.006 C 
BRANCH   3   4
ATOM      4  C   UNL     1      13.729 -32.174  23.751  1.00  0.00     0.053 C 
BRANCH   4   5
ATOM      5  C   UNL     1      13.830 -30.681  23.684  1.00  0.00     0.041 C 
ATOM      6  O   UNL     1      13.250 -29.968  24.545  1.00  0.00    -0.550 OA
ATOM      7  O   UNL     1      14.539 -30.076  22.653  1.00  0.00    -0.550 OA
ENDBRANCH   4   5
ENDBRANCH   3   4
ENDBRANCH   2   3
ENDBRANCH   1   2
BRANCH   1   8
ATOM      8  C   UNL     1      14.869 -34.276  20.133  1.00  0.00     0.000 C 
BRANCH   8   9
ATOM      9  C   UNL     1      15.784 -35.441  20.530  1.00  0.00    -0.000 C 
BRANCH   9  10
ATOM     10  C   UNL     1      16.939 -35.600  19.532  1.00  0.00    -0.000 C 
BRANCH  10  11
ATOM     11  C   UNL     1      17.484 -34.234  19.100  1.00  0.00    -0.000 C 
BRANCH  11  12
ATOM     12  C   UNL     1      18.503 -33.703  20.113  1.00  0.00    -0.003 C 
ATOM     13  C   UNL     1      18.121 -32.309  20.601  1.00  0.00     0.004 C 
ENDBRANCH  11  12
ENDBRANCH  10  11
ENDBRANCH   9  10
ENDBRANCH   8   9
ENDBRANCH   1   8
TORSDOF 9
ENDMDL
MODEL 2
REMARK VINA RESULT:    -3.929      1.389      2.427
REMARK INTER + INTRA:          -6.994
REMARK INTER:                  -5.968
REMARK INTRA:                  -1.026
REMARK UNBOUND:                -0.998
REMARK SMILES CCCCCCCCCCC(=O)[O-]
REMARK SMILES IDX 7 1 8 2 9 3 10 4 11 5 12 6 13 7 6 8 5 9 4 10 3 11 2 12 1 13
REMARK H PARENT
REMARK Flexibility Score: inf
ROOT
ATOM      1  C   UNL     1      15.780 -35.419  20.527  1.00  0.00     0.000 C 
ENDROOT
BRANCH   1   2
ATOM      2  C   UNL     1      14.922 -34.182  20.217  1.00  0.00     0.000 C 
BRANCH   2   3
ATOM      3  C   UNL     1      14.577 -33.368  21.476  1.00  0.00     0.006 C 
BRANCH   3   4
ATOM      4  C   UNL     1      14.137 -31.938  21.138  1.00  0.00     0.053 C 
BRANCH   4   5
ATOM      5  C   UNL     1      12.989 -31.491  21.991  1.00  0.00     0.041 C 
ATOM      6  O   UNL     1      11.859 -31.287  21.474  1.00  0.00    -0.550 OA
ATOM      7  O   UNL     1      13.175 -31.271  23.350  1.00  0.00    -0.550 OA
ENDBRANCH   4   5
ENDBRANCH   3   4
ENDBRANCH   2   3
ENDBRANCH   1   2
BRANCH   1   8
ATOM      8  C   UNL     1      16.857 -35.677  19.463  1.00  0.00     0.000 C 
BRANCH   8   9
ATOM      9  C   UNL     1      17.617 -34.388  19.129  1.00  0.00    -0.000 C 
BRANCH   9  10
ATOM     10  C   UNL     1      19.081 -34.479  19.578  1.00  0.00    -0.000 C 
BRANCH  10  11
ATOM     11  C   UNL     1      19.518 -33.198  20.296  1.00  0.00    -0.000 C 
BRANCH  11  12
ATOM     12  C   UNL     1      18.303 -32.377  20.744  1.00  0.00    -0.003 C 
ATOM     13  C   UNL     1      18.114 -32.453  22.256  1.00  0.00     0.004 C 
ENDBRANCH  11  12
ENDBRANCH  10  11
ENDBRANCH   9  10
ENDBRANCH   8   9
ENDBRANCH   1   8
TORSDOF 9
ENDMDL
MODEL 3
REMARK VINA RESULT:    -3.928      3.638      5.870
REMARK INTER + INTRA:          -6.992
REMARK INTER:                  -6.144
REMARK INTRA:                  -0.848
REMARK UNBOUND:                -0.998
REMARK SMILES CCCCCCCCCCC(=O)[O-]
REMARK SMILES IDX 7 1 8 2 9 3 10 4 11 5 12 6 13 7 6 8 5 9 4 10 3 11 2 12 1 13
REMARK H PARENT
REMARK Flexibility Score: inf
ROOT
ATOM      1  C   UNL     1      15.518 -34.505  23.703  1.00  0.00     0.000 C 
ENDROOT
BRANCH   1   2
ATOM      2  C   UNL     1      16.170 -34.274  22.331  1.00  0.00     0.000 C 
BRANCH   2   3
ATOM      3  C   UNL     1      15.417 -34.981  21.190  1.00  0.00     0.006 C 
BRANCH   3   4
ATOM      4  C   UNL     1      16.116 -34.801  19.836  1.00  0.00     0.053 C 
BRANCH   4   5
ATOM      5  C   UNL     1      17.091 -35.903  19.560  1.00  0.00     0.041 C 
ATOM      6  O   UNL     1      16.713 -37.105  19.587  1.00  0.00    -0.550 OA
ATOM      7  O   UNL     1      18.424 -35.606  19.303  1.00  0.00    -0.550 OA
ENDBRANCH   4   5
ENDBRANCH   3   4
ENDBRANCH   2   3
ENDBRANCH   1   2
BRANCH   1   8
ATOM      8  C   UNL     1      15.317 -33.203  24.491  1.00  0.00     0.000 C 
BRANCH   8   9
ATOM      9  C   UNL     1      13.921 -32.620  24.240  1.00  0.00    -0.000 C 
BRANCH   9  10
ATOM     10  C   UNL     1      13.963 -31.087  24.196  1.00  0.00    -0.000 C 
BRANCH  10  11
ATOM     11  C   UNL     1      13.690 -30.569  22.779  1.00  0.00    -0.000 C 
BRANCH  11  12
ATOM     12  C   UNL     1      12.794 -31.540  22.002  1.00  0.00    -0.003 C 
ATOM     13  C   UNL     1      13.466 -31.995  20.709  1.00  0.00     0.004 C 
ENDBRANCH  11  12
ENDBRANCH  10  11
ENDBRANCH   9  10
ENDBRANCH   8   9
ENDBRANCH   1   8
TORSDOF 9
ENDMDL
MODEL 4
REMARK VINA RESULT:    -3.914      3.539      5.824
REMARK INTER + INTRA:          -6.972
REMARK INTER:                  -5.986
REMARK INTRA:                  -0.985
REMARK UNBOUND:                -0.998
REMARK SMILES CCCCCCCCCCC(=O)[O-]
REMARK SMILES IDX 7 1 8 2 9 3 10 4 11 5 12 6 13 7 6 8 5 9 4 10 3 11 2 12 1 13
REMARK H PARENT
REMARK Flexibility Score: inf
ROOT
ATOM      1  C   UNL     1      15.391 -34.356  23.194  1.00  0.00     0.000 C 
ENDROOT
BRANCH   1   2
ATOM      2  C   UNL     1      16.607 -34.162  22.275  1.00  0.00     0.000 C 
BRANCH   2   3
ATOM      3  C   UNL     1      16.227 -34.147  20.784  1.00  0.00     0.006 C 
BRANCH   3   4
ATOM      4  C   UNL     1      15.833 -35.539  20.273  1.00  0.00     0.053 C 
BRANCH   4   5
ATOM      5  C   UNL     1      16.997 -36.263  19.671  1.00  0.00     0.041 C 
ATOM      6  O   UNL     1      18.003 -35.621  19.269  1.00  0.00    -0.550 OA
ATOM      7  O   UNL     1      16.960 -37.645  19.527  1.00  0.00    -0.550 OA
ENDBRANCH   4   5
ENDBRANCH   3   4
ENDBRANCH   2   3
ENDBRANCH   1   2
BRANCH   1   8
ATOM      8  C   UNL     1      15.326 -33.313  24.319  1.00  0.00     0.000 C 
BRANCH   8   9
ATOM      9  C   UNL     1      13.894 -32.794  24.504  1.00  0.00    -0.000 C 
BRANCH   9  10
ATOM     10  C   UNL     1      13.757 -31.358  23.982  1.00  0.00    -0.000 C 
BRANCH  10  11
ATOM     11  C   UNL     1      12.799 -31.296  22.787  1.00  0.00    -0.000 C 
BRANCH  11  12
ATOM     12  C   UNL     1      13.522 -31.650  21.483  1.00  0.00    -0.003 C 
ATOM     13  C   UNL     1      14.816 -30.855  21.336  1.00  0.00     0.004 C 
ENDBRANCH  11  12
ENDBRANCH  10  11
ENDBRANCH   9  10
ENDBRANCH   8   9
ENDBRANCH   1   8
TORSDOF 9
ENDMDL
MODEL 5
REMARK VINA RESULT:    -3.908      1.650      2.672
REMARK INTER + INTRA:          -6.963
REMARK INTER:                  -6.079
REMARK INTRA:                  -0.884
REMARK UNBOUND:                -0.998
REMARK SMILES CCCCCCCCCCC(=O)[O-]
REMARK SMILES IDX 7 1 8 2 9 3 10 4 11 5 12 6 13 7 6 8 5 9 4 10 3 11 2 12 1 13
REMARK H PARENT
REMARK Flexibility Score: inf
ROOT
ATOM      1  C   UNL     1      15.343 -32.953  24.186  1.00  0.00     0.000 C 
ENDROOT
BRANCH   1   2
ATOM      2  C   UNL     1      13.892 -32.476  24.361  1.00  0.00     0.000 C 
BRANCH   2   3
ATOM      3  C   UNL     1      13.617 -31.141  23.647  1.00  0.00     0.006 C 
BRANCH   3   4
ATOM      4  C   UNL     1      12.816 -31.333  22.351  1.00  0.00     0.053 C 
BRANCH   4   5
ATOM      5  C   UNL     1      13.703 -31.659  21.190  1.00  0.00     0.041 C 
ATOM      6  O   UNL     1      13.289 -32.411  20.268  1.00  0.00    -0.550 OA
ATOM      7  O   UNL     1      14.998 -31.157  21.139  1.00  0.00    -0.550 OA
ENDBRANCH   4   5
ENDBRANCH   3   4
ENDBRANCH   2   3
ENDBRANCH   1   2
BRANCH   1   8
ATOM      8  C   UNL     1      15.435 -34.351  23.557  1.00  0.00     0.000 C 
BRANCH   8   9
ATOM      9  C   UNL     1      16.244 -34.314  22.255  1.00  0.00    -0.000 C 
BRANCH   9  10
ATOM     10  C   UNL     1      15.527 -35.084  21.139  1.00  0.00    -0.000 C 
BRANCH  10  11
ATOM     11  C   UNL     1      16.033 -34.651  19.758  1.00  0.00    -0.000 C 
BRANCH  11  12
ATOM     12  C   UNL     1      17.375 -33.919  19.869  1.00  0.00    -0.003 C 
ATOM     13  C   UNL     1      18.522 -34.792  19.371  1.00  0.00     0.004 C 
ENDBRANCH  11  12
ENDBRANCH  10  11
ENDBRANCH   9  10
ENDBRANCH   8   9
ENDBRANCH   1   8
TORSDOF 9
ENDMDL
MODEL 6
REMARK VINA RESULT:    -3.843      3.993      6.364
REMARK INTER + INTRA:          -6.863
REMARK INTER:                  -6.246
REMARK INTRA:                  -0.617
REMARK UNBOUND:                -0.998
REMARK SMILES CCCCCCCCCCC(=O)[O-]
REMARK SMILES IDX 7 1 8 2 9 3 10 4 11 5 12 6 13 7 6 8 5 9 4 10 3 11 2 12 1 13
REMARK H PARENT
REMARK Flexibility Score: inf
ROOT
ATOM      1  C   UNL     1      14.768 -33.878  21.072  1.00  0.00     0.000 C 
ENDROOT
BRANCH   1   2
ATOM      2  C   UNL     1      16.005 -34.254  20.240  1.00  0.00     0.000 C 
BRANCH   2   3
ATOM      3  C   UNL     1      16.458 -35.706  20.474  1.00  0.00     0.006 C 
BRANCH   3   4
ATOM      4  C   UNL     1      17.269 -36.257  19.293  1.00  0.00     0.053 C 
BRANCH   4   5
ATOM      5  C   UNL     1      17.735 -37.658  19.542  1.00  0.00     0.041 C 
ATOM      6  O   UNL     1      17.927 -38.062  20.719  1.00  0.00    -0.550 OA
ATOM      7  O   UNL     1      17.987 -38.508  18.472  1.00  0.00    -0.550 OA
ENDBRANCH   4   5
ENDBRANCH   3   4
ENDBRANCH   2   3
ENDBRANCH   1   2
BRANCH   1   8
ATOM      8  C   UNL     1      13.862 -32.863  20.362  1.00  0.00     0.000 C 
BRANCH   8   9
ATOM      9  C   UNL     1      13.577 -31.657  21.265  1.00  0.00    -0.000 C 
BRANCH   9  10
ATOM     10  C   UNL     1      14.865 -31.138  21.916  1.00  0.00    -0.000 C 
BRANCH  10  11
ATOM     11  C   UNL     1      14.649 -30.839  23.403  1.00  0.00    -0.000 C 
BRANCH  11  12
ATOM     12  C   UNL     1      13.563 -31.744  23.995  1.00  0.00    -0.003 C 
ATOM     13  C   UNL     1      14.168 -33.002  24.610  1.00  0.00     0.004 C 
ENDBRANCH  11  12
ENDBRANCH  10  11
ENDBRANCH   9  10
ENDBRANCH   8   9
ENDBRANCH   1   8
TORSDOF 9
ENDMDL
MODEL 7
REMARK VINA RESULT:    -3.843      2.016      3.652
REMARK INTER + INTRA:          -6.863
REMARK INTER:                  -5.653
REMARK INTRA:                  -1.211
REMARK UNBOUND:                -0.998
REMARK SMILES CCCCCCCCCCC(=O)[O-]
REMARK SMILES IDX 7 1 8 2 9 3 10 4 11 5 12 6 13 7 6 8 5 9 4 10 3 11 2 12 1 13
REMARK H PARENT
REMARK Flexibility Score: inf
ROOT
ATOM      1  C   UNL     1      17.339 -35.958  19.511  1.00  0.00     0.000 C 
ENDROOT
BRANCH   1   2
ATOM      2  C   UNL     1      16.539 -34.657  19.332  1.00  0.00     0.000 C 
BRANCH   2   3
ATOM      3  C   UNL     1      15.284 -34.607  20.221  1.00  0.00     0.006 C 
BRANCH   3   4
ATOM      4  C   UNL     1      15.602 -34.915  21.690  1.00  0.00     0.053 C 
BRANCH   4   5
ATOM      5  C   UNL     1      14.999 -33.903  22.616  1.00  0.00     0.041 C 
ATOM      6  O   UNL     1      14.392 -32.903  22.151  1.00  0.00    -0.550 OA
ATOM      7  O   UNL     1      15.134 -34.050  23.991  1.00  0.00    -0.550 OA
ENDBRANCH   4   5
ENDBRANCH   3   4
ENDBRANCH   2   3
ENDBRANCH   1   2
BRANCH   1   8
ATOM      8  C   UNL     1      18.768 -35.710  20.016  1.00  0.00     0.000 C 
BRANCH   8   9
ATOM      9  C   UNL     1      19.310 -34.373  19.497  1.00  0.00    -0.000 C 
BRANCH   9  10
ATOM     10  C   UNL     1      20.245 -33.721  20.523  1.00  0.00    -0.000 C 
BRANCH  10  11
ATOM     11  C   UNL     1      19.757 -32.318  20.899  1.00  0.00    -0.000 C 
BRANCH  11  12
ATOM     12  C   UNL     1      18.427 -32.383  21.658  1.00  0.00    -0.003 C 
ATOM     13  C   UNL     1      17.409 -31.409  21.073  1.00  0.00     0.004 C 
ENDBRANCH  11  12
ENDBRANCH  10  11
ENDBRANCH   9  10
ENDBRANCH   8   9
ENDBRANCH   1   8
TORSDOF 9
ENDMDL
MODEL 8
REMARK VINA RESULT:    -3.842      2.748      6.052
REMARK INTER + INTRA:          -6.861
REMARK INTER:                  -6.211
REMARK INTRA:                  -0.650
REMARK UNBOUND:                -0.998
REMARK SMILES CCCCCCCCCCC(=O)[O-]
REMARK SMILES IDX 7 1 8 2 9 3 10 4 11 5 12 6 13 7 6 8 5 9 4 10 3 11 2 12 1 13
REMARK H PARENT
REMARK Flexibility Score: inf
ROOT
ATOM      1  C   UNL     1      14.962 -33.116  24.169  1.00  0.00     0.000 C 
ENDROOT
BRANCH   1   2
ATOM      2  C   UNL     1      16.297 -32.505  23.713  1.00  0.00     0.000 C 
BRANCH   2   3
ATOM      3  C   UNL     1      16.680 -32.919  22.281  1.00  0.00     0.006 C 
BRANCH   3   4
ATOM      4  C   UNL     1      16.528 -34.429  22.055  1.00  0.00     0.053 C 
BRANCH   4   5
ATOM      5  C   UNL     1      15.606 -34.732  20.914  1.00  0.00     0.041 C 
ATOM      6  O   UNL     1      14.624 -33.981  20.677  1.00  0.00    -0.550 OA
ATOM      7  O   UNL     1      15.815 -35.861  20.130  1.00  0.00    -0.550 OA
ENDBRANCH   4   5
ENDBRANCH   3   4
ENDBRANCH   2   3
ENDBRANCH   1   2
BRANCH   1   8
ATOM      8  C   UNL     1      13.861 -32.062  24.357  1.00  0.00     0.000 C 
BRANCH   8   9
ATOM      9  C   UNL     1      13.278 -31.631  23.005  1.00  0.00    -0.000 C 
BRANCH   9  10
ATOM     10  C   UNL     1      12.771 -30.185  23.060  1.00  0.00    -0.000 C 
BRANCH  10  11
ATOM     11  C   UNL     1      13.147 -29.519  24.388  1.00  0.00    -0.000 C 
BRANCH  11  12
ATOM     12  C   UNL     1      12.222 -28.336  24.693  1.00  0.00    -0.003 C 
ATOM     13  C   UNL     1      13.015 -27.125  25.173  1.00  0.00     0.004 C 
ENDBRANCH  11  12
ENDBRANCH  10  11
ENDBRANCH   9  10
ENDBRANCH   8   9
ENDBRANCH   1   8
TORSDOF 9
ENDMDL
MODEL 9
REMARK VINA RESULT:    -3.832      3.545      6.503
REMARK INTER + INTRA:          -6.847
REMARK INTER:                  -6.484
REMARK INTRA:                  -0.363
REMARK UNBOUND:                -0.998
REMARK SMILES CCCCCCCCCCC(=O)[O-]
REMARK SMILES IDX 7 1 8 2 9 3 10 4 11 5 12 6 13 7 6 8 5 9 4 10 3 11 2 12 1 13
REMARK H PARENT
REMARK Flexibility Score: inf
ROOT
ATOM      1  C   UNL     1      14.587 -33.473  20.880  1.00  0.00     0.000 C 
ENDROOT
BRANCH   1   2
ATOM      2  C   UNL     1      16.032 -33.059  21.199  1.00  0.00     0.000 C 
BRANCH   2   3
ATOM      3  C   UNL     1      17.069 -34.044  20.632  1.00  0.00     0.006 C 
BRANCH   3   4
ATOM      4  C   UNL     1      16.427 -35.101  19.724  1.00  0.00     0.053 C 
BRANCH   4   5
ATOM      5  C   UNL     1      17.046 -36.452  19.915  1.00  0.00     0.041 C 
ATOM      6  O   UNL     1      17.444 -36.810  21.055  1.00  0.00    -0.550 OA
ATOM      7  O   UNL     1      17.210 -37.303  18.830  1.00  0.00    -0.550 OA
ENDBRANCH   4   5
ENDBRANCH   3   4
ENDBRANCH   2   3
ENDBRANCH   1   2
BRANCH   1   8
ATOM      8  C   UNL     1      13.610 -32.289  20.913  1.00  0.00     0.000 C 
BRANCH   8   9
ATOM      9  C   UNL     1      14.019 -31.269  21.982  1.00  0.00    -0.000 C 
BRANCH   9  10
ATOM     10  C   UNL     1      12.805 -30.809  22.799  1.00  0.00    -0.000 C 
BRANCH  10  11
ATOM     11  C   UNL     1      13.237 -29.940  23.986  1.00  0.00    -0.000 C 
BRANCH  11  12
ATOM     12  C   UNL     1      12.183 -28.872  24.298  1.00  0.00    -0.003 C 
ATOM     13  C   UNL     1      12.766 -27.757  25.160  1.00  0.00     0.004 C 
ENDBRANCH  11  12
ENDBRANCH  10  11
ENDBRANCH   9  10
ENDBRANCH   8   9
ENDBRANCH   1   8
TORSDOF 9
ENDMDL
