MODEL 1
REMARK VINA RESULT:    -7.200      0.000      0.000
REMARK INTER + INTRA:          -8.960
REMARK INTER:                  -8.673
REMARK INTRA:                  -0.287
REMARK UNBOUND:                -0.287
REMARK SMILES O=c1c(O)c(-c2ccc(O)c(O)c2)oc2cc(O)cc(O)c12
REMARK SMILES IDX 5 1 3 2 2 3 1 4 22 5 20 6 19 7 17 8 16 9 15 10 14 11 6 12
REMARK SMILES IDX 7 13 8 14 9 15 13 16 11 17 10 18 12 20 4 22 21 24 18 26
REMARK H PARENT 10 19 12 21 4 23 21 25 18 27
REMARK Flexibility Score: inf
ROOT
ATOM      1  C   UNL     1      33.479  13.278 -11.500  1.00  0.00     0.180 A 
ATOM      2  C   UNL     1      33.059  13.735 -10.239  1.00  0.00     0.208 A 
ATOM      3  C   UNL     1      31.684  13.871  -9.987  1.00  0.00     0.238 A 
ATOM      4  O   UNL     1      31.316  14.331  -8.875  1.00  0.00    -0.285 OA
ATOM      5  C   UNL     1      30.747  13.533 -10.993  1.00  0.00     0.111 A 
ATOM      6  C   UNL     1      29.329  13.594 -10.833  1.00  0.00     0.134 A 
ATOM      7  C   UNL     1      28.499  13.362 -11.936  1.00  0.00     0.093 A 
ATOM      8  C   UNL     1      29.034  13.008 -13.178  1.00  0.00     0.123 A 
ATOM      9  C   UNL     1      30.413  12.888 -13.329  1.00  0.00     0.094 A 
ATOM     10  C   UNL     1      31.269  13.148 -12.255  1.00  0.00     0.146 A 
ATOM     11  O   UNL     1      32.577  13.033 -12.445  1.00  0.00    -0.452 OA
ENDROOT
BRANCH   1  12
ATOM     12  C   UNL     1      34.909  13.086 -11.833  1.00  0.00     0.025 A 
ATOM     13  C   UNL     1      35.466  11.800 -11.768  1.00  0.00     0.016 A 
ATOM     14  C   UNL     1      36.819  11.599 -12.057  1.00  0.00     0.051 A 
ATOM     15  C   UNL     1      37.636  12.681 -12.401  1.00  0.00     0.157 A 
ATOM     16  C   UNL     1      35.737  14.176 -12.158  1.00  0.00     0.062 A 
ATOM     17  C   UNL     1      37.095  13.976 -12.447  1.00  0.00     0.158 A 
BRANCH  15  18
ATOM     18  O   UNL     1      38.982  12.450 -12.687  1.00  0.00    -0.504 OA
ATOM     19  H   UNL     1      39.626  13.204 -12.887  1.00  0.00     0.293 HD
ENDBRANCH  15  18
BRANCH  17  20
ATOM     20  O   UNL     1      37.908  15.061 -12.774  1.00  0.00    -0.504 OA
ATOM     21  H   UNL     1      38.918  14.979 -12.795  1.00  0.00     0.293 HD
ENDBRANCH  17  20
ENDBRANCH   1  12
BRANCH   2  22
ATOM     22  O   UNL     1      34.001  14.083  -9.268  1.00  0.00    -0.502 OA
ATOM     23  H   UNL     1      33.783  14.102  -8.279  1.00  0.00     0.293 HD
ENDBRANCH   2  22
BRANCH   6  24
ATOM     24  O   UNL     1      28.692  13.848  -9.616  1.00  0.00    -0.507 OA
ATOM     25  H   UNL     1      28.046  14.607  -9.452  1.00  0.00     0.293 HD
ENDBRANCH   6  24
BRANCH   8  26
ATOM     26  O   UNL     1      28.200  12.764 -14.267  1.00  0.00    -0.508 OA
ATOM     27  H   UNL     1      27.787  13.521 -14.799  1.00  0.00     0.293 HD
ENDBRANCH   8  26
TORSDOF 6
ENDMDL
MODEL 2
REMARK VINA RESULT:    -6.910      2.382      3.578
REMARK INTER + INTRA:          -8.610
REMARK INTER:                  -8.651
REMARK INTRA:                   0.041
REMARK UNBOUND:                -0.287
REMARK SMILES O=c1c(O)c(-c2ccc(O)c(O)c2)oc2cc(O)cc(O)c12
REMARK SMILES IDX 5 1 3 2 2 3 1 4 22 5 20 6 19 7 17 8 16 9 15 10 14 11 6 12
REMARK SMILES IDX 7 13 8 14 9 15 13 16 11 17 10 18 12 20 4 22 21 24 18 26
REMARK H PARENT 10 19 12 21 4 23 21 25 18 27
REMARK Flexibility Score: inf
ROOT
ATOM      1  C   UNL     1      34.875  14.180 -10.331  1.00  0.00     0.180 A 
ATOM      2  C   UNL     1      34.444  14.290 -11.664  1.00  0.00     0.208 A 
ATOM      3  C   UNL     1      33.070  14.409 -11.928  1.00  0.00     0.238 A 
ATOM      4  O   UNL     1      32.686  14.453 -13.126  1.00  0.00    -0.285 OA
ATOM      5  C   UNL     1      32.146  14.433 -10.856  1.00  0.00     0.111 A 
ATOM      6  C   UNL     1      30.735  14.590 -11.006  1.00  0.00     0.134 A 
ATOM      7  C   UNL     1      29.904  14.468  -9.885  1.00  0.00     0.093 A 
ATOM      8  C   UNL     1      30.439  14.259  -8.611  1.00  0.00     0.123 A 
ATOM      9  C   UNL     1      31.818  14.164  -8.447  1.00  0.00     0.094 A 
ATOM     10  C   UNL     1      32.671  14.246  -9.550  1.00  0.00     0.146 A 
ATOM     11  O   UNL     1      33.979  14.139  -9.351  1.00  0.00    -0.452 OA
ENDROOT
BRANCH   1  12
ATOM     12  C   UNL     1      36.308  14.075  -9.971  1.00  0.00     0.025 A 
ATOM     13  C   UNL     1      36.708  13.159  -8.988  1.00  0.00     0.016 A 
ATOM     14  C   UNL     1      38.052  13.059  -8.618  1.00  0.00     0.051 A 
ATOM     15  C   UNL     1      39.013  13.882  -9.215  1.00  0.00     0.157 A 
ATOM     16  C   UNL     1      37.271  14.918 -10.556  1.00  0.00     0.062 A 
ATOM     17  C   UNL     1      38.621  14.819 -10.185  1.00  0.00     0.158 A 
BRANCH  15  18
ATOM     18  O   UNL     1      40.347  13.758  -8.828  1.00  0.00    -0.504 OA
ATOM     19  H   UNL     1      40.888  14.548  -8.501  1.00  0.00     0.293 HD
ENDBRANCH  15  18
BRANCH  17  20
ATOM     20  O   UNL     1      39.571  15.654 -10.772  1.00  0.00    -0.504 OA
ATOM     21  H   UNL     1      40.474  15.816 -10.342  1.00  0.00     0.293 HD
ENDBRANCH  17  20
ENDBRANCH   1  12
BRANCH   2  22
ATOM     22  O   UNL     1      35.371  14.242 -12.709  1.00  0.00    -0.502 OA
ATOM     23  H   UNL     1      36.031  14.990 -12.885  1.00  0.00     0.293 HD
ENDBRANCH   2  22
BRANCH   6  24
ATOM     24  O   UNL     1      30.108  14.893 -12.217  1.00  0.00    -0.507 OA
ATOM     25  H   UNL     1      29.110  14.973 -12.344  1.00  0.00     0.293 HD
ENDBRANCH   6  24
BRANCH   8  26
ATOM     26  O   UNL     1      29.606  14.154  -7.499  1.00  0.00    -0.508 OA
ATOM     27  H   UNL     1      29.954  14.302  -6.559  1.00  0.00     0.293 HD
ENDBRANCH   8  26
TORSDOF 6
ENDMDL
MODEL 3
REMARK VINA RESULT:    -6.903      4.546      7.233
REMARK INTER + INTRA:          -8.602
REMARK INTER:                  -8.383
REMARK INTRA:                  -0.219
REMARK UNBOUND:                -0.287
REMARK SMILES O=c1c(O)c(-c2ccc(O)c(O)c2)oc2cc(O)cc(O)c12
REMARK SMILES IDX 5 1 3 2 2 3 1 4 22 5 20 6 19 7 17 8 16 9 15 10 14 11 6 12
REMARK SMILES IDX 7 13 8 14 9 15 13 16 11 17 10 18 12 20 4 22 21 24 18 26
REMARK H PARENT 10 19 12 21 4 23 21 25 18 27
REMARK Flexibility Score: inf
ROOT
ATOM      1  C   UNL     1      40.306  14.298 -10.649  1.00  0.00     0.180 A 
ATOM      2  C   UNL     1      39.474  13.989  -9.558  1.00  0.00     0.208 A 
ATOM      3  C   UNL     1      38.082  14.054  -9.725  1.00  0.00     0.238 A 
ATOM      4  O   UNL     1      37.343  13.829  -8.730  1.00  0.00    -0.285 OA
ATOM      5  C   UNL     1      37.538  14.410 -10.982  1.00  0.00     0.111 A 
ATOM      6  C   UNL     1      36.141  14.468 -11.274  1.00  0.00     0.134 A 
ATOM      7  C   UNL     1      35.715  14.959 -12.514  1.00  0.00     0.093 A 
ATOM      8  C   UNL     1      36.637  15.332 -13.496  1.00  0.00     0.123 A 
ATOM      9  C   UNL     1      38.001  15.223 -13.242  1.00  0.00     0.094 A 
ATOM     10  C   UNL     1      38.458  14.771 -12.001  1.00  0.00     0.146 A 
ATOM     11  O   UNL     1      39.766  14.693 -11.796  1.00  0.00    -0.452 OA
ENDROOT
BRANCH   1  12
ATOM     12  C   UNL     1      41.783  14.228 -10.559  1.00  0.00     0.025 A 
ATOM     13  C   UNL     1      42.476  15.204  -9.826  1.00  0.00     0.016 A 
ATOM     14  C   UNL     1      43.871  15.170  -9.745  1.00  0.00     0.051 A 
ATOM     15  C   UNL     1      44.593  14.171 -10.406  1.00  0.00     0.157 A 
ATOM     16  C   UNL     1      42.511  13.236 -11.240  1.00  0.00     0.062 A 
ATOM     17  C   UNL     1      43.911  13.202 -11.161  1.00  0.00     0.158 A 
BRANCH  15  18
ATOM     18  O   UNL     1      45.984  14.160 -10.305  1.00  0.00    -0.504 OA
ATOM     19  H   UNL     1      46.476  13.499  -9.717  1.00  0.00     0.293 HD
ENDBRANCH  15  18
BRANCH  17  20
ATOM     20  O   UNL     1      44.627  12.212 -11.834  1.00  0.00    -0.504 OA
ATOM     21  H   UNL     1      44.267  11.269 -11.931  1.00  0.00     0.293 HD
ENDBRANCH  17  20
ENDBRANCH   1  12
BRANCH   2  22
ATOM     22  O   UNL     1      40.032  13.662  -8.320  1.00  0.00    -0.502 OA
ATOM     23  H   UNL     1      41.024  13.742  -8.131  1.00  0.00     0.293 HD
ENDBRANCH   2  22
BRANCH   6  24
ATOM     24  O   UNL     1      35.143  14.033 -10.399  1.00  0.00    -0.507 OA
ATOM     25  H   UNL     1      35.297  13.767  -9.438  1.00  0.00     0.293 HD
ENDBRANCH   6  24
BRANCH   8  26
ATOM     26  O   UNL     1      36.204  15.805 -14.733  1.00  0.00    -0.508 OA
ATOM     27  H   UNL     1      36.859  16.122 -15.439  1.00  0.00     0.293 HD
ENDBRANCH   8  26
TORSDOF 6
ENDMDL
MODEL 4
REMARK VINA RESULT:    -6.889      4.090      7.114
REMARK INTER + INTRA:          -8.585
REMARK INTER:                  -8.517
REMARK INTRA:                  -0.068
REMARK UNBOUND:                -0.287
REMARK SMILES O=c1c(O)c(-c2ccc(O)c(O)c2)oc2cc(O)cc(O)c12
REMARK SMILES IDX 5 1 3 2 2 3 1 4 22 5 20 6 19 7 17 8 16 9 15 10 14 11 6 12
REMARK SMILES IDX 7 13 8 14 9 15 13 16 11 17 10 18 12 20 4 22 21 24 18 26
REMARK H PARENT 10 19 12 21 4 23 21 25 18 27
REMARK Flexibility Score: inf
ROOT
ATOM      1  C   UNL     1      39.756  14.313 -10.726  1.00  0.00     0.180 A 
ATOM      2  C   UNL     1      39.225  14.424 -12.023  1.00  0.00     0.208 A 
ATOM      3  C   UNL     1      37.831  14.443 -12.188  1.00  0.00     0.238 A 
ATOM      4  O   UNL     1      37.361  14.487 -13.356  1.00  0.00    -0.285 OA
ATOM      5  C   UNL     1      36.986  14.369 -11.055  1.00  0.00     0.111 A 
ATOM      6  C   UNL     1      35.559  14.420 -11.103  1.00  0.00     0.134 A 
ATOM      7  C   UNL     1      34.821  14.206  -9.932  1.00  0.00     0.093 A 
ATOM      8  C   UNL     1      35.459  14.007  -8.705  1.00  0.00     0.123 A 
ATOM      9  C   UNL     1      36.850  14.014  -8.639  1.00  0.00     0.094 A 
ATOM     10  C   UNL     1      37.614  14.189  -9.795  1.00  0.00     0.146 A 
ATOM     11  O   UNL     1      38.937  14.178  -9.690  1.00  0.00    -0.452 OA
ENDROOT
BRANCH   1  12
ATOM     12  C   UNL     1      41.215  14.311 -10.470  1.00  0.00     0.025 A 
ATOM     13  C   UNL     1      41.773  15.303  -9.650  1.00  0.00     0.016 A 
ATOM     14  C   UNL     1      43.150  15.332  -9.411  1.00  0.00     0.051 A 
ATOM     15  C   UNL     1      43.989  14.380  -9.999  1.00  0.00     0.157 A 
ATOM     16  C   UNL     1      42.062  13.367 -11.078  1.00  0.00     0.062 A 
ATOM     17  C   UNL     1      43.445  13.396 -10.840  1.00  0.00     0.158 A 
BRANCH  15  18
ATOM     18  O   UNL     1      45.359  14.432  -9.741  1.00  0.00    -0.504 OA
ATOM     19  H   UNL     1      45.762  14.050  -8.894  1.00  0.00     0.293 HD
ENDBRANCH  15  18
BRANCH  17  20
ATOM     20  O   UNL     1      44.278  12.453 -11.442  1.00  0.00    -0.504 OA
ATOM     21  H   UNL     1      43.962  11.884 -12.219  1.00  0.00     0.293 HD
ENDBRANCH  17  20
ENDBRANCH   1  12
BRANCH   2  22
ATOM     22  O   UNL     1      40.077  14.473 -13.130  1.00  0.00    -0.502 OA
ATOM     23  H   UNL     1      39.942  15.128 -13.891  1.00  0.00     0.293 HD
ENDBRANCH   2  22
BRANCH   6  24
ATOM     24  O   UNL     1      34.827  14.703 -12.259  1.00  0.00    -0.507 OA
ATOM     25  H   UNL     1      34.153  14.081 -12.680  1.00  0.00     0.293 HD
ENDBRANCH   6  24
BRANCH   8  26
ATOM     26  O   UNL     1      34.717  13.810  -7.543  1.00  0.00    -0.508 OA
ATOM     27  H   UNL     1      33.772  13.445  -7.572  1.00  0.00     0.293 HD
ENDBRANCH   8  26
TORSDOF 6
ENDMDL
MODEL 5
REMARK VINA RESULT:    -6.882      1.394      6.921
REMARK INTER + INTRA:          -8.577
REMARK INTER:                  -8.445
REMARK INTRA:                  -0.133
REMARK UNBOUND:                -0.287
REMARK SMILES O=c1c(O)c(-c2ccc(O)c(O)c2)oc2cc(O)cc(O)c12
REMARK SMILES IDX 5 1 3 2 2 3 1 4 22 5 20 6 19 7 17 8 16 9 15 10 14 11 6 12
REMARK SMILES IDX 7 13 8 14 9 15 13 16 11 17 10 18 12 20 4 22 21 24 18 26
REMARK H PARENT 10 19 12 21 4 23 21 25 18 27
REMARK Flexibility Score: inf
ROOT
ATOM      1  C   UNL     1      33.265  13.956 -11.908  1.00  0.00     0.180 A 
ATOM      2  C   UNL     1      33.807  15.219 -11.613  1.00  0.00     0.208 A 
ATOM      3  C   UNL     1      35.200  15.391 -11.666  1.00  0.00     0.238 A 
ATOM      4  O   UNL     1      35.683  16.509 -11.348  1.00  0.00    -0.285 OA
ATOM      5  C   UNL     1      36.031  14.304 -12.030  1.00  0.00     0.111 A 
ATOM      6  C   UNL     1      37.451  14.376 -12.154  1.00  0.00     0.134 A 
ATOM      7  C   UNL     1      38.184  13.207 -12.392  1.00  0.00     0.093 A 
ATOM      8  C   UNL     1      37.541  11.979 -12.574  1.00  0.00     0.123 A 
ATOM      9  C   UNL     1      36.152  11.909 -12.513  1.00  0.00     0.094 A 
ATOM     10  C   UNL     1      35.396  13.052 -12.241  1.00  0.00     0.146 A 
ATOM     11  O   UNL     1      34.075  12.940 -12.181  1.00  0.00    -0.452 OA
ENDROOT
BRANCH   1  12
ATOM     12  C   UNL     1      31.805  13.703 -11.897  1.00  0.00     0.025 A 
ATOM     13  C   UNL     1      31.153  13.373 -13.094  1.00  0.00     0.016 A 
ATOM     14  C   UNL     1      29.773  13.151 -13.111  1.00  0.00     0.051 A 
ATOM     15  C   UNL     1      29.024  13.269 -11.935  1.00  0.00     0.157 A 
ATOM     16  C   UNL     1      31.048  13.843 -10.720  1.00  0.00     0.062 A 
ATOM     17  C   UNL     1      29.663  13.621 -10.735  1.00  0.00     0.158 A 
BRANCH  15  18
ATOM     18  O   UNL     1      27.649  13.039 -11.981  1.00  0.00    -0.504 OA
ATOM     19  H   UNL     1      27.229  12.209 -11.581  1.00  0.00     0.293 HD
ENDBRANCH  15  18
BRANCH  17  20
ATOM     20  O   UNL     1      28.919  13.756  -9.563  1.00  0.00    -0.504 OA
ATOM     21  H   UNL     1      29.111  13.189  -8.745  1.00  0.00     0.293 HD
ENDBRANCH  17  20
ENDBRANCH   1  12
BRANCH   2  22
ATOM     22  O   UNL     1      32.971  16.273 -11.235  1.00  0.00    -0.502 OA
ATOM     23  H   UNL     1      32.067  16.122 -10.804  1.00  0.00     0.293 HD
ENDBRANCH   2  22
BRANCH   6  24
ATOM     24  O   UNL     1      38.181  15.566 -12.082  1.00  0.00    -0.507 OA
ATOM     25  H   UNL     1      38.772  15.924 -12.818  1.00  0.00     0.293 HD
ENDBRANCH   6  24
BRANCH   8  26
ATOM     26  O   UNL     1      38.277  10.823 -12.825  1.00  0.00    -0.508 OA
ATOM     27  H   UNL     1      39.272  10.858 -13.017  1.00  0.00     0.293 HD
ENDBRANCH   8  26
TORSDOF 6
ENDMDL
MODEL 6
REMARK VINA RESULT:    -6.809      4.598     10.431
REMARK INTER + INTRA:          -8.489
REMARK INTER:                  -8.238
REMARK INTRA:                  -0.251
REMARK UNBOUND:                -0.287
REMARK SMILES O=c1c(O)c(-c2ccc(O)c(O)c2)oc2cc(O)cc(O)c12
REMARK SMILES IDX 5 1 3 2 2 3 1 4 22 5 20 6 19 7 17 8 16 9 15 10 14 11 6 12
REMARK SMILES IDX 7 13 8 14 9 15 13 16 11 17 10 18 12 20 4 22 21 24 18 26
REMARK H PARENT 10 19 12 21 4 23 21 25 18 27
REMARK Flexibility Score: inf
ROOT
ATOM      1  C   UNL     1      39.983  13.884 -10.911  1.00  0.00     0.180 A 
ATOM      2  C   UNL     1      40.516  12.969 -11.835  1.00  0.00     0.208 A 
ATOM      3  C   UNL     1      41.905  12.772 -11.875  1.00  0.00     0.238 A 
ATOM      4  O   UNL     1      42.381  11.991 -12.740  1.00  0.00    -0.285 OA
ATOM      5  C   UNL     1      42.743  13.479 -10.979  1.00  0.00     0.111 A 
ATOM      6  C   UNL     1      44.161  13.327 -10.904  1.00  0.00     0.134 A 
ATOM      7  C   UNL     1      44.902  14.173 -10.070  1.00  0.00     0.093 A 
ATOM      8  C   UNL     1      44.271  15.121  -9.261  1.00  0.00     0.123 A 
ATOM      9  C   UNL     1      42.883  15.237  -9.284  1.00  0.00     0.094 A 
ATOM     10  C   UNL     1      42.119  14.431 -10.131  1.00  0.00     0.146 A 
ATOM     11  O   UNL     1      40.800  14.581 -10.130  1.00  0.00    -0.452 OA
ENDROOT
BRANCH   1  12
ATOM     12  C   UNL     1      38.527  14.128 -10.794  1.00  0.00     0.025 A 
ATOM     13  C   UNL     1      37.876  14.905 -11.763  1.00  0.00     0.016 A 
ATOM     14  C   UNL     1      36.507  15.166 -11.661  1.00  0.00     0.051 A 
ATOM     15  C   UNL     1      35.772  14.666 -10.581  1.00  0.00     0.157 A 
ATOM     16  C   UNL     1      37.791  13.644  -9.697  1.00  0.00     0.062 A 
ATOM     17  C   UNL     1      36.417  13.905  -9.592  1.00  0.00     0.158 A 
BRANCH  15  18
ATOM     18  O   UNL     1      34.406  14.940 -10.506  1.00  0.00    -0.504 OA
ATOM     19  H   UNL     1      34.048  15.886 -10.483  1.00  0.00     0.293 HD
ENDBRANCH  15  18
BRANCH  17  20
ATOM     20  O   UNL     1      35.692  13.417  -8.504  1.00  0.00    -0.504 OA
ATOM     21  H   UNL     1      34.765  13.763  -8.286  1.00  0.00     0.293 HD
ENDBRANCH  17  20
ENDBRANCH   1  12
BRANCH   2  22
ATOM     22  O   UNL     1      39.673  12.297 -12.726  1.00  0.00    -0.502 OA
ATOM     23  H   UNL     1      39.094  12.784 -13.399  1.00  0.00     0.293 HD
ENDBRANCH   2  22
BRANCH   6  24
ATOM     24  O   UNL     1      44.879  12.351 -11.599  1.00  0.00    -0.507 OA
ATOM     25  H   UNL     1      44.532  11.428 -11.818  1.00  0.00     0.293 HD
ENDBRANCH   6  24
BRANCH   8  26
ATOM     26  O   UNL     1      45.015  15.949  -8.423  1.00  0.00    -0.508 OA
ATOM     27  H   UNL     1      45.425  16.813  -8.759  1.00  0.00     0.293 HD
ENDBRANCH   8  26
TORSDOF 6
ENDMDL
MODEL 7
REMARK VINA RESULT:    -6.777      1.738      7.120
REMARK INTER + INTRA:          -8.450
REMARK INTER:                  -8.200
REMARK INTRA:                  -0.251
REMARK UNBOUND:                -0.287
REMARK SMILES O=c1c(O)c(-c2ccc(O)c(O)c2)oc2cc(O)cc(O)c12
REMARK SMILES IDX 5 1 3 2 2 3 1 4 22 5 20 6 19 7 17 8 16 9 15 10 14 11 6 12
REMARK SMILES IDX 7 13 8 14 9 15 13 16 11 17 10 18 12 20 4 22 21 24 18 26
REMARK H PARENT 10 19 12 21 4 23 21 25 18 27
REMARK Flexibility Score: inf
ROOT
ATOM      1  C   UNL     1      32.809  13.818 -11.759  1.00  0.00     0.180 A 
ATOM      2  C   UNL     1      33.605  12.690 -12.021  1.00  0.00     0.208 A 
ATOM      3  C   UNL     1      35.003  12.825 -12.013  1.00  0.00     0.238 A 
ATOM      4  O   UNL     1      35.708  11.823 -12.301  1.00  0.00    -0.285 OA
ATOM      5  C   UNL     1      35.587  14.081 -11.726  1.00  0.00     0.111 A 
ATOM      6  C   UNL     1      36.993  14.323 -11.651  1.00  0.00     0.134 A 
ATOM      7  C   UNL     1      37.460  15.633 -11.489  1.00  0.00     0.093 A 
ATOM      8  C   UNL     1      36.571  16.701 -11.335  1.00  0.00     0.123 A 
ATOM      9  C   UNL     1      35.199  16.467 -11.347  1.00  0.00     0.094 A 
ATOM     10  C   UNL     1      34.702  15.176 -11.543  1.00  0.00     0.146 A 
ATOM     11  O   UNL     1      33.387  14.998 -11.559  1.00  0.00    -0.452 OA
ENDROOT
BRANCH   1  12
ATOM     12  C   UNL     1      31.330  13.750 -11.726  1.00  0.00     0.025 A 
ATOM     13  C   UNL     1      30.616  13.670 -12.931  1.00  0.00     0.016 A 
ATOM     14  C   UNL     1      29.220  13.626 -12.925  1.00  0.00     0.051 A 
ATOM     15  C   UNL     1      28.516  13.676 -11.717  1.00  0.00     0.157 A 
ATOM     16  C   UNL     1      30.622  13.822 -10.513  1.00  0.00     0.062 A 
ATOM     17  C   UNL     1      29.220  13.779 -10.505  1.00  0.00     0.158 A 
BRANCH  15  18
ATOM     18  O   UNL     1      27.123  13.627 -11.741  1.00  0.00    -0.504 OA
ATOM     19  H   UNL     1      26.554  14.463 -11.685  1.00  0.00     0.293 HD
ENDBRANCH  15  18
BRANCH  17  20
ATOM     20  O   UNL     1      28.524  13.845  -9.298  1.00  0.00    -0.504 OA
ATOM     21  H   UNL     1      28.121  14.713  -8.964  1.00  0.00     0.293 HD
ENDBRANCH  17  20
ENDBRANCH   1  12
BRANCH   2  22
ATOM     22  O   UNL     1      33.007  11.463 -12.324  1.00  0.00    -0.502 OA
ATOM     23  H   UNL     1      32.512  11.299 -13.192  1.00  0.00     0.293 HD
ENDBRANCH   2  22
BRANCH   6  24
ATOM     24  O   UNL     1      37.961  13.317 -11.701  1.00  0.00    -0.507 OA
ATOM     25  H   UNL     1      38.577  13.074 -10.939  1.00  0.00     0.293 HD
ENDBRANCH   6  24
BRANCH   8  26
ATOM     26  O   UNL     1      37.045  17.999 -11.159  1.00  0.00    -0.508 OA
ATOM     27  H   UNL     1      38.034  18.216 -11.217  1.00  0.00     0.293 HD
ENDBRANCH   8  26
TORSDOF 6
ENDMDL
MODEL 8
REMARK VINA RESULT:    -6.704      2.014      7.304
REMARK INTER + INTRA:          -8.362
REMARK INTER:                  -8.032
REMARK INTRA:                  -0.331
REMARK UNBOUND:                -0.287
REMARK SMILES O=c1c(O)c(-c2ccc(O)c(O)c2)oc2cc(O)cc(O)c12
REMARK SMILES IDX 5 1 3 2 2 3 1 4 22 5 20 6 19 7 17 8 16 9 15 10 14 11 6 12
REMARK SMILES IDX 7 13 8 14 9 15 13 16 11 17 10 18 12 20 4 22 21 24 18 26
REMARK H PARENT 10 19 12 21 4 23 21 25 18 27
REMARK Flexibility Score: inf
ROOT
ATOM      1  C   UNL     1      33.473  14.100 -11.140  1.00  0.00     0.180 A 
ATOM      2  C   UNL     1      33.834  12.856 -11.686  1.00  0.00     0.208 A 
ATOM      3  C   UNL     1      35.180  12.617 -12.005  1.00  0.00     0.238 A 
ATOM      4  O   UNL     1      35.489  11.522 -12.544  1.00  0.00    -0.285 OA
ATOM      5  C   UNL     1      36.151  13.618 -11.759  1.00  0.00     0.111 A 
ATOM      6  C   UNL     1      37.549  13.469 -12.006  1.00  0.00     0.134 A 
ATOM      7  C   UNL     1      38.400  14.570 -11.847  1.00  0.00     0.093 A 
ATOM      8  C   UNL     1      37.911  15.796 -11.389  1.00  0.00     0.123 A 
ATOM      9  C   UNL     1      36.559  15.935 -11.088  1.00  0.00     0.094 A 
ATOM     10  C   UNL     1      35.679  14.864 -11.271  1.00  0.00     0.146 A 
ATOM     11  O   UNL     1      34.396  15.042 -10.983  1.00  0.00    -0.452 OA
ENDROOT
BRANCH   1  12
ATOM     12  C   UNL     1      32.078  14.417 -10.756  1.00  0.00     0.025 A 
ATOM     13  C   UNL     1      31.233  15.046 -11.683  1.00  0.00     0.016 A 
ATOM     14  C   UNL     1      29.920  15.373 -11.334  1.00  0.00     0.051 A 
ATOM     15  C   UNL     1      29.437  15.091 -10.052  1.00  0.00     0.157 A 
ATOM     16  C   UNL     1      31.599  14.153  -9.460  1.00  0.00     0.062 A 
ATOM     17  C   UNL     1      30.281  14.482  -9.109  1.00  0.00     0.158 A 
BRANCH  15  18
ATOM     18  O   UNL     1      28.122  15.427  -9.734  1.00  0.00    -0.504 OA
ATOM     19  H   UNL     1      27.330  14.945 -10.140  1.00  0.00     0.293 HD
ENDBRANCH  15  18
BRANCH  17  20
ATOM     20  O   UNL     1      29.811  14.212  -7.824  1.00  0.00    -0.504 OA
ATOM     21  H   UNL     1      30.204  14.667  -7.008  1.00  0.00     0.293 HD
ENDBRANCH  17  20
ENDBRANCH   1  12
BRANCH   2  22
ATOM     22  O   UNL     1      32.857  11.890 -11.942  1.00  0.00    -0.502 OA
ATOM     23  H   UNL     1      31.943  11.912 -11.506  1.00  0.00     0.293 HD
ENDBRANCH   2  22
BRANCH   6  24
ATOM     24  O   UNL     1      38.152  12.264 -12.378  1.00  0.00    -0.507 OA
ATOM     25  H   UNL     1      39.048  11.942 -12.043  1.00  0.00     0.293 HD
ENDBRANCH   6  24
BRANCH   8  26
ATOM     26  O   UNL     1      38.767  16.883 -11.219  1.00  0.00    -0.508 OA
ATOM     27  H   UNL     1      39.728  16.760 -10.919  1.00  0.00     0.293 HD
ENDBRANCH   8  26
TORSDOF 6
ENDMDL
MODEL 9
REMARK VINA RESULT:    -6.623      1.727      6.818
REMARK INTER + INTRA:          -8.265
REMARK INTER:                  -7.953
REMARK INTRA:                  -0.312
REMARK UNBOUND:                -0.287
REMARK SMILES O=c1c(O)c(-c2ccc(O)c(O)c2)oc2cc(O)cc(O)c12
REMARK SMILES IDX 5 1 3 2 2 3 1 4 22 5 20 6 19 7 17 8 16 9 15 10 14 11 6 12
REMARK SMILES IDX 7 13 8 14 9 15 13 16 11 17 10 18 12 20 4 22 21 24 18 26
REMARK H PARENT 10 19 12 21 4 23 21 25 18 27
REMARK Flexibility Score: inf
ROOT
ATOM      1  C   UNL     1      32.392  14.404 -11.046  1.00  0.00     0.180 A 
ATOM      2  C   UNL     1      32.587  14.124  -9.682  1.00  0.00     0.208 A 
ATOM      3  C   UNL     1      33.892  14.139  -9.164  1.00  0.00     0.238 A 
ATOM      4  O   UNL     1      34.066  13.835  -7.955  1.00  0.00    -0.285 OA
ATOM      5  C   UNL     1      34.983  14.451 -10.011  1.00  0.00     0.111 A 
ATOM      6  C   UNL     1      36.343  14.534  -9.583  1.00  0.00     0.134 A 
ATOM      7  C   UNL     1      37.355  14.721 -10.533  1.00  0.00     0.093 A 
ATOM      8  C   UNL     1      37.050  14.892 -11.886  1.00  0.00     0.123 A 
ATOM      9  C   UNL     1      35.722  14.871 -12.304  1.00  0.00     0.094 A 
ATOM     10  C   UNL     1      34.693  14.650 -11.386  1.00  0.00     0.146 A 
ATOM     11  O   UNL     1      33.442  14.627 -11.828  1.00  0.00    -0.452 OA
ENDROOT
BRANCH   1  12
ATOM     12  C   UNL     1      31.045  14.430 -11.660  1.00  0.00     0.025 A 
ATOM     13  C   UNL     1      30.259  15.587 -11.551  1.00  0.00     0.016 A 
ATOM     14  C   UNL     1      28.976  15.626 -12.105  1.00  0.00     0.051 A 
ATOM     15  C   UNL     1      28.455  14.507 -12.762  1.00  0.00     0.157 A 
ATOM     16  C   UNL     1      30.512  13.298 -12.303  1.00  0.00     0.062 A 
ATOM     17  C   UNL     1      29.224  13.336 -12.858  1.00  0.00     0.158 A 
BRANCH  15  18
ATOM     18  O   UNL     1      27.173  14.577 -13.308  1.00  0.00    -0.504 OA
ATOM     19  H   UNL     1      26.793  15.438 -13.681  1.00  0.00     0.293 HD
ENDBRANCH  15  18
BRANCH  17  20
ATOM     20  O   UNL     1      28.705  12.211 -13.499  1.00  0.00    -0.504 OA
ATOM     21  H   UNL     1      28.337  11.425 -12.977  1.00  0.00     0.293 HD
ENDBRANCH  17  20
ENDBRANCH   1  12
BRANCH   2  22
ATOM     22  O   UNL     1      31.499  13.797  -8.869  1.00  0.00    -0.502 OA
ATOM     23  H   UNL     1      31.069  12.880  -8.877  1.00  0.00     0.293 HD
ENDBRANCH   2  22
BRANCH   6  24
ATOM     24  O   UNL     1      36.746  14.470  -8.247  1.00  0.00    -0.507 OA
ATOM     25  H   UNL     1      36.770  13.626  -7.694  1.00  0.00     0.293 HD
ENDBRANCH   6  24
BRANCH   8  26
ATOM     26  O   UNL     1      38.062  15.092 -12.822  1.00  0.00    -0.508 OA
ATOM     27  H   UNL     1      38.856  14.465 -12.888  1.00  0.00     0.293 HD
ENDBRANCH   8  26
TORSDOF 6
ENDMDL
