MODEL 1
REMARK VINA RESULT:    -4.559      0.000      0.000
REMARK INTER + INTRA:          -4.825
REMARK INTER:                  -4.825
REMARK INTRA:                   0.000
REMARK UNBOUND:                 0.000
REMARK SMILES O=c1ccc2cc(O)c(O)cc2o1
REMARK SMILES IDX 4 1 3 2 2 3 1 4 13 5 12 6 11 7 9 8 7 9 6 10 5 11 8 12 10 14
REMARK H PARENT 8 13 10 15
REMARK Flexibility Score: inf
ROOT
ATOM      1  C   UNL     1       3.325  -0.462   6.139  1.00  0.00     0.019 A 
ATOM      2  C   UNL     1       2.197   0.346   6.282  1.00  0.00     0.094 A 
ATOM      3  C   UNL     1       1.156  -0.085   7.111  1.00  0.00     0.336 A 
ATOM      4  O   UNL     1       0.129   0.630   7.254  1.00  0.00    -0.246 OA
ATOM      5  O   UNL     1       1.242  -1.248   7.753  1.00  0.00    -0.423 OA
ATOM      6  C   UNL     1       2.300  -2.049   7.642  1.00  0.00     0.142 A 
ATOM      7  C   UNL     1       2.334  -3.260   8.340  1.00  0.00     0.098 A 
ATOM      8  C   UNL     1       3.442  -4.108   8.231  1.00  0.00     0.161 A 
ATOM      9  C   UNL     1       4.529  -3.742   7.415  1.00  0.00     0.158 A 
ATOM     10  C   UNL     1       4.498  -2.528   6.713  1.00  0.00     0.062 A 
ATOM     11  C   UNL     1       3.388  -1.680   6.824  1.00  0.00     0.022 A 
ENDROOT
BRANCH   9  12
ATOM     12  O   UNL     1       5.633  -4.586   7.305  1.00  0.00    -0.504 OA
ATOM     13  H   UNL     1       5.550  -5.521   6.922  1.00  0.00     0.293 HD
ENDBRANCH   9  12
BRANCH   8  14
ATOM     14  O   UNL     1       3.446  -5.310   8.939  1.00  0.00    -0.504 OA
ATOM     15  H   UNL     1       2.800  -6.061   8.728  1.00  0.00     0.293 HD
ENDBRANCH   8  14
TORSDOF 2
ENDMDL
MODEL 2
REMARK VINA RESULT:    -4.528      1.062      4.504
REMARK INTER + INTRA:          -4.792
REMARK INTER:                  -4.792
REMARK INTRA:                   0.000
REMARK UNBOUND:                 0.000
REMARK SMILES O=c1ccc2cc(O)c(O)cc2o1
REMARK SMILES IDX 4 1 3 2 2 3 1 4 13 5 12 6 11 7 9 8 7 9 6 10 5 11 8 12 10 14
REMARK H PARENT 8 13 10 15
REMARK Flexibility Score: inf
ROOT
ATOM      1  C   UNL     1       4.639  -2.801   6.683  1.00  0.00     0.019 A 
ATOM      2  C   UNL     1       4.693  -3.965   7.449  1.00  0.00     0.094 A 
ATOM      3  C   UNL     1       3.673  -4.217   8.371  1.00  0.00     0.336 A 
ATOM      4  O   UNL     1       3.704  -5.263   9.073  1.00  0.00    -0.246 OA
ATOM      5  O   UNL     1       2.665  -3.359   8.514  1.00  0.00    -0.423 OA
ATOM      6  C   UNL     1       2.576  -2.237   7.804  1.00  0.00     0.142 A 
ATOM      7  C   UNL     1       1.494  -1.372   7.997  1.00  0.00     0.098 A 
ATOM      8  C   UNL     1       1.391  -0.191   7.254  1.00  0.00     0.161 A 
ATOM      9  C   UNL     1       2.380   0.131   6.307  1.00  0.00     0.158 A 
ATOM     10  C   UNL     1       3.468  -0.733   6.110  1.00  0.00     0.062 A 
ATOM     11  C   UNL     1       3.568  -1.916   6.855  1.00  0.00     0.022 A 
ENDROOT
BRANCH   9  12
ATOM     12  O   UNL     1       2.279   1.308   5.566  1.00  0.00    -0.504 OA
ATOM     13  H   UNL     1       1.948   2.171   5.984  1.00  0.00     0.293 HD
ENDBRANCH   9  12
BRANCH   8  14
ATOM     14  O   UNL     1       0.300   0.651   7.471  1.00  0.00    -0.504 OA
ATOM     15  H   UNL     1      -0.022   1.306   6.768  1.00  0.00     0.293 HD
ENDBRANCH   8  14
TORSDOF 2
ENDMDL
MODEL 3
REMARK VINA RESULT:    -4.480      1.129      5.047
REMARK INTER + INTRA:          -4.742
REMARK INTER:                  -4.742
REMARK INTRA:                   0.000
REMARK UNBOUND:                 0.000
REMARK SMILES O=c1ccc2cc(O)c(O)cc2o1
REMARK SMILES IDX 4 1 3 2 2 3 1 4 13 5 12 6 11 7 9 8 7 9 6 10 5 11 8 12 10 14
REMARK H PARENT 8 13 10 15
REMARK Flexibility Score: inf
ROOT
ATOM      1  C   UNL     1       2.325  -3.215   8.637  1.00  0.00     0.019 A 
ATOM      2  C   UNL     1       3.394  -4.102   8.516  1.00  0.00     0.094 A 
ATOM      3  C   UNL     1       4.416  -3.812   7.606  1.00  0.00     0.336 A 
ATOM      4  O   UNL     1       5.390  -4.601   7.483  1.00  0.00    -0.246 OA
ATOM      5  O   UNL     1       4.368  -2.705   6.869  1.00  0.00    -0.423 OA
ATOM      6  C   UNL     1       3.366  -1.832   6.953  1.00  0.00     0.142 A 
ATOM      7  C   UNL     1       3.370  -0.686   6.152  1.00  0.00     0.098 A 
ATOM      8  C   UNL     1       2.321   0.237   6.234  1.00  0.00     0.161 A 
ATOM      9  C   UNL     1       1.256   0.013   7.127  1.00  0.00     0.158 A 
ATOM     10  C   UNL     1       1.249  -1.137   7.932  1.00  0.00     0.062 A 
ATOM     11  C   UNL     1       2.300  -2.059   7.848  1.00  0.00     0.022 A 
ENDROOT
BRANCH   9  12
ATOM     12  O   UNL     1       0.211   0.932   7.210  1.00  0.00    -0.504 OA
ATOM     13  H   UNL     1       0.256   1.733   7.830  1.00  0.00     0.293 HD
ENDBRANCH   9  12
BRANCH   8  14
ATOM     14  O   UNL     1       2.353   1.370   5.422  1.00  0.00    -0.504 OA
ATOM     15  H   UNL     1       3.205   1.894   5.261  1.00  0.00     0.293 HD
ENDBRANCH   8  14
TORSDOF 2
ENDMDL
MODEL 4
REMARK VINA RESULT:    -4.472      7.229      9.580
REMARK INTER + INTRA:          -4.733
REMARK INTER:                  -4.733
REMARK INTRA:                   0.000
REMARK UNBOUND:                 0.000
REMARK SMILES O=c1ccc2cc(O)c(O)cc2o1
REMARK SMILES IDX 4 1 3 2 2 3 1 4 13 5 12 6 11 7 9 8 7 9 6 10 5 11 8 12 10 14
REMARK H PARENT 8 13 10 15
REMARK Flexibility Score: inf
ROOT
ATOM      1  C   UNL     1       4.111   8.645   6.726  1.00  0.00     0.019 A 
ATOM      2  C   UNL     1       5.450   8.873   7.042  1.00  0.00     0.094 A 
ATOM      3  C   UNL     1       6.351   7.805   6.983  1.00  0.00     0.336 A 
ATOM      4  O   UNL     1       7.564   7.990   7.265  1.00  0.00    -0.246 OA
ATOM      5  O   UNL     1       5.936   6.591   6.629  1.00  0.00    -0.423 OA
ATOM      6  C   UNL     1       4.667   6.331   6.320  1.00  0.00     0.142 A 
ATOM      7  C   UNL     1       4.289   5.035   5.955  1.00  0.00     0.098 A 
ATOM      8  C   UNL     1       2.958   4.753   5.628  1.00  0.00     0.161 A 
ATOM      9  C   UNL     1       1.993   5.777   5.665  1.00  0.00     0.158 A 
ATOM     10  C   UNL     1       2.368   7.078   6.031  1.00  0.00     0.062 A 
ATOM     11  C   UNL     1       3.702   7.359   6.358  1.00  0.00     0.022 A 
ENDROOT
BRANCH   9  12
ATOM     12  O   UNL     1       0.666   5.497   5.340  1.00  0.00    -0.504 OA
ATOM     13  H   UNL     1      -0.088   5.666   5.996  1.00  0.00     0.293 HD
ENDBRANCH   9  12
BRANCH   8  14
ATOM     14  O   UNL     1       2.611   3.451   5.269  1.00  0.00    -0.504 OA
ATOM     15  H   UNL     1       1.963   3.254   4.515  1.00  0.00     0.293 HD
ENDBRANCH   8  14
TORSDOF 2
ENDMDL
MODEL 5
REMARK VINA RESULT:    -4.356      1.847      3.059
REMARK INTER + INTRA:          -4.610
REMARK INTER:                  -4.610
REMARK INTRA:                   0.000
REMARK UNBOUND:                 0.000
REMARK SMILES O=c1ccc2cc(O)c(O)cc2o1
REMARK SMILES IDX 4 1 3 2 2 3 1 4 13 5 12 6 11 7 9 8 7 9 6 10 5 11 8 12 10 14
REMARK H PARENT 8 13 10 15
REMARK Flexibility Score: inf
ROOT
ATOM      1  C   UNL     1       0.734  -0.609   9.078  1.00  0.00     0.019 A 
ATOM      2  C   UNL     1       0.197   0.678   9.100  1.00  0.00     0.094 A 
ATOM      3  C   UNL     1       0.598   1.597   8.125  1.00  0.00     0.336 A 
ATOM      4  O   UNL     1       0.124   2.763   8.129  1.00  0.00    -0.246 OA
ATOM      5  O   UNL     1       1.480   1.248   7.191  1.00  0.00    -0.423 OA
ATOM      6  C   UNL     1       2.018   0.031   7.135  1.00  0.00     0.142 A 
ATOM      7  C   UNL     1       2.940  -0.279   6.131  1.00  0.00     0.098 A 
ATOM      8  C   UNL     1       3.510  -1.555   6.063  1.00  0.00     0.161 A 
ATOM      9  C   UNL     1       3.155  -2.534   7.010  1.00  0.00     0.158 A 
ATOM     10  C   UNL     1       2.230  -2.227   8.020  1.00  0.00     0.062 A 
ATOM     11  C   UNL     1       1.660  -0.948   8.085  1.00  0.00     0.022 A 
ENDROOT
BRANCH   9  12
ATOM     12  O   UNL     1       3.722  -3.806   6.944  1.00  0.00    -0.504 OA
ATOM     13  H   UNL     1       3.994  -4.310   7.781  1.00  0.00     0.293 HD
ENDBRANCH   9  12
BRANCH   8  14
ATOM     14  O   UNL     1       4.427  -1.833   5.050  1.00  0.00    -0.504 OA
ATOM     15  H   UNL     1       4.530  -1.235   4.238  1.00  0.00     0.293 HD
ENDBRANCH   8  14
TORSDOF 2
ENDMDL
MODEL 6
REMARK VINA RESULT:    -4.329      1.286      2.343
REMARK INTER + INTRA:          -4.582
REMARK INTER:                  -4.582
REMARK INTRA:                   0.000
REMARK UNBOUND:                 0.000
REMARK SMILES O=c1ccc2cc(O)c(O)cc2o1
REMARK SMILES IDX 4 1 3 2 2 3 1 4 13 5 12 6 11 7 9 8 7 9 6 10 5 11 8 12 10 14
REMARK H PARENT 8 13 10 15
REMARK Flexibility Score: inf
ROOT
ATOM      1  C   UNL     1       1.640  -1.516   8.014  1.00  0.00     0.019 A 
ATOM      2  C   UNL     1       1.576  -0.372   7.218  1.00  0.00     0.094 A 
ATOM      3  C   UNL     1       2.611  -0.118   6.314  1.00  0.00     0.336 A 
ATOM      4  O   UNL     1       2.572   0.910   5.586  1.00  0.00    -0.246 OA
ATOM      5  O   UNL     1       3.641  -0.955   6.214  1.00  0.00    -0.423 OA
ATOM      6  C   UNL     1       3.741  -2.057   6.955  1.00  0.00     0.142 A 
ATOM      7  C   UNL     1       4.847  -2.899   6.807  1.00  0.00     0.098 A 
ATOM      8  C   UNL     1       4.960  -4.060   7.580  1.00  0.00     0.161 A 
ATOM      9  C   UNL     1       3.957  -4.383   8.513  1.00  0.00     0.158 A 
ATOM     10  C   UNL     1       2.846  -3.539   8.665  1.00  0.00     0.062 A 
ATOM     11  C   UNL     1       2.735  -2.378   7.889  1.00  0.00     0.022 A 
ENDROOT
BRANCH   9  12
ATOM     12  O   UNL     1       4.069  -5.539   9.285  1.00  0.00    -0.504 OA
ATOM     13  H   UNL     1       4.685  -6.299   9.017  1.00  0.00     0.293 HD
ENDBRANCH   9  12
BRANCH   8  14
ATOM     14  O   UNL     1       6.075  -4.880   7.410  1.00  0.00    -0.504 OA
ATOM     15  H   UNL     1       6.138  -5.799   7.833  1.00  0.00     0.293 HD
ENDBRANCH   8  14
TORSDOF 2
ENDMDL
MODEL 7
REMARK VINA RESULT:    -4.290      1.460      4.708
REMARK INTER + INTRA:          -4.541
REMARK INTER:                  -4.541
REMARK INTRA:                   0.000
REMARK UNBOUND:                 0.000
REMARK SMILES O=c1ccc2cc(O)c(O)cc2o1
REMARK SMILES IDX 4 1 3 2 2 3 1 4 13 5 12 6 11 7 9 8 7 9 6 10 5 11 8 12 10 14
REMARK H PARENT 8 13 10 15
REMARK Flexibility Score: inf
ROOT
ATOM      1  C   UNL     1       3.317  -0.756   5.851  1.00  0.00     0.019 A 
ATOM      2  C   UNL     1       4.113  -1.888   6.027  1.00  0.00     0.094 A 
ATOM      3  C   UNL     1       3.888  -2.708   7.137  1.00  0.00     0.336 A 
ATOM      4  O   UNL     1       4.596  -3.735   7.314  1.00  0.00    -0.246 OA
ATOM      5  O   UNL     1       2.930  -2.412   8.012  1.00  0.00    -0.423 OA
ATOM      6  C   UNL     1       2.149  -1.341   7.882  1.00  0.00     0.142 A 
ATOM      7  C   UNL     1       1.158  -1.080   8.833  1.00  0.00     0.098 A 
ATOM      8  C   UNL     1       0.333   0.042   8.704  1.00  0.00     0.161 A 
ATOM      9  C   UNL     1       0.498   0.915   7.612  1.00  0.00     0.158 A 
ATOM     10  C   UNL     1       1.492   0.657   6.656  1.00  0.00     0.062 A 
ATOM     11  C   UNL     1       2.317  -0.468   6.787  1.00  0.00     0.022 A 
ENDROOT
BRANCH   9  12
ATOM     12  O   UNL     1      -0.323   2.034   7.482  1.00  0.00    -0.504 OA
ATOM     13  H   UNL     1       0.060   2.972   7.443  1.00  0.00     0.293 HD
ENDBRANCH   9  12
BRANCH   8  14
ATOM     14  O   UNL     1      -0.647   0.276   9.669  1.00  0.00    -0.504 OA
ATOM     15  H   UNL     1      -1.400   0.938   9.523  1.00  0.00     0.293 HD
ENDBRANCH   8  14
TORSDOF 2
ENDMDL
MODEL 8
REMARK VINA RESULT:    -4.268      2.007      5.598
REMARK INTER + INTRA:          -4.518
REMARK INTER:                  -4.518
REMARK INTRA:                   0.000
REMARK UNBOUND:                 0.000
REMARK SMILES O=c1ccc2cc(O)c(O)cc2o1
REMARK SMILES IDX 4 1 3 2 2 3 1 4 13 5 12 6 11 7 9 8 7 9 6 10 5 11 8 12 10 14
REMARK H PARENT 8 13 10 15
REMARK Flexibility Score: inf
ROOT
ATOM      1  C   UNL     1       1.568  -2.108   9.718  1.00  0.00     0.019 A 
ATOM      2  C   UNL     1       2.575  -2.801   9.046  1.00  0.00     0.094 A 
ATOM      3  C   UNL     1       2.954  -2.375   7.769  1.00  0.00     0.336 A 
ATOM      4  O   UNL     1       3.861  -2.988   7.146  1.00  0.00    -0.246 OA
ATOM      5  O   UNL     1       2.363  -1.324   7.206  1.00  0.00    -0.423 OA
ATOM      6  C   UNL     1       1.399  -0.635   7.812  1.00  0.00     0.142 A 
ATOM      7  C   UNL     1       0.814   0.461   7.171  1.00  0.00     0.098 A 
ATOM      8  C   UNL     1      -0.200   1.190   7.801  1.00  0.00     0.161 A 
ATOM      9  C   UNL     1      -0.636   0.822   9.087  1.00  0.00     0.158 A 
ATOM     10  C   UNL     1      -0.052  -0.278   9.735  1.00  0.00     0.062 A 
ATOM     11  C   UNL     1       0.964  -1.007   9.102  1.00  0.00     0.022 A 
ENDROOT
BRANCH   9  12
ATOM     12  O   UNL     1      -1.646   1.548   9.716  1.00  0.00    -0.504 OA
ATOM     13  H   UNL     1      -2.626   1.348   9.550  1.00  0.00     0.293 HD
ENDBRANCH   9  12
BRANCH   8  14
ATOM     14  O   UNL     1      -0.764   2.279   7.135  1.00  0.00    -0.504 OA
ATOM     15  H   UNL     1      -1.148   2.198   6.201  1.00  0.00     0.293 HD
ENDBRANCH   8  14
TORSDOF 2
ENDMDL
MODEL 9
REMARK VINA RESULT:    -4.215      7.248      9.264
REMARK INTER + INTRA:          -4.461
REMARK INTER:                  -4.461
REMARK INTRA:                   0.000
REMARK UNBOUND:                 0.000
REMARK SMILES O=c1ccc2cc(O)c(O)cc2o1
REMARK SMILES IDX 4 1 3 2 2 3 1 4 13 5 12 6 11 7 9 8 7 9 6 10 5 11 8 12 10 14
REMARK H PARENT 8 13 10 15
REMARK Flexibility Score: inf
ROOT
ATOM      1  C   UNL     1       5.023   7.463   6.733  1.00  0.00     0.019 A 
ATOM      2  C   UNL     1       4.991   8.646   7.470  1.00  0.00     0.094 A 
ATOM      3  C   UNL     1       3.791   9.036   8.073  1.00  0.00     0.336 A 
ATOM      4  O   UNL     1       3.742  10.102   8.743  1.00  0.00    -0.246 OA
ATOM      5  O   UNL     1       2.698   8.288   7.945  1.00  0.00    -0.423 OA
ATOM      6  C   UNL     1       2.685   7.153   7.250  1.00  0.00     0.142 A 
ATOM      7  C   UNL     1       1.506   6.409   7.149  1.00  0.00     0.098 A 
ATOM      8  C   UNL     1       1.484   5.214   6.421  1.00  0.00     0.161 A 
ATOM      9  C   UNL     1       2.653   4.756   5.786  1.00  0.00     0.158 A 
ATOM     10  C   UNL     1       3.839   5.501   5.884  1.00  0.00     0.062 A 
ATOM     11  C   UNL     1       3.859   6.697   6.614  1.00  0.00     0.022 A 
ENDROOT
BRANCH   9  12
ATOM     12  O   UNL     1       2.632   3.566   5.061  1.00  0.00    -0.504 OA
ATOM     13  H   UNL     1       2.900   2.683   5.481  1.00  0.00     0.293 HD
ENDBRANCH   9  12
BRANCH   8  14
ATOM     14  O   UNL     1       0.291   4.495   6.339  1.00  0.00    -0.504 OA
ATOM     15  H   UNL     1      -0.329   4.388   7.133  1.00  0.00     0.293 HD
ENDBRANCH   8  14
TORSDOF 2
ENDMDL
