MODEL 1
REMARK VINA RESULT:    -3.896      0.000      0.000
REMARK INTER + INTRA:          -3.797
REMARK INTER:                  -4.807
REMARK INTRA:                   1.010
REMARK UNBOUND:                 1.010
REMARK SMILES C=C1[C@@H]2CC[C@H]3[C@@H]2C(C)(C)CCC[C@@]13C
REMARK SMILES IDX 14 1 6 2 7 3 3 4 2 5 1 6 4 7 5 8 15 9 8 10 9 11 10 12 11 13
REMARK SMILES IDX 13 15 12 16
REMARK H PARENT
REMARK Flexibility Score: 80.00
ROOT
ATOM      1  C   UNL     1       3.317  -2.115  15.099  1.00  0.00    -0.008 C 
ATOM      2  C   UNL     1       2.276  -3.244  15.464  1.00  0.00     0.003 C 
ATOM      3  C   UNL     1       0.897  -2.559  15.333  1.00  0.00     0.006 C 
ATOM      4  C   UNL     1       1.271  -1.390  16.235  1.00  0.00     0.019 C 
ATOM      5  C   UNL     1       2.551  -0.914  15.605  1.00  0.00    -0.068 C 
ATOM      6  C   UNL     1       2.971   0.357  15.602  1.00  0.00     0.009 C 
ATOM      7  C   UNL     1       1.665  -2.139  17.529  1.00  0.00     0.008 C 
ATOM      8  C   UNL     1       2.266  -3.465  17.000  1.00  0.00     0.005 C 
ATOM      9  C   UNL     1       4.669  -2.235  15.853  1.00  0.00     0.016 C 
ENDROOT
BRANCH   3  10
ATOM     10  C   UNL     1       0.280  -2.256  13.914  1.00  0.00    -0.032 C 
ATOM     11  C   UNL     1      -0.934  -1.311  14.088  1.00  0.00     0.011 C 
ATOM     12  C   UNL     1      -0.271  -3.583  13.328  1.00  0.00     0.011 C 
BRANCH  10  13
ATOM     13  C   UNL     1       1.238  -1.584  12.892  1.00  0.00     0.007 CG0
ATOM     14  G   UNL     1       2.518  -2.372  12.610  1.00  0.00     0.000 G0
ENDBRANCH  10  13
ENDBRANCH   3  10
BRANCH   1  15
ATOM     15  C   UNL     1       3.646  -2.031  13.580  1.00  0.00     0.011 C 
BRANCH  15  16
ATOM     16  C   UNL     1       2.520  -2.366  12.605  1.00  0.00     0.001 CG0
ATOM     17  G   UNL     1       1.234  -1.588  12.886  1.00  0.00     0.000 G0
ENDBRANCH  15  16
ENDBRANCH   1  15
TORSDOF 0
ENDMDL
MODEL 2
REMARK VINA RESULT:    -3.623      2.246      4.129
REMARK INTER + INTRA:          -3.460
REMARK INTER:                  -4.464
REMARK INTRA:                   1.004
REMARK UNBOUND:                 1.010
REMARK SMILES C=C1[C@@H]2CC[C@H]3[C@@H]2C(C)(C)CCC[C@@]13C
REMARK SMILES IDX 14 1 6 2 7 3 3 4 2 5 1 6 4 7 5 8 15 9 8 10 9 11 10 12 11 13
REMARK SMILES IDX 13 15 12 16
REMARK H PARENT
REMARK Flexibility Score: 80.00
ROOT
ATOM      1  C   UNL     1       0.277  -1.723  13.548  1.00  0.00    -0.008 C 
ATOM      2  C   UNL     1       0.745  -2.119  12.093  1.00  0.00     0.003 C 
ATOM      3  C   UNL     1       0.767  -3.664  12.098  1.00  0.00     0.006 C 
ATOM      4  C   UNL     1       1.630  -3.756  13.351  1.00  0.00     0.019 C 
ATOM      5  C   UNL     1       0.869  -2.886  14.312  1.00  0.00    -0.068 C 
ATOM      6  C   UNL     1       0.828  -3.071  15.637  1.00  0.00     0.009 C 
ATOM      7  C   UNL     1       2.870  -2.947  12.906  1.00  0.00     0.008 C 
ATOM      8  C   UNL     1       2.273  -1.879  11.956  1.00  0.00     0.005 C 
ATOM      9  C   UNL     1       0.881  -0.390  14.065  1.00  0.00     0.016 C 
ENDROOT
BRANCH   3  10
ATOM     10  C   UNL     1      -0.576  -4.489  12.040  1.00  0.00    -0.032 C 
ATOM     11  C   UNL     1      -0.269  -5.969  12.373  1.00  0.00     0.011 C 
ATOM     12  C   UNL     1      -1.101  -4.461  10.580  1.00  0.00     0.011 C 
BRANCH  10  13
ATOM     13  C   UNL     1      -1.694  -4.025  13.014  1.00  0.00     0.007 CG0
ATOM     14  G   UNL     1      -2.119  -2.566  12.843  1.00  0.00     0.000 G0
ENDBRANCH  10  13
ENDBRANCH   3  10
BRANCH   1  15
ATOM     15  C   UNL     1      -1.268  -1.617  13.703  1.00  0.00     0.011 C 
BRANCH  15  16
ATOM     16  C   UNL     1      -2.118  -2.564  12.861  1.00  0.00     0.001 CG0
ATOM     17  G   UNL     1      -1.721  -4.032  13.025  1.00  0.00     0.000 G0
ENDBRANCH  15  16
ENDBRANCH   1  15
TORSDOF 0
ENDMDL
MODEL 3
REMARK VINA RESULT:    -3.610      4.539      6.552
REMARK INTER + INTRA:          -3.445
REMARK INTER:                  -4.449
REMARK INTRA:                   1.004
REMARK UNBOUND:                 1.010
REMARK SMILES C=C1[C@@H]2CC[C@H]3[C@@H]2C(C)(C)CCC[C@@]13C
REMARK SMILES IDX 14 1 6 2 7 3 3 4 2 5 1 6 4 7 5 8 15 9 8 10 9 11 10 12 11 13
REMARK SMILES IDX 13 15 12 16
REMARK H PARENT
REMARK Flexibility Score: 80.00
ROOT
ATOM      1  C   UNL     1       4.213  -3.218  19.796  1.00  0.00    -0.008 C 
ATOM      2  C   UNL     1       2.987  -2.375  19.269  1.00  0.00     0.003 C 
ATOM      3  C   UNL     1       1.859  -3.412  19.070  1.00  0.00     0.006 C 
ATOM      4  C   UNL     1       2.714  -4.339  18.216  1.00  0.00     0.019 C 
ATOM      5  C   UNL     1       3.929  -4.520  19.082  1.00  0.00    -0.068 C 
ATOM      6  C   UNL     1       4.682  -5.627  19.117  1.00  0.00     0.009 C 
ATOM      7  C   UNL     1       3.123  -3.383  17.072  1.00  0.00     0.008 C 
ATOM      8  C   UNL     1       3.212  -2.007  17.778  1.00  0.00     0.005 C 
ATOM      9  C   UNL     1       5.596  -2.665  19.356  1.00  0.00     0.016 C 
ENDROOT
BRANCH   3  10
ATOM     10  C   UNL     1       1.090  -4.014  20.308  1.00  0.00    -0.032 C 
ATOM     11  C   UNL     1       0.255  -5.229  19.836  1.00  0.00     0.011 C 
ATOM     12  C   UNL     1       0.080  -2.952  20.819  1.00  0.00     0.011 C 
BRANCH  10  13
ATOM     13  C   UNL     1       1.982  -4.503  21.482  1.00  0.00     0.007 CG0
ATOM     14  G   UNL     1       2.914  -3.435  22.059  1.00  0.00     0.000 G0
ENDBRANCH  10  13
ENDBRANCH   3  10
BRANCH   1  15
ATOM     15  C   UNL     1       4.253  -3.369  21.344  1.00  0.00     0.011 C 
BRANCH  15  16
ATOM     16  C   UNL     1       2.912  -3.439  22.071  1.00  0.00     0.001 CG0
ATOM     17  G   UNL     1       1.970  -4.493  21.488  1.00  0.00     0.000 G0
ENDBRANCH  15  16
ENDBRANCH   1  15
TORSDOF 0
ENDMDL
MODEL 4
REMARK VINA RESULT:    -3.529      5.234      7.464
REMARK INTER + INTRA:          -3.344
REMARK INTER:                  -4.384
REMARK INTRA:                   1.040
REMARK UNBOUND:                 1.010
REMARK SMILES C=C1[C@@H]2CC[C@H]3[C@@H]2C(C)(C)CCC[C@@]13C
REMARK SMILES IDX 14 1 6 2 7 3 3 4 2 5 1 6 4 7 5 8 15 9 8 10 9 11 10 12 11 13
REMARK SMILES IDX 13 15 12 16
REMARK H PARENT
REMARK Flexibility Score: 80.00
ROOT
ATOM      1  C   UNL     1       1.457  -4.224  22.361  1.00  0.00    -0.008 C 
ATOM      2  C   UNL     1       1.883  -5.545  21.608  1.00  0.00     0.003 C 
ATOM      3  C   UNL     1       2.068  -5.111  20.137  1.00  0.00     0.006 C 
ATOM      4  C   UNL     1       0.697  -4.454  20.044  1.00  0.00     0.019 C 
ATOM      5  C   UNL     1       0.713  -3.540  21.237  1.00  0.00    -0.068 C 
ATOM      6  C   UNL     1       0.075  -2.365  21.304  1.00  0.00     0.009 C 
ATOM      7  C   UNL     1      -0.219  -5.645  20.410  1.00  0.00     0.008 C 
ATOM      8  C   UNL     1       0.640  -6.455  21.413  1.00  0.00     0.005 C 
ATOM      9  C   UNL     1       0.499  -4.461  23.560  1.00  0.00     0.016 C 
ENDROOT
BRANCH   3  10
ATOM     10  C   UNL     1       3.337  -4.286  19.694  1.00  0.00    -0.032 C 
ATOM     11  C   UNL     1       3.116  -3.762  18.255  1.00  0.00     0.011 C 
ATOM     12  C   UNL     1       4.550  -5.252  19.634  1.00  0.00     0.011 C 
BRANCH  10  13
ATOM     13  C   UNL     1       3.683  -3.057  20.579  1.00  0.00     0.007 CG0
ATOM     14  G   UNL     1       3.940  -3.386  22.050  1.00  0.00     0.000 G0
ENDBRANCH  10  13
ENDBRANCH   3  10
BRANCH   1  15
ATOM     15  C   UNL     1       2.658  -3.390  22.893  1.00  0.00     0.011 C 
BRANCH  15  16
ATOM     16  C   UNL     1       3.930  -3.386  22.049  1.00  0.00     0.001 CG0
ATOM     17  G   UNL     1       3.672  -3.061  20.577  1.00  0.00     0.000 G0
ENDBRANCH  15  16
ENDBRANCH   1  15
TORSDOF 0
ENDMDL
MODEL 5
REMARK VINA RESULT:    -3.399      4.305      6.592
REMARK INTER + INTRA:          -3.184
REMARK INTER:                  -4.205
REMARK INTRA:                   1.022
REMARK UNBOUND:                 1.010
REMARK SMILES C=C1[C@@H]2CC[C@H]3[C@@H]2C(C)(C)CCC[C@@]13C
REMARK SMILES IDX 14 1 6 2 7 3 3 4 2 5 1 6 4 7 5 8 15 9 8 10 9 11 10 12 11 13
REMARK SMILES IDX 13 15 12 16
REMARK H PARENT
REMARK Flexibility Score: 80.00
ROOT
ATOM      1  C   UNL     1       1.002  -3.301  20.425  1.00  0.00    -0.008 C 
ATOM      2  C   UNL     1       2.319  -3.025  21.251  1.00  0.00     0.003 C 
ATOM      3  C   UNL     1       3.269  -4.181  20.867  1.00  0.00     0.006 C 
ATOM      4  C   UNL     1       2.250  -5.268  21.183  1.00  0.00     0.019 C 
ATOM      5  C   UNL     1       1.058  -4.812  20.389  1.00  0.00    -0.068 C 
ATOM      6  C   UNL     1       0.150  -5.629  19.842  1.00  0.00     0.009 C 
ATOM      7  C   UNL     1       1.943  -4.953  22.665  1.00  0.00     0.008 C 
ATOM      8  C   UNL     1       2.091  -3.413  22.737  1.00  0.00     0.005 C 
ATOM      9  C   UNL     1      -0.298  -2.838  21.135  1.00  0.00     0.016 C 
ENDROOT
BRANCH   3  10
ATOM     10  C   UNL     1       3.989  -4.200  19.464  1.00  0.00    -0.032 C 
ATOM     11  C   UNL     1       4.623  -5.595  19.246  1.00  0.00     0.011 C 
ATOM     12  C   UNL     1       5.159  -3.181  19.502  1.00  0.00     0.011 C 
BRANCH  10  13
ATOM     13  C   UNL     1       3.080  -3.916  18.236  1.00  0.00     0.007 CG0
ATOM     14  G   UNL     1       2.335  -2.581  18.294  1.00  0.00     0.000 G0
ENDBRANCH  10  13
ENDBRANCH   3  10
BRANCH   1  15
ATOM     15  C   UNL     1       1.004  -2.659  19.007  1.00  0.00     0.011 C 
BRANCH  15  16
ATOM     16  C   UNL     1       2.344  -2.579  18.281  1.00  0.00     0.001 CG0
ATOM     17  G   UNL     1       3.080  -3.919  18.232  1.00  0.00     0.000 G0
ENDBRANCH  15  16
ENDBRANCH   1  15
TORSDOF 0
ENDMDL
MODEL 6
REMARK VINA RESULT:    -3.398      5.244      7.066
REMARK INTER + INTRA:          -3.182
REMARK INTER:                  -4.198
REMARK INTRA:                   1.016
REMARK UNBOUND:                 1.010
REMARK SMILES C=C1[C@@H]2CC[C@H]3[C@@H]2C(C)(C)CCC[C@@]13C
REMARK SMILES IDX 14 1 6 2 7 3 3 4 2 5 1 6 4 7 5 8 15 9 8 10 9 11 10 12 11 13
REMARK SMILES IDX 13 15 12 16
REMARK H PARENT
REMARK Flexibility Score: 80.00
ROOT
ATOM      1  C   UNL     1       3.154  -5.467  21.893  1.00  0.00    -0.008 C 
ATOM      2  C   UNL     1       1.873  -6.091  21.215  1.00  0.00     0.003 C 
ATOM      3  C   UNL     1       0.948  -4.883  20.945  1.00  0.00     0.006 C 
ATOM      4  C   UNL     1       1.018  -4.371  22.378  1.00  0.00     0.019 C 
ATOM      5  C   UNL     1       2.502  -4.306  22.609  1.00  0.00    -0.068 C 
ATOM      6  C   UNL     1       3.110  -3.420  23.407  1.00  0.00     0.009 C 
ATOM      7  C   UNL     1       0.503  -5.606  23.152  1.00  0.00     0.008 C 
ATOM      8  C   UNL     1       1.005  -6.794  22.294  1.00  0.00     0.005 C 
ATOM      9  C   UNL     1       3.843  -6.402  22.923  1.00  0.00     0.016 C 
ENDROOT
BRANCH   3  10
ATOM     10  C   UNL     1       1.254  -3.882  19.766  1.00  0.00    -0.032 C 
ATOM     11  C   UNL     1       0.354  -2.632  19.924  1.00  0.00     0.011 C 
ATOM     12  C   UNL     1       0.842  -4.560  18.432  1.00  0.00     0.011 C 
BRANCH  10  13
ATOM     13  C   UNL     1       2.721  -3.379  19.672  1.00  0.00     0.007 CG0
ATOM     14  G   UNL     1       3.764  -4.488  19.526  1.00  0.00     0.000 G0
ENDBRANCH  10  13
ENDBRANCH   3  10
BRANCH   1  15
ATOM     15  C   UNL     1       4.247  -5.020  20.879  1.00  0.00     0.011 C 
BRANCH  15  16
ATOM     16  C   UNL     1       3.768  -4.477  19.535  1.00  0.00     0.001 CG0
ATOM     17  G   UNL     1       2.714  -3.377  19.675  1.00  0.00     0.000 G0
ENDBRANCH  15  16
ENDBRANCH   1  15
TORSDOF 0
ENDMDL
MODEL 7
REMARK VINA RESULT:    -3.386     14.680     16.445
REMARK INTER + INTRA:          -3.168
REMARK INTER:                  -4.208
REMARK INTRA:                   1.040
REMARK UNBOUND:                 1.010
REMARK SMILES C=C1[C@@H]2CC[C@H]3[C@@H]2C(C)(C)CCC[C@@]13C
REMARK SMILES IDX 14 1 6 2 7 3 3 4 2 5 1 6 4 7 5 8 15 9 8 10 9 11 10 12 11 13
REMARK SMILES IDX 13 15 12 16
REMARK H PARENT
REMARK Flexibility Score: 80.00
ROOT
ATOM      1  C   UNL     1      12.669   1.088  26.674  1.00  0.00    -0.008 C 
ATOM      2  C   UNL     1      11.330   0.706  25.930  1.00  0.00     0.003 C 
ATOM      3  C   UNL     1      10.930  -0.662  26.527  1.00  0.00     0.006 C 
ATOM      4  C   UNL     1      12.289  -1.297  26.263  1.00  0.00     0.019 C 
ATOM      5  C   UNL     1      13.221  -0.302  26.896  1.00  0.00    -0.068 C 
ATOM      6  C   UNL     1      14.394  -0.611  27.463  1.00  0.00     0.009 C 
ATOM      7  C   UNL     1      12.406  -1.103  24.733  1.00  0.00     0.008 C 
ATOM      8  C   UNL     1      11.655   0.229  24.488  1.00  0.00     0.005 C 
ATOM      9  C   UNL     1      13.657   1.917  25.810  1.00  0.00     0.016 C 
ENDROOT
BRANCH   3  10
ATOM     10  C   UNL     1      10.315  -0.760  27.975  1.00  0.00    -0.032 C 
ATOM     11  C   UNL     1      10.280  -2.247  28.405  1.00  0.00     0.011 C 
ATOM     12  C   UNL     1       8.841  -0.281  27.913  1.00  0.00     0.011 C 
BRANCH  10  13
ATOM     13  C   UNL     1      11.077   0.017  29.085  1.00  0.00     0.007 CG0
ATOM     14  G   UNL     1      11.216   1.518  28.827  1.00  0.00     0.000 G0
ENDBRANCH  10  13
ENDBRANCH   3  10
BRANCH   1  15
ATOM     15  C   UNL     1      12.449   1.875  27.998  1.00  0.00     0.011 C 
BRANCH  15  16
ATOM     16  C   UNL     1      11.218   1.513  28.826  1.00  0.00     0.001 CG0
ATOM     17  G   UNL     1      11.078   0.009  29.065  1.00  0.00     0.000 G0
ENDBRANCH  15  16
ENDBRANCH   1  15
TORSDOF 0
ENDMDL
MODEL 8
REMARK VINA RESULT:    -3.322      5.716      8.058
REMARK INTER + INTRA:          -3.089
REMARK INTER:                  -4.087
REMARK INTRA:                   0.998
REMARK UNBOUND:                 1.010
REMARK SMILES C=C1[C@@H]2CC[C@H]3[C@@H]2C(C)(C)CCC[C@@]13C
REMARK SMILES IDX 14 1 6 2 7 3 3 4 2 5 1 6 4 7 5 8 15 9 8 10 9 11 10 12 11 13
REMARK SMILES IDX 13 15 12 16
REMARK H PARENT
REMARK Flexibility Score: 80.00
ROOT
ATOM      1  C   UNL     1       1.118  -3.707  20.964  1.00  0.00    -0.008 C 
ATOM      2  C   UNL     1       1.885  -3.235  22.261  1.00  0.00     0.003 C 
ATOM      3  C   UNL     1       2.599  -4.505  22.775  1.00  0.00     0.006 C 
ATOM      4  C   UNL     1       1.334  -5.352  22.765  1.00  0.00     0.019 C 
ATOM      5  C   UNL     1       0.828  -5.135  21.367  1.00  0.00    -0.068 C 
ATOM      6  C   UNL     1       0.142  -6.038  20.656  1.00  0.00     0.009 C 
ATOM      7  C   UNL     1       0.424  -4.522  23.700  1.00  0.00     0.008 C 
ATOM      8  C   UNL     1       0.874  -3.065  23.428  1.00  0.00     0.005 C 
ATOM      9  C   UNL     1      -0.213  -2.950  20.706  1.00  0.00     0.016 C 
ENDROOT
BRANCH   3  10
ATOM     10  C   UNL     1       3.886  -5.054  22.047  1.00  0.00    -0.032 C 
ATOM     11  C   UNL     1       4.188  -6.479  22.572  1.00  0.00     0.011 C 
ATOM     12  C   UNL     1       5.092  -4.167  22.453  1.00  0.00     0.011 C 
BRANCH  10  13
ATOM     13  C   UNL     1       3.796  -5.148  20.499  1.00  0.00     0.007 CG0
ATOM     14  G   UNL     1       3.468  -3.828  19.800  1.00  0.00     0.000 G0
ENDBRANCH  10  13
ENDBRANCH   3  10
BRANCH   1  15
ATOM     15  C   UNL     1       1.964  -3.601  19.662  1.00  0.00     0.011 C 
BRANCH  15  16
ATOM     16  C   UNL     1       3.466  -3.845  19.786  1.00  0.00     0.001 CG0
ATOM     17  G   UNL     1       3.802  -5.155  20.502  1.00  0.00     0.000 G0
ENDBRANCH  15  16
ENDBRANCH   1  15
TORSDOF 0
ENDMDL
MODEL 9
REMARK VINA RESULT:    -3.280      6.410      8.114
REMARK INTER + INTRA:          -3.037
REMARK INTER:                  -4.041
REMARK INTRA:                   1.004
REMARK UNBOUND:                 1.010
REMARK SMILES C=C1[C@@H]2CC[C@H]3[C@@H]2C(C)(C)CCC[C@@]13C
REMARK SMILES IDX 14 1 6 2 7 3 3 4 2 5 1 6 4 7 5 8 15 9 8 10 9 11 10 12 11 13
REMARK SMILES IDX 13 15 12 16
REMARK H PARENT
REMARK Flexibility Score: 80.00
ROOT
ATOM      1  C   UNL     1       1.765  -5.327  22.396  1.00  0.00    -0.008 C 
ATOM      2  C   UNL     1       1.776  -5.616  20.844  1.00  0.00     0.003 C 
ATOM      3  C   UNL     1       2.529  -4.415  20.230  1.00  0.00     0.006 C 
ATOM      4  C   UNL     1       1.655  -3.375  20.921  1.00  0.00     0.019 C 
ATOM      5  C   UNL     1       1.729  -3.817  22.356  1.00  0.00    -0.068 C 
ATOM      6  C   UNL     1       1.663  -2.993  23.409  1.00  0.00     0.009 C 
ATOM      7  C   UNL     1       0.257  -3.784  20.403  1.00  0.00     0.008 C 
ATOM      8  C   UNL     1       0.372  -5.321  20.252  1.00  0.00     0.005 C 
ATOM      9  C   UNL     1       0.508  -5.866  23.131  1.00  0.00     0.016 C 
ENDROOT
BRANCH   3  10
ATOM     10  C   UNL     1       4.096  -4.295  20.358  1.00  0.00    -0.032 C 
ATOM     11  C   UNL     1       4.525  -2.868  19.937  1.00  0.00     0.011 C 
ATOM     12  C   UNL     1       4.745  -5.272  19.343  1.00  0.00     0.011 C 
BRANCH  10  13
ATOM     13  C   UNL     1       4.677  -4.545  21.778  1.00  0.00     0.007 CG0
ATOM     14  G   UNL     1       4.331  -5.910  22.374  1.00  0.00     0.000 G0
ENDBRANCH  10  13
ENDBRANCH   3  10
BRANCH   1  15
ATOM     15  C   UNL     1       3.009  -5.886  23.148  1.00  0.00     0.011 C 
BRANCH  15  16
ATOM     16  C   UNL     1       4.332  -5.905  22.386  1.00  0.00     0.001 CG0
ATOM     17  G   UNL     1       4.692  -4.548  21.779  1.00  0.00     0.000 G0
ENDBRANCH  15  16
ENDBRANCH   1  15
TORSDOF 0
ENDMDL
