MODEL 1
REMARK VINA RESULT:    -7.316      0.000      0.000
REMARK INTER + INTRA:          -9.105
REMARK INTER:                  -8.813
REMARK INTRA:                  -0.292
REMARK UNBOUND:                -0.292
REMARK SMILES O=c1c(O)c(-c2ccc(O)c(O)c2)oc2cc(O)cc(O)c12
REMARK SMILES IDX 5 1 3 2 2 3 1 4 22 5 20 6 19 7 17 8 16 9 15 10 14 11 6 12
REMARK SMILES IDX 7 13 8 14 9 15 13 16 11 17 10 18 12 20 4 22 21 24 18 26
REMARK H PARENT 10 19 12 21 4 23 21 25 18 27
REMARK Flexibility Score: inf
ROOT
ATOM      1  C   UNL     1     -20.175 -12.530 -40.994  1.00  0.00     0.180 A 
ATOM      2  C   UNL     1     -20.795 -11.535 -41.770  1.00  0.00     0.208 A 
ATOM      3  C   UNL     1     -21.079 -11.803 -43.118  1.00  0.00     0.238 A 
ATOM      4  O   UNL     1     -21.701 -10.937 -43.786  1.00  0.00    -0.285 OA
ATOM      5  C   UNL     1     -20.689 -13.039 -43.689  1.00  0.00     0.111 A 
ATOM      6  C   UNL     1     -20.887 -13.399 -45.057  1.00  0.00     0.134 A 
ATOM      7  C   UNL     1     -20.557 -14.691 -45.485  1.00  0.00     0.093 A 
ATOM      8  C   UNL     1     -19.978 -15.614 -44.610  1.00  0.00     0.123 A 
ATOM      9  C   UNL     1     -19.732 -15.254 -43.288  1.00  0.00     0.094 A 
ATOM     10  C   UNL     1     -20.085 -13.986 -42.822  1.00  0.00     0.146 A 
ATOM     11  O   UNL     1     -19.851 -13.692 -41.549  1.00  0.00    -0.452 OA
ENDROOT
BRANCH   1  12
ATOM     12  C   UNL     1     -19.857 -12.328 -39.562  1.00  0.00     0.025 A 
ATOM     13  C   UNL     1     -18.736 -11.583 -39.160  1.00  0.00     0.016 A 
ATOM     14  C   UNL     1     -18.470 -11.387 -37.803  1.00  0.00     0.051 A 
ATOM     15  C   UNL     1     -19.319 -11.915 -36.824  1.00  0.00     0.157 A 
ATOM     16  C   UNL     1     -20.722 -12.840 -38.582  1.00  0.00     0.062 A 
ATOM     17  C   UNL     1     -20.463 -12.648 -37.220  1.00  0.00     0.158 A 
BRANCH  15  18
ATOM     18  O   UNL     1     -18.994 -11.686 -35.486  1.00  0.00    -0.504 OA
ATOM     19  H   UNL     1     -19.101 -10.795 -35.023  1.00  0.00     0.293 HD
ENDBRANCH  15  18
BRANCH  17  20
ATOM     20  O   UNL     1     -21.360 -13.198 -36.301  1.00  0.00    -0.504 OA
ATOM     21  H   UNL     1     -21.794 -14.103 -36.407  1.00  0.00     0.293 HD
ENDBRANCH  17  20
ENDBRANCH   1  12
BRANCH   2  22
ATOM     22  O   UNL     1     -21.102 -10.293 -41.207  1.00  0.00    -0.502 OA
ATOM     23  H   UNL     1     -21.817 -10.180 -40.499  1.00  0.00     0.293 HD
ENDBRANCH   2  22
BRANCH   6  24
ATOM     24  O   UNL     1     -21.375 -12.527 -46.035  1.00  0.00    -0.507 OA
ATOM     25  H   UNL     1     -22.326 -12.507 -46.368  1.00  0.00     0.293 HD
ENDBRANCH   6  24
BRANCH   8  26
ATOM     26  O   UNL     1     -19.637 -16.892 -45.049  1.00  0.00    -0.508 OA
ATOM     27  H   UNL     1     -19.199 -17.043 -45.951  1.00  0.00     0.293 HD
ENDBRANCH   8  26
TORSDOF 6
ENDMDL
MODEL 2
REMARK VINA RESULT:    -7.242      2.048      2.534
REMARK INTER + INTRA:          -9.015
REMARK INTER:                  -8.683
REMARK INTRA:                  -0.332
REMARK UNBOUND:                -0.292
REMARK SMILES O=c1c(O)c(-c2ccc(O)c(O)c2)oc2cc(O)cc(O)c12
REMARK SMILES IDX 5 1 3 2 2 3 1 4 22 5 20 6 19 7 17 8 16 9 15 10 14 11 6 12
REMARK SMILES IDX 7 13 8 14 9 15 13 16 11 17 10 18 12 20 4 22 21 24 18 26
REMARK H PARENT 10 19 12 21 4 23 21 25 18 27
REMARK Flexibility Score: inf
ROOT
ATOM      1  C   UNL     1     -20.392 -12.430 -41.482  1.00  0.00     0.180 A 
ATOM      2  C   UNL     1     -19.566 -12.181 -42.592  1.00  0.00     0.208 A 
ATOM      3  C   UNL     1     -20.067 -12.425 -43.880  1.00  0.00     0.238 A 
ATOM      4  O   UNL     1     -19.350 -12.130 -44.871  1.00  0.00    -0.285 OA
ATOM      5  C   UNL     1     -21.365 -12.969 -44.042  1.00  0.00     0.111 A 
ATOM      6  C   UNL     1     -21.956 -13.298 -45.300  1.00  0.00     0.134 A 
ATOM      7  C   UNL     1     -23.288 -13.730 -45.344  1.00  0.00     0.093 A 
ATOM      8  C   UNL     1     -24.028 -13.905 -44.172  1.00  0.00     0.123 A 
ATOM      9  C   UNL     1     -23.442 -13.639 -42.937  1.00  0.00     0.094 A 
ATOM     10  C   UNL     1     -22.128 -13.170 -42.862  1.00  0.00     0.146 A 
ATOM     11  O   UNL     1     -21.617 -12.909 -41.666  1.00  0.00    -0.452 OA
ENDROOT
BRANCH   1  12
ATOM     12  C   UNL     1     -19.941 -12.184 -40.093  1.00  0.00     0.025 A 
ATOM     13  C   UNL     1     -20.088 -10.925 -39.488  1.00  0.00     0.016 A 
ATOM     14  C   UNL     1     -19.677 -10.725 -38.169  1.00  0.00     0.051 A 
ATOM     15  C   UNL     1     -19.127 -11.774 -37.424  1.00  0.00     0.157 A 
ATOM     16  C   UNL     1     -19.410 -13.244 -39.340  1.00  0.00     0.062 A 
ATOM     17  C   UNL     1     -18.996 -13.052 -38.017  1.00  0.00     0.158 A 
BRANCH  15  18
ATOM     18  O   UNL     1     -18.733 -11.505 -36.112  1.00  0.00    -0.504 OA
ATOM     19  H   UNL     1     -19.211 -11.858 -35.295  1.00  0.00     0.293 HD
ENDBRANCH  15  18
BRANCH  17  20
ATOM     20  O   UNL     1     -18.465 -14.148 -37.334  1.00  0.00    -0.504 OA
ATOM     21  H   UNL     1     -18.266 -14.155 -36.344  1.00  0.00     0.293 HD
ENDBRANCH  17  20
ENDBRANCH   1  12
BRANCH   2  22
ATOM     22  O   UNL     1     -18.260 -11.717 -42.408  1.00  0.00    -0.502 OA
ATOM     23  H   UNL     1     -18.058 -10.800 -42.031  1.00  0.00     0.293 HD
ENDBRANCH   2  22
BRANCH   6  24
ATOM     24  O   UNL     1     -21.280 -13.244 -46.522  1.00  0.00    -0.507 OA
ATOM     25  H   UNL     1     -21.630 -12.801 -47.357  1.00  0.00     0.293 HD
ENDBRANCH   6  24
BRANCH   8  26
ATOM     26  O   UNL     1     -25.346 -14.352 -44.224  1.00  0.00    -0.508 OA
ATOM     27  H   UNL     1     -25.575 -15.337 -44.156  1.00  0.00     0.293 HD
ENDBRANCH   8  26
TORSDOF 6
ENDMDL
MODEL 3
REMARK VINA RESULT:    -7.187      4.912      9.377
REMARK INTER + INTRA:          -8.950
REMARK INTER:                  -8.621
REMARK INTRA:                  -0.329
REMARK UNBOUND:                -0.292
REMARK SMILES O=c1c(O)c(-c2ccc(O)c(O)c2)oc2cc(O)cc(O)c12
REMARK SMILES IDX 5 1 3 2 2 3 1 4 22 5 20 6 19 7 17 8 16 9 15 10 14 11 6 12
REMARK SMILES IDX 7 13 8 14 9 15 13 16 11 17 10 18 12 20 4 22 21 24 18 26
REMARK H PARENT 10 19 12 21 4 23 21 25 18 27
REMARK Flexibility Score: inf
ROOT
ATOM      1  C   UNL     1     -19.368 -19.037 -40.963  1.00  0.00     0.180 A 
ATOM      2  C   UNL     1     -18.690 -20.021 -40.223  1.00  0.00     0.208 A 
ATOM      3  C   UNL     1     -18.280 -19.726 -38.913  1.00  0.00     0.238 A 
ATOM      4  O   UNL     1     -17.741 -20.636 -38.232  1.00  0.00    -0.285 OA
ATOM      5  C   UNL     1     -18.502 -18.434 -38.379  1.00  0.00     0.111 A 
ATOM      6  C   UNL     1     -18.089 -18.011 -37.079  1.00  0.00     0.134 A 
ATOM      7  C   UNL     1     -18.458 -16.741 -36.616  1.00  0.00     0.093 A 
ATOM      8  C   UNL     1     -19.170 -15.857 -37.430  1.00  0.00     0.123 A 
ATOM      9  C   UNL     1     -19.530 -16.240 -38.719  1.00  0.00     0.094 A 
ATOM     10  C   UNL     1     -19.210 -17.513 -39.196  1.00  0.00     0.146 A 
ATOM     11  O   UNL     1     -19.592 -17.844 -40.423  1.00  0.00    -0.452 OA
ENDROOT
BRANCH   1  12
ATOM     12  C   UNL     1     -19.844 -19.277 -42.344  1.00  0.00     0.025 A 
ATOM     13  C   UNL     1     -21.144 -19.743 -42.599  1.00  0.00     0.016 A 
ATOM     14  C   UNL     1     -21.578 -19.939 -43.912  1.00  0.00     0.051 A 
ATOM     15  C   UNL     1     -20.734 -19.662 -44.993  1.00  0.00     0.157 A 
ATOM     16  C   UNL     1     -19.004 -18.977 -43.427  1.00  0.00     0.062 A 
ATOM     17  C   UNL     1     -19.430 -19.170 -44.747  1.00  0.00     0.158 A 
BRANCH  15  18
ATOM     18  O   UNL     1     -21.228 -19.883 -46.280  1.00  0.00    -0.504 OA
ATOM     19  H   UNL     1     -21.678 -20.739 -46.572  1.00  0.00     0.293 HD
ENDBRANCH  15  18
BRANCH  17  20
ATOM     20  O   UNL     1     -18.535 -18.863 -45.773  1.00  0.00    -0.504 OA
ATOM     21  H   UNL     1     -18.607 -19.224 -46.713  1.00  0.00     0.293 HD
ENDBRANCH  17  20
ENDBRANCH   1  12
BRANCH   2  22
ATOM     22  O   UNL     1     -18.413 -21.265 -40.796  1.00  0.00    -0.502 OA
ATOM     23  H   UNL     1     -18.308 -22.107 -40.244  1.00  0.00     0.293 HD
ENDBRANCH   2  22
BRANCH   6  24
ATOM     24  O   UNL     1     -17.300 -18.780 -36.218  1.00  0.00    -0.507 OA
ATOM     25  H   UNL     1     -16.984 -19.718 -36.408  1.00  0.00     0.293 HD
ENDBRANCH   6  24
BRANCH   8  26
ATOM     26  O   UNL     1     -19.517 -14.589 -36.968  1.00  0.00    -0.508 OA
ATOM     27  H   UNL     1     -19.132 -14.214 -36.108  1.00  0.00     0.293 HD
ENDBRANCH   8  26
TORSDOF 6
ENDMDL
MODEL 4
REMARK VINA RESULT:    -7.001      3.253      5.414
REMARK INTER + INTRA:          -8.725
REMARK INTER:                  -8.394
REMARK INTRA:                  -0.331
REMARK UNBOUND:                -0.292
REMARK SMILES O=c1c(O)c(-c2ccc(O)c(O)c2)oc2cc(O)cc(O)c12
REMARK SMILES IDX 5 1 3 2 2 3 1 4 22 5 20 6 19 7 17 8 16 9 15 10 14 11 6 12
REMARK SMILES IDX 7 13 8 14 9 15 13 16 11 17 10 18 12 20 4 22 21 24 18 26
REMARK H PARENT 10 19 12 21 4 23 21 25 18 27
REMARK Flexibility Score: inf
ROOT
ATOM      1  C   UNL     1     -20.033 -15.144 -43.250  1.00  0.00     0.180 A 
ATOM      2  C   UNL     1     -20.565 -15.591 -44.471  1.00  0.00     0.208 A 
ATOM      3  C   UNL     1     -20.617 -16.971 -44.725  1.00  0.00     0.238 A 
ATOM      4  O   UNL     1     -21.163 -17.367 -45.788  1.00  0.00    -0.285 OA
ATOM      5  C   UNL     1     -20.086 -17.883 -43.782  1.00  0.00     0.111 A 
ATOM      6  C   UNL     1     -20.045 -19.300 -43.956  1.00  0.00     0.134 A 
ATOM      7  C   UNL     1     -19.593 -20.112 -42.908  1.00  0.00     0.093 A 
ATOM      8  C   UNL     1     -19.120 -19.554 -41.717  1.00  0.00     0.123 A 
ATOM      9  C   UNL     1     -19.105 -18.171 -41.559  1.00  0.00     0.094 A 
ATOM     10  C   UNL     1     -19.585 -17.337 -42.571  1.00  0.00     0.146 A 
ATOM     11  O   UNL     1     -19.572 -16.025 -42.370  1.00  0.00    -0.452 OA
ENDROOT
BRANCH   1  12
ATOM     12  C   UNL     1     -19.957 -13.707 -42.902  1.00  0.00     0.025 A 
ATOM     13  C   UNL     1     -21.007 -13.060 -42.231  1.00  0.00     0.016 A 
ATOM     14  C   UNL     1     -20.902 -11.709 -41.893  1.00  0.00     0.051 A 
ATOM     15  C   UNL     1     -19.747 -10.982 -42.203  1.00  0.00     0.157 A 
ATOM     16  C   UNL     1     -18.788 -12.986 -43.194  1.00  0.00     0.062 A 
ATOM     17  C   UNL     1     -18.673 -11.631 -42.858  1.00  0.00     0.158 A 
BRANCH  15  18
ATOM     18  O   UNL     1     -19.707  -9.635 -41.840  1.00  0.00    -0.504 OA
ATOM     19  H   UNL     1     -19.735  -8.871 -42.501  1.00  0.00     0.293 HD
ENDBRANCH  15  18
BRANCH  17  20
ATOM     20  O   UNL     1     -17.487 -10.974 -43.191  1.00  0.00    -0.504 OA
ATOM     21  H   UNL     1     -17.445 -10.120 -43.726  1.00  0.00     0.293 HD
ENDBRANCH  17  20
ENDBRANCH   1  12
BRANCH   2  22
ATOM     22  O   UNL     1     -21.014 -14.671 -45.422  1.00  0.00    -0.502 OA
ATOM     23  H   UNL     1     -20.687 -14.676 -46.380  1.00  0.00     0.293 HD
ENDBRANCH   2  22
BRANCH   6  24
ATOM     24  O   UNL     1     -20.410 -19.955 -45.136  1.00  0.00    -0.507 OA
ATOM     25  H   UNL     1     -19.801 -20.106 -45.925  1.00  0.00     0.293 HD
ENDBRANCH   6  24
BRANCH   8  26
ATOM     26  O   UNL     1     -18.656 -20.369 -40.687  1.00  0.00    -0.508 OA
ATOM     27  H   UNL     1     -17.962 -20.042 -40.024  1.00  0.00     0.293 HD
ENDBRANCH   8  26
TORSDOF 6
ENDMDL
MODEL 5
REMARK VINA RESULT:    -6.751      1.474      3.260
REMARK INTER + INTRA:          -8.425
REMARK INTER:                  -8.294
REMARK INTRA:                  -0.130
REMARK UNBOUND:                -0.292
REMARK SMILES O=c1c(O)c(-c2ccc(O)c(O)c2)oc2cc(O)cc(O)c12
REMARK SMILES IDX 5 1 3 2 2 3 1 4 22 5 20 6 19 7 17 8 16 9 15 10 14 11 6 12
REMARK SMILES IDX 7 13 8 14 9 15 13 16 11 17 10 18 12 20 4 22 21 24 18 26
REMARK H PARENT 10 19 12 21 4 23 21 25 18 27
REMARK Flexibility Score: inf
ROOT
ATOM      1  C   UNL     1     -20.160 -11.994 -40.863  1.00  0.00     0.180 A 
ATOM      2  C   UNL     1     -20.145 -13.207 -41.573  1.00  0.00     0.208 A 
ATOM      3  C   UNL     1     -20.504 -13.206 -42.930  1.00  0.00     0.238 A 
ATOM      4  O   UNL     1     -20.416 -14.282 -43.577  1.00  0.00    -0.285 OA
ATOM      5  C   UNL     1     -20.930 -12.004 -43.546  1.00  0.00     0.111 A 
ATOM      6  C   UNL     1     -21.360 -11.896 -44.903  1.00  0.00     0.134 A 
ATOM      7  C   UNL     1     -21.657 -10.634 -45.435  1.00  0.00     0.093 A 
ATOM      8  C   UNL     1     -21.600  -9.486 -44.640  1.00  0.00     0.123 A 
ATOM      9  C   UNL     1     -21.234  -9.589 -43.301  1.00  0.00     0.094 A 
ATOM     10  C   UNL     1     -20.896 -10.828 -42.752  1.00  0.00     0.146 A 
ATOM     11  O   UNL     1     -20.532 -10.877 -41.476  1.00  0.00    -0.452 OA
ENDROOT
BRANCH   1  12
ATOM     12  C   UNL     1     -19.780 -11.912 -39.434  1.00  0.00     0.025 A 
ATOM     13  C   UNL     1     -18.702 -11.119 -39.008  1.00  0.00     0.016 A 
ATOM     14  C   UNL     1     -18.379 -11.038 -37.652  1.00  0.00     0.051 A 
ATOM     15  C   UNL     1     -19.128 -11.732 -36.696  1.00  0.00     0.157 A 
ATOM     16  C   UNL     1     -20.548 -12.590 -38.474  1.00  0.00     0.062 A 
ATOM     17  C   UNL     1     -20.231 -12.515 -37.113  1.00  0.00     0.158 A 
BRANCH  15  18
ATOM     18  O   UNL     1     -18.749 -11.612 -35.358  1.00  0.00    -0.504 OA
ATOM     19  H   UNL     1     -18.144 -12.266 -34.881  1.00  0.00     0.293 HD
ENDBRANCH  15  18
BRANCH  17  20
ATOM     20  O   UNL     1     -21.030 -13.228 -36.216  1.00  0.00    -0.504 OA
ATOM     21  H   UNL     1     -21.991 -13.482 -36.394  1.00  0.00     0.293 HD
ENDBRANCH  17  20
ENDBRANCH   1  12
BRANCH   2  22
ATOM     22  O   UNL     1     -19.796 -14.396 -40.926  1.00  0.00    -0.502 OA
ATOM     23  H   UNL     1     -19.624 -14.442 -39.929  1.00  0.00     0.293 HD
ENDBRANCH   2  22
BRANCH   6  24
ATOM     24  O   UNL     1     -21.537 -12.987 -45.759  1.00  0.00    -0.507 OA
ATOM     25  H   UNL     1     -20.949 -13.203 -46.549  1.00  0.00     0.293 HD
ENDBRANCH   6  24
BRANCH   8  26
ATOM     26  O   UNL     1     -21.914  -8.238 -45.173  1.00  0.00    -0.508 OA
ATOM     27  H   UNL     1     -21.348  -7.813 -45.898  1.00  0.00     0.293 HD
ENDBRANCH   8  26
TORSDOF 6
ENDMDL
MODEL 6
REMARK VINA RESULT:    -6.704      2.009      6.502
REMARK INTER + INTRA:          -8.368
REMARK INTER:                  -8.051
REMARK INTRA:                  -0.317
REMARK UNBOUND:                -0.292
REMARK SMILES O=c1c(O)c(-c2ccc(O)c(O)c2)oc2cc(O)cc(O)c12
REMARK SMILES IDX 5 1 3 2 2 3 1 4 22 5 20 6 19 7 17 8 16 9 15 10 14 11 6 12
REMARK SMILES IDX 7 13 8 14 9 15 13 16 11 17 10 18 12 20 4 22 21 24 18 26
REMARK H PARENT 10 19 12 21 4 23 21 25 18 27
REMARK Flexibility Score: inf
ROOT
ATOM      1  C   UNL     1     -20.016 -14.804 -43.384  1.00  0.00     0.180 A 
ATOM      2  C   UNL     1     -20.294 -13.819 -44.348  1.00  0.00     0.208 A 
ATOM      3  C   UNL     1     -20.427 -12.483 -43.936  1.00  0.00     0.238 A 
ATOM      4  O   UNL     1     -20.602 -11.598 -44.813  1.00  0.00    -0.285 OA
ATOM      5  C   UNL     1     -20.337 -12.156 -42.562  1.00  0.00     0.111 A 
ATOM      6  C   UNL     1     -20.500 -10.841 -42.028  1.00  0.00     0.134 A 
ATOM      7  C   UNL     1     -20.283 -10.619 -40.662  1.00  0.00     0.093 A 
ATOM      8  C   UNL     1     -19.971 -11.674 -39.801  1.00  0.00     0.123 A 
ATOM      9  C   UNL     1     -19.863 -12.968 -40.303  1.00  0.00     0.094 A 
ATOM     10  C   UNL     1     -20.037 -13.216 -41.667  1.00  0.00     0.146 A 
ATOM     11  O   UNL     1     -19.904 -14.461 -42.106  1.00  0.00    -0.452 OA
ENDROOT
BRANCH   1  12
ATOM     12  C   UNL     1     -19.848 -16.231 -43.741  1.00  0.00     0.025 A 
ATOM     13  C   UNL     1     -18.574 -16.794 -43.922  1.00  0.00     0.016 A 
ATOM     14  C   UNL     1     -18.440 -18.149 -44.234  1.00  0.00     0.051 A 
ATOM     15  C   UNL     1     -19.568 -18.968 -44.359  1.00  0.00     0.157 A 
ATOM     16  C   UNL     1     -20.979 -17.056 -43.844  1.00  0.00     0.062 A 
ATOM     17  C   UNL     1     -20.854 -18.415 -44.157  1.00  0.00     0.158 A 
BRANCH  15  18
ATOM     18  O   UNL     1     -19.365 -20.313 -44.677  1.00  0.00    -0.504 OA
ATOM     19  H   UNL     1     -18.463 -20.711 -44.894  1.00  0.00     0.293 HD
ENDBRANCH  15  18
BRANCH  17  20
ATOM     20  O   UNL     1     -22.024 -19.171 -44.256  1.00  0.00    -0.504 OA
ATOM     21  H   UNL     1     -22.611 -19.199 -45.076  1.00  0.00     0.293 HD
ENDBRANCH  17  20
ENDBRANCH   1  12
BRANCH   2  22
ATOM     22  O   UNL     1     -20.456 -14.174 -45.690  1.00  0.00    -0.502 OA
ATOM     23  H   UNL     1     -20.430 -13.493 -46.439  1.00  0.00     0.293 HD
ENDBRANCH   2  22
BRANCH   6  24
ATOM     24  O   UNL     1     -20.896  -9.733 -42.782  1.00  0.00    -0.507 OA
ATOM     25  H   UNL     1     -20.974  -8.792 -42.429  1.00  0.00     0.293 HD
ENDBRANCH   6  24
BRANCH   8  26
ATOM     26  O   UNL     1     -19.774 -11.447 -38.441  1.00  0.00    -0.508 OA
ATOM     27  H   UNL     1     -19.807 -12.203 -37.766  1.00  0.00     0.293 HD
ENDBRANCH   8  26
TORSDOF 6
ENDMDL
MODEL 7
REMARK VINA RESULT:    -6.698      2.096      6.695
REMARK INTER + INTRA:          -8.361
REMARK INTER:                  -8.152
REMARK INTRA:                  -0.209
REMARK UNBOUND:                -0.292
REMARK SMILES O=c1c(O)c(-c2ccc(O)c(O)c2)oc2cc(O)cc(O)c12
REMARK SMILES IDX 5 1 3 2 2 3 1 4 22 5 20 6 19 7 17 8 16 9 15 10 14 11 6 12
REMARK SMILES IDX 7 13 8 14 9 15 13 16 11 17 10 18 12 20 4 22 21 24 18 26
REMARK H PARENT 10 19 12 21 4 23 21 25 18 27
REMARK Flexibility Score: inf
ROOT
ATOM      1  C   UNL     1     -20.257 -15.030 -43.534  1.00  0.00     0.180 A 
ATOM      2  C   UNL     1     -20.826 -14.192 -44.510  1.00  0.00     0.208 A 
ATOM      3  C   UNL     1     -20.990 -12.828 -44.222  1.00  0.00     0.238 A 
ATOM      4  O   UNL     1     -21.430 -12.071 -45.127  1.00  0.00    -0.285 OA
ATOM      5  C   UNL     1     -20.639 -12.329 -42.945  1.00  0.00     0.111 A 
ATOM      6  C   UNL     1     -20.805 -10.972 -42.530  1.00  0.00     0.134 A 
ATOM      7  C   UNL     1     -20.323 -10.569 -41.278  1.00  0.00     0.093 A 
ATOM      8  C   UNL     1     -19.738 -11.487 -40.402  1.00  0.00     0.123 A 
ATOM      9  C   UNL     1     -19.621 -12.823 -40.776  1.00  0.00     0.094 A 
ATOM     10  C   UNL     1     -20.058 -13.248 -42.033  1.00  0.00     0.146 A 
ATOM     11  O   UNL     1     -19.907 -14.526 -42.357  1.00  0.00    -0.452 OA
ENDROOT
BRANCH   1  12
ATOM     12  C   UNL     1     -20.038 -16.476 -43.767  1.00  0.00     0.025 A 
ATOM     13  C   UNL     1     -20.820 -17.447 -43.123  1.00  0.00     0.016 A 
ATOM     14  C   UNL     1     -20.610 -18.804 -43.377  1.00  0.00     0.051 A 
ATOM     15  C   UNL     1     -19.630 -19.218 -44.286  1.00  0.00     0.157 A 
ATOM     16  C   UNL     1     -19.069 -16.887 -44.696  1.00  0.00     0.062 A 
ATOM     17  C   UNL     1     -18.851 -18.245 -44.957  1.00  0.00     0.158 A 
BRANCH  15  18
ATOM     18  O   UNL     1     -19.468 -20.589 -44.491  1.00  0.00    -0.504 OA
ATOM     19  H   UNL     1     -18.743 -21.143 -44.058  1.00  0.00     0.293 HD
ENDBRANCH  15  18
BRANCH  17  20
ATOM     20  O   UNL     1     -17.861 -18.581 -45.883  1.00  0.00    -0.504 OA
ATOM     21  H   UNL     1     -17.332 -17.906 -46.415  1.00  0.00     0.293 HD
ENDBRANCH  17  20
ENDBRANCH   1  12
BRANCH   2  22
ATOM     22  O   UNL     1     -21.237 -14.720 -45.737  1.00  0.00    -0.502 OA
ATOM     23  H   UNL     1     -22.185 -15.035 -45.903  1.00  0.00     0.293 HD
ENDBRANCH   2  22
BRANCH   6  24
ATOM     24  O   UNL     1     -21.454  -9.994 -43.289  1.00  0.00    -0.507 OA
ATOM     25  H   UNL     1     -21.604  -9.041 -42.998  1.00  0.00     0.293 HD
ENDBRANCH   6  24
BRANCH   8  26
ATOM     26  O   UNL     1     -19.276 -11.081 -39.152  1.00  0.00    -0.508 OA
ATOM     27  H   UNL     1     -19.909 -10.943 -38.372  1.00  0.00     0.293 HD
ENDBRANCH   8  26
TORSDOF 6
ENDMDL
MODEL 8
REMARK VINA RESULT:    -6.490      5.571      6.591
REMARK INTER + INTRA:          -8.110
REMARK INTER:                  -7.782
REMARK INTRA:                  -0.328
REMARK UNBOUND:                -0.292
REMARK SMILES O=c1c(O)c(-c2ccc(O)c(O)c2)oc2cc(O)cc(O)c12
REMARK SMILES IDX 5 1 3 2 2 3 1 4 22 5 20 6 19 7 17 8 16 9 15 10 14 11 6 12
REMARK SMILES IDX 7 13 8 14 9 15 13 16 11 17 10 18 12 20 4 22 21 24 18 26
REMARK H PARENT 10 19 12 21 4 23 21 25 18 27
REMARK Flexibility Score: inf
ROOT
ATOM      1  C   UNL     1     -19.620 -18.659 -42.081  1.00  0.00     0.180 A 
ATOM      2  C   UNL     1     -18.850 -18.151 -43.141  1.00  0.00     0.208 A 
ATOM      3  C   UNL     1     -19.372 -18.195 -44.444  1.00  0.00     0.238 A 
ATOM      4  O   UNL     1     -18.709 -17.670 -45.376  1.00  0.00    -0.285 OA
ATOM      5  C   UNL     1     -20.632 -18.797 -44.679  1.00  0.00     0.111 A 
ATOM      6  C   UNL     1     -21.237 -18.937 -45.965  1.00  0.00     0.134 A 
ATOM      7  C   UNL     1     -22.535 -19.454 -46.064  1.00  0.00     0.093 A 
ATOM      8  C   UNL     1     -23.224 -19.895 -44.931  1.00  0.00     0.123 A 
ATOM      9  C   UNL     1     -22.620 -19.813 -43.679  1.00  0.00     0.094 A 
ATOM     10  C   UNL     1     -21.342 -19.267 -43.543  1.00  0.00     0.146 A 
ATOM     11  O   UNL     1     -20.813 -19.189 -42.329  1.00  0.00    -0.452 OA
ENDROOT
BRANCH   1  12
ATOM     12  C   UNL     1     -19.145 -18.636 -40.679  1.00  0.00     0.025 A 
ATOM     13  C   UNL     1     -19.331 -17.509 -39.863  1.00  0.00     0.016 A 
ATOM     14  C   UNL     1     -18.895 -17.519 -38.536  1.00  0.00     0.051 A 
ATOM     15  C   UNL     1     -18.281 -18.654 -37.994  1.00  0.00     0.157 A 
ATOM     16  C   UNL     1     -18.549 -19.783 -40.132  1.00  0.00     0.062 A 
ATOM     17  C   UNL     1     -18.110 -19.803 -38.803  1.00  0.00     0.158 A 
BRANCH  15  18
ATOM     18  O   UNL     1     -17.865 -18.598 -36.663  1.00  0.00    -0.504 OA
ATOM     19  H   UNL     1     -18.361 -18.100 -35.937  1.00  0.00     0.293 HD
ENDBRANCH  15  18
BRANCH  17  20
ATOM     20  O   UNL     1     -17.514 -20.974 -38.330  1.00  0.00    -0.504 OA
ATOM     21  H   UNL     1     -16.614 -21.006 -37.873  1.00  0.00     0.293 HD
ENDBRANCH  17  20
ENDBRANCH   1  12
BRANCH   2  22
ATOM     22  O   UNL     1     -17.576 -17.630 -42.898  1.00  0.00    -0.502 OA
ATOM     23  H   UNL     1     -17.426 -16.667 -42.622  1.00  0.00     0.293 HD
ENDBRANCH   2  22
BRANCH   6  24
ATOM     24  O   UNL     1     -20.605 -18.610 -47.169  1.00  0.00    -0.507 OA
ATOM     25  H   UNL     1     -20.524 -19.225 -47.964  1.00  0.00     0.293 HD
ENDBRANCH   6  24
BRANCH   8  26
ATOM     26  O   UNL     1     -24.508 -20.425 -45.041  1.00  0.00    -0.508 OA
ATOM     27  H   UNL     1     -25.030 -20.722 -44.226  1.00  0.00     0.293 HD
ENDBRANCH   8  26
TORSDOF 6
ENDMDL
MODEL 9
REMARK VINA RESULT:    -6.241      3.094      7.139
REMARK INTER + INTRA:          -7.810
REMARK INTER:                  -7.492
REMARK INTRA:                  -0.318
REMARK UNBOUND:                -0.292
REMARK SMILES O=c1c(O)c(-c2ccc(O)c(O)c2)oc2cc(O)cc(O)c12
REMARK SMILES IDX 5 1 3 2 2 3 1 4 22 5 20 6 19 7 17 8 16 9 15 10 14 11 6 12
REMARK SMILES IDX 7 13 8 14 9 15 13 16 11 17 10 18 12 20 4 22 21 24 18 26
REMARK H PARENT 10 19 12 21 4 23 21 25 18 27
REMARK Flexibility Score: inf
ROOT
ATOM      1  C   UNL     1     -20.598 -14.397 -44.173  1.00  0.00     0.180 A 
ATOM      2  C   UNL     1     -20.147 -14.188 -42.858  1.00  0.00     0.208 A 
ATOM      3  C   UNL     1     -20.097 -12.877 -42.357  1.00  0.00     0.238 A 
ATOM      4  O   UNL     1     -19.763 -12.705 -41.156  1.00  0.00    -0.285 OA
ATOM      5  C   UNL     1     -20.444 -11.788 -43.193  1.00  0.00     0.111 A 
ATOM      6  C   UNL     1     -20.387 -10.415 -42.803  1.00  0.00     0.134 A 
ATOM      7  C   UNL     1     -20.857  -9.429 -43.679  1.00  0.00     0.093 A 
ATOM      8  C   UNL     1     -21.322  -9.760 -44.954  1.00  0.00     0.123 A 
ATOM      9  C   UNL     1     -21.330 -11.091 -45.364  1.00  0.00     0.094 A 
ATOM     10  C   UNL     1     -20.904 -12.101 -44.499  1.00  0.00     0.146 A 
ATOM     11  O   UNL     1     -20.949 -13.358 -44.922  1.00  0.00    -0.452 OA
ENDROOT
BRANCH   1  12
ATOM     12  C   UNL     1     -20.693 -15.750 -44.768  1.00  0.00     0.025 A 
ATOM     13  C   UNL     1     -21.907 -16.454 -44.794  1.00  0.00     0.016 A 
ATOM     14  C   UNL     1     -21.977 -17.718 -45.383  1.00  0.00     0.051 A 
ATOM     15  C   UNL     1     -20.845 -18.298 -45.967  1.00  0.00     0.157 A 
ATOM     16  C   UNL     1     -19.562 -16.319 -45.373  1.00  0.00     0.062 A 
ATOM     17  C   UNL     1     -19.621 -17.586 -45.966  1.00  0.00     0.158 A 
BRANCH  15  18
ATOM     18  O   UNL     1     -20.981 -19.566 -46.535  1.00  0.00    -0.504 OA
ATOM     19  H   UNL     1     -21.854 -20.072 -46.583  1.00  0.00     0.293 HD
ENDBRANCH  15  18
BRANCH  17  20
ATOM     20  O   UNL     1     -18.453 -18.096 -46.536  1.00  0.00    -0.504 OA
ATOM     21  H   UNL     1     -18.080 -17.795 -47.425  1.00  0.00     0.293 HD
ENDBRANCH  17  20
ENDBRANCH   1  12
BRANCH   2  22
ATOM     22  O   UNL     1     -19.736 -15.270 -42.075  1.00  0.00    -0.502 OA
ATOM     23  H   UNL     1     -20.377 -15.986 -41.759  1.00  0.00     0.293 HD
ENDBRANCH   2  22
BRANCH   6  24
ATOM     24  O   UNL     1     -19.860  -9.967 -41.588  1.00  0.00    -0.507 OA
ATOM     25  H   UNL     1     -19.460  -9.055 -41.433  1.00  0.00     0.293 HD
ENDBRANCH   6  24
BRANCH   8  26
ATOM     26  O   UNL     1     -21.771  -8.771 -45.826  1.00  0.00    -0.508 OA
ATOM     27  H   UNL     1     -22.739  -8.470 -45.834  1.00  0.00     0.293 HD
ENDBRANCH   8  26
TORSDOF 6
ENDMDL
