MODEL 1
REMARK VINA RESULT:    -1.875      0.000      0.000
REMARK INTER + INTRA:          -1.875
REMARK INTER:                  -1.875
REMARK INTRA:                   0.000
REMARK UNBOUND:                 0.000
REMARK SMILES CC(=O)[O-]
REMARK SMILES IDX 1 1 2 2 3 3 4 4
REMARK H PARENT
REMARK Flexibility Score: inf
ROOT
ATOM      1  C   UNL     1     -46.598 -49.991  37.136  1.00  0.00     0.063 C 
ATOM      2  C   UNL     1     -46.460 -48.509  37.212  1.00  0.00     0.038 C 
ATOM      3  O   UNL     1     -47.439 -47.768  36.936  1.00  0.00    -0.550 OA
ATOM      4  O   UNL     1     -45.234 -47.939  37.533  1.00  0.00    -0.550 OA
ENDROOT
TORSDOF 0
ENDMDL
MODEL 2
REMARK VINA RESULT:    -1.851      3.840      4.383
REMARK INTER + INTRA:          -1.851
REMARK INTER:                  -1.851
REMARK INTRA:                   0.000
REMARK UNBOUND:                 0.000
REMARK SMILES CC(=O)[O-]
REMARK SMILES IDX 1 1 2 2 3 3 4 4
REMARK H PARENT
REMARK Flexibility Score: inf
ROOT
ATOM      1  C   UNL     1     -42.260 -47.822  34.287  1.00  0.00     0.063 C 
ATOM      2  C   UNL     1     -43.139 -48.539  35.254  1.00  0.00     0.038 C 
ATOM      3  O   UNL     1     -43.226 -48.140  36.445  1.00  0.00    -0.550 OA
ATOM      4  O   UNL     1     -43.823 -49.683  34.859  1.00  0.00    -0.550 OA
ENDROOT
TORSDOF 0
ENDMDL
MODEL 3
REMARK VINA RESULT:    -1.838      4.700      5.071
REMARK INTER + INTRA:          -1.838
REMARK INTER:                  -1.838
REMARK INTRA:                   0.000
REMARK UNBOUND:                 0.000
REMARK SMILES CC(=O)[O-]
REMARK SMILES IDX 1 1 2 2 3 3 4 4
REMARK H PARENT
REMARK Flexibility Score: inf
ROOT
ATOM      1  C   UNL     1     -42.267 -47.869  34.302  1.00  0.00     0.063 C 
ATOM      2  C   UNL     1     -43.082 -49.087  34.028  1.00  0.00     0.038 C 
ATOM      3  O   UNL     1     -43.101 -49.588  32.873  1.00  0.00    -0.550 OA
ATOM      4  O   UNL     1     -43.866 -49.642  35.032  1.00  0.00    -0.550 OA
ENDROOT
TORSDOF 0
ENDMDL
MODEL 4
REMARK VINA RESULT:    -1.820      5.513      6.193
REMARK INTER + INTRA:          -1.820
REMARK INTER:                  -1.820
REMARK INTRA:                   0.000
REMARK UNBOUND:                 0.000
REMARK SMILES CC(=O)[O-]
REMARK SMILES IDX 1 1 2 2 3 3 4 4
REMARK H PARENT
REMARK Flexibility Score: inf
ROOT
ATOM      1  C   UNL     1     -41.931 -44.563  41.198  1.00  0.00     0.063 C 
ATOM      2  C   UNL     1     -42.697 -45.450  40.277  1.00  0.00     0.038 C 
ATOM      3  O   UNL     1     -42.089 -46.249  39.517  1.00  0.00    -0.550 OA
ATOM      4  O   UNL     1     -44.082 -45.360  40.214  1.00  0.00    -0.550 OA
ENDROOT
TORSDOF 0
ENDMDL
MODEL 5
REMARK VINA RESULT:    -1.816      5.496      5.972
REMARK INTER + INTRA:          -1.816
REMARK INTER:                  -1.816
REMARK INTRA:                   0.000
REMARK UNBOUND:                 0.000
REMARK SMILES CC(=O)[O-]
REMARK SMILES IDX 1 1 2 2 3 3 4 4
REMARK H PARENT
REMARK Flexibility Score: inf
ROOT
ATOM      1  C   UNL     1     -41.982 -44.579  41.167  1.00  0.00     0.063 C 
ATOM      2  C   UNL     1     -42.823 -45.398  40.249  1.00  0.00     0.038 C 
ATOM      3  O   UNL     1     -44.073 -45.248  40.233  1.00  0.00    -0.550 OA
ATOM      4  O   UNL     1     -42.236 -46.370  39.447  1.00  0.00    -0.550 OA
ENDROOT
TORSDOF 0
ENDMDL
MODEL 6
REMARK VINA RESULT:    -1.763      1.867      2.045
REMARK INTER + INTRA:          -1.763
REMARK INTER:                  -1.763
REMARK INTRA:                   0.000
REMARK UNBOUND:                 0.000
REMARK SMILES CC(=O)[O-]
REMARK SMILES IDX 1 1 2 2 3 3 4 4
REMARK H PARENT
REMARK Flexibility Score: inf
ROOT
ATOM      1  C   UNL     1     -45.081 -49.408  36.575  1.00  0.00     0.063 C 
ATOM      2  C   UNL     1     -46.499 -49.604  36.989  1.00  0.00     0.038 C 
ATOM      3  O   UNL     1     -47.259 -48.611  37.132  1.00  0.00    -0.550 OA
ATOM      4  O   UNL     1     -46.973 -50.880  37.271  1.00  0.00    -0.550 OA
ENDROOT
TORSDOF 0
ENDMDL
MODEL 7
REMARK VINA RESULT:    -1.745      5.530      6.039
REMARK INTER + INTRA:          -1.745
REMARK INTER:                  -1.745
REMARK INTRA:                   0.000
REMARK UNBOUND:                 0.000
REMARK SMILES CC(=O)[O-]
REMARK SMILES IDX 1 1 2 2 3 3 4 4
REMARK H PARENT
REMARK Flexibility Score: inf
ROOT
ATOM      1  C   UNL     1     -41.955 -46.332  39.793  1.00  0.00     0.063 C 
ATOM      2  C   UNL     1     -42.714 -45.298  40.552  1.00  0.00     0.038 C 
ATOM      3  O   UNL     1     -43.890 -45.003  40.216  1.00  0.00    -0.550 OA
ATOM      4  O   UNL     1     -42.106 -44.617  41.600  1.00  0.00    -0.550 OA
ENDROOT
TORSDOF 0
ENDMDL
MODEL 8
REMARK VINA RESULT:    -1.704      6.513      7.013
REMARK INTER + INTRA:          -1.704
REMARK INTER:                  -1.704
REMARK INTRA:                   0.000
REMARK UNBOUND:                 0.000
REMARK SMILES CC(=O)[O-]
REMARK SMILES IDX 1 1 2 2 3 3 4 4
REMARK H PARENT
REMARK Flexibility Score: inf
ROOT
ATOM      1  C   UNL     1     -43.268 -45.062  40.398  1.00  0.00     0.063 C 
ATOM      2  C   UNL     1     -41.882 -44.969  40.940  1.00  0.00     0.038 C 
ATOM      3  O   UNL     1     -41.624 -44.178  41.884  1.00  0.00    -0.550 OA
ATOM      4  O   UNL     1     -40.859 -45.714  40.367  1.00  0.00    -0.550 OA
ENDROOT
TORSDOF 0
ENDMDL
MODEL 9
REMARK VINA RESULT:    -1.649      2.608      3.068
REMARK INTER + INTRA:          -1.649
REMARK INTER:                  -1.649
REMARK INTRA:                   0.000
REMARK UNBOUND:                 0.000
REMARK SMILES CC(=O)[O-]
REMARK SMILES IDX 1 1 2 2 3 3 4 4
REMARK H PARENT
REMARK Flexibility Score: inf
ROOT
ATOM      1  C   UNL     1     -47.261 -52.511  37.192  1.00  0.00     0.063 C 
ATOM      2  C   UNL     1     -46.845 -51.177  37.712  1.00  0.00     0.038 C 
ATOM      3  O   UNL     1     -46.469 -51.054  38.907  1.00  0.00    -0.550 OA
ATOM      4  O   UNL     1     -46.922 -50.055  36.896  1.00  0.00    -0.550 OA
ENDROOT
TORSDOF 0
ENDMDL
