MODEL 1
REMARK VINA RESULT:    -3.476      0.000      0.000
REMARK INTER + INTRA:          -3.767
REMARK INTER:                  -3.679
REMARK INTRA:                  -0.088
REMARK UNBOUND:                -0.088
REMARK SMILES C=C(C)[C@@H]1CC=C(C)C(=O)C1
REMARK SMILES IDX 8 1 7 2 6 3 5 4 4 5 11 6 9 7 10 8 2 9 1 10 3 11
REMARK H PARENT
REMARK Flexibility Score: inf
ROOT
ATOM      1  C   UNL     1     -30.186  43.100 -26.930  1.00  0.00     0.048 C 
ATOM      2  C   UNL     1     -30.629  41.959 -26.058  1.00  0.00    -0.012 C 
ATOM      3  C   UNL     1     -31.638  41.167 -26.455  1.00  0.00    -0.019 C 
ATOM      4  C   UNL     1     -32.125  40.005 -25.628  1.00  0.00     0.036 C 
ATOM      5  C   UNL     1     -31.021  39.395 -24.734  1.00  0.00     0.025 C 
ATOM      6  C   UNL     1     -30.310  40.505 -23.936  1.00  0.00     0.089 C 
ATOM      7  C   UNL     1     -29.866  41.627 -24.832  1.00  0.00     0.158 C 
ATOM      8  O   UNL     1     -28.859  42.312 -24.505  1.00  0.00    -0.295 OA
ENDROOT
BRANCH   5   9
ATOM      9  C   UNL     1     -30.018  38.512 -25.479  1.00  0.00    -0.077 C 
ATOM     10  C   UNL     1     -30.482  37.534 -26.275  1.00  0.00     0.008 C 
ATOM     11  C   UNL     1     -28.524  38.663 -25.295  1.00  0.00     0.039 C 
ENDBRANCH   5   9
TORSDOF 1
ENDMDL
MODEL 2
REMARK VINA RESULT:    -3.373      1.790      4.032
REMARK INTER + INTRA:          -3.658
REMARK INTER:                  -3.523
REMARK INTRA:                  -0.135
REMARK UNBOUND:                -0.088
REMARK SMILES C=C(C)[C@@H]1CC=C(C)C(=O)C1
REMARK SMILES IDX 8 1 7 2 6 3 5 4 4 5 11 6 9 7 10 8 2 9 1 10 3 11
REMARK H PARENT
REMARK Flexibility Score: inf
ROOT
ATOM      1  C   UNL     1     -29.469  37.312 -25.965  1.00  0.00     0.048 C 
ATOM      2  C   UNL     1     -29.778  38.639 -25.330  1.00  0.00    -0.012 C 
ATOM      3  C   UNL     1     -28.788  39.516 -25.100  1.00  0.00    -0.019 C 
ATOM      4  C   UNL     1     -29.034  40.864 -24.471  1.00  0.00     0.036 C 
ATOM      5  C   UNL     1     -30.450  41.414 -24.757  1.00  0.00     0.025 C 
ATOM      6  C   UNL     1     -31.511  40.344 -24.433  1.00  0.00     0.089 C 
ATOM      7  C   UNL     1     -31.186  39.031 -25.089  1.00  0.00     0.158 C 
ATOM      8  O   UNL     1     -32.125  38.247 -25.393  1.00  0.00    -0.295 OA
ENDROOT
BRANCH   5   9
ATOM      9  C   UNL     1     -30.638  41.978 -26.167  1.00  0.00    -0.077 C 
ATOM     10  C   UNL     1     -29.688  42.781 -26.675  1.00  0.00     0.008 C 
ATOM     11  C   UNL     1     -31.888  41.715 -26.977  1.00  0.00     0.039 C 
ENDBRANCH   5   9
TORSDOF 1
ENDMDL
MODEL 3
REMARK VINA RESULT:    -3.210     15.260     17.307
REMARK INTER + INTRA:          -3.486
REMARK INTER:                  -3.332
REMARK INTRA:                  -0.154
REMARK UNBOUND:                -0.088
REMARK SMILES C=C(C)[C@@H]1CC=C(C)C(=O)C1
REMARK SMILES IDX 8 1 7 2 6 3 5 4 4 5 11 6 9 7 10 8 2 9 1 10 3 11
REMARK H PARENT
REMARK Flexibility Score: inf
ROOT
ATOM      1  C   UNL     1     -16.669  37.124 -26.021  1.00  0.00     0.048 C 
ATOM      2  C   UNL     1     -15.232  37.408 -26.359  1.00  0.00    -0.012 C 
ATOM      3  C   UNL     1     -14.789  38.676 -26.381  1.00  0.00    -0.019 C 
ATOM      4  C   UNL     1     -13.360  39.026 -26.707  1.00  0.00     0.036 C 
ATOM      5  C   UNL     1     -12.363  37.907 -26.329  1.00  0.00     0.025 C 
ATOM      6  C   UNL     1     -12.843  36.555 -26.891  1.00  0.00     0.089 C 
ATOM      7  C   UNL     1     -14.278  36.287 -26.530  1.00  0.00     0.158 C 
ATOM      8  O   UNL     1     -14.672  35.095 -26.416  1.00  0.00    -0.295 OA
ENDROOT
BRANCH   5   9
ATOM      9  C   UNL     1     -12.054  37.811 -24.834  1.00  0.00    -0.077 C 
ATOM     10  C   UNL     1     -11.875  38.946 -24.136  1.00  0.00     0.008 C 
ATOM     11  C   UNL     1     -11.877  36.483 -24.133  1.00  0.00     0.039 C 
ENDBRANCH   5   9
TORSDOF 1
ENDMDL
MODEL 4
REMARK VINA RESULT:    -2.522     16.189     18.283
REMARK INTER + INTRA:          -2.757
REMARK INTER:                  -2.652
REMARK INTRA:                  -0.105
REMARK UNBOUND:                -0.088
REMARK SMILES C=C(C)[C@@H]1CC=C(C)C(=O)C1
REMARK SMILES IDX 8 1 7 2 6 3 5 4 4 5 11 6 9 7 10 8 2 9 1 10 3 11
REMARK H PARENT
REMARK Flexibility Score: inf
ROOT
ATOM      1  C   UNL     1     -11.898  35.780 -22.948  1.00  0.00     0.048 C 
ATOM      2  C   UNL     1     -11.898  36.229 -24.383  1.00  0.00    -0.012 C 
ATOM      3  C   UNL     1     -12.024  35.323 -25.366  1.00  0.00    -0.019 C 
ATOM      4  C   UNL     1     -12.037  35.710 -26.823  1.00  0.00     0.036 C 
ATOM      5  C   UNL     1     -12.582  37.135 -27.064  1.00  0.00     0.025 C 
ATOM      6  C   UNL     1     -11.875  38.140 -26.134  1.00  0.00     0.089 C 
ATOM      7  C   UNL     1     -11.899  37.675 -24.704  1.00  0.00     0.158 C 
ATOM      8  O   UNL     1     -11.877  38.531 -23.779  1.00  0.00    -0.295 OA
ENDROOT
BRANCH   5   9
ATOM      9  C   UNL     1     -14.104  37.258 -26.965  1.00  0.00    -0.077 C 
ATOM     10  C   UNL     1     -14.662  38.477 -27.048  1.00  0.00     0.008 C 
ATOM     11  C   UNL     1     -14.992  36.060 -26.709  1.00  0.00     0.039 C 
ENDBRANCH   5   9
TORSDOF 1
ENDMDL
MODEL 5
REMARK VINA RESULT:    -1.244      1.874      3.913
REMARK INTER + INTRA:          -1.405
REMARK INTER:                  -1.542
REMARK INTRA:                   0.137
REMARK UNBOUND:                -0.088
REMARK SMILES C=C(C)[C@@H]1CC=C(C)C(=O)C1
REMARK SMILES IDX 8 1 7 2 6 3 5 4 4 5 11 6 9 7 10 8 2 9 1 10 3 11
REMARK H PARENT
REMARK Flexibility Score: inf
ROOT
ATOM      1  C   UNL     1     -29.911  37.611 -24.374  1.00  0.00     0.048 C 
ATOM      2  C   UNL     1     -30.799  38.745 -24.804  1.00  0.00    -0.012 C 
ATOM      3  C   UNL     1     -31.237  39.632 -23.896  1.00  0.00    -0.019 C 
ATOM      4  C   UNL     1     -32.125  40.793 -24.265  1.00  0.00     0.036 C 
ATOM      5  C   UNL     1     -31.918  41.273 -25.720  1.00  0.00     0.025 C 
ATOM      6  C   UNL     1     -31.981  40.076 -26.688  1.00  0.00     0.089 C 
ATOM      7  C   UNL     1     -31.075  38.961 -26.244  1.00  0.00     0.158 C 
ATOM      8  O   UNL     1     -30.587  38.184 -27.108  1.00  0.00    -0.295 OA
ENDROOT
BRANCH   5   9
ATOM      9  C   UNL     1     -30.653  42.103 -25.940  1.00  0.00    -0.077 C 
ATOM     10  C   UNL     1     -30.580  42.898 -27.021  1.00  0.00     0.008 C 
ATOM     11  C   UNL     1     -29.458  42.008 -25.017  1.00  0.00     0.039 C 
ENDBRANCH   5   9
TORSDOF 1
ENDMDL
