MODEL 1
REMARK VINA RESULT:    -4.322      0.000      0.000
REMARK INTER + INTRA:         -15.827
REMARK INTER:                 -11.397
REMARK INTRA:                  -4.431
REMARK UNBOUND:                -4.431
REMARK SMILES CCCCCCCCCCCCCCCCCCCCCCCCCCCCCC(=O)[O-]
REMARK SMILES IDX 16 1 17 2 18 3 19 4 20 5 21 6 22 7 23 8 24 9 25 10 26 11
REMARK SMILES IDX 27 12 28 13 29 14 30 15 31 16 32 17 15 18 14 19 13 20 12 21
REMARK SMILES IDX 11 22 10 23 9 24 8 25 7 26 6 27 5 28 4 29 3 30 2 31 1 32
REMARK H PARENT
REMARK Flexibility Score: inf
ROOT
ATOM      1  C   UNL     1      -0.016  -1.896   6.123  1.00  0.00     0.000 C 
ENDROOT
BRANCH   1   2
ATOM      2  C   UNL     1       1.197  -1.603   5.228  1.00  0.00     0.000 C 
BRANCH   2   3
ATOM      3  C   UNL     1       2.403  -2.510   5.527  1.00  0.00     0.000 C 
BRANCH   3   4
ATOM      4  C   UNL     1       3.774  -1.803   5.509  1.00  0.00     0.000 C 
BRANCH   4   5
ATOM      5  C   UNL     1       4.396  -1.535   6.895  1.00  0.00     0.000 C 
BRANCH   5   6
ATOM      6  C   UNL     1       3.465  -1.807   8.091  1.00  0.00     0.000 C 
BRANCH   6   7
ATOM      7  C   UNL     1       3.166  -0.550   8.919  1.00  0.00     0.000 C 
BRANCH   7   8
ATOM      8  C   UNL     1       1.651  -0.325   9.037  1.00  0.00     0.000 C 
BRANCH   8   9
ATOM      9  C   UNL     1       1.188   0.988   8.380  1.00  0.00     0.000 C 
BRANCH   9  10
ATOM     10  C   UNL     1       1.964   1.385   7.110  1.00  0.00     0.000 C 
BRANCH  10  11
ATOM     11  C   UNL     1       1.764   2.842   6.647  1.00  0.00     0.000 C 
BRANCH  11  12
ATOM     12  C   UNL     1       0.647   3.608   7.378  1.00  0.00     0.000 C 
BRANCH  12  13
ATOM     13  C   UNL     1       0.741   5.128   7.178  1.00  0.00     0.006 C 
BRANCH  13  14
ATOM     14  C   UNL     1      -0.323   5.618   6.191  1.00  0.00     0.053 C 
BRANCH  14  15
ATOM     15  C   UNL     1       0.276   5.850   4.838  1.00  0.00     0.041 C 
ATOM     16  O   UNL     1       0.221   4.950   3.956  1.00  0.00    -0.550 OA
ATOM     17  O   UNL     1       0.897   7.059   4.550  1.00  0.00    -0.550 OA
ENDBRANCH  14  15
ENDBRANCH  13  14
ENDBRANCH  12  13
ENDBRANCH  11  12
ENDBRANCH  10  11
ENDBRANCH   9  10
ENDBRANCH   8   9
ENDBRANCH   7   8
ENDBRANCH   6   7
ENDBRANCH   5   6
ENDBRANCH   4   5
ENDBRANCH   3   4
ENDBRANCH   2   3
ENDBRANCH   1   2
BRANCH   1  18
ATOM     18  C   UNL     1       0.036  -3.338   6.643  1.00  0.00     0.000 C 
BRANCH  18  19
ATOM     19  C   UNL     1      -0.965  -3.552   7.789  1.00  0.00     0.000 C 
BRANCH  19  20
ATOM     20  C   UNL     1      -2.097  -2.512   7.775  1.00  0.00     0.000 C 
BRANCH  20  21
ATOM     21  C   UNL     1      -3.449  -3.118   7.359  1.00  0.00     0.000 C 
BRANCH  21  22
ATOM     22  C   UNL     1      -4.609  -2.112   7.519  1.00  0.00     0.000 C 
BRANCH  22  23
ATOM     23  C   UNL     1      -4.777  -1.161   6.320  1.00  0.00     0.000 C 
BRANCH  23  24
ATOM     24  C   UNL     1      -5.147  -1.897   5.020  1.00  0.00    -0.000 C 
BRANCH  24  25
ATOM     25  C   UNL     1      -4.275  -1.460   3.827  1.00  0.00    -0.000 C 
BRANCH  25  26
ATOM     26  C   UNL     1      -2.766  -1.679   4.042  1.00  0.00    -0.000 C 
BRANCH  26  27
ATOM     27  C   UNL     1      -2.240  -2.933   3.322  1.00  0.00    -0.000 C 
BRANCH  27  28
ATOM     28  C   UNL     1      -2.641  -4.234   4.048  1.00  0.00    -0.000 C 
BRANCH  28  29
ATOM     29  C   UNL     1      -3.441  -5.216   3.172  1.00  0.00    -0.000 C 
BRANCH  29  30
ATOM     30  C   UNL     1      -3.558  -4.757   1.710  1.00  0.00    -0.000 C 
BRANCH  30  31
ATOM     31  C   UNL     1      -2.814  -5.685   0.736  1.00  0.00    -0.003 C 
ATOM     32  C   UNL     1      -2.320  -4.954  -0.515  1.00  0.00     0.004 C 
ENDBRANCH  30  31
ENDBRANCH  29  30
ENDBRANCH  28  29
ENDBRANCH  27  28
ENDBRANCH  26  27
ENDBRANCH  25  26
ENDBRANCH  24  25
ENDBRANCH  23  24
ENDBRANCH  22  23
ENDBRANCH  21  22
ENDBRANCH  20  21
ENDBRANCH  19  20
ENDBRANCH  18  19
ENDBRANCH   1  18
TORSDOF 28
ENDMDL
MODEL 2
REMARK VINA RESULT:    -4.236      1.480      2.503
REMARK INTER + INTRA:         -15.600
REMARK INTER:                 -10.628
REMARK INTRA:                  -4.972
REMARK UNBOUND:                -4.431
REMARK SMILES CCCCCCCCCCCCCCCCCCCCCCCCCCCCCC(=O)[O-]
REMARK SMILES IDX 16 1 17 2 18 3 19 4 20 5 21 6 22 7 23 8 24 9 25 10 26 11
REMARK SMILES IDX 27 12 28 13 29 14 30 15 31 16 32 17 15 18 14 19 13 20 12 21
REMARK SMILES IDX 11 22 10 23 9 24 8 25 7 26 6 27 5 28 4 29 3 30 2 31 1 32
REMARK H PARENT
REMARK Flexibility Score: inf
ROOT
ATOM      1  C   UNL     1       0.365  -2.107   5.840  1.00  0.00     0.000 C 
ENDROOT
BRANCH   1   2
ATOM      2  C   UNL     1       1.587  -1.383   5.255  1.00  0.00     0.000 C 
BRANCH   2   3
ATOM      3  C   UNL     1       2.820  -2.292   5.118  1.00  0.00     0.000 C 
BRANCH   3   4
ATOM      4  C   UNL     1       4.095  -1.776   5.818  1.00  0.00     0.000 C 
BRANCH   4   5
ATOM      5  C   UNL     1       4.294  -2.259   7.269  1.00  0.00     0.000 C 
BRANCH   5   6
ATOM      6  C   UNL     1       3.896  -1.242   8.355  1.00  0.00     0.000 C 
BRANCH   6   7
ATOM      7  C   UNL     1       2.497  -1.493   8.932  1.00  0.00     0.000 C 
BRANCH   7   8
ATOM      8  C   UNL     1       1.609  -0.251   8.761  1.00  0.00     0.000 C 
BRANCH   8   9
ATOM      9  C   UNL     1       2.330   0.909   8.054  1.00  0.00     0.000 C 
BRANCH   9  10
ATOM     10  C   UNL     1       1.402   1.896   7.321  1.00  0.00     0.000 C 
BRANCH  10  11
ATOM     11  C   UNL     1       0.966   3.124   8.146  1.00  0.00     0.000 C 
BRANCH  11  12
ATOM     12  C   UNL     1       1.106   4.476   7.422  1.00  0.00     0.000 C 
BRANCH  12  13
ATOM     13  C   UNL     1      -0.239   5.196   7.245  1.00  0.00     0.006 C 
BRANCH  13  14
ATOM     14  C   UNL     1      -0.081   6.448   6.378  1.00  0.00     0.053 C 
BRANCH  14  15
ATOM     15  C   UNL     1      -0.591   6.201   4.992  1.00  0.00     0.041 C 
ATOM     16  O   UNL     1      -1.629   6.790   4.583  1.00  0.00    -0.550 OA
ATOM     17  O   UNL     1       0.075   5.318   4.152  1.00  0.00    -0.550 OA
ENDBRANCH  14  15
ENDBRANCH  13  14
ENDBRANCH  12  13
ENDBRANCH  11  12
ENDBRANCH  10  11
ENDBRANCH   9  10
ENDBRANCH   8   9
ENDBRANCH   7   8
ENDBRANCH   6   7
ENDBRANCH   5   6
ENDBRANCH   4   5
ENDBRANCH   3   4
ENDBRANCH   2   3
ENDBRANCH   1   2
BRANCH   1  18
ATOM     18  C   UNL     1       0.800  -3.364   6.603  1.00  0.00     0.000 C 
BRANCH  18  19
ATOM     19  C   UNL     1      -0.293  -3.830   7.577  1.00  0.00     0.000 C 
BRANCH  19  20
ATOM     20  C   UNL     1      -1.110  -2.655   8.139  1.00  0.00     0.000 C 
BRANCH  20  21
ATOM     21  C   UNL     1      -2.515  -3.082   8.601  1.00  0.00     0.000 C 
BRANCH  21  22
ATOM     22  C   UNL     1      -3.620  -2.550   7.664  1.00  0.00     0.000 C 
BRANCH  22  23
ATOM     23  C   UNL     1      -4.673  -3.606   7.282  1.00  0.00     0.000 C 
BRANCH  23  24
ATOM     24  C   UNL     1      -4.050  -4.938   6.830  1.00  0.00    -0.000 C 
BRANCH  24  25
ATOM     25  C   UNL     1      -4.185  -5.169   5.313  1.00  0.00    -0.000 C 
BRANCH  25  26
ATOM     26  C   UNL     1      -2.842  -5.380   4.591  1.00  0.00    -0.000 C 
BRANCH  26  27
ATOM     27  C   UNL     1      -2.081  -4.063   4.358  1.00  0.00    -0.000 C 
BRANCH  27  28
ATOM     28  C   UNL     1      -2.898  -3.056   3.522  1.00  0.00    -0.000 C 
BRANCH  28  29
ATOM     29  C   UNL     1      -3.007  -1.659   4.160  1.00  0.00    -0.000 C 
BRANCH  29  30
ATOM     30  C   UNL     1      -4.446  -1.117   4.174  1.00  0.00    -0.000 C 
BRANCH  30  31
ATOM     31  C   UNL     1      -5.482  -2.178   3.769  1.00  0.00    -0.003 C 
ATOM     32  C   UNL     1      -6.686  -2.218   4.715  1.00  0.00     0.004 C 
ENDBRANCH  30  31
ENDBRANCH  29  30
ENDBRANCH  28  29
ENDBRANCH  27  28
ENDBRANCH  26  27
ENDBRANCH  25  26
ENDBRANCH  24  25
ENDBRANCH  23  24
ENDBRANCH  22  23
ENDBRANCH  21  22
ENDBRANCH  20  21
ENDBRANCH  19  20
ENDBRANCH  18  19
ENDBRANCH   1  18
TORSDOF 28
ENDMDL
MODEL 3
REMARK VINA RESULT:    -4.217      1.384      2.721
REMARK INTER + INTRA:         -15.551
REMARK INTER:                 -12.742
REMARK INTRA:                  -2.808
REMARK UNBOUND:                -4.431
REMARK SMILES CCCCCCCCCCCCCCCCCCCCCCCCCCCCCC(=O)[O-]
REMARK SMILES IDX 16 1 17 2 18 3 19 4 20 5 21 6 22 7 23 8 24 9 25 10 26 11
REMARK SMILES IDX 27 12 28 13 29 14 30 15 31 16 32 17 15 18 14 19 13 20 12 21
REMARK SMILES IDX 11 22 10 23 9 24 8 25 7 26 6 27 5 28 4 29 3 30 2 31 1 32
REMARK H PARENT
REMARK Flexibility Score: inf
ROOT
ATOM      1  C   UNL     1       0.154  -2.711   6.572  1.00  0.00     0.000 C 
ENDROOT
BRANCH   1   2
ATOM      2  C   UNL     1       0.297  -1.675   5.446  1.00  0.00     0.000 C 
BRANCH   2   3
ATOM      3  C   UNL     1       1.737  -1.163   5.275  1.00  0.00     0.000 C 
BRANCH   3   4
ATOM      4  C   UNL     1       2.808  -2.262   5.112  1.00  0.00     0.000 C 
BRANCH   4   5
ATOM      5  C   UNL     1       4.077  -2.079   5.970  1.00  0.00     0.000 C 
BRANCH   5   6
ATOM      6  C   UNL     1       3.852  -2.152   7.491  1.00  0.00     0.000 C 
BRANCH   6   7
ATOM      7  C   UNL     1       4.599  -1.058   8.265  1.00  0.00     0.000 C 
BRANCH   7   8
ATOM      8  C   UNL     1       3.691   0.158   8.499  1.00  0.00     0.000 C 
BRANCH   8   9
ATOM      9  C   UNL     1       2.217  -0.228   8.719  1.00  0.00     0.000 C 
BRANCH   9  10
ATOM     10  C   UNL     1       1.213   0.927   8.542  1.00  0.00     0.000 C 
BRANCH  10  11
ATOM     11  C   UNL     1       1.665   2.049   7.586  1.00  0.00     0.000 C 
BRANCH  11  12
ATOM     12  C   UNL     1       0.843   3.348   7.674  1.00  0.00     0.000 C 
BRANCH  12  13
ATOM     13  C   UNL     1       1.020   4.247   6.442  1.00  0.00     0.006 C 
BRANCH  13  14
ATOM     14  C   UNL     1      -0.146   5.230   6.308  1.00  0.00     0.053 C 
BRANCH  14  15
ATOM     15  C   UNL     1      -0.253   5.738   4.903  1.00  0.00     0.041 C 
ATOM     16  O   UNL     1      -0.790   6.855   4.671  1.00  0.00    -0.550 OA
ATOM     17  O   UNL     1       0.237   4.977   3.849  1.00  0.00    -0.550 OA
ENDBRANCH  14  15
ENDBRANCH  13  14
ENDBRANCH  12  13
ENDBRANCH  11  12
ENDBRANCH  10  11
ENDBRANCH   9  10
ENDBRANCH   8   9
ENDBRANCH   7   8
ENDBRANCH   6   7
ENDBRANCH   5   6
ENDBRANCH   4   5
ENDBRANCH   3   4
ENDBRANCH   2   3
ENDBRANCH   1   2
BRANCH   1  18
ATOM     18  C   UNL     1      -1.275  -3.267   6.611  1.00  0.00     0.000 C 
BRANCH  18  19
ATOM     19  C   UNL     1      -2.152  -2.624   5.526  1.00  0.00     0.000 C 
BRANCH  19  20
ATOM     20  C   UNL     1      -3.553  -2.265   6.047  1.00  0.00     0.000 C 
BRANCH  20  21
ATOM     21  C   UNL     1      -4.239  -1.182   5.194  1.00  0.00     0.000 C 
BRANCH  21  22
ATOM     22  C   UNL     1      -4.400  -1.620   3.722  1.00  0.00     0.000 C 
BRANCH  22  23
ATOM     23  C   UNL     1      -5.388  -2.783   3.524  1.00  0.00     0.000 C 
BRANCH  23  24
ATOM     24  C   UNL     1      -4.854  -3.867   2.572  1.00  0.00    -0.000 C 
BRANCH  24  25
ATOM     25  C   UNL     1      -3.353  -4.146   2.777  1.00  0.00    -0.000 C 
BRANCH  25  26
ATOM     26  C   UNL     1      -2.685  -4.872   1.595  1.00  0.00    -0.000 C 
BRANCH  26  27
ATOM     27  C   UNL     1      -3.660  -5.134   0.433  1.00  0.00    -0.000 C 
BRANCH  27  28
ATOM     28  C   UNL     1      -2.965  -5.052  -0.942  1.00  0.00    -0.000 C 
BRANCH  28  29
ATOM     29  C   UNL     1      -1.518  -4.528  -0.880  1.00  0.00    -0.000 C 
BRANCH  29  30
ATOM     30  C   UNL     1      -0.961  -4.142  -2.260  1.00  0.00    -0.000 C 
BRANCH  30  31
ATOM     31  C   UNL     1       0.377  -4.833  -2.572  1.00  0.00    -0.003 C 
ATOM     32  C   UNL     1       0.329  -6.345  -2.335  1.00  0.00     0.004 C 
ENDBRANCH  30  31
ENDBRANCH  29  30
ENDBRANCH  28  29
ENDBRANCH  27  28
ENDBRANCH  26  27
ENDBRANCH  25  26
ENDBRANCH  24  25
ENDBRANCH  23  24
ENDBRANCH  22  23
ENDBRANCH  21  22
ENDBRANCH  20  21
ENDBRANCH  19  20
ENDBRANCH  18  19
ENDBRANCH   1  18
TORSDOF 28
ENDMDL
MODEL 4
REMARK VINA RESULT:    -4.190      1.786      4.278
REMARK INTER + INTRA:         -15.480
REMARK INTER:                 -12.613
REMARK INTRA:                  -2.867
REMARK UNBOUND:                -4.431
REMARK SMILES CCCCCCCCCCCCCCCCCCCCCCCCCCCCCC(=O)[O-]
REMARK SMILES IDX 16 1 17 2 18 3 19 4 20 5 21 6 22 7 23 8 24 9 25 10 26 11
REMARK SMILES IDX 27 12 28 13 29 14 30 15 31 16 32 17 15 18 14 19 13 20 12 21
REMARK SMILES IDX 11 22 10 23 9 24 8 25 7 26 6 27 5 28 4 29 3 30 2 31 1 32
REMARK H PARENT
REMARK Flexibility Score: inf
ROOT
ATOM      1  C   UNL     1      -3.725  -2.591   7.372  1.00  0.00     0.000 C 
ENDROOT
BRANCH   1   2
ATOM      2  C   UNL     1      -3.195  -3.992   7.030  1.00  0.00     0.000 C 
BRANCH   2   3
ATOM      3  C   UNL     1      -1.728  -3.988   6.570  1.00  0.00     0.000 C 
BRANCH   3   4
ATOM      4  C   UNL     1      -1.052  -2.602   6.546  1.00  0.00     0.000 C 
BRANCH   4   5
ATOM      5  C   UNL     1      -0.410  -2.203   5.201  1.00  0.00     0.000 C 
BRANCH   5   6
ATOM      6  C   UNL     1       0.568  -1.015   5.273  1.00  0.00     0.000 C 
BRANCH   6   7
ATOM      7  C   UNL     1       1.997  -1.433   5.644  1.00  0.00     0.000 C 
BRANCH   7   8
ATOM      8  C   UNL     1       2.597  -0.460   6.671  1.00  0.00     0.000 C 
BRANCH   8   9
ATOM      9  C   UNL     1       1.527   0.274   7.498  1.00  0.00     0.000 C 
BRANCH   9  10
ATOM     10  C   UNL     1       1.843   1.752   7.797  1.00  0.00     0.000 C 
BRANCH  10  11
ATOM     11  C   UNL     1       0.820   2.473   8.698  1.00  0.00     0.000 C 
BRANCH  11  12
ATOM     12  C   UNL     1       0.330   3.832   8.166  1.00  0.00     0.000 C 
BRANCH  12  13
ATOM     13  C   UNL     1       0.819   4.121   6.739  1.00  0.00     0.006 C 
BRANCH  13  14
ATOM     14  C   UNL     1       0.459   5.547   6.314  1.00  0.00     0.053 C 
BRANCH  14  15
ATOM     15  C   UNL     1      -0.295   5.540   5.019  1.00  0.00     0.041 C 
ATOM     16  O   UNL     1       0.249   5.098   3.970  1.00  0.00    -0.550 OA
ATOM     17  O   UNL     1      -1.597   6.023   4.969  1.00  0.00    -0.550 OA
ENDBRANCH  14  15
ENDBRANCH  13  14
ENDBRANCH  12  13
ENDBRANCH  11  12
ENDBRANCH  10  11
ENDBRANCH   9  10
ENDBRANCH   8   9
ENDBRANCH   7   8
ENDBRANCH   6   7
ENDBRANCH   5   6
ENDBRANCH   4   5
ENDBRANCH   3   4
ENDBRANCH   2   3
ENDBRANCH   1   2
BRANCH   1  18
ATOM     18  C   UNL     1      -4.916  -2.234   6.474  1.00  0.00     0.000 C 
BRANCH  18  19
ATOM     19  C   UNL     1      -4.825  -0.781   5.982  1.00  0.00     0.000 C 
BRANCH  19  20
ATOM     20  C   UNL     1      -4.407  -0.692   4.505  1.00  0.00     0.000 C 
BRANCH  20  21
ATOM     21  C   UNL     1      -4.561  -2.034   3.767  1.00  0.00     0.000 C 
BRANCH  21  22
ATOM     22  C   UNL     1      -3.196  -2.653   3.400  1.00  0.00     0.000 C 
BRANCH  22  23
ATOM     23  C   UNL     1      -3.272  -4.142   3.013  1.00  0.00     0.000 C 
BRANCH  23  24
ATOM     24  C   UNL     1      -2.563  -4.452   1.683  1.00  0.00    -0.000 C 
BRANCH  24  25
ATOM     25  C   UNL     1      -3.497  -5.125   0.659  1.00  0.00    -0.000 C 
BRANCH  25  26
ATOM     26  C   UNL     1      -2.841  -5.378  -0.711  1.00  0.00    -0.000 C 
BRANCH  26  27
ATOM     27  C   UNL     1      -1.617  -4.479  -0.958  1.00  0.00    -0.000 C 
BRANCH  27  28
ATOM     28  C   UNL     1      -0.841  -4.884  -2.229  1.00  0.00    -0.000 C 
BRANCH  28  29
ATOM     29  C   UNL     1      -0.479  -3.698  -3.142  1.00  0.00    -0.000 C 
BRANCH  29  30
ATOM     30  C   UNL     1      -1.655  -3.233  -4.017  1.00  0.00    -0.000 C 
BRANCH  30  31
ATOM     31  C   UNL     1      -2.502  -4.404  -4.541  1.00  0.00    -0.003 C 
ATOM     32  C   UNL     1      -3.999  -4.084  -4.568  1.00  0.00     0.004 C 
ENDBRANCH  30  31
ENDBRANCH  29  30
ENDBRANCH  28  29
ENDBRANCH  27  28
ENDBRANCH  26  27
ENDBRANCH  25  26
ENDBRANCH  24  25
ENDBRANCH  23  24
ENDBRANCH  22  23
ENDBRANCH  21  22
ENDBRANCH  20  21
ENDBRANCH  19  20
ENDBRANCH  18  19
ENDBRANCH   1  18
TORSDOF 28
ENDMDL
MODEL 5
REMARK VINA RESULT:    -4.151      3.511      9.152
REMARK INTER + INTRA:         -15.378
REMARK INTER:                 -10.999
REMARK INTRA:                  -4.379
REMARK UNBOUND:                -4.431
REMARK SMILES CCCCCCCCCCCCCCCCCCCCCCCCCCCCCC(=O)[O-]
REMARK SMILES IDX 16 1 17 2 18 3 19 4 20 5 21 6 22 7 23 8 24 9 25 10 26 11
REMARK SMILES IDX 27 12 28 13 29 14 30 15 31 16 32 17 15 18 14 19 13 20 12 21
REMARK SMILES IDX 11 22 10 23 9 24 8 25 7 26 6 27 5 28 4 29 3 30 2 31 1 32
REMARK H PARENT
REMARK Flexibility Score: inf
ROOT
ATOM      1  C   UNL     1      -2.407  -3.347   3.050  1.00  0.00     0.000 C 
ENDROOT
BRANCH   1   2
ATOM      2  C   UNL     1      -2.462  -2.108   3.955  1.00  0.00     0.000 C 
BRANCH   2   3
ATOM      3  C   UNL     1      -3.754  -1.290   3.783  1.00  0.00     0.000 C 
BRANCH   3   4
ATOM      4  C   UNL     1      -4.585  -1.102   5.069  1.00  0.00     0.000 C 
BRANCH   4   5
ATOM      5  C   UNL     1      -5.862  -1.963   5.162  1.00  0.00     0.000 C 
BRANCH   5   6
ATOM      6  C   UNL     1      -6.300  -2.623   3.842  1.00  0.00     0.000 C 
BRANCH   6   7
ATOM      7  C   UNL     1      -6.548  -4.132   3.976  1.00  0.00     0.000 C 
BRANCH   7   8
ATOM      8  C   UNL     1      -5.928  -4.891   2.793  1.00  0.00     0.000 C 
BRANCH   8   9
ATOM      9  C   UNL     1      -6.047  -4.127   1.463  1.00  0.00     0.000 C 
BRANCH   9  10
ATOM     10  C   UNL     1      -5.388  -4.825   0.257  1.00  0.00     0.000 C 
BRANCH  10  11
ATOM     11  C   UNL     1      -3.879  -5.104   0.404  1.00  0.00     0.000 C 
BRANCH  11  12
ATOM     12  C   UNL     1      -3.104  -5.202  -0.924  1.00  0.00     0.000 C 
BRANCH  12  13
ATOM     13  C   UNL     1      -1.607  -4.902  -0.760  1.00  0.00     0.006 C 
BRANCH  13  14
ATOM     14  C   UNL     1      -1.123  -3.926  -1.836  1.00  0.00     0.053 C 
BRANCH  14  15
ATOM     15  C   UNL     1       0.022  -4.510  -2.605  1.00  0.00     0.041 C 
ATOM     16  O   UNL     1       0.012  -4.494  -3.866  1.00  0.00    -0.550 OA
ATOM     17  O   UNL     1       1.097  -5.076  -1.932  1.00  0.00    -0.550 OA
ENDBRANCH  14  15
ENDBRANCH  13  14
ENDBRANCH  12  13
ENDBRANCH  11  12
ENDBRANCH  10  11
ENDBRANCH   9  10
ENDBRANCH   8   9
ENDBRANCH   7   8
ENDBRANCH   6   7
ENDBRANCH   5   6
ENDBRANCH   4   5
ENDBRANCH   3   4
ENDBRANCH   2   3
ENDBRANCH   1   2
BRANCH   1  18
ATOM     18  C   UNL     1      -2.630  -4.623   3.872  1.00  0.00     0.000 C 
BRANCH  18  19
ATOM     19  C   UNL     1      -2.358  -4.377   5.364  1.00  0.00     0.000 C 
BRANCH  19  20
ATOM     20  C   UNL     1      -3.560  -4.758   6.244  1.00  0.00     0.000 C 
BRANCH  20  21
ATOM     21  C   UNL     1      -3.663  -3.887   7.510  1.00  0.00     0.000 C 
BRANCH  21  22
ATOM     22  C   UNL     1      -2.585  -2.783   7.543  1.00  0.00     0.000 C 
BRANCH  22  23
ATOM     23  C   UNL     1      -1.620  -2.891   8.737  1.00  0.00     0.000 C 
BRANCH  23  24
ATOM     24  C   UNL     1      -0.153  -2.639   8.347  1.00  0.00    -0.000 C 
BRANCH  24  25
ATOM     25  C   UNL     1       0.033  -2.473   6.827  1.00  0.00    -0.000 C 
BRANCH  25  26
ATOM     26  C   UNL     1       1.481  -2.691   6.348  1.00  0.00    -0.000 C 
BRANCH  26  27
ATOM     27  C   UNL     1       2.046  -1.472   5.597  1.00  0.00    -0.000 C 
BRANCH  27  28
ATOM     28  C   UNL     1       1.392  -0.150   6.053  1.00  0.00    -0.000 C 
BRANCH  28  29
ATOM     29  C   UNL     1       2.172   0.582   7.161  1.00  0.00    -0.000 C 
BRANCH  29  30
ATOM     30  C   UNL     1       1.255   1.259   8.193  1.00  0.00    -0.000 C 
BRANCH  30  31
ATOM     31  C   UNL     1       1.418   2.788   8.216  1.00  0.00    -0.003 C 
ATOM     32  C   UNL     1       1.111   3.434   6.862  1.00  0.00     0.004 C 
ENDBRANCH  30  31
ENDBRANCH  29  30
ENDBRANCH  28  29
ENDBRANCH  27  28
ENDBRANCH  26  27
ENDBRANCH  25  26
ENDBRANCH  24  25
ENDBRANCH  23  24
ENDBRANCH  22  23
ENDBRANCH  21  22
ENDBRANCH  20  21
ENDBRANCH  19  20
ENDBRANCH  18  19
ENDBRANCH   1  18
TORSDOF 28
ENDMDL
MODEL 6
REMARK VINA RESULT:    -4.139      1.650      3.923
REMARK INTER + INTRA:         -15.344
REMARK INTER:                 -11.608
REMARK INTRA:                  -3.736
REMARK UNBOUND:                -4.431
REMARK SMILES CCCCCCCCCCCCCCCCCCCCCCCCCCCCCC(=O)[O-]
REMARK SMILES IDX 16 1 17 2 18 3 19 4 20 5 21 6 22 7 23 8 24 9 25 10 26 11
REMARK SMILES IDX 27 12 28 13 29 14 30 15 31 16 32 17 15 18 14 19 13 20 12 21
REMARK SMILES IDX 11 22 10 23 9 24 8 25 7 26 6 27 5 28 4 29 3 30 2 31 1 32
REMARK H PARENT
REMARK Flexibility Score: inf
ROOT
ATOM      1  C   UNL     1      -0.030  -1.974   5.978  1.00  0.00     0.000 C 
ENDROOT
BRANCH   1   2
ATOM      2  C   UNL     1       1.250  -1.544   5.245  1.00  0.00     0.000 C 
BRANCH   2   3
ATOM      3  C   UNL     1       2.413  -2.533   5.428  1.00  0.00     0.000 C 
BRANCH   3   4
ATOM      4  C   UNL     1       3.822  -1.925   5.269  1.00  0.00     0.000 C 
BRANCH   4   5
ATOM      5  C   UNL     1       4.631  -1.783   6.574  1.00  0.00     0.000 C 
BRANCH   5   6
ATOM      6  C   UNL     1       3.862  -2.138   7.860  1.00  0.00     0.000 C 
BRANCH   6   7
ATOM      7  C   UNL     1       3.444  -0.905   8.672  1.00  0.00     0.000 C 
BRANCH   7   8
ATOM      8  C   UNL     1       1.925  -0.897   8.904  1.00  0.00     0.000 C 
BRANCH   8   9
ATOM      9  C   UNL     1       1.287   0.480   8.647  1.00  0.00     0.000 C 
BRANCH   9  10
ATOM     10  C   UNL     1       1.695   1.144   7.318  1.00  0.00     0.000 C 
BRANCH  10  11
ATOM     11  C   UNL     1       2.029   2.646   7.410  1.00  0.00     0.000 C 
BRANCH  11  12
ATOM     12  C   UNL     1       0.867   3.542   7.876  1.00  0.00     0.000 C 
BRANCH  12  13
ATOM     13  C   UNL     1       0.443   4.566   6.812  1.00  0.00     0.006 C 
BRANCH  13  14
ATOM     14  C   UNL     1       1.235   4.369   5.516  1.00  0.00     0.053 C 
BRANCH  14  15
ATOM     15  C   UNL     1       0.737   5.291   4.445  1.00  0.00     0.041 C 
ATOM     16  O   UNL     1      -0.483   5.604   4.395  1.00  0.00    -0.550 OA
ATOM     17  O   UNL     1       1.619   5.802   3.502  1.00  0.00    -0.550 OA
ENDBRANCH  14  15
ENDBRANCH  13  14
ENDBRANCH  12  13
ENDBRANCH  11  12
ENDBRANCH  10  11
ENDBRANCH   9  10
ENDBRANCH   8   9
ENDBRANCH   7   8
ENDBRANCH   6   7
ENDBRANCH   5   6
ENDBRANCH   4   5
ENDBRANCH   3   4
ENDBRANCH   2   3
ENDBRANCH   1   2
BRANCH   1  18
ATOM     18  C   UNL     1       0.194  -3.297   6.719  1.00  0.00     0.000 C 
BRANCH  18  19
ATOM     19  C   UNL     1      -0.967  -4.273   6.478  1.00  0.00     0.000 C 
BRANCH  19  20
ATOM     20  C   UNL     1      -2.166  -3.593   5.797  1.00  0.00     0.000 C 
BRANCH  20  21
ATOM     21  C   UNL     1      -2.359  -4.058   4.342  1.00  0.00     0.000 C 
BRANCH  21  22
ATOM     22  C   UNL     1      -2.629  -2.876   3.387  1.00  0.00     0.000 C 
BRANCH  22  23
ATOM     23  C   UNL     1      -3.010  -1.569   4.107  1.00  0.00     0.000 C 
BRANCH  23  24
ATOM     24  C   UNL     1      -4.509  -1.241   3.999  1.00  0.00    -0.000 C 
BRANCH  24  25
ATOM     25  C   UNL     1      -5.276  -1.554   5.298  1.00  0.00    -0.000 C 
BRANCH  25  26
ATOM     26  C   UNL     1      -5.669  -3.036   5.449  1.00  0.00    -0.000 C 
BRANCH  26  27
ATOM     27  C   UNL     1      -7.194  -3.244   5.480  1.00  0.00    -0.000 C 
BRANCH  27  28
ATOM     28  C   UNL     1      -7.968  -1.939   5.198  1.00  0.00    -0.000 C 
BRANCH  28  29
ATOM     29  C   UNL     1      -8.940  -1.534   6.322  1.00  0.00    -0.000 C 
BRANCH  29  30
ATOM     30  C   UNL     1      -8.687  -0.113   6.851  1.00  0.00    -0.000 C 
BRANCH  30  31
ATOM     31  C   UNL     1      -7.506  -0.049   7.834  1.00  0.00    -0.003 C 
ATOM     32  C   UNL     1      -6.509   1.060   7.486  1.00  0.00     0.004 C 
ENDBRANCH  30  31
ENDBRANCH  29  30
ENDBRANCH  28  29
ENDBRANCH  27  28
ENDBRANCH  26  27
ENDBRANCH  25  26
ENDBRANCH  24  25
ENDBRANCH  23  24
ENDBRANCH  22  23
ENDBRANCH  21  22
ENDBRANCH  20  21
ENDBRANCH  19  20
ENDBRANCH  18  19
ENDBRANCH   1  18
TORSDOF 28
ENDMDL
MODEL 7
REMARK VINA RESULT:    -4.117      1.430      3.487
REMARK INTER + INTRA:         -15.287
REMARK INTER:                 -11.507
REMARK INTRA:                  -3.781
REMARK UNBOUND:                -4.431
REMARK SMILES CCCCCCCCCCCCCCCCCCCCCCCCCCCCCC(=O)[O-]
REMARK SMILES IDX 16 1 17 2 18 3 19 4 20 5 21 6 22 7 23 8 24 9 25 10 26 11
REMARK SMILES IDX 27 12 28 13 29 14 30 15 31 16 32 17 15 18 14 19 13 20 12 21
REMARK SMILES IDX 11 22 10 23 9 24 8 25 7 26 6 27 5 28 4 29 3 30 2 31 1 32
REMARK H PARENT
REMARK Flexibility Score: inf
ROOT
ATOM      1  C   UNL     1       2.890  -2.490   4.975  1.00  0.00     0.000 C 
ENDROOT
BRANCH   1   2
ATOM      2  C   UNL     1       4.016  -1.678   5.630  1.00  0.00     0.000 C 
BRANCH   2   3
ATOM      3  C   UNL     1       4.503  -2.280   6.959  1.00  0.00     0.000 C 
BRANCH   3   4
ATOM      4  C   UNL     1       5.257  -1.302   7.884  1.00  0.00     0.000 C 
BRANCH   4   5
ATOM      5  C   UNL     1       4.533  -0.945   9.199  1.00  0.00     0.000 C 
BRANCH   5   6
ATOM      6  C   UNL     1       3.012  -1.190   9.193  1.00  0.00     0.000 C 
BRANCH   6   7
ATOM      7  C   UNL     1       2.231  -0.152  10.010  1.00  0.00     0.000 C 
BRANCH   7   8
ATOM      8  C   UNL     1       1.394   0.747   9.087  1.00  0.00     0.000 C 
BRANCH   8   9
ATOM      9  C   UNL     1       1.870   0.713   7.624  1.00  0.00     0.000 C 
BRANCH   9  10
ATOM     10  C   UNL     1       1.472   1.944   6.787  1.00  0.00     0.000 C 
BRANCH  10  11
ATOM     11  C   UNL     1       1.562   3.296   7.522  1.00  0.00     0.000 C 
BRANCH  11  12
ATOM     12  C   UNL     1       0.294   3.700   8.297  1.00  0.00     0.000 C 
BRANCH  12  13
ATOM     13  C   UNL     1      -0.251   5.070   7.869  1.00  0.00     0.006 C 
BRANCH  13  14
ATOM     14  C   UNL     1       0.372   5.519   6.544  1.00  0.00     0.053 C 
BRANCH  14  15
ATOM     15  C   UNL     1      -0.649   6.194   5.680  1.00  0.00     0.041 C 
ATOM     16  O   UNL     1      -0.784   5.852   4.473  1.00  0.00    -0.550 OA
ATOM     17  O   UNL     1      -1.448   7.201   6.204  1.00  0.00    -0.550 OA
ENDBRANCH  14  15
ENDBRANCH  13  14
ENDBRANCH  12  13
ENDBRANCH  11  12
ENDBRANCH  10  11
ENDBRANCH   9  10
ENDBRANCH   8   9
ENDBRANCH   7   8
ENDBRANCH   6   7
ENDBRANCH   5   6
ENDBRANCH   4   5
ENDBRANCH   3   4
ENDBRANCH   2   3
ENDBRANCH   1   2
BRANCH   1  18
ATOM     18  C   UNL     1       1.523  -2.037   5.503  1.00  0.00     0.000 C 
BRANCH  18  19
ATOM     19  C   UNL     1       0.998  -2.995   6.583  1.00  0.00     0.000 C 
BRANCH  19  20
ATOM     20  C   UNL     1      -0.044  -2.329   7.496  1.00  0.00     0.000 C 
BRANCH  20  21
ATOM     21  C   UNL     1      -1.462  -2.886   7.276  1.00  0.00     0.000 C 
BRANCH  21  22
ATOM     22  C   UNL     1      -1.443  -4.371   6.858  1.00  0.00     0.000 C 
BRANCH  22  23
ATOM     23  C   UNL     1      -2.682  -4.808   6.055  1.00  0.00     0.000 C 
BRANCH  23  24
ATOM     24  C   UNL     1      -2.353  -5.177   4.599  1.00  0.00    -0.000 C 
BRANCH  24  25
ATOM     25  C   UNL     1      -2.739  -4.064   3.606  1.00  0.00    -0.000 C 
BRANCH  25  26
ATOM     26  C   UNL     1      -1.809  -2.837   3.651  1.00  0.00    -0.000 C 
BRANCH  26  27
ATOM     27  C   UNL     1      -2.538  -1.558   4.100  1.00  0.00    -0.000 C 
BRANCH  27  28
ATOM     28  C   UNL     1      -4.067  -1.663   3.920  1.00  0.00    -0.000 C 
BRANCH  28  29
ATOM     29  C   UNL     1      -4.875  -0.952   5.022  1.00  0.00    -0.000 C 
BRANCH  29  30
ATOM     30  C   UNL     1      -4.669  -1.575   6.413  1.00  0.00    -0.000 C 
BRANCH  30  31
ATOM     31  C   UNL     1      -5.582  -0.951   7.481  1.00  0.00    -0.003 C 
ATOM     32  C   UNL     1      -6.151   0.404   7.052  1.00  0.00     0.004 C 
ENDBRANCH  30  31
ENDBRANCH  29  30
ENDBRANCH  28  29
ENDBRANCH  27  28
ENDBRANCH  26  27
ENDBRANCH  25  26
ENDBRANCH  24  25
ENDBRANCH  23  24
ENDBRANCH  22  23
ENDBRANCH  21  22
ENDBRANCH  20  21
ENDBRANCH  19  20
ENDBRANCH  18  19
ENDBRANCH   1  18
TORSDOF 28
ENDMDL
MODEL 8
REMARK VINA RESULT:    -4.101      1.974      3.347
REMARK INTER + INTRA:         -15.245
REMARK INTER:                 -12.489
REMARK INTRA:                  -2.756
REMARK UNBOUND:                -4.431
REMARK SMILES CCCCCCCCCCCCCCCCCCCCCCCCCCCCCC(=O)[O-]
REMARK SMILES IDX 16 1 17 2 18 3 19 4 20 5 21 6 22 7 23 8 24 9 25 10 26 11
REMARK SMILES IDX 27 12 28 13 29 14 30 15 31 16 32 17 15 18 14 19 13 20 12 21
REMARK SMILES IDX 11 22 10 23 9 24 8 25 7 26 6 27 5 28 4 29 3 30 2 31 1 32
REMARK H PARENT
REMARK Flexibility Score: inf
ROOT
ATOM      1  C   UNL     1      -0.020  -1.909   5.413  1.00  0.00     0.000 C 
ENDROOT
BRANCH   1   2
ATOM      2  C   UNL     1       1.502  -1.989   5.224  1.00  0.00     0.000 C 
BRANCH   2   3
ATOM      3  C   UNL     1       2.275  -0.999   6.112  1.00  0.00     0.000 C 
BRANCH   3   4
ATOM      4  C   UNL     1       1.487   0.261   6.527  1.00  0.00     0.000 C 
BRANCH   4   5
ATOM      5  C   UNL     1       2.133   1.105   7.645  1.00  0.00     0.000 C 
BRANCH   5   6
ATOM      6  C   UNL     1       1.734   2.592   7.652  1.00  0.00     0.000 C 
BRANCH   6   7
ATOM      7  C   UNL     1       0.700   2.934   8.733  1.00  0.00     0.000 C 
BRANCH   7   8
ATOM      8  C   UNL     1      -0.063   4.217   8.370  1.00  0.00     0.000 C 
BRANCH   8   9
ATOM      9  C   UNL     1       0.652   5.054   7.294  1.00  0.00     0.000 C 
BRANCH   9  10
ATOM     10  C   UNL     1      -0.273   5.633   6.206  1.00  0.00     0.000 C 
BRANCH  10  11
ATOM     11  C   UNL     1       0.134   5.307   4.755  1.00  0.00     0.000 C 
BRANCH  11  12
ATOM     12  C   UNL     1       1.580   4.808   4.584  1.00  0.00     0.000 C 
BRANCH  12  13
ATOM     13  C   UNL     1       2.426   5.736   3.699  1.00  0.00     0.006 C 
BRANCH  13  14
ATOM     14  C   UNL     1       3.800   5.123   3.418  1.00  0.00     0.053 C 
BRANCH  14  15
ATOM     15  C   UNL     1       3.905   4.687   1.989  1.00  0.00     0.041 C 
ATOM     16  O   UNL     1       2.896   4.741   1.234  1.00  0.00    -0.550 OA
ATOM     17  O   UNL     1       5.113   4.218   1.490  1.00  0.00    -0.550 OA
ENDBRANCH  14  15
ENDBRANCH  13  14
ENDBRANCH  12  13
ENDBRANCH  11  12
ENDBRANCH  10  11
ENDBRANCH   9  10
ENDBRANCH   8   9
ENDBRANCH   7   8
ENDBRANCH   6   7
ENDBRANCH   5   6
ENDBRANCH   4   5
ENDBRANCH   3   4
ENDBRANCH   2   3
ENDBRANCH   1   2
BRANCH   1  18
ATOM     18  C   UNL     1      -0.506  -3.030   6.340  1.00  0.00     0.000 C 
BRANCH  18  19
ATOM     19  C   UNL     1      -1.823  -2.648   7.030  1.00  0.00     0.000 C 
BRANCH  19  20
ATOM     20  C   UNL     1      -2.964  -3.620   6.684  1.00  0.00     0.000 C 
BRANCH  20  21
ATOM     21  C   UNL     1      -4.350  -2.954   6.766  1.00  0.00     0.000 C 
BRANCH  21  22
ATOM     22  C   UNL     1      -4.363  -1.560   6.103  1.00  0.00     0.000 C 
BRANCH  22  23
ATOM     23  C   UNL     1      -4.610  -1.597   4.584  1.00  0.00     0.000 C 
BRANCH  23  24
ATOM     24  C   UNL     1      -3.310  -1.543   3.764  1.00  0.00    -0.000 C 
BRANCH  24  25
ATOM     25  C   UNL     1      -2.952  -2.903   3.135  1.00  0.00    -0.000 C 
BRANCH  25  26
ATOM     26  C   UNL     1      -4.148  -3.866   3.007  1.00  0.00    -0.000 C 
BRANCH  26  27
ATOM     27  C   UNL     1      -4.095  -4.709   1.721  1.00  0.00    -0.000 C 
BRANCH  27  28
ATOM     28  C   UNL     1      -2.681  -4.743   1.102  1.00  0.00    -0.000 C 
BRANCH  28  29
ATOM     29  C   UNL     1      -2.550  -5.695  -0.101  1.00  0.00    -0.000 C 
BRANCH  29  30
ATOM     30  C   UNL     1      -2.354  -4.954  -1.434  1.00  0.00    -0.000 C 
BRANCH  30  31
ATOM     31  C   UNL     1      -1.086  -4.084  -1.445  1.00  0.00    -0.003 C 
ATOM     32  C   UNL     1       0.043  -4.697  -2.278  1.00  0.00     0.004 C 
ENDBRANCH  30  31
ENDBRANCH  29  30
ENDBRANCH  28  29
ENDBRANCH  27  28
ENDBRANCH  26  27
ENDBRANCH  25  26
ENDBRANCH  24  25
ENDBRANCH  23  24
ENDBRANCH  22  23
ENDBRANCH  21  22
ENDBRANCH  20  21
ENDBRANCH  19  20
ENDBRANCH  18  19
ENDBRANCH   1  18
TORSDOF 28
ENDMDL
MODEL 9
REMARK VINA RESULT:    -4.000      1.523      2.707
REMARK INTER + INTRA:         -14.977
REMARK INTER:                  -9.623
REMARK INTRA:                  -5.354
REMARK UNBOUND:                -4.431
REMARK SMILES CCCCCCCCCCCCCCCCCCCCCCCCCCCCCC(=O)[O-]
REMARK SMILES IDX 16 1 17 2 18 3 19 4 20 5 21 6 22 7 23 8 24 9 25 10 26 11
REMARK SMILES IDX 27 12 28 13 29 14 30 15 31 16 32 17 15 18 14 19 13 20 12 21
REMARK SMILES IDX 11 22 10 23 9 24 8 25 7 26 6 27 5 28 4 29 3 30 2 31 1 32
REMARK H PARENT
REMARK Flexibility Score: inf
ROOT
ATOM      1  C   UNL     1      -0.820  -3.263   7.529  1.00  0.00     0.000 C 
ENDROOT
BRANCH   1   2
ATOM      2  C   UNL     1       0.177  -3.036   6.383  1.00  0.00     0.000 C 
BRANCH   2   3
ATOM      3  C   UNL     1       0.330  -1.555   5.999  1.00  0.00     0.000 C 
BRANCH   3   4
ATOM      4  C   UNL     1       1.615  -1.211   5.217  1.00  0.00     0.000 C 
BRANCH   4   5
ATOM      5  C   UNL     1       2.675  -2.330   5.163  1.00  0.00     0.000 C 
BRANCH   5   6
ATOM      6  C   UNL     1       4.130  -1.859   5.347  1.00  0.00     0.000 C 
BRANCH   6   7
ATOM      7  C   UNL     1       4.524  -1.684   6.819  1.00  0.00     0.000 C 
BRANCH   7   8
ATOM      8  C   UNL     1       3.799  -2.710   7.702  1.00  0.00     0.000 C 
BRANCH   8   9
ATOM      9  C   UNL     1       2.901  -2.056   8.768  1.00  0.00     0.000 C 
BRANCH   9  10
ATOM     10  C   UNL     1       2.799  -0.522   8.673  1.00  0.00     0.000 C 
BRANCH  10  11
ATOM     11  C   UNL     1       1.415   0.067   9.017  1.00  0.00     0.000 C 
BRANCH  11  12
ATOM     12  C   UNL     1       1.211   1.534   8.597  1.00  0.00     0.000 C 
BRANCH  12  13
ATOM     13  C   UNL     1       1.800   1.842   7.212  1.00  0.00     0.006 C 
BRANCH  13  14
ATOM     14  C   UNL     1       1.249   3.161   6.663  1.00  0.00     0.053 C 
BRANCH  14  15
ATOM     15  C   UNL     1       2.301   4.227   6.689  1.00  0.00     0.041 C 
ATOM     16  O   UNL     1       3.484   3.943   7.022  1.00  0.00    -0.550 OA
ATOM     17  O   UNL     1       1.975   5.534   6.350  1.00  0.00    -0.550 OA
ENDBRANCH  14  15
ENDBRANCH  13  14
ENDBRANCH  12  13
ENDBRANCH  11  12
ENDBRANCH  10  11
ENDBRANCH   9  10
ENDBRANCH   8   9
ENDBRANCH   7   8
ENDBRANCH   6   7
ENDBRANCH   5   6
ENDBRANCH   4   5
ENDBRANCH   3   4
ENDBRANCH   2   3
ENDBRANCH   1   2
BRANCH   1  18
ATOM     18  C   UNL     1      -1.785  -4.404   7.184  1.00  0.00     0.000 C 
BRANCH  18  19
ATOM     19  C   UNL     1      -3.247  -3.957   7.325  1.00  0.00     0.000 C 
BRANCH  19  20
ATOM     20  C   UNL     1      -3.379  -2.628   8.089  1.00  0.00     0.000 C 
BRANCH  20  21
ATOM     21  C   UNL     1      -4.696  -1.896   7.775  1.00  0.00     0.000 C 
BRANCH  21  22
ATOM     22  C   UNL     1      -5.599  -2.709   6.824  1.00  0.00     0.000 C 
BRANCH  22  23
ATOM     23  C   UNL     1      -5.856  -2.021   5.470  1.00  0.00     0.000 C 
BRANCH  23  24
ATOM     24  C   UNL     1      -4.877  -0.869   5.189  1.00  0.00    -0.000 C 
BRANCH  24  25
ATOM     25  C   UNL     1      -3.918  -1.180   4.024  1.00  0.00    -0.000 C 
BRANCH  25  26
ATOM     26  C   UNL     1      -2.632  -1.913   4.452  1.00  0.00    -0.000 C 
BRANCH  26  27
ATOM     27  C   UNL     1      -2.126  -2.895   3.381  1.00  0.00    -0.000 C 
BRANCH  27  28
ATOM     28  C   UNL     1      -3.271  -3.719   2.756  1.00  0.00    -0.000 C 
BRANCH  28  29
ATOM     29  C   UNL     1      -3.880  -4.765   3.709  1.00  0.00    -0.000 C 
BRANCH  29  30
ATOM     30  C   UNL     1      -5.384  -4.984   3.478  1.00  0.00    -0.000 C 
BRANCH  30  31
ATOM     31  C   UNL     1      -5.959  -4.049   2.401  1.00  0.00    -0.003 C 
ATOM     32  C   UNL     1      -7.459  -3.797   2.579  1.00  0.00     0.004 C 
ENDBRANCH  30  31
ENDBRANCH  29  30
ENDBRANCH  28  29
ENDBRANCH  27  28
ENDBRANCH  26  27
ENDBRANCH  25  26
ENDBRANCH  24  25
ENDBRANCH  23  24
ENDBRANCH  22  23
ENDBRANCH  21  22
ENDBRANCH  20  21
ENDBRANCH  19  20
ENDBRANCH  18  19
ENDBRANCH   1  18
TORSDOF 28
ENDMDL
