MODEL 1
REMARK VINA RESULT:    -2.756      0.000      0.000
REMARK INTER + INTRA:          -4.252
REMARK INTER:                  -3.642
REMARK INTRA:                  -0.610
REMARK UNBOUND:                -0.610
REMARK SMILES C=CCC[C@@H](O)CCC
REMARK SMILES IDX 4 1 5 2 7 3 8 4 9 5 6 6 3 8 2 9 1 10
REMARK H PARENT 6 7
REMARK Flexibility Score: inf
ROOT
ATOM      1  C   UNL     1      -5.336  -5.163   4.801  1.00  0.00     0.036 C 
ENDROOT
BRANCH   1   2
ATOM      2  C   UNL     1      -4.261  -4.097   4.488  1.00  0.00     0.114 C 
BRANCH   2   3
ATOM      3  C   UNL     1      -3.831  -3.306   5.735  1.00  0.00     0.031 C 
BRANCH   3   4
ATOM      4  C   UNL     1      -2.999  -4.171   6.691  1.00  0.00    -0.001 C 
ATOM      5  C   UNL     1      -1.710  -4.645   6.026  1.00  0.00     0.004 C 
ENDBRANCH   3   4
ENDBRANCH   2   3
BRANCH   2   6
ATOM      6  O   UNL     1      -4.721  -3.207   3.502  1.00  0.00    -0.393 OA
ATOM      7  H   UNL     1      -3.945  -3.001   2.917  1.00  0.00     0.210 HD
ENDBRANCH   2   6
ENDBRANCH   1   2
BRANCH   1   8
ATOM      8  C   UNL     1      -4.958  -6.603   4.398  1.00  0.00     0.029 C 
BRANCH   8   9
ATOM      9  C   UNL     1      -3.709  -6.671   3.560  1.00  0.00    -0.035 C 
ATOM     10  C   UNL     1      -2.750  -7.572   3.794  1.00  0.00     0.004 C 
ENDBRANCH   8   9
ENDBRANCH   1   8
TORSDOF 6
ENDMDL
MODEL 2
REMARK VINA RESULT:    -2.709      0.830      3.182
REMARK INTER + INTRA:          -4.190
REMARK INTER:                  -3.629
REMARK INTRA:                  -0.560
REMARK UNBOUND:                -0.610
REMARK SMILES C=CCC[C@@H](O)CCC
REMARK SMILES IDX 4 1 5 2 7 3 8 4 9 5 6 6 3 8 2 9 1 10
REMARK H PARENT 6 7
REMARK Flexibility Score: inf
ROOT
ATOM      1  C   UNL     1      -4.373  -4.452   5.603  1.00  0.00     0.036 C 
ENDROOT
BRANCH   1   2
ATOM      2  C   UNL     1      -4.710  -4.529   4.096  1.00  0.00     0.114 C 
BRANCH   2   3
ATOM      3  C   UNL     1      -3.725  -5.415   3.314  1.00  0.00     0.031 C 
BRANCH   3   4
ATOM      4  C   UNL     1      -3.941  -6.902   3.620  1.00  0.00    -0.001 C 
ATOM      5  C   UNL     1      -2.658  -7.552   4.130  1.00  0.00     0.004 C 
ENDBRANCH   3   4
ENDBRANCH   2   3
BRANCH   2   6
ATOM      6  O   UNL     1      -4.736  -3.242   3.531  1.00  0.00    -0.393 OA
ATOM      7  H   UNL     1      -4.499  -3.344   2.572  1.00  0.00     0.210 HD
ENDBRANCH   2   6
ENDBRANCH   1   2
BRANCH   1   8
ATOM      8  C   UNL     1      -3.023  -3.784   5.933  1.00  0.00     0.029 C 
BRANCH   8   9
ATOM      9  C   UNL     1      -2.133  -4.646   6.789  1.00  0.00    -0.035 C 
ATOM     10  C   UNL     1      -0.925  -5.041   6.376  1.00  0.00     0.004 C 
ENDBRANCH   8   9
ENDBRANCH   1   8
TORSDOF 6
ENDMDL
MODEL 3
REMARK VINA RESULT:    -2.705     13.217     14.456
REMARK INTER + INTRA:          -4.185
REMARK INTER:                  -3.534
REMARK INTRA:                  -0.651
REMARK UNBOUND:                -0.610
REMARK SMILES C=CCC[C@@H](O)CCC
REMARK SMILES IDX 4 1 5 2 7 3 8 4 9 5 6 6 3 8 2 9 1 10
REMARK H PARENT 6 7
REMARK Flexibility Score: inf
ROOT
ATOM      1  C   UNL     1       6.111   1.729   0.181  1.00  0.00     0.036 C 
ENDROOT
BRANCH   1   2
ATOM      2  C   UNL     1       5.374   3.012  -0.265  1.00  0.00     0.114 C 
BRANCH   2   3
ATOM      3  C   UNL     1       5.467   3.251  -1.782  1.00  0.00     0.031 C 
BRANCH   3   4
ATOM      4  C   UNL     1       5.844   1.967  -2.532  1.00  0.00    -0.001 C 
ATOM      5  C   UNL     1       6.838   2.255  -3.653  1.00  0.00     0.004 C 
ENDBRANCH   3   4
ENDBRANCH   2   3
BRANCH   2   6
ATOM      6  O   UNL     1       5.875   4.133   0.420  1.00  0.00    -0.393 OA
ATOM      7  H   UNL     1       5.413   4.928   0.046  1.00  0.00     0.210 HD
ENDBRANCH   2   6
ENDBRANCH   1   2
BRANCH   1   8
ATOM      8  C   UNL     1       7.381   1.969   1.023  1.00  0.00     0.029 C 
BRANCH   8   9
ATOM      9  C   UNL     1       8.651   1.821   0.228  1.00  0.00    -0.035 C 
ATOM     10  C   UNL     1       9.031   2.734  -0.670  1.00  0.00     0.004 C 
ENDBRANCH   8   9
ENDBRANCH   1   8
TORSDOF 6
ENDMDL
MODEL 4
REMARK VINA RESULT:    -2.702     13.399     14.503
REMARK INTER + INTRA:          -4.181
REMARK INTER:                  -3.846
REMARK INTRA:                  -0.335
REMARK UNBOUND:                -0.610
REMARK SMILES C=CCC[C@@H](O)CCC
REMARK SMILES IDX 4 1 5 2 7 3 8 4 9 5 6 6 3 8 2 9 1 10
REMARK H PARENT 6 7
REMARK Flexibility Score: inf
ROOT
ATOM      1  C   UNL     1       5.584   3.189  -0.069  1.00  0.00     0.036 C 
ENDROOT
BRANCH   1   2
ATOM      2  C   UNL     1       6.103   3.883  -1.349  1.00  0.00     0.114 C 
BRANCH   2   3
ATOM      3  C   UNL     1       5.539   3.254  -2.634  1.00  0.00     0.031 C 
BRANCH   3   4
ATOM      4  C   UNL     1       4.695   4.259  -3.429  1.00  0.00    -0.001 C 
ATOM      5  C   UNL     1       5.240   5.676  -3.281  1.00  0.00     0.004 C 
ENDBRANCH   3   4
ENDBRANCH   2   3
BRANCH   2   6
ATOM      6  O   UNL     1       7.508   3.857  -1.389  1.00  0.00    -0.393 OA
ATOM      7  H   UNL     1       7.810   4.799  -1.480  1.00  0.00     0.210 HD
ENDBRANCH   2   6
ENDBRANCH   1   2
BRANCH   1   8
ATOM      8  C   UNL     1       5.622   1.647  -0.106  1.00  0.00     0.029 C 
BRANCH   8   9
ATOM      9  C   UNL     1       6.796   1.069   0.638  1.00  0.00    -0.035 C 
ATOM     10  C   UNL     1       7.495   1.788   1.520  1.00  0.00     0.004 C 
ENDBRANCH   8   9
ENDBRANCH   1   8
TORSDOF 6
ENDMDL
MODEL 5
REMARK VINA RESULT:    -2.683     14.192     15.303
REMARK INTER + INTRA:          -4.155
REMARK INTER:                  -3.566
REMARK INTRA:                  -0.589
REMARK UNBOUND:                -0.610
REMARK SMILES C=CCC[C@@H](O)CCC
REMARK SMILES IDX 4 1 5 2 7 3 8 4 9 5 6 6 3 8 2 9 1 10
REMARK H PARENT 6 7
REMARK Flexibility Score: inf
ROOT
ATOM      1  C   UNL     1       5.928   2.878  -1.716  1.00  0.00     0.036 C 
ENDROOT
BRANCH   1   2
ATOM      2  C   UNL     1       6.060   4.006  -2.765  1.00  0.00     0.114 C 
BRANCH   2   3
ATOM      3  C   UNL     1       7.487   4.127  -3.327  1.00  0.00     0.031 C 
BRANCH   3   4
ATOM      4  C   UNL     1       8.474   3.244  -2.554  1.00  0.00    -0.001 C 
ATOM      5  C   UNL     1       9.477   4.090  -1.774  1.00  0.00     0.004 C 
ENDBRANCH   3   4
ENDBRANCH   2   3
BRANCH   2   6
ATOM      6  O   UNL     1       5.663   5.238  -2.218  1.00  0.00    -0.393 OA
ATOM      7  H   UNL     1       6.248   5.933  -2.620  1.00  0.00     0.210 HD
ENDBRANCH   2   6
ENDBRANCH   1   2
BRANCH   1   8
ATOM      8  C   UNL     1       5.592   3.356  -0.289  1.00  0.00     0.029 C 
BRANCH   8   9
ATOM      9  C   UNL     1       6.634   2.963   0.724  1.00  0.00    -0.035 C 
ATOM     10  C   UNL     1       7.239   1.773   0.689  1.00  0.00     0.004 C 
ENDBRANCH   8   9
ENDBRANCH   1   8
TORSDOF 6
ENDMDL
MODEL 6
REMARK VINA RESULT:    -2.657     13.337     14.443
REMARK INTER + INTRA:          -4.121
REMARK INTER:                  -3.714
REMARK INTRA:                  -0.406
REMARK UNBOUND:                -0.610
REMARK SMILES C=CCC[C@@H](O)CCC
REMARK SMILES IDX 4 1 5 2 7 3 8 4 9 5 6 6 3 8 2 9 1 10
REMARK H PARENT 6 7
REMARK Flexibility Score: inf
ROOT
ATOM      1  C   UNL     1       6.813   3.611  -1.801  1.00  0.00     0.036 C 
ENDROOT
BRANCH   1   2
ATOM      2  C   UNL     1       6.425   3.194  -0.364  1.00  0.00     0.114 C 
BRANCH   2   3
ATOM      3  C   UNL     1       5.475   1.984  -0.336  1.00  0.00     0.031 C 
BRANCH   3   4
ATOM      4  C   UNL     1       6.192   0.717   0.148  1.00  0.00    -0.001 C 
ATOM      5  C   UNL     1       7.366   1.061   1.060  1.00  0.00     0.004 C 
ENDBRANCH   3   4
ENDBRANCH   2   3
BRANCH   2   6
ATOM      6  O   UNL     1       5.836   4.271   0.320  1.00  0.00    -0.393 OA
ATOM      7  H   UNL     1       6.566   4.733   0.811  1.00  0.00     0.210 HD
ENDBRANCH   2   6
ENDBRANCH   1   2
BRANCH   1   8
ATOM      8  C   UNL     1       5.785   3.234  -2.887  1.00  0.00     0.029 C 
BRANCH   8   9
ATOM      9  C   UNL     1       4.905   4.387  -3.289  1.00  0.00    -0.035 C 
ATOM     10  C   UNL     1       5.336   5.651  -3.251  1.00  0.00     0.004 C 
ENDBRANCH   8   9
ENDBRANCH   1   8
TORSDOF 6
ENDMDL
MODEL 7
REMARK VINA RESULT:    -2.630     11.551     12.630
REMARK INTER + INTRA:          -4.086
REMARK INTER:                  -3.508
REMARK INTRA:                  -0.578
REMARK UNBOUND:                -0.610
REMARK SMILES C=CCC[C@@H](O)CCC
REMARK SMILES IDX 4 1 5 2 7 3 8 4 9 5 6 6 3 8 2 9 1 10
REMARK H PARENT 6 7
REMARK Flexibility Score: inf
ROOT
ATOM      1  C   UNL     1      -1.577   4.594  -2.623  1.00  0.00     0.036 C 
ENDROOT
BRANCH   1   2
ATOM      2  C   UNL     1      -2.601   3.628  -3.264  1.00  0.00     0.114 C 
BRANCH   2   3
ATOM      3  C   UNL     1      -4.034   3.863  -2.755  1.00  0.00     0.031 C 
BRANCH   3   4
ATOM      4  C   UNL     1      -4.467   5.322  -2.947  1.00  0.00    -0.001 C 
ATOM      5  C   UNL     1      -5.152   5.863  -1.694  1.00  0.00     0.004 C 
ENDBRANCH   3   4
ENDBRANCH   2   3
BRANCH   2   6
ATOM      6  O   UNL     1      -2.231   2.292  -3.032  1.00  0.00    -0.393 OA
ATOM      7  H   UNL     1      -1.801   2.265  -2.137  1.00  0.00     0.210 HD
ENDBRANCH   2   6
ENDBRANCH   1   2
BRANCH   1   8
ATOM      8  C   UNL     1      -1.462   4.492  -1.088  1.00  0.00     0.029 C 
BRANCH   8   9
ATOM      9  C   UNL     1      -1.302   5.832  -0.421  1.00  0.00    -0.035 C 
ATOM     10  C   UNL     1      -1.694   6.966  -1.010  1.00  0.00     0.004 C 
ENDBRANCH   8   9
ENDBRANCH   1   8
TORSDOF 6
ENDMDL
MODEL 8
REMARK VINA RESULT:    -2.613     13.077     14.309
REMARK INTER + INTRA:          -4.063
REMARK INTER:                  -3.442
REMARK INTRA:                  -0.620
REMARK UNBOUND:                -0.610
REMARK SMILES C=CCC[C@@H](O)CCC
REMARK SMILES IDX 4 1 5 2 7 3 8 4 9 5 6 6 3 8 2 9 1 10
REMARK H PARENT 6 7
REMARK Flexibility Score: inf
ROOT
ATOM      1  C   UNL     1       5.857   1.615  -0.030  1.00  0.00     0.036 C 
ENDROOT
BRANCH   1   2
ATOM      2  C   UNL     1       6.923   1.217   1.018  1.00  0.00     0.114 C 
BRANCH   2   3
ATOM      3  C   UNL     1       8.223   2.027   0.877  1.00  0.00     0.031 C 
BRANCH   3   4
ATOM      4  C   UNL     1       8.892   1.786  -0.482  1.00  0.00    -0.001 C 
ATOM      5  C   UNL     1       9.283   3.103  -1.147  1.00  0.00     0.004 C 
ENDBRANCH   3   4
ENDBRANCH   2   3
BRANCH   2   6
ATOM      6  O   UNL     1       7.212  -0.156   0.930  1.00  0.00    -0.393 OA
ATOM      7  H   UNL     1       7.479  -0.452   1.840  1.00  0.00     0.210 HD
ENDBRANCH   2   6
ENDBRANCH   1   2
BRANCH   1   8
ATOM      8  C   UNL     1       5.524   3.120  -0.077  1.00  0.00     0.029 C 
BRANCH   8   9
ATOM      9  C   UNL     1       5.581   3.691  -1.469  1.00  0.00    -0.035 C 
ATOM     10  C   UNL     1       5.789   2.921  -2.540  1.00  0.00     0.004 C 
ENDBRANCH   8   9
ENDBRANCH   1   8
TORSDOF 6
ENDMDL
MODEL 9
REMARK VINA RESULT:    -2.540     10.292     11.081
REMARK INTER + INTRA:          -3.966
REMARK INTER:                  -3.372
REMARK INTRA:                  -0.594
REMARK UNBOUND:                -0.610
REMARK SMILES C=CCC[C@@H](O)CCC
REMARK SMILES IDX 4 1 5 2 7 3 8 4 9 5 6 6 3 8 2 9 1 10
REMARK H PARENT 6 7
REMARK Flexibility Score: inf
ROOT
ATOM      1  C   UNL     1      -0.312  -5.062  -5.517  1.00  0.00     0.036 C 
ENDROOT
BRANCH   1   2
ATOM      2  C   UNL     1      -0.703  -3.729  -4.839  1.00  0.00     0.114 C 
BRANCH   2   3
ATOM      3  C   UNL     1      -1.630  -2.869  -5.714  1.00  0.00     0.031 C 
BRANCH   3   4
ATOM      4  C   UNL     1      -3.091  -2.971  -5.256  1.00  0.00    -0.001 C 
ATOM      5  C   UNL     1      -4.045  -2.949  -6.447  1.00  0.00     0.004 C 
ENDBRANCH   3   4
ENDBRANCH   2   3
BRANCH   2   6
ATOM      6  O   UNL     1       0.446  -2.991  -4.503  1.00  0.00    -0.393 OA
ATOM      7  H   UNL     1       0.186  -2.033  -4.518  1.00  0.00     0.210 HD
ENDBRANCH   2   6
ENDBRANCH   1   2
BRANCH   1   8
ATOM      8  C   UNL     1      -1.248  -6.248  -5.206  1.00  0.00     0.029 C 
BRANCH   8   9
ATOM      9  C   UNL     1      -2.186  -6.570  -6.338  1.00  0.00    -0.035 C 
ATOM     10  C   UNL     1      -1.969  -6.130  -7.581  1.00  0.00     0.004 C 
ENDBRANCH   8   9
ENDBRANCH   1   8
TORSDOF 6
ENDMDL
