MODEL 1
REMARK VINA RESULT:    -4.524      0.000      0.000
REMARK INTER + INTRA:          -7.454
REMARK INTER:                  -6.507
REMARK INTRA:                  -0.947
REMARK UNBOUND:                -0.947
REMARK SMILES O=C(CO)[C@@H](O)[C@H](O)[C@H](O)CO
REMARK SMILES IDX 7 1 9 2 11 3 12 4 10 6 5 8 2 9 1 10 3 11 4 12 6 14 8 16
REMARK H PARENT 12 5 10 7 4 13 6 15 8 17
REMARK Flexibility Score: inf
ROOT
ATOM      1  C   UNL     1       6.540 -11.469 -18.275  1.00  0.00     0.181 C 
ENDROOT
BRANCH   1   2
ATOM      2  C   UNL     1       7.416 -10.639 -17.301  1.00  0.00     0.171 C 
BRANCH   2   3
ATOM      3  C   UNL     1       8.908 -10.719 -17.662  1.00  0.00     0.190 C 
BRANCH   3   4
ATOM      4  O   UNL     1       9.370 -12.028 -17.472  1.00  0.00    -0.394 OA
ATOM      5  H   UNL     1       8.709 -12.621 -17.914  1.00  0.00     0.210 HD
ENDBRANCH   3   4
ENDBRANCH   2   3
BRANCH   2   6
ATOM      6  O   UNL     1       7.000  -9.295 -17.271  1.00  0.00    -0.388 OA
ATOM      7  H   UNL     1       6.412  -9.181 -16.478  1.00  0.00     0.211 HD
ENDBRANCH   2   6
ENDBRANCH   1   2
BRANCH   1   8
ATOM      8  C   UNL     1       5.763 -12.589 -17.536  1.00  0.00     0.214 C 
BRANCH   8   9
ATOM      9  C   UNL     1       4.716 -13.217 -18.437  1.00  0.00     0.189 C 
ATOM     10  O   UNL     1       4.390 -12.634 -19.462  1.00  0.00    -0.294 OA
BRANCH   9  11
ATOM     11  C   UNL     1       4.034 -14.516 -18.094  1.00  0.00     0.234 C 
BRANCH  11  12
ATOM     12  O   UNL     1       4.946 -15.578 -18.162  1.00  0.00    -0.388 OA
ATOM     13  H   UNL     1       4.464 -16.338 -18.582  1.00  0.00     0.211 HD
ENDBRANCH  11  12
ENDBRANCH   9  11
ENDBRANCH   8   9
BRANCH   8  14
ATOM     14  O   UNL     1       6.632 -13.556 -16.994  1.00  0.00    -0.382 OA
ATOM     15  H   UNL     1       7.564 -13.262 -17.165  1.00  0.00     0.211 HD
ENDBRANCH   8  14
ENDBRANCH   1   8
BRANCH   1  16
ATOM     16  O   UNL     1       7.348 -12.043 -19.275  1.00  0.00    -0.387 OA
ATOM     17  H   UNL     1       7.304 -13.028 -19.160  1.00  0.00     0.211 HD
ENDBRANCH   1  16
TORSDOF 10
ENDMDL
MODEL 2
REMARK VINA RESULT:    -4.169      1.089      4.462
REMARK INTER + INTRA:          -6.943
REMARK INTER:                  -6.238
REMARK INTRA:                  -0.706
REMARK UNBOUND:                -0.947
REMARK SMILES O=C(CO)[C@@H](O)[C@H](O)[C@H](O)CO
REMARK SMILES IDX 7 1 9 2 11 3 12 4 10 6 5 8 2 9 1 10 3 11 4 12 6 14 8 16
REMARK H PARENT 12 5 10 7 4 13 6 15 8 17
REMARK Flexibility Score: inf
ROOT
ATOM      1  C   UNL     1       5.815 -12.664 -17.817  1.00  0.00     0.181 C 
ENDROOT
BRANCH   1   2
ATOM      2  C   UNL     1       4.790 -13.307 -18.788  1.00  0.00     0.171 C 
BRANCH   2   3
ATOM      3  C   UNL     1       4.063 -14.500 -18.147  1.00  0.00     0.190 C 
BRANCH   3   4
ATOM      4  O   UNL     1       4.833 -15.660 -18.298  1.00  0.00    -0.394 OA
ATOM      5  H   UNL     1       4.216 -16.422 -18.147  1.00  0.00     0.210 HD
ENDBRANCH   3   4
ENDBRANCH   2   3
BRANCH   2   6
ATOM      6  O   UNL     1       3.855 -12.355 -19.234  1.00  0.00    -0.388 OA
ATOM      7  H   UNL     1       3.784 -11.654 -18.534  1.00  0.00     0.211 HD
ENDBRANCH   2   6
ENDBRANCH   1   2
BRANCH   1   8
ATOM      8  C   UNL     1       6.969 -11.965 -18.580  1.00  0.00     0.214 C 
BRANCH   8   9
ATOM      9  C   UNL     1       6.702 -10.478 -18.736  1.00  0.00     0.189 C 
ATOM     10  O   UNL     1       6.112 -10.084 -19.732  1.00  0.00    -0.294 OA
BRANCH   9  11
ATOM     11  C   UNL     1       7.174  -9.467 -17.724  1.00  0.00     0.234 C 
BRANCH  11  12
ATOM     12  O   UNL     1       8.575  -9.430 -17.688  1.00  0.00    -0.388 OA
ATOM     13  H   UNL     1       8.837  -8.486 -17.852  1.00  0.00     0.211 HD
ENDBRANCH  11  12
ENDBRANCH   9  11
ENDBRANCH   8   9
BRANCH   8  14
ATOM     14  O   UNL     1       8.218 -12.211 -17.979  1.00  0.00    -0.382 OA
ATOM     15  H   UNL     1       8.547 -13.090 -18.301  1.00  0.00     0.211 HD
ENDBRANCH   8  14
ENDBRANCH   1   8
BRANCH   1  16
ATOM     16  O   UNL     1       6.350 -13.649 -16.965  1.00  0.00    -0.387 OA
ATOM     17  H   UNL     1       6.957 -14.214 -17.511  1.00  0.00     0.211 HD
ENDBRANCH   1  16
TORSDOF 10
ENDMDL
MODEL 3
REMARK VINA RESULT:    -4.075      3.046      4.784
REMARK INTER + INTRA:          -6.808
REMARK INTER:                  -5.933
REMARK INTRA:                  -0.875
REMARK UNBOUND:                -0.947
REMARK SMILES O=C(CO)[C@@H](O)[C@H](O)[C@H](O)CO
REMARK SMILES IDX 7 1 9 2 11 3 12 4 10 6 5 8 2 9 1 10 3 11 4 12 6 14 8 16
REMARK H PARENT 12 5 10 7 4 13 6 15 8 17
REMARK Flexibility Score: inf
ROOT
ATOM      1  C   UNL     1       3.283 -14.044 -19.340  1.00  0.00     0.181 C 
ENDROOT
BRANCH   1   2
ATOM      2  C   UNL     1       4.392 -13.335 -18.519  1.00  0.00     0.171 C 
BRANCH   2   3
ATOM      3  C   UNL     1       4.813 -14.161 -17.293  1.00  0.00     0.190 C 
BRANCH   3   4
ATOM      4  O   UNL     1       5.150 -15.460 -17.692  1.00  0.00    -0.394 OA
ATOM      5  H   UNL     1       4.615 -15.646 -18.507  1.00  0.00     0.210 HD
ENDBRANCH   3   4
ENDBRANCH   2   3
BRANCH   2   6
ATOM      6  O   UNL     1       5.514 -13.059 -19.323  1.00  0.00    -0.388 OA
ATOM      7  H   UNL     1       5.269 -13.270 -20.262  1.00  0.00     0.211 HD
ENDBRANCH   2   6
ENDBRANCH   1   2
BRANCH   1   8
ATOM      8  C   UNL     1       2.751 -13.142 -20.484  1.00  0.00     0.214 C 
BRANCH   8   9
ATOM      9  C   UNL     1       1.313 -13.486 -20.830  1.00  0.00     0.189 C 
ATOM     10  O   UNL     1       0.414 -12.794 -20.375  1.00  0.00    -0.294 OA
BRANCH   9  11
ATOM     11  C   UNL     1       0.954 -14.673 -21.685  1.00  0.00     0.234 C 
BRANCH  11  12
ATOM     12  O   UNL     1       0.745 -15.805 -20.886  1.00  0.00    -0.388 OA
ATOM     13  H   UNL     1       0.368 -15.479 -20.027  1.00  0.00     0.211 HD
ENDBRANCH  11  12
ENDBRANCH   9  11
ENDBRANCH   8   9
BRANCH   8  14
ATOM     14  O   UNL     1       2.902 -11.774 -20.184  1.00  0.00    -0.382 OA
ATOM     15  H   UNL     1       2.415 -11.252 -20.873  1.00  0.00     0.211 HD
ENDBRANCH   8  14
ENDBRANCH   1   8
BRANCH   1  16
ATOM     16  O   UNL     1       2.216 -14.402 -18.495  1.00  0.00    -0.387 OA
ATOM     17  H   UNL     1       2.415 -15.306 -18.135  1.00  0.00     0.211 HD
ENDBRANCH   1  16
TORSDOF 10
ENDMDL
MODEL 4
REMARK VINA RESULT:    -3.864      2.256      5.258
REMARK INTER + INTRA:          -6.505
REMARK INTER:                  -5.716
REMARK INTRA:                  -0.789
REMARK UNBOUND:                -0.947
REMARK SMILES O=C(CO)[C@@H](O)[C@H](O)[C@H](O)CO
REMARK SMILES IDX 7 1 9 2 11 3 12 4 10 6 5 8 2 9 1 10 3 11 4 12 6 14 8 16
REMARK H PARENT 12 5 10 7 4 13 6 15 8 17
REMARK Flexibility Score: inf
ROOT
ATOM      1  C   UNL     1       7.348 -10.160 -18.098  1.00  0.00     0.181 C 
ENDROOT
BRANCH   1   2
ATOM      2  C   UNL     1       7.564 -11.514 -17.373  1.00  0.00     0.171 C 
BRANCH   2   3
ATOM      3  C   UNL     1       6.239 -12.259 -17.145  1.00  0.00     0.190 C 
BRANCH   3   4
ATOM      4  O   UNL     1       6.478 -13.638 -17.075  1.00  0.00    -0.394 OA
ATOM      5  H   UNL     1       6.972 -13.874 -17.903  1.00  0.00     0.210 HD
ENDBRANCH   3   4
ENDBRANCH   2   3
BRANCH   2   6
ATOM      6  O   UNL     1       8.458 -12.330 -18.090  1.00  0.00    -0.388 OA
ATOM      7  H   UNL     1       9.317 -12.344 -17.592  1.00  0.00     0.211 HD
ENDBRANCH   2   6
ENDBRANCH   1   2
BRANCH   1   8
ATOM      8  C   UNL     1       8.634  -9.684 -18.821  1.00  0.00     0.214 C 
BRANCH   8   9
ATOM      9  C   UNL     1       8.354  -8.483 -19.706  1.00  0.00     0.189 C 
ATOM     10  O   UNL     1       7.679  -8.635 -20.714  1.00  0.00    -0.294 OA
BRANCH   9  11
ATOM     11  C   UNL     1       8.911  -7.116 -19.405  1.00  0.00     0.234 C 
BRANCH  11  12
ATOM     12  O   UNL     1       8.533  -6.707 -18.119  1.00  0.00    -0.388 OA
ATOM     13  H   UNL     1       7.877  -7.376 -17.791  1.00  0.00     0.211 HD
ENDBRANCH  11  12
ENDBRANCH   9  11
ENDBRANCH   8   9
BRANCH   8  14
ATOM     14  O   UNL     1       9.680  -9.431 -17.913  1.00  0.00    -0.382 OA
ATOM     15  H   UNL     1       9.280  -9.104 -17.066  1.00  0.00     0.211 HD
ENDBRANCH   8  14
ENDBRANCH   1   8
BRANCH   1  16
ATOM     16  O   UNL     1       6.946  -9.180 -17.170  1.00  0.00    -0.387 OA
ATOM     17  H   UNL     1       7.031  -8.297 -17.617  1.00  0.00     0.211 HD
ENDBRANCH   1  16
TORSDOF 10
ENDMDL
MODEL 5
REMARK VINA RESULT:    -3.862      1.440      4.226
REMARK INTER + INTRA:          -6.503
REMARK INTER:                  -5.800
REMARK INTRA:                  -0.703
REMARK UNBOUND:                -0.947
REMARK SMILES O=C(CO)[C@@H](O)[C@H](O)[C@H](O)CO
REMARK SMILES IDX 7 1 9 2 11 3 12 4 10 6 5 8 2 9 1 10 3 11 4 12 6 14 8 16
REMARK H PARENT 12 5 10 7 4 13 6 15 8 17
REMARK Flexibility Score: inf
ROOT
ATOM      1  C   UNL     1       5.387 -12.548 -19.123  1.00  0.00     0.181 C 
ENDROOT
BRANCH   1   2
ATOM      2  C   UNL     1       5.493 -12.840 -17.603  1.00  0.00     0.171 C 
BRANCH   2   3
ATOM      3  C   UNL     1       4.620 -14.035 -17.188  1.00  0.00     0.190 C 
BRANCH   3   4
ATOM      4  O   UNL     1       3.322 -13.869 -17.687  1.00  0.00    -0.394 OA
ATOM      5  H   UNL     1       3.424 -13.528 -18.614  1.00  0.00     0.210 HD
ENDBRANCH   3   4
ENDBRANCH   2   3
BRANCH   2   6
ATOM      6  O   UNL     1       6.830 -13.066 -17.227  1.00  0.00    -0.388 OA
ATOM      7  H   UNL     1       7.219 -13.708 -17.877  1.00  0.00     0.211 HD
ENDBRANCH   2   6
ENDBRANCH   1   2
BRANCH   1   8
ATOM      8  C   UNL     1       6.528 -11.618 -19.610  1.00  0.00     0.214 C 
BRANCH   8   9
ATOM      9  C   UNL     1       6.315 -10.192 -19.135  1.00  0.00     0.189 C 
ATOM     10  O   UNL     1       5.380  -9.550 -19.592  1.00  0.00    -0.294 OA
BRANCH   9  11
ATOM     11  C   UNL     1       7.238  -9.527 -18.148  1.00  0.00     0.234 C 
BRANCH  11  12
ATOM     12  O   UNL     1       7.112 -10.121 -16.885  1.00  0.00    -0.388 OA
ATOM     13  H   UNL     1       7.074  -9.379 -16.226  1.00  0.00     0.211 HD
ENDBRANCH  11  12
ENDBRANCH   9  11
ENDBRANCH   8   9
BRANCH   8  14
ATOM     14  O   UNL     1       7.795 -12.108 -19.238  1.00  0.00    -0.382 OA
ATOM     15  H   UNL     1       8.026 -11.723 -18.353  1.00  0.00     0.211 HD
ENDBRANCH   8  14
ENDBRANCH   1   8
BRANCH   1  16
ATOM     16  O   UNL     1       4.144 -11.950 -19.410  1.00  0.00    -0.387 OA
ATOM     17  H   UNL     1       3.575 -12.050 -18.603  1.00  0.00     0.211 HD
ENDBRANCH   1  16
TORSDOF 10
ENDMDL
MODEL 6
REMARK VINA RESULT:    -3.845      1.623      4.687
REMARK INTER + INTRA:          -6.477
REMARK INTER:                  -5.045
REMARK INTRA:                  -1.432
REMARK UNBOUND:                -0.947
REMARK SMILES O=C(CO)[C@@H](O)[C@H](O)[C@H](O)CO
REMARK SMILES IDX 7 1 9 2 11 3 12 4 10 6 5 8 2 9 1 10 3 11 4 12 6 14 8 16
REMARK H PARENT 12 5 10 7 4 13 6 15 8 17
REMARK Flexibility Score: inf
ROOT
ATOM      1  C   UNL     1       7.877 -11.925 -17.841  1.00  0.00     0.181 C 
ENDROOT
BRANCH   1   2
ATOM      2  C   UNL     1       6.412 -12.348 -17.556  1.00  0.00     0.171 C 
BRANCH   2   3
ATOM      3  C   UNL     1       5.548 -12.311 -18.827  1.00  0.00     0.190 C 
BRANCH   3   4
ATOM      4  O   UNL     1       5.474 -10.998 -19.309  1.00  0.00    -0.394 OA
ATOM      5  H   UNL     1       6.122 -10.942 -20.059  1.00  0.00     0.210 HD
ENDBRANCH   3   4
ENDBRANCH   2   3
BRANCH   2   6
ATOM      6  O   UNL     1       6.363 -13.630 -16.978  1.00  0.00    -0.388 OA
ATOM      7  H   UNL     1       6.198 -14.282 -17.708  1.00  0.00     0.211 HD
ENDBRANCH   2   6
ENDBRANCH   1   2
BRANCH   1   8
ATOM      8  C   UNL     1       8.179 -10.504 -17.301  1.00  0.00     0.214 C 
BRANCH   8   9
ATOM      9  C   UNL     1       8.947  -9.681 -18.319  1.00  0.00     0.189 C 
ATOM     10  O   UNL     1      10.124  -9.942 -18.525  1.00  0.00    -0.294 OA
BRANCH   9  11
ATOM     11  C   UNL     1       8.320  -8.527 -19.059  1.00  0.00     0.234 C 
BRANCH  11  12
ATOM     12  O   UNL     1       7.289  -8.984 -19.891  1.00  0.00    -0.388 OA
ATOM     13  H   UNL     1       7.335  -8.443 -20.722  1.00  0.00     0.211 HD
ENDBRANCH  11  12
ENDBRANCH   9  11
ENDBRANCH   8   9
BRANCH   8  14
ATOM     14  O   UNL     1       7.008  -9.847 -16.876  1.00  0.00    -0.382 OA
ATOM     15  H   UNL     1       7.135  -8.872 -17.013  1.00  0.00     0.211 HD
ENDBRANCH   8  14
ENDBRANCH   1   8
BRANCH   1  16
ATOM     16  O   UNL     1       8.125 -11.959 -19.227  1.00  0.00    -0.387 OA
ATOM     17  H   UNL     1       7.686 -11.162 -19.625  1.00  0.00     0.211 HD
ENDBRANCH   1  16
TORSDOF 10
ENDMDL
MODEL 7
REMARK VINA RESULT:    -3.814      2.726      4.946
REMARK INTER + INTRA:          -6.432
REMARK INTER:                  -4.948
REMARK INTRA:                  -1.484
REMARK UNBOUND:                -0.947
REMARK SMILES O=C(CO)[C@@H](O)[C@H](O)[C@H](O)CO
REMARK SMILES IDX 7 1 9 2 11 3 12 4 10 6 5 8 2 9 1 10 3 11 4 12 6 14 8 16
REMARK H PARENT 12 5 10 7 4 13 6 15 8 17
REMARK Flexibility Score: inf
ROOT
ATOM      1  C   UNL     1       7.025 -10.312 -18.115  1.00  0.00     0.181 C 
ENDROOT
BRANCH   1   2
ATOM      2  C   UNL     1       8.166 -11.359 -18.015  1.00  0.00     0.171 C 
BRANCH   2   3
ATOM      3  C   UNL     1       9.200 -10.978 -16.943  1.00  0.00     0.190 C 
BRANCH   3   4
ATOM      4  O   UNL     1      10.000  -9.928 -17.410  1.00  0.00    -0.394 OA
ATOM      5  H   UNL     1      10.095  -9.294 -16.652  1.00  0.00     0.210 HD
ENDBRANCH   3   4
ENDBRANCH   2   3
BRANCH   2   6
ATOM      6  O   UNL     1       7.650 -12.641 -17.752  1.00  0.00    -0.388 OA
ATOM      7  H   UNL     1       7.989 -12.924 -16.862  1.00  0.00     0.211 HD
ENDBRANCH   2   6
ENDBRANCH   1   2
BRANCH   1   8
ATOM      8  C   UNL     1       7.151  -9.447 -19.395  1.00  0.00     0.214 C 
BRANCH   8   9
ATOM      9  C   UNL     1       6.901  -7.981 -19.094  1.00  0.00     0.189 C 
ATOM     10  O   UNL     1       5.758  -7.611 -18.864  1.00  0.00    -0.294 OA
BRANCH   9  11
ATOM     11  C   UNL     1       8.006  -6.957 -19.106  1.00  0.00     0.234 C 
BRANCH  11  12
ATOM     12  O   UNL     1       9.077  -7.386 -18.309  1.00  0.00    -0.388 OA
ATOM     13  H   UNL     1       9.905  -7.208 -18.828  1.00  0.00     0.211 HD
ENDBRANCH  11  12
ENDBRANCH   9  11
ENDBRANCH   8   9
BRANCH   8  14
ATOM     14  O   UNL     1       8.388  -9.644 -20.039  1.00  0.00    -0.382 OA
ATOM     15  H   UNL     1       8.262 -10.332 -20.743  1.00  0.00     0.211 HD
ENDBRANCH   8  14
ENDBRANCH   1   8
BRANCH   1  16
ATOM     16  O   UNL     1       7.043  -9.475 -16.983  1.00  0.00    -0.387 OA
ATOM     17  H   UNL     1       7.991  -9.241 -16.804  1.00  0.00     0.211 HD
ENDBRANCH   1  16
TORSDOF 10
ENDMDL
MODEL 8
REMARK VINA RESULT:    -3.782     17.684     18.806
REMARK INTER + INTRA:          -6.387
REMARK INTER:                  -5.600
REMARK INTRA:                  -0.787
REMARK UNBOUND:                -0.947
REMARK SMILES O=C(CO)[C@@H](O)[C@H](O)[C@H](O)CO
REMARK SMILES IDX 7 1 9 2 11 3 12 4 10 6 5 8 2 9 1 10 3 11 4 12 6 14 8 16
REMARK H PARENT 12 5 10 7 4 13 6 15 8 17
REMARK Flexibility Score: inf
ROOT
ATOM      1  C   UNL     1       1.253 -13.564 -35.455  1.00  0.00     0.181 C 
ENDROOT
BRANCH   1   2
ATOM      2  C   UNL     1       2.416 -13.373 -36.463  1.00  0.00     0.171 C 
BRANCH   2   3
ATOM      3  C   UNL     1       3.606 -12.632 -35.831  1.00  0.00     0.190 C 
BRANCH   3   4
ATOM      4  O   UNL     1       4.214 -13.449 -34.870  1.00  0.00    -0.394 OA
ATOM      5  H   UNL     1       3.501 -13.689 -34.221  1.00  0.00     0.210 HD
ENDBRANCH   3   4
ENDBRANCH   2   3
BRANCH   2   6
ATOM      6  O   UNL     1       2.840 -14.610 -36.983  1.00  0.00    -0.388 OA
ATOM      7  H   UNL     1       2.089 -14.984 -37.515  1.00  0.00     0.211 HD
ENDBRANCH   2   6
ENDBRANCH   1   2
BRANCH   1   8
ATOM      8  C   UNL     1      -0.125 -13.284 -36.108  1.00  0.00     0.214 C 
BRANCH   8   9
ATOM      9  C   UNL     1      -1.191 -13.035 -35.056  1.00  0.00     0.189 C 
ATOM     10  O   UNL     1      -1.259 -13.786 -34.094  1.00  0.00    -0.294 OA
BRANCH   9  11
ATOM     11  C   UNL     1      -2.193 -11.916 -35.176  1.00  0.00     0.234 C 
BRANCH  11  12
ATOM     12  O   UNL     1      -3.089 -12.174 -36.223  1.00  0.00    -0.388 OA
ATOM     13  H   UNL     1      -3.009 -11.414 -36.857  1.00  0.00     0.211 HD
ENDBRANCH  11  12
ENDBRANCH   9  11
ENDBRANCH   8   9
BRANCH   8  14
ATOM     14  O   UNL     1      -0.056 -12.231 -37.040  1.00  0.00    -0.382 OA
ATOM     15  H   UNL     1      -0.982 -12.001 -37.314  1.00  0.00     0.211 HD
ENDBRANCH   8  14
ENDBRANCH   1   8
BRANCH   1  16
ATOM     16  O   UNL     1       1.429 -12.707 -34.352  1.00  0.00    -0.387 OA
ATOM     17  H   UNL     1       0.637 -12.816 -33.764  1.00  0.00     0.211 HD
ENDBRANCH   1  16
TORSDOF 10
ENDMDL
