MODEL 1
REMARK VINA RESULT:    19.024      0.000      0.000
REMARK INTER + INTRA:          27.463
REMARK INTER:                  25.696
REMARK INTRA:                   1.767
REMARK UNBOUND:                 1.767
REMARK SMILES CC[C@H](CC[C@@H](C)[C@@H]1CC[C@H]2[C@H]3CC(=O)C4=CC(=O)CC[C@@]4(C)[C@H]3CC[C@@]21C)C(C)C
REMARK SMILES IDX 4 1 3 2 2 3 1 4 29 5 30 6 31 7 5 8 6 9 7 10 8 11 9 12 27 13
REMARK SMILES IDX 10 14 11 15 26 16 28 17 12 18 25 19 24 20 13 21 22 22 14 23
REMARK SMILES IDX 16 24 21 25 23 26 15 27 17 28 20 29 18 30 19 31
REMARK H PARENT
REMARK Flexibility Score: inf
ROOT
ATOM      1  C   UNL     1      -4.013 -12.562  -9.125  1.00  0.00     0.004 C 
ENDROOT
BRANCH   1   2
ATOM      2  C   UNL     1      -2.477 -12.309  -9.125  1.00  0.00    -0.009 C 
BRANCH   2   3
ATOM      3  C   UNL     1      -2.112 -11.144  -8.156  1.00  0.00     0.000 C 
ATOM      4  C   UNL     1      -1.362  -9.986  -8.816  1.00  0.00     0.004 C 
ENDBRANCH   2   3
BRANCH   2   5
ATOM      5  C   UNL     1      -1.728 -13.663  -8.851  1.00  0.00    -0.014 C 
ATOM      6  C   UNL     1      -1.040 -13.712  -7.478  1.00  0.00     0.007 C 
ATOM      7  C   UNL     1      -2.600 -14.908  -9.079  1.00  0.00     0.007 C 
ENDBRANCH   2   5
ENDBRANCH   1   2
BRANCH   1   8
ATOM      8  C   UNL     1      -4.857 -11.268  -9.094  1.00  0.00     0.004 C 
BRANCH   8   9
ATOM      9  C   UNL     1      -6.149 -11.398  -8.240  1.00  0.00    -0.011 C 
ATOM     10  C   UNL     1      -7.133 -12.388  -8.898  1.00  0.00     0.008 C 
BRANCH   9  11
ATOM     11  C   UNL     1      -5.773 -11.732  -6.751  1.00  0.00    -0.002 C 
ATOM     12  C   UNL     1      -4.602 -10.888  -6.174  1.00  0.00     0.005 C 
ATOM     13  C   UNL     1      -5.438 -13.225  -6.387  1.00  0.00    -0.026 C 
ATOM     14  C   UNL     1      -3.602 -11.859  -5.534  1.00  0.00     0.005 C 
ATOM     15  C   UNL     1      -3.915 -13.192  -6.197  1.00  0.00    -0.001 C 
ATOM     16  C   UNL     1      -5.735 -14.312  -7.445  1.00  0.00     0.007 C 
ATOM     17  C   UNL     1      -6.227 -13.568  -5.085  1.00  0.00     0.012 C 
ATOM     18  C   UNL     1      -3.268 -14.496  -5.671  1.00  0.00     0.004 C 
ATOM     19  C   UNL     1      -5.166 -15.691  -7.037  1.00  0.00     0.005 C 
ATOM     20  C   UNL     1      -3.651 -15.699  -6.610  1.00  0.00     0.003 C 
ATOM     21  C   UNL     1      -3.418 -14.754  -4.141  1.00  0.00     0.085 C 
ATOM     22  C   UNL     1      -3.180 -17.085  -6.014  1.00  0.00    -0.000 C 
ATOM     23  C   UNL     1      -4.013 -16.085  -3.778  1.00  0.00     0.159 C 
ATOM     24  C   UNL     1      -3.794 -17.275  -4.631  1.00  0.00     0.005 C 
ATOM     25  C   UNL     1      -3.596 -18.266  -6.953  1.00  0.00     0.020 C 
ATOM     26  C   UNL     1      -1.631 -17.094  -5.873  1.00  0.00     0.017 C 
ATOM     27  O   UNL     1      -4.655 -16.182  -2.696  1.00  0.00    -0.295 OA
ATOM     28  C   UNL     1      -4.059 -18.505  -4.147  1.00  0.00     0.055 C 
ATOM     29  C   UNL     1      -3.302 -19.644  -6.347  1.00  0.00     0.081 C 
ATOM     30  C   UNL     1      -3.818 -19.724  -4.941  1.00  0.00     0.156 C 
ATOM     31  O   UNL     1      -4.026 -20.854  -4.421  1.00  0.00    -0.295 OA
ENDBRANCH   9  11
ENDBRANCH   8   9
ENDBRANCH   1   8
TORSDOF 6
ENDMDL
