MODEL 1
REMARK VINA RESULT:    -2.641      0.000      0.000
REMARK INTER + INTRA:          -2.641
REMARK INTER:                  -2.641
REMARK INTRA:                   0.000
REMARK UNBOUND:                 0.000
REMARK SMILES CC(=O)[O-]
REMARK SMILES IDX 1 1 2 2 3 3 4 4
REMARK H PARENT
REMARK Flexibility Score: inf
ROOT
ATOM      1  C   UNL     1      -2.678   3.991  31.243  1.00  0.00     0.063 C 
ATOM      2  C   UNL     1      -1.440   3.208  31.524  1.00  0.00     0.038 C 
ATOM      3  O   UNL     1      -0.688   2.854  30.579  1.00  0.00    -0.550 OA
ATOM      4  O   UNL     1      -1.084   2.916  32.834  1.00  0.00    -0.550 OA
ENDROOT
TORSDOF 0
ENDMDL
MODEL 2
REMARK VINA RESULT:    -2.552     16.571     17.164
REMARK INTER + INTRA:          -2.552
REMARK INTER:                  -2.552
REMARK INTRA:                   0.000
REMARK UNBOUND:                 0.000
REMARK SMILES CC(=O)[O-]
REMARK SMILES IDX 1 1 2 2 3 3 4 4
REMARK H PARENT
REMARK Flexibility Score: inf
ROOT
ATOM      1  C   UNL     1       2.849   0.137  14.292  1.00  0.00     0.063 C 
ATOM      2  C   UNL     1       1.554   0.128  15.031  1.00  0.00     0.038 C 
ATOM      3  O   UNL     1       0.608  -0.604  14.639  1.00  0.00    -0.550 OA
ATOM      4  O   UNL     1       1.408   0.883  16.187  1.00  0.00    -0.550 OA
ENDROOT
TORSDOF 0
ENDMDL
MODEL 3
REMARK VINA RESULT:    -2.507     15.558     16.058
REMARK INTER + INTRA:          -2.507
REMARK INTER:                  -2.507
REMARK INTRA:                   0.000
REMARK UNBOUND:                 0.000
REMARK SMILES CC(=O)[O-]
REMARK SMILES IDX 1 1 2 2 3 3 4 4
REMARK H PARENT
REMARK Flexibility Score: inf
ROOT
ATOM      1  C   UNL     1       3.264   2.510  15.150  1.00  0.00     0.063 C 
ATOM      2  C   UNL     1       2.821   1.652  16.287  1.00  0.00     0.038 C 
ATOM      3  O   UNL     1       3.488   1.622  17.354  1.00  0.00    -0.550 OA
ATOM      4  O   UNL     1       1.640   0.927  16.192  1.00  0.00    -0.550 OA
ENDROOT
TORSDOF 0
ENDMDL
MODEL 4
REMARK VINA RESULT:    -2.490     15.521     16.006
REMARK INTER + INTRA:          -2.490
REMARK INTER:                  -2.490
REMARK INTRA:                   0.000
REMARK UNBOUND:                 0.000
REMARK SMILES CC(=O)[O-]
REMARK SMILES IDX 1 1 2 2 3 3 4 4
REMARK H PARENT
REMARK Flexibility Score: inf
ROOT
ATOM      1  C   UNL     1       3.251   2.492  15.141  1.00  0.00     0.063 C 
ATOM      2  C   UNL     1       2.798   1.666  16.298  1.00  0.00     0.038 C 
ATOM      3  O   UNL     1       1.734   0.998  16.218  1.00  0.00    -0.550 OA
ATOM      4  O   UNL     1       3.578   1.587  17.444  1.00  0.00    -0.550 OA
ENDROOT
TORSDOF 0
ENDMDL
MODEL 5
REMARK VINA RESULT:    -2.480     14.565     15.107
REMARK INTER + INTRA:          -2.480
REMARK INTER:                  -2.480
REMARK INTRA:                   0.000
REMARK UNBOUND:                 0.000
REMARK SMILES CC(=O)[O-]
REMARK SMILES IDX 1 1 2 2 3 3 4 4
REMARK H PARENT
REMARK Flexibility Score: inf
ROOT
ATOM      1  C   UNL     1       5.283  -1.263  17.551  1.00  0.00     0.063 C 
ATOM      2  C   UNL     1       5.528  -0.655  18.891  1.00  0.00     0.038 C 
ATOM      3  O   UNL     1       4.700   0.159  19.376  1.00  0.00    -0.550 OA
ATOM      4  O   UNL     1       6.642  -1.029  19.631  1.00  0.00    -0.550 OA
ENDROOT
TORSDOF 0
ENDMDL
MODEL 6
REMARK VINA RESULT:    -2.455      1.548      1.979
REMARK INTER + INTRA:          -2.455
REMARK INTER:                  -2.455
REMARK INTRA:                   0.000
REMARK UNBOUND:                 0.000
REMARK SMILES CC(=O)[O-]
REMARK SMILES IDX 1 1 2 2 3 3 4 4
REMARK H PARENT
REMARK Flexibility Score: inf
ROOT
ATOM      1  C   UNL     1      -0.969   3.102  30.781  1.00  0.00     0.063 C 
ATOM      2  C   UNL     1      -1.687   3.193  32.085  1.00  0.00     0.038 C 
ATOM      3  O   UNL     1      -1.175   2.699  33.124  1.00  0.00    -0.550 OA
ATOM      4  O   UNL     1      -2.894   3.874  32.168  1.00  0.00    -0.550 OA
ENDROOT
TORSDOF 0
ENDMDL
MODEL 7
REMARK VINA RESULT:    -2.443     16.586     16.777
REMARK INTER + INTRA:          -2.443
REMARK INTER:                  -2.443
REMARK INTRA:                   0.000
REMARK UNBOUND:                 0.000
REMARK SMILES CC(=O)[O-]
REMARK SMILES IDX 1 1 2 2 3 3 4 4
REMARK H PARENT
REMARK Flexibility Score: inf
ROOT
ATOM      1  C   UNL     1       0.918  -0.210  14.845  1.00  0.00     0.063 C 
ATOM      2  C   UNL     1       2.072   0.537  15.422  1.00  0.00     0.038 C 
ATOM      3  O   UNL     1       2.134   1.789  15.307  1.00  0.00    -0.550 OA
ATOM      4  O   UNL     1       3.052  -0.139  16.136  1.00  0.00    -0.550 OA
ENDROOT
TORSDOF 0
ENDMDL
MODEL 8
REMARK VINA RESULT:    -2.365     14.744     15.297
REMARK INTER + INTRA:          -2.365
REMARK INTER:                  -2.365
REMARK INTRA:                   0.000
REMARK UNBOUND:                 0.000
REMARK SMILES CC(=O)[O-]
REMARK SMILES IDX 1 1 2 2 3 3 4 4
REMARK H PARENT
REMARK Flexibility Score: inf
ROOT
ATOM      1  C   UNL     1       5.683  -0.662  18.868  1.00  0.00     0.063 C 
ATOM      2  C   UNL     1       5.147   0.503  18.106  1.00  0.00     0.038 C 
ATOM      3  O   UNL     1       5.563   0.741  16.942  1.00  0.00    -0.550 OA
ATOM      4  O   UNL     1       4.148   1.295  18.656  1.00  0.00    -0.550 OA
ENDROOT
TORSDOF 0
ENDMDL
MODEL 9
REMARK VINA RESULT:    -2.324     14.846     15.480
REMARK INTER + INTRA:          -2.324
REMARK INTER:                  -2.324
REMARK INTRA:                   0.000
REMARK UNBOUND:                 0.000
REMARK SMILES CC(=O)[O-]
REMARK SMILES IDX 1 1 2 2 3 3 4 4
REMARK H PARENT
REMARK Flexibility Score: inf
ROOT
ATOM      1  C   UNL     1       5.554   1.107  16.645  1.00  0.00     0.063 C 
ATOM      2  C   UNL     1       4.304   1.307  17.434  1.00  0.00     0.038 C 
ATOM      3  O   UNL     1       3.200   1.446  16.844  1.00  0.00    -0.550 OA
ATOM      4  O   UNL     1       4.345   1.285  18.821  1.00  0.00    -0.550 OA
ENDROOT
TORSDOF 0
ENDMDL
