MODEL 1
REMARK VINA RESULT:    -5.839      0.000      0.000
REMARK INTER + INTRA:          -8.345
REMARK INTER:                  -7.887
REMARK INTRA:                  -0.458
REMARK UNBOUND:                -0.458
REMARK SMILES CC(=O)CCC=C(C)CCC=C(C)C
REMARK SMILES IDX 7 1 6 2 8 3 9 4 10 5 11 6 13 7 12 8 14 9 5 10 4 11 2 12 3 13
REMARK SMILES IDX 1 14
REMARK H PARENT
REMARK Flexibility Score: inf
ROOT
ATOM      1  C   UNL     1      -3.307  29.222 -22.731  1.00  0.00    -0.077 C 
ATOM      2  C   UNL     1      -2.171  29.858 -22.361  1.00  0.00    -0.028 C 
ATOM      3  C   UNL     1      -3.609  28.903 -24.176  1.00  0.00     0.039 C 
ENDROOT
BRANCH   1   4
ATOM      4  C   UNL     1      -4.289  28.798 -21.661  1.00  0.00     0.034 C 
BRANCH   4   5
ATOM      5  C   UNL     1      -3.595  28.684 -20.299  1.00  0.00     0.032 C 
BRANCH   5   6
ATOM      6  C   UNL     1      -4.609  28.635 -19.184  1.00  0.00    -0.028 C 
ATOM      7  C   UNL     1      -3.715  26.490 -18.251  1.00  0.00     0.039 C 
ATOM      8  C   UNL     1      -4.691  27.643 -18.271  1.00  0.00    -0.080 C 
ATOM      9  C   UNL     1      -5.783  27.709 -17.234  1.00  0.00     0.039 C 
ENDBRANCH   5   6
ENDBRANCH   4   5
ENDBRANCH   1   4
BRANCH   2  10
ATOM     10  C   UNL     1      -1.133  30.375 -23.326  1.00  0.00     0.035 C 
BRANCH  10  11
ATOM     11  C   UNL     1       0.235  29.750 -23.034  1.00  0.00     0.079 C 
BRANCH  11  12
ATOM     12  C   UNL     1       1.344  30.669 -23.471  1.00  0.00     0.130 C 
ATOM     13  O   UNL     1       1.841  31.437 -22.662  1.00  0.00    -0.300 OA
ATOM     14  C   UNL     1       1.848  30.670 -24.883  1.00  0.00     0.087 C 
ENDBRANCH  11  12
ENDBRANCH  10  11
ENDBRANCH   2  10
TORSDOF 6
ENDMDL
MODEL 2
REMARK VINA RESULT:    -5.816      3.408      7.347
REMARK INTER + INTRA:          -8.313
REMARK INTER:                  -8.000
REMARK INTRA:                  -0.313
REMARK UNBOUND:                -0.458
REMARK SMILES CC(=O)CCC=C(C)CCC=C(C)C
REMARK SMILES IDX 7 1 6 2 8 3 9 4 10 5 11 6 13 7 12 8 14 9 5 10 4 11 2 12 3 13
REMARK SMILES IDX 1 14
REMARK H PARENT
REMARK Flexibility Score: inf
ROOT
ATOM      1  C   UNL     1      -4.100  29.049 -22.756  1.00  0.00    -0.077 C 
ATOM      2  C   UNL     1      -4.526  28.613 -21.547  1.00  0.00    -0.028 C 
ATOM      3  C   UNL     1      -2.670  29.472 -22.993  1.00  0.00     0.039 C 
ENDROOT
BRANCH   1   4
ATOM      4  C   UNL     1      -5.081  29.088 -23.907  1.00  0.00     0.034 C 
BRANCH   4   5
ATOM      5  C   UNL     1      -4.555  29.976 -25.040  1.00  0.00     0.032 C 
BRANCH   5   6
ATOM      6  C   UNL     1      -5.695  30.551 -25.843  1.00  0.00    -0.028 C 
ATOM      7  C   UNL     1      -4.193  31.419 -27.650  1.00  0.00     0.039 C 
ATOM      8  C   UNL     1      -5.545  31.223 -27.006  1.00  0.00    -0.080 C 
ATOM      9  C   UNL     1      -6.775  31.774 -27.680  1.00  0.00     0.039 C 
ENDBRANCH   5   6
ENDBRANCH   4   5
ENDBRANCH   1   4
BRANCH   2  10
ATOM     10  C   UNL     1      -3.667  28.568 -20.308  1.00  0.00     0.035 C 
BRANCH  10  11
ATOM     11  C   UNL     1      -4.531  28.676 -19.048  1.00  0.00     0.079 C 
BRANCH  11  12
ATOM     12  C   UNL     1      -4.721  27.323 -18.415  1.00  0.00     0.130 C 
ATOM     13  O   UNL     1      -4.478  26.317 -19.064  1.00  0.00    -0.300 OA
ATOM     14  C   UNL     1      -5.211  27.181 -17.005  1.00  0.00     0.087 C 
ENDBRANCH  11  12
ENDBRANCH  10  11
ENDBRANCH   2  10
TORSDOF 6
ENDMDL
MODEL 3
REMARK VINA RESULT:    -5.678      2.771      6.883
REMARK INTER + INTRA:          -8.127
REMARK INTER:                  -7.713
REMARK INTRA:                  -0.414
REMARK UNBOUND:                -0.458
REMARK SMILES CC(=O)CCC=C(C)CCC=C(C)C
REMARK SMILES IDX 7 1 6 2 8 3 9 4 10 5 11 6 13 7 12 8 14 9 5 10 4 11 2 12 3 13
REMARK SMILES IDX 1 14
REMARK H PARENT
REMARK Flexibility Score: inf
ROOT
ATOM      1  C   UNL     1      -3.745  29.163 -22.511  1.00  0.00    -0.077 C 
ATOM      2  C   UNL     1      -3.443  29.031 -21.199  1.00  0.00    -0.028 C 
ATOM      3  C   UNL     1      -5.096  28.773 -23.062  1.00  0.00     0.039 C 
ENDROOT
BRANCH   1   4
ATOM      4  C   UNL     1      -2.706  29.741 -23.446  1.00  0.00     0.034 C 
BRANCH   4   5
ATOM      5  C   UNL     1      -1.335  29.806 -22.764  1.00  0.00     0.032 C 
BRANCH   5   6
ATOM      6  C   UNL     1      -0.311  30.432 -23.677  1.00  0.00    -0.028 C 
ATOM      7  C   UNL     1       1.627  29.394 -22.477  1.00  0.00     0.039 C 
ATOM      8  C   UNL     1       1.025  30.276 -23.546  1.00  0.00    -0.080 C 
ATOM      9  C   UNL     1       1.931  30.994 -24.512  1.00  0.00     0.039 C 
ENDBRANCH   5   6
ENDBRANCH   4   5
ENDBRANCH   1   4
BRANCH   2  10
ATOM     10  C   UNL     1      -4.366  28.428 -20.169  1.00  0.00     0.035 C 
BRANCH  10  11
ATOM     11  C   UNL     1      -3.583  27.546 -19.191  1.00  0.00     0.079 C 
BRANCH  11  12
ATOM     12  C   UNL     1      -4.515  26.651 -18.419  1.00  0.00     0.130 C 
ATOM     13  O   UNL     1      -4.942  25.634 -18.943  1.00  0.00    -0.300 OA
ATOM     14  C   UNL     1      -4.938  26.984 -17.020  1.00  0.00     0.087 C 
ENDBRANCH  11  12
ENDBRANCH  10  11
ENDBRANCH   2  10
TORSDOF 6
ENDMDL
MODEL 4
REMARK VINA RESULT:    -5.498      3.093      4.481
REMARK INTER + INTRA:          -7.884
REMARK INTER:                  -7.519
REMARK INTRA:                  -0.365
REMARK UNBOUND:                -0.458
REMARK SMILES CC(=O)CCC=C(C)CCC=C(C)C
REMARK SMILES IDX 7 1 6 2 8 3 9 4 10 5 11 6 13 7 12 8 14 9 5 10 4 11 2 12 3 13
REMARK SMILES IDX 1 14
REMARK H PARENT
REMARK Flexibility Score: inf
ROOT
ATOM      1  C   UNL     1      -4.066  29.153 -22.965  1.00  0.00    -0.077 C 
ATOM      2  C   UNL     1      -4.940  29.478 -23.945  1.00  0.00    -0.028 C 
ATOM      3  C   UNL     1      -2.615  29.572 -23.017  1.00  0.00     0.039 C 
ENDROOT
BRANCH   1   4
ATOM      4  C   UNL     1      -4.564  28.369 -21.770  1.00  0.00     0.034 C 
BRANCH   4   5
ATOM      5  C   UNL     1      -3.783  28.749 -20.507  1.00  0.00     0.032 C 
BRANCH   5   6
ATOM      6  C   UNL     1      -4.674  28.691 -19.290  1.00  0.00    -0.028 C 
ATOM      7  C   UNL     1      -3.581  26.624 -18.393  1.00  0.00     0.039 C 
ATOM      8  C   UNL     1      -4.611  27.729 -18.344  1.00  0.00    -0.080 C 
ATOM      9  C   UNL     1      -5.591  27.779 -17.201  1.00  0.00     0.039 C 
ENDBRANCH   5   6
ENDBRANCH   4   5
ENDBRANCH   1   4
BRANCH   2  10
ATOM     10  C   UNL     1      -4.567  30.213 -25.209  1.00  0.00     0.035 C 
BRANCH  10  11
ATOM     11  C   UNL     1      -5.819  30.575 -26.013  1.00  0.00     0.079 C 
BRANCH  11  12
ATOM     12  C   UNL     1      -5.446  31.270 -27.295  1.00  0.00     0.130 C 
ATOM     13  O   UNL     1      -4.299  31.191 -27.709  1.00  0.00    -0.300 OA
ATOM     14  C   UNL     1      -6.450  32.067 -28.074  1.00  0.00     0.087 C 
ENDBRANCH  11  12
ENDBRANCH  10  11
ENDBRANCH   2  10
TORSDOF 6
ENDMDL
MODEL 5
REMARK VINA RESULT:    -5.439      2.239      4.883
REMARK INTER + INTRA:          -7.805
REMARK INTER:                  -7.189
REMARK INTRA:                  -0.616
REMARK UNBOUND:                -0.458
REMARK SMILES CC(=O)CCC=C(C)CCC=C(C)C
REMARK SMILES IDX 7 1 6 2 8 3 9 4 10 5 11 6 13 7 12 8 14 9 5 10 4 11 2 12 3 13
REMARK SMILES IDX 1 14
REMARK H PARENT
REMARK Flexibility Score: inf
ROOT
ATOM      1  C   UNL     1      -3.709  29.033 -22.324  1.00  0.00    -0.077 C 
ATOM      2  C   UNL     1      -2.785  29.546 -23.170  1.00  0.00    -0.028 C 
ATOM      3  C   UNL     1      -3.395  28.754 -20.874  1.00  0.00     0.039 C 
ENDROOT
BRANCH   1   4
ATOM      4  C   UNL     1      -5.102  28.757 -22.844  1.00  0.00     0.034 C 
BRANCH   4   5
ATOM      5  C   UNL     1      -5.185  29.028 -24.350  1.00  0.00     0.032 C 
BRANCH   5   6
ATOM      6  C   UNL     1      -6.185  30.118 -24.645  1.00  0.00    -0.028 C 
ATOM      7  C   UNL     1      -4.914  30.967 -26.629  1.00  0.00     0.039 C 
ATOM      8  C   UNL     1      -6.064  31.012 -25.650  1.00  0.00    -0.080 C 
ATOM      9  C   UNL     1      -7.125  32.072 -25.801  1.00  0.00     0.039 C 
ENDBRANCH   5   6
ENDBRANCH   4   5
ENDBRANCH   1   4
BRANCH   2  10
ATOM     10  C   UNL     1      -1.350  29.823 -22.796  1.00  0.00     0.035 C 
BRANCH  10  11
ATOM     11  C   UNL     1      -0.679  30.712 -23.848  1.00  0.00     0.079 C 
BRANCH  11  12
ATOM     12  C   UNL     1       0.820  30.633 -23.733  1.00  0.00     0.130 C 
ATOM     13  O   UNL     1       1.514  31.359 -24.428  1.00  0.00    -0.300 OA
ATOM     14  C   UNL     1       1.483  29.676 -22.788  1.00  0.00     0.087 C 
ENDBRANCH  11  12
ENDBRANCH  10  11
ENDBRANCH   2  10
TORSDOF 6
ENDMDL
MODEL 6
REMARK VINA RESULT:    -5.386      3.089      4.237
REMARK INTER + INTRA:          -7.733
REMARK INTER:                  -7.317
REMARK INTRA:                  -0.416
REMARK UNBOUND:                -0.458
REMARK SMILES CC(=O)CCC=C(C)CCC=C(C)C
REMARK SMILES IDX 7 1 6 2 8 3 9 4 10 5 11 6 13 7 12 8 14 9 5 10 4 11 2 12 3 13
REMARK SMILES IDX 1 14
REMARK H PARENT
REMARK Flexibility Score: inf
ROOT
ATOM      1  C   UNL     1      -3.655  28.783 -20.456  1.00  0.00    -0.077 C 
ATOM      2  C   UNL     1      -4.489  28.613 -21.508  1.00  0.00    -0.028 C 
ATOM      3  C   UNL     1      -2.260  29.337 -20.626  1.00  0.00     0.039 C 
ENDROOT
BRANCH   1   4
ATOM      4  C   UNL     1      -4.145  28.432 -19.069  1.00  0.00     0.034 C 
BRANCH   4   5
ATOM      5  C   UNL     1      -4.055  26.921 -18.827  1.00  0.00     0.032 C 
BRANCH   5   6
ATOM      6  C   UNL     1      -5.295  26.415 -18.133  1.00  0.00    -0.028 C 
ATOM      7  C   UNL     1      -4.197  26.333 -15.884  1.00  0.00     0.039 C 
ATOM      8  C   UNL     1      -5.367  26.122 -16.816  1.00  0.00    -0.080 C 
ATOM      9  C   UNL     1      -6.665  25.588 -16.269  1.00  0.00     0.039 C 
ENDBRANCH   5   6
ENDBRANCH   4   5
ENDBRANCH   1   4
BRANCH   2  10
ATOM     10  C   UNL     1      -4.113  28.878 -22.945  1.00  0.00     0.035 C 
BRANCH  10  11
ATOM     11  C   UNL     1      -5.342  29.301 -23.756  1.00  0.00     0.079 C 
BRANCH  11  12
ATOM     12  C   UNL     1      -4.927  29.981 -25.034  1.00  0.00     0.130 C 
ATOM     13  O   UNL     1      -3.763  29.916 -25.398  1.00  0.00    -0.300 OA
ATOM     14  C   UNL     1      -5.912  30.745 -25.868  1.00  0.00     0.087 C 
ENDBRANCH  11  12
ENDBRANCH  10  11
ENDBRANCH   2  10
TORSDOF 6
ENDMDL
MODEL 7
REMARK VINA RESULT:    -5.357      3.602      7.604
REMARK INTER + INTRA:          -7.694
REMARK INTER:                  -7.183
REMARK INTRA:                  -0.511
REMARK UNBOUND:                -0.458
REMARK SMILES CC(=O)CCC=C(C)CCC=C(C)C
REMARK SMILES IDX 7 1 6 2 8 3 9 4 10 5 11 6 13 7 12 8 14 9 5 10 4 11 2 12 3 13
REMARK SMILES IDX 1 14
REMARK H PARENT
REMARK Flexibility Score: inf
ROOT
ATOM      1  C   UNL     1      -4.285  26.928 -17.797  1.00  0.00    -0.077 C 
ATOM      2  C   UNL     1      -3.718  26.102 -16.887  1.00  0.00    -0.028 C 
ATOM      3  C   UNL     1      -5.592  27.634 -17.528  1.00  0.00     0.039 C 
ENDROOT
BRANCH   1   4
ATOM      4  C   UNL     1      -3.573  27.168 -19.110  1.00  0.00     0.034 C 
BRANCH   4   5
ATOM      5  C   UNL     1      -3.846  28.586 -19.625  1.00  0.00     0.032 C 
BRANCH   5   6
ATOM      6  C   UNL     1      -4.576  28.546 -20.944  1.00  0.00    -0.028 C 
ATOM      7  C   UNL     1      -2.652  29.518 -22.219  1.00  0.00     0.039 C 
ATOM      8  C   UNL     1      -4.061  28.984 -22.114  1.00  0.00    -0.080 C 
ATOM      9  C   UNL     1      -4.923  28.915 -23.348  1.00  0.00     0.039 C 
ENDBRANCH   5   6
ENDBRANCH   4   5
ENDBRANCH   1   4
BRANCH   2  10
ATOM     10  C   UNL     1      -4.341  25.739 -15.562  1.00  0.00     0.035 C 
BRANCH  10  11
ATOM     11  C   UNL     1      -3.320  25.046 -14.656  1.00  0.00     0.079 C 
BRANCH  11  12
ATOM     12  C   UNL     1      -2.251  26.013 -14.222  1.00  0.00     0.130 C 
ATOM     13  O   UNL     1      -1.091  25.812 -14.548  1.00  0.00    -0.300 OA
ATOM     14  C   UNL     1      -2.576  27.216 -13.389  1.00  0.00     0.087 C 
ENDBRANCH  11  12
ENDBRANCH  10  11
ENDBRANCH   2  10
TORSDOF 6
ENDMDL
MODEL 8
REMARK VINA RESULT:    -5.184     13.272     15.251
REMARK INTER + INTRA:          -7.460
REMARK INTER:                  -7.017
REMARK INTRA:                  -0.442
REMARK UNBOUND:                -0.458
REMARK SMILES CC(=O)CCC=C(C)CCC=C(C)C
REMARK SMILES IDX 7 1 6 2 8 3 9 4 10 5 11 6 13 7 12 8 14 9 5 10 4 11 2 12 3 13
REMARK SMILES IDX 1 14
REMARK H PARENT
REMARK Flexibility Score: inf
ROOT
ATOM      1  C   UNL     1       5.356  30.347  -9.991  1.00  0.00    -0.077 C 
ATOM      2  C   UNL     1       4.332  31.130  -9.580  1.00  0.00    -0.028 C 
ATOM      3  C   UNL     1       5.255  29.485 -11.227  1.00  0.00     0.039 C 
ENDROOT
BRANCH   1   4
ATOM      4  C   UNL     1       6.647  30.358  -9.203  1.00  0.00     0.034 C 
BRANCH   4   5
ATOM      5  C   UNL     1       7.282  31.753  -9.217  1.00  0.00     0.032 C 
BRANCH   5   6
ATOM      6  C   UNL     1       8.615  31.728  -9.924  1.00  0.00    -0.028 C 
ATOM      7  C   UNL     1       8.647  34.206 -10.287  1.00  0.00     0.039 C 
ATOM      8  C   UNL     1       9.229  32.819 -10.432  1.00  0.00    -0.080 C 
ATOM      9  C   UNL     1      10.543  32.636 -11.147  1.00  0.00     0.039 C 
ENDBRANCH   5   6
ENDBRANCH   4   5
ENDBRANCH   1   4
BRANCH   2  10
ATOM     10  C   UNL     1       2.978  31.179 -10.244  1.00  0.00     0.035 C 
BRANCH  10  11
ATOM     11  C   UNL     1       2.164  32.368  -9.725  1.00  0.00     0.079 C 
BRANCH  11  12
ATOM     12  C   UNL     1       1.169  32.823 -10.759  1.00  0.00     0.130 C 
ATOM     13  O   UNL     1       1.556  33.096 -11.885  1.00  0.00    -0.300 OA
ATOM     14  C   UNL     1      -0.289  32.958 -10.435  1.00  0.00     0.087 C 
ENDBRANCH  11  12
ENDBRANCH  10  11
ENDBRANCH   2  10
TORSDOF 6
ENDMDL
MODEL 9
REMARK VINA RESULT:    -5.171      5.140      7.471
REMARK INTER + INTRA:          -7.442
REMARK INTER:                  -6.705
REMARK INTRA:                  -0.738
REMARK UNBOUND:                -0.458
REMARK SMILES CC(=O)CCC=C(C)CCC=C(C)C
REMARK SMILES IDX 7 1 6 2 8 3 9 4 10 5 11 6 13 7 12 8 14 9 5 10 4 11 2 12 3 13
REMARK SMILES IDX 1 14
REMARK H PARENT
REMARK Flexibility Score: inf
ROOT
ATOM      1  C   UNL     1       2.649  31.107 -26.996  1.00  0.00    -0.077 C 
ATOM      2  C   UNL     1       1.633  31.968 -26.759  1.00  0.00    -0.028 C 
ATOM      3  C   UNL     1       3.013  30.668 -28.394  1.00  0.00     0.039 C 
ENDROOT
BRANCH   1   4
ATOM      4  C   UNL     1       3.457  30.589 -25.827  1.00  0.00     0.034 C 
BRANCH   4   5
ATOM      5  C   UNL     1       3.062  31.307 -24.531  1.00  0.00     0.032 C 
BRANCH   5   6
ATOM      6  C   UNL     1       2.733  30.312 -23.446  1.00  0.00    -0.028 C 
ATOM      7  C   UNL     1       0.260  30.539 -23.768  1.00  0.00     0.039 C 
ATOM      8  C   UNL     1       1.479  29.975 -23.075  1.00  0.00    -0.080 C 
ATOM      9  C   UNL     1       1.303  28.992 -21.947  1.00  0.00     0.039 C 
ENDBRANCH   5   6
ENDBRANCH   4   5
ENDBRANCH   1   4
BRANCH   2  10
ATOM     10  C   UNL     1       0.720  32.522 -27.824  1.00  0.00     0.035 C 
BRANCH  10  11
ATOM     11  C   UNL     1      -0.647  32.878 -27.233  1.00  0.00     0.079 C 
BRANCH  11  12
ATOM     12  C   UNL     1      -1.671  33.046 -28.324  1.00  0.00     0.130 C 
ATOM     13  O   UNL     1      -2.339  32.085 -28.674  1.00  0.00    -0.300 OA
ATOM     14  C   UNL     1      -1.885  34.368 -28.999  1.00  0.00     0.087 C 
ENDBRANCH  11  12
ENDBRANCH  10  11
ENDBRANCH   2  10
TORSDOF 6
ENDMDL
