MODEL 1
REMARK VINA RESULT:    -4.921      0.000      0.000
REMARK INTER + INTRA:          -9.009
REMARK INTER:                  -8.373
REMARK INTRA:                  -0.635
REMARK UNBOUND:                -0.635
REMARK SMILES CCCCCCCCCCCCCC(=O)[O-]
REMARK SMILES IDX 8 1 9 2 10 3 11 4 12 5 13 6 14 7 15 8 16 9 7 10 6 11 5 12
REMARK SMILES IDX 4 13 3 14 2 15 1 16
REMARK H PARENT
REMARK Flexibility Score: inf
ROOT
ATOM      1  C   UNL     1    -129.121 113.197  43.917  1.00  0.00     0.000 C 
ENDROOT
BRANCH   1   2
ATOM      2  C   UNL     1    -129.283 111.683  44.116  1.00  0.00     0.000 C 
BRANCH   2   3
ATOM      3  C   UNL     1    -129.391 110.909  42.789  1.00  0.00     0.000 C 
BRANCH   3   4
ATOM      4  C   UNL     1    -129.299 109.379  42.916  1.00  0.00     0.000 C 
BRANCH   4   5
ATOM      5  C   UNL     1    -129.225 108.667  41.554  1.00  0.00     0.006 C 
BRANCH   5   6
ATOM      6  C   UNL     1    -129.039 107.150  41.703  1.00  0.00     0.053 C 
BRANCH   6   7
ATOM      7  C   UNL     1    -129.303 106.427  40.417  1.00  0.00     0.041 C 
ATOM      8  O   UNL     1    -129.117 105.184  40.340  1.00  0.00    -0.550 OA
ATOM      9  O   UNL     1    -129.727 107.131  39.297  1.00  0.00    -0.550 OA
ENDBRANCH   6   7
ENDBRANCH   5   6
ENDBRANCH   4   5
ENDBRANCH   3   4
ENDBRANCH   2   3
ENDBRANCH   1   2
BRANCH   1  10
ATOM     10  C   UNL     1    -130.063 113.712  42.822  1.00  0.00     0.000 C 
BRANCH  10  11
ATOM     11  C   UNL     1    -129.506 114.988  42.173  1.00  0.00    -0.000 C 
BRANCH  11  12
ATOM     12  C   UNL     1    -130.210 116.262  42.665  1.00  0.00    -0.000 C 
BRANCH  12  13
ATOM     13  C   UNL     1    -129.224 117.408  42.956  1.00  0.00    -0.000 C 
BRANCH  13  14
ATOM     14  C   UNL     1    -129.281 117.878  44.419  1.00  0.00    -0.000 C 
BRANCH  14  15
ATOM     15  C   UNL     1    -129.995 116.875  45.337  1.00  0.00    -0.003 C 
ATOM     16  C   UNL     1    -130.674 117.588  46.504  1.00  0.00     0.004 C 
ENDBRANCH  14  15
ENDBRANCH  13  14
ENDBRANCH  12  13
ENDBRANCH  11  12
ENDBRANCH  10  11
ENDBRANCH   1  10
TORSDOF 12
ENDMDL
MODEL 2
REMARK VINA RESULT:    -4.908      1.060      1.599
REMARK INTER + INTRA:          -8.986
REMARK INTER:                  -8.272
REMARK INTRA:                  -0.714
REMARK UNBOUND:                -0.635
REMARK SMILES CCCCCCCCCCCCCC(=O)[O-]
REMARK SMILES IDX 8 1 9 2 10 3 11 4 12 5 13 6 14 7 15 8 16 9 7 10 6 11 5 12
REMARK SMILES IDX 4 13 3 14 2 15 1 16
REMARK H PARENT
REMARK Flexibility Score: inf
ROOT
ATOM      1  C   UNL     1    -129.031 113.145  43.758  1.00  0.00     0.000 C 
ENDROOT
BRANCH   1   2
ATOM      2  C   UNL     1    -129.209 111.640  44.008  1.00  0.00     0.000 C 
BRANCH   2   3
ATOM      3  C   UNL     1    -129.414 110.836  42.711  1.00  0.00     0.000 C 
BRANCH   3   4
ATOM      4  C   UNL     1    -129.358 109.307  42.877  1.00  0.00     0.000 C 
BRANCH   4   5
ATOM      5  C   UNL     1    -129.265 108.561  41.534  1.00  0.00     0.006 C 
BRANCH   5   6
ATOM      6  C   UNL     1    -129.671 109.449  40.349  1.00  0.00     0.053 C 
BRANCH   6   7
ATOM      7  C   UNL     1    -130.570 108.727  39.393  1.00  0.00     0.041 C 
ATOM      8  O   UNL     1    -131.687 109.218  39.079  1.00  0.00    -0.550 OA
ATOM      9  O   UNL     1    -130.188 107.498  38.871  1.00  0.00    -0.550 OA
ENDBRANCH   6   7
ENDBRANCH   5   6
ENDBRANCH   4   5
ENDBRANCH   3   4
ENDBRANCH   2   3
ENDBRANCH   1   2
BRANCH   1  10
ATOM     10  C   UNL     1    -130.102 113.675  42.798  1.00  0.00     0.000 C 
BRANCH  10  11
ATOM     11  C   UNL     1    -129.638 114.972  42.118  1.00  0.00    -0.000 C 
BRANCH  11  12
ATOM     12  C   UNL     1    -130.221 116.231  42.779  1.00  0.00    -0.000 C 
BRANCH  12  13
ATOM     13  C   UNL     1    -129.130 117.216  43.238  1.00  0.00    -0.000 C 
BRANCH  13  14
ATOM     14  C   UNL     1    -129.429 117.826  44.618  1.00  0.00    -0.000 C 
BRANCH  14  15
ATOM     15  C   UNL     1    -130.080 116.822  45.581  1.00  0.00    -0.003 C 
ATOM     16  C   UNL     1    -130.817 117.543  46.707  1.00  0.00     0.004 C 
ENDBRANCH  14  15
ENDBRANCH  13  14
ENDBRANCH  12  13
ENDBRANCH  11  12
ENDBRANCH  10  11
ENDBRANCH   1  10
TORSDOF 12
ENDMDL
MODEL 3
REMARK VINA RESULT:    -4.893      0.815      1.631
REMARK INTER + INTRA:          -8.961
REMARK INTER:                  -8.141
REMARK INTRA:                  -0.820
REMARK UNBOUND:                -0.635
REMARK SMILES CCCCCCCCCCCCCC(=O)[O-]
REMARK SMILES IDX 8 1 9 2 10 3 11 4 12 5 13 6 14 7 15 8 16 9 7 10 6 11 5 12
REMARK SMILES IDX 4 13 3 14 2 15 1 16
REMARK H PARENT
REMARK Flexibility Score: inf
ROOT
ATOM      1  C   UNL     1    -130.066 113.873  42.874  1.00  0.00     0.000 C 
ENDROOT
BRANCH   1   2
ATOM      2  C   UNL     1    -129.030 113.311  43.859  1.00  0.00     0.000 C 
BRANCH   2   3
ATOM      3  C   UNL     1    -129.173 111.795  44.083  1.00  0.00     0.000 C 
BRANCH   3   4
ATOM      4  C   UNL     1    -129.392 110.965  42.806  1.00  0.00     0.000 C 
BRANCH   4   5
ATOM      5  C   UNL     1    -129.595 109.467  43.092  1.00  0.00     0.006 C 
BRANCH   5   6
ATOM      6  C   UNL     1    -128.500 108.602  42.452  1.00  0.00     0.053 C 
BRANCH   6   7
ATOM      7  C   UNL     1    -129.047 107.720  41.370  1.00  0.00     0.041 C 
ATOM      8  O   UNL     1    -128.809 106.484  41.380  1.00  0.00    -0.550 OA
ATOM      9  O   UNL     1    -129.795 108.269  40.336  1.00  0.00    -0.550 OA
ENDBRANCH   6   7
ENDBRANCH   5   6
ENDBRANCH   4   5
ENDBRANCH   3   4
ENDBRANCH   2   3
ENDBRANCH   1   2
BRANCH   1  10
ATOM     10  C   UNL     1    -129.528 115.120  42.161  1.00  0.00     0.000 C 
BRANCH  10  11
ATOM     11  C   UNL     1    -130.200 116.392  42.698  1.00  0.00    -0.000 C 
BRANCH  11  12
ATOM     12  C   UNL     1    -129.191 117.408  43.255  1.00  0.00    -0.000 C 
BRANCH  12  13
ATOM     13  C   UNL     1    -129.435 117.730  44.741  1.00  0.00    -0.000 C 
BRANCH  13  14
ATOM     14  C   UNL     1    -129.851 116.492  45.552  1.00  0.00    -0.000 C 
BRANCH  14  15
ATOM     15  C   UNL     1    -130.855 116.823  46.665  1.00  0.00    -0.003 C 
ATOM     16  C   UNL     1    -130.846 118.316  46.986  1.00  0.00     0.004 C 
ENDBRANCH  14  15
ENDBRANCH  13  14
ENDBRANCH  12  13
ENDBRANCH  11  12
ENDBRANCH  10  11
ENDBRANCH   1  10
TORSDOF 12
ENDMDL
MODEL 4
REMARK VINA RESULT:    -4.816      1.093      1.788
REMARK INTER + INTRA:          -8.830
REMARK INTER:                  -8.197
REMARK INTRA:                  -0.633
REMARK UNBOUND:                -0.635
REMARK SMILES CCCCCCCCCCCCCC(=O)[O-]
REMARK SMILES IDX 8 1 9 2 10 3 11 4 12 5 13 6 14 7 15 8 16 9 7 10 6 11 5 12
REMARK SMILES IDX 4 13 3 14 2 15 1 16
REMARK H PARENT
REMARK Flexibility Score: inf
ROOT
ATOM      1  C   UNL     1    -129.339 112.150  43.773  1.00  0.00     0.000 C 
ENDROOT
BRANCH   1   2
ATOM      2  C   UNL     1    -129.102 110.758  43.167  1.00  0.00     0.000 C 
BRANCH   2   3
ATOM      3  C   UNL     1    -129.921 109.653  43.860  1.00  0.00     0.000 C 
BRANCH   3   4
ATOM      4  C   UNL     1    -130.056 108.344  43.062  1.00  0.00     0.000 C 
BRANCH   4   5
ATOM      5  C   UNL     1    -129.266 108.363  41.742  1.00  0.00     0.006 C 
BRANCH   5   6
ATOM      6  C   UNL     1    -129.009 106.949  41.201  1.00  0.00     0.053 C 
BRANCH   6   7
ATOM      7  C   UNL     1    -129.561 106.772  39.819  1.00  0.00     0.041 C 
ATOM      8  O   UNL     1    -129.652 105.621  39.316  1.00  0.00    -0.550 OA
ATOM      9  O   UNL     1    -129.948 107.880  39.077  1.00  0.00    -0.550 OA
ENDBRANCH   6   7
ENDBRANCH   5   6
ENDBRANCH   4   5
ENDBRANCH   3   4
ENDBRANCH   2   3
ENDBRANCH   1   2
BRANCH   1  10
ATOM     10  C   UNL     1    -129.749 113.157  42.692  1.00  0.00     0.000 C 
BRANCH  10  11
ATOM     11  C   UNL     1    -129.728 114.591  43.241  1.00  0.00    -0.000 C 
BRANCH  11  12
ATOM     12  C   UNL     1    -129.396 114.649  44.741  1.00  0.00    -0.000 C 
BRANCH  12  13
ATOM     13  C   UNL     1    -129.761 116.003  45.376  1.00  0.00    -0.000 C 
BRANCH  13  14
ATOM     14  C   UNL     1    -130.006 117.100  44.326  1.00  0.00    -0.000 C 
BRANCH  14  15
ATOM     15  C   UNL     1    -128.972 118.232  44.401  1.00  0.00    -0.003 C 
ATOM     16  C   UNL     1    -128.537 118.670  43.004  1.00  0.00     0.004 C 
ENDBRANCH  14  15
ENDBRANCH  13  14
ENDBRANCH  12  13
ENDBRANCH  11  12
ENDBRANCH  10  11
ENDBRANCH   1  10
TORSDOF 12
ENDMDL
MODEL 5
REMARK VINA RESULT:    -4.696      1.529      1.953
REMARK INTER + INTRA:          -8.625
REMARK INTER:                  -8.056
REMARK INTRA:                  -0.569
REMARK UNBOUND:                -0.635
REMARK SMILES CCCCCCCCCCCCCC(=O)[O-]
REMARK SMILES IDX 8 1 9 2 10 3 11 4 12 5 13 6 14 7 15 8 16 9 7 10 6 11 5 12
REMARK SMILES IDX 4 13 3 14 2 15 1 16
REMARK H PARENT
REMARK Flexibility Score: inf
ROOT
ATOM      1  C   UNL     1    -130.392 113.261  41.660  1.00  0.00     0.000 C 
ENDROOT
BRANCH   1   2
ATOM      2  C   UNL     1    -129.763 112.369  40.579  1.00  0.00     0.000 C 
BRANCH   2   3
ATOM      3  C   UNL     1    -129.915 110.866  40.875  1.00  0.00     0.000 C 
BRANCH   3   4
ATOM      4  C   UNL     1    -129.534 109.931  39.714  1.00  0.00     0.000 C 
BRANCH   4   5
ATOM      5  C   UNL     1    -129.598 108.442  40.098  1.00  0.00     0.006 C 
BRANCH   5   6
ATOM      6  C   UNL     1    -130.120 107.569  38.947  1.00  0.00     0.053 C 
BRANCH   6   7
ATOM      7  C   UNL     1    -129.772 106.125  39.141  1.00  0.00     0.041 C 
ATOM      8  O   UNL     1    -129.495 105.689  40.289  1.00  0.00    -0.550 OA
ATOM      9  O   UNL     1    -129.726 105.267  38.049  1.00  0.00    -0.550 OA
ENDBRANCH   6   7
ENDBRANCH   5   6
ENDBRANCH   4   5
ENDBRANCH   3   4
ENDBRANCH   2   3
ENDBRANCH   1   2
BRANCH   1  10
ATOM     10  C   UNL     1    -129.672 113.088  43.003  1.00  0.00     0.000 C 
BRANCH  10  11
ATOM     11  C   UNL     1    -129.340 114.452  43.627  1.00  0.00    -0.000 C 
BRANCH  11  12
ATOM     12  C   UNL     1    -129.657 115.628  42.691  1.00  0.00    -0.000 C 
BRANCH  12  13
ATOM     13  C   UNL     1    -129.744 116.972  43.437  1.00  0.00    -0.000 C 
BRANCH  13  14
ATOM     14  C   UNL     1    -129.399 116.841  44.930  1.00  0.00    -0.000 C 
BRANCH  14  15
ATOM     15  C   UNL     1    -130.436 117.515  45.839  1.00  0.00    -0.003 C 
ATOM     16  C   UNL     1    -130.910 116.560  46.932  1.00  0.00     0.004 C 
ENDBRANCH  14  15
ENDBRANCH  13  14
ENDBRANCH  12  13
ENDBRANCH  11  12
ENDBRANCH  10  11
ENDBRANCH   1  10
TORSDOF 12
ENDMDL
MODEL 6
REMARK VINA RESULT:    -4.649      1.098      1.792
REMARK INTER + INTRA:          -8.545
REMARK INTER:                  -8.002
REMARK INTRA:                  -0.543
REMARK UNBOUND:                -0.635
REMARK SMILES CCCCCCCCCCCCCC(=O)[O-]
REMARK SMILES IDX 8 1 9 2 10 3 11 4 12 5 13 6 14 7 15 8 16 9 7 10 6 11 5 12
REMARK SMILES IDX 4 13 3 14 2 15 1 16
REMARK H PARENT
REMARK Flexibility Score: inf
ROOT
ATOM      1  C   UNL     1    -129.429 111.632  42.987  1.00  0.00     0.000 C 
ENDROOT
BRANCH   1   2
ATOM      2  C   UNL     1    -129.402 110.244  43.644  1.00  0.00     0.000 C 
BRANCH   2   3
ATOM      3  C   UNL     1    -129.180 109.104  42.633  1.00  0.00     0.000 C 
BRANCH   3   4
ATOM      4  C   UNL     1    -129.769 109.350  41.233  1.00  0.00     0.000 C 
BRANCH   4   5
ATOM      5  C   UNL     1    -129.440 108.224  40.238  1.00  0.00     0.006 C 
BRANCH   5   6
ATOM      6  C   UNL     1    -129.303 106.860  40.931  1.00  0.00     0.053 C 
BRANCH   6   7
ATOM      7  C   UNL     1    -129.359 105.729  39.950  1.00  0.00     0.041 C 
ATOM      8  O   UNL     1    -129.295 104.538  40.353  1.00  0.00    -0.550 OA
ATOM      9  O   UNL     1    -129.456 105.990  38.589  1.00  0.00    -0.550 OA
ENDBRANCH   6   7
ENDBRANCH   5   6
ENDBRANCH   4   5
ENDBRANCH   3   4
ENDBRANCH   2   3
ENDBRANCH   1   2
BRANCH   1  10
ATOM     10  C   UNL     1    -129.016 112.722  43.983  1.00  0.00     0.000 C 
BRANCH  10  11
ATOM     11  C   UNL     1    -129.912 113.961  43.845  1.00  0.00    -0.000 C 
BRANCH  11  12
ATOM     12  C   UNL     1    -129.774 114.644  42.475  1.00  0.00    -0.000 C 
BRANCH  12  13
ATOM     13  C   UNL     1    -129.507 116.156  42.591  1.00  0.00    -0.000 C 
BRANCH  13  14
ATOM     14  C   UNL     1    -129.939 116.728  43.951  1.00  0.00    -0.000 C 
BRANCH  14  15
ATOM     15  C   UNL     1    -129.099 117.940  44.378  1.00  0.00    -0.003 C 
ATOM     16  C   UNL     1    -128.637 118.742  43.163  1.00  0.00     0.004 C 
ENDBRANCH  14  15
ENDBRANCH  13  14
ENDBRANCH  12  13
ENDBRANCH  11  12
ENDBRANCH  10  11
ENDBRANCH   1  10
TORSDOF 12
ENDMDL
MODEL 7
REMARK VINA RESULT:    -4.642      3.689      7.635
REMARK INTER + INTRA:          -8.534
REMARK INTER:                  -6.871
REMARK INTRA:                  -1.663
REMARK UNBOUND:                -0.635
REMARK SMILES CCCCCCCCCCCCCC(=O)[O-]
REMARK SMILES IDX 8 1 9 2 10 3 11 4 12 5 13 6 14 7 15 8 16 9 7 10 6 11 5 12
REMARK SMILES IDX 4 13 3 14 2 15 1 16
REMARK H PARENT
REMARK Flexibility Score: inf
ROOT
ATOM      1  C   UNL     1    -128.027 106.941  41.682  1.00  0.00     0.000 C 
ENDROOT
BRANCH   1   2
ATOM      2  C   UNL     1    -128.090 108.258  42.470  1.00  0.00     0.000 C 
BRANCH   2   3
ATOM      3  C   UNL     1    -129.513 108.610  42.942  1.00  0.00     0.000 C 
BRANCH   3   4
ATOM      4  C   UNL     1    -129.626 109.904  43.766  1.00  0.00     0.000 C 
BRANCH   4   5
ATOM      5  C   UNL     1    -129.315 111.167  42.944  1.00  0.00     0.006 C 
BRANCH   5   6
ATOM      6  C   UNL     1    -129.077 112.394  43.835  1.00  0.00     0.053 C 
BRANCH   6   7
ATOM      7  C   UNL     1    -129.673 113.636  43.245  1.00  0.00     0.041 C 
ATOM      8  O   UNL     1    -130.144 113.619  42.078  1.00  0.00    -0.550 OA
ATOM      9  O   UNL     1    -129.683 114.818  43.974  1.00  0.00    -0.550 OA
ENDBRANCH   6   7
ENDBRANCH   5   6
ENDBRANCH   4   5
ENDBRANCH   3   4
ENDBRANCH   2   3
ENDBRANCH   1   2
BRANCH   1  10
ATOM     10  C   UNL     1    -129.416 106.538  41.172  1.00  0.00     0.000 C 
BRANCH  10  11
ATOM     11  C   UNL     1    -129.377 106.215  39.671  1.00  0.00    -0.000 C 
BRANCH  11  12
ATOM     12  C   UNL     1    -129.675 107.439  38.792  1.00  0.00    -0.000 C 
BRANCH  12  13
ATOM     13  C   UNL     1    -130.886 108.246  39.292  1.00  0.00    -0.000 C 
BRANCH  13  14
ATOM     14  C   UNL     1    -130.551 109.728  39.527  1.00  0.00    -0.000 C 
BRANCH  14  15
ATOM     15  C   UNL     1    -129.055 110.031  39.364  1.00  0.00    -0.003 C 
ATOM     16  C   UNL     1    -128.839 111.404  38.731  1.00  0.00     0.004 C 
ENDBRANCH  14  15
ENDBRANCH  13  14
ENDBRANCH  12  13
ENDBRANCH  11  12
ENDBRANCH  10  11
ENDBRANCH   1  10
TORSDOF 12
ENDMDL
MODEL 8
REMARK VINA RESULT:    -4.634      4.632      8.821
REMARK INTER + INTRA:          -8.521
REMARK INTER:                  -7.793
REMARK INTRA:                  -0.727
REMARK UNBOUND:                -0.635
REMARK SMILES CCCCCCCCCCCCCC(=O)[O-]
REMARK SMILES IDX 8 1 9 2 10 3 11 4 12 5 13 6 14 7 15 8 16 9 7 10 6 11 5 12
REMARK SMILES IDX 4 13 3 14 2 15 1 16
REMARK H PARENT
REMARK Flexibility Score: inf
ROOT
ATOM      1  C   UNL     1    -130.039 113.836  42.774  1.00  0.00     0.000 C 
ENDROOT
BRANCH   1   2
ATOM      2  C   UNL     1    -129.490 115.114  42.121  1.00  0.00     0.000 C 
BRANCH   2   3
ATOM      3  C   UNL     1    -130.172 116.394  42.638  1.00  0.00     0.000 C 
BRANCH   3   4
ATOM      4  C   UNL     1    -129.211 117.494  43.123  1.00  0.00     0.000 C 
BRANCH   4   5
ATOM      5  C   UNL     1    -129.313 117.755  44.636  1.00  0.00     0.006 C 
BRANCH   5   6
ATOM      6  C   UNL     1    -129.987 116.593  45.380  1.00  0.00     0.053 C 
BRANCH   6   7
ATOM      7  C   UNL     1    -130.755 117.068  46.575  1.00  0.00     0.041 C 
ATOM      8  O   UNL     1    -131.366 116.243  47.304  1.00  0.00    -0.550 OA
ATOM      9  O   UNL     1    -130.820 118.425  46.868  1.00  0.00    -0.550 OA
ENDBRANCH   6   7
ENDBRANCH   5   6
ENDBRANCH   4   5
ENDBRANCH   3   4
ENDBRANCH   2   3
ENDBRANCH   1   2
BRANCH   1  10
ATOM     10  C   UNL     1    -129.014 113.228  43.740  1.00  0.00     0.000 C 
BRANCH  10  11
ATOM     11  C   UNL     1    -129.366 111.770  44.068  1.00  0.00    -0.000 C 
BRANCH  11  12
ATOM     12  C   UNL     1    -129.385 110.869  42.823  1.00  0.00    -0.000 C 
BRANCH  12  13
ATOM     13  C   UNL     1    -129.366 109.371  43.177  1.00  0.00    -0.000 C 
BRANCH  13  14
ATOM     14  C   UNL     1    -129.677 108.474  41.967  1.00  0.00    -0.000 C 
BRANCH  14  15
ATOM     15  C   UNL     1    -129.946 109.279  40.687  1.00  0.00    -0.003 C 
ATOM     16  C   UNL     1    -129.723 108.421  39.444  1.00  0.00     0.004 C 
ENDBRANCH  14  15
ENDBRANCH  13  14
ENDBRANCH  12  13
ENDBRANCH  11  12
ENDBRANCH  10  11
ENDBRANCH   1  10
TORSDOF 12
ENDMDL
MODEL 9
REMARK VINA RESULT:    -4.561      3.953      8.310
REMARK INTER + INTRA:          -8.396
REMARK INTER:                  -7.205
REMARK INTRA:                  -1.191
REMARK UNBOUND:                -0.635
REMARK SMILES CCCCCCCCCCCCCC(=O)[O-]
REMARK SMILES IDX 8 1 9 2 10 3 11 4 12 5 13 6 14 7 15 8 16 9 7 10 6 11 5 12
REMARK SMILES IDX 4 13 3 14 2 15 1 16
REMARK H PARENT
REMARK Flexibility Score: inf
ROOT
ATOM      1  C   UNL     1    -129.676 108.510  43.104  1.00  0.00     0.000 C 
ENDROOT
BRANCH   1   2
ATOM      2  C   UNL     1    -129.735 109.829  43.889  1.00  0.00     0.000 C 
BRANCH   2   3
ATOM      3  C   UNL     1    -129.420 111.061  43.019  1.00  0.00     0.000 C 
BRANCH   3   4
ATOM      4  C   UNL     1    -129.035 112.329  43.801  1.00  0.00     0.000 C 
BRANCH   4   5
ATOM      5  C   UNL     1    -129.544 113.620  43.136  1.00  0.00     0.006 C 
BRANCH   5   6
ATOM      6  C   UNL     1    -129.823 114.728  44.162  1.00  0.00     0.053 C 
BRANCH   6   7
ATOM      7  C   UNL     1    -129.856 116.083  43.524  1.00  0.00     0.041 C 
ATOM      8  O   UNL     1    -129.798 116.195  42.271  1.00  0.00    -0.550 OA
ATOM      9  O   UNL     1    -129.923 117.224  44.314  1.00  0.00    -0.550 OA
ENDBRANCH   6   7
ENDBRANCH   5   6
ENDBRANCH   4   5
ENDBRANCH   3   4
ENDBRANCH   2   3
ENDBRANCH   1   2
BRANCH   1  10
ATOM     10  C   UNL     1    -128.354 108.383  42.339  1.00  0.00     0.000 C 
BRANCH  10  11
ATOM     11  C   UNL     1    -128.272 107.037  41.603  1.00  0.00    -0.000 C 
BRANCH  11  12
ATOM     12  C   UNL     1    -129.542 106.723  40.796  1.00  0.00    -0.000 C 
BRANCH  12  13
ATOM     13  C   UNL     1    -129.495 107.299  39.370  1.00  0.00    -0.000 C 
BRANCH  13  14
ATOM     14  C   UNL     1    -130.702 108.199  39.057  1.00  0.00    -0.000 C 
BRANCH  14  15
ATOM     15  C   UNL     1    -130.626 109.559  39.765  1.00  0.00    -0.003 C 
ATOM     16  C   UNL     1    -129.375 110.328  39.345  1.00  0.00     0.004 C 
ENDBRANCH  14  15
ENDBRANCH  13  14
ENDBRANCH  12  13
ENDBRANCH  11  12
ENDBRANCH  10  11
ENDBRANCH   1  10
TORSDOF 12
ENDMDL
