MODEL 1
REMARK VINA RESULT:    -5.177      0.000      0.000
REMARK INTER + INTRA:          -8.080
REMARK INTER:                  -7.598
REMARK INTRA:                  -0.481
REMARK UNBOUND:                -0.481
REMARK SMILES O=C([O-])CCCCCCCC(=O)[O-]
REMARK SMILES IDX 7 1 6 2 5 3 4 4 2 5 1 6 3 7 8 8 9 9 10 10 11 11 12 12 13 13
REMARK H PARENT
REMARK Flexibility Score: inf
ROOT
ATOM      1  C   UNL     1       8.189  22.357  -9.863  1.00  0.00     0.000 C 
ENDROOT
BRANCH   1   2
ATOM      2  C   UNL     1       6.939  23.162  -9.488  1.00  0.00     0.000 C 
BRANCH   2   3
ATOM      3  C   UNL     1       7.194  24.028  -8.249  1.00  0.00     0.006 C 
BRANCH   3   4
ATOM      4  C   UNL     1       6.184  23.712  -7.141  1.00  0.00     0.053 C 
BRANCH   4   5
ATOM      5  C   UNL     1       6.763  24.026  -5.799  1.00  0.00     0.041 C 
ATOM      6  O   UNL     1       7.309  23.119  -5.116  1.00  0.00    -0.550 OA
ATOM      7  O   UNL     1       6.658  25.310  -5.279  1.00  0.00    -0.550 OA
ENDBRANCH   4   5
ENDBRANCH   3   4
ENDBRANCH   2   3
ENDBRANCH   1   2
BRANCH   1   8
ATOM      8  C   UNL     1       9.100  22.155  -8.646  1.00  0.00     0.000 C 
BRANCH   8   9
ATOM      9  C   UNL     1      10.578  22.253  -9.041  1.00  0.00     0.006 C 
BRANCH   9  10
ATOM     10  C   UNL     1      10.774  23.240 -10.196  1.00  0.00     0.053 C 
BRANCH  10  11
ATOM     11  C   UNL     1      11.764  24.296  -9.820  1.00  0.00     0.041 C 
ATOM     12  O   UNL     1      12.127  25.154 -10.667  1.00  0.00    -0.550 OA
ATOM     13  O   UNL     1      12.324  24.304  -8.549  1.00  0.00    -0.550 OA
ENDBRANCH  10  11
ENDBRANCH   9  10
ENDBRANCH   8   9
ENDBRANCH   1   8
TORSDOF 8
ENDMDL
MODEL 2
REMARK VINA RESULT:    -5.077      0.246      5.450
REMARK INTER + INTRA:          -7.933
REMARK INTER:                  -7.432
REMARK INTRA:                  -0.501
REMARK UNBOUND:                -0.481
REMARK SMILES O=C([O-])CCCCCCCC(=O)[O-]
REMARK SMILES IDX 7 1 6 2 5 3 4 4 2 5 1 6 3 7 8 8 9 9 10 10 11 11 12 12 13 13
REMARK H PARENT
REMARK Flexibility Score: inf
ROOT
ATOM      1  C   UNL     1       8.409  22.519  -9.903  1.00  0.00     0.000 C 
ENDROOT
BRANCH   1   2
ATOM      2  C   UNL     1       9.201  22.062  -8.672  1.00  0.00     0.000 C 
BRANCH   2   3
ATOM      3  C   UNL     1      10.682  22.439  -8.800  1.00  0.00     0.006 C 
BRANCH   3   4
ATOM      4  C   UNL     1      10.955  23.152 -10.128  1.00  0.00     0.053 C 
BRANCH   4   5
ATOM      5  C   UNL     1      11.834  24.342  -9.912  1.00  0.00     0.041 C 
ATOM      6  O   UNL     1      12.011  25.175 -10.840  1.00  0.00    -0.550 OA
ATOM      7  O   UNL     1      12.497  24.506  -8.703  1.00  0.00    -0.550 OA
ENDBRANCH   4   5
ENDBRANCH   3   4
ENDBRANCH   2   3
ENDBRANCH   1   2
BRANCH   1   8
ATOM      8  C   UNL     1       6.989  22.951  -9.515  1.00  0.00     0.000 C 
BRANCH   8   9
ATOM      9  C   UNL     1       7.020  24.044  -8.442  1.00  0.00     0.006 C 
BRANCH   9  10
ATOM     10  C   UNL     1       6.099  23.690  -7.270  1.00  0.00     0.053 C 
BRANCH  10  11
ATOM     11  C   UNL     1       6.789  23.940  -5.967  1.00  0.00     0.041 C 
ATOM     12  O   UNL     1       6.815  25.100  -5.476  1.00  0.00    -0.550 OA
ATOM     13  O   UNL     1       7.445  22.903  -5.317  1.00  0.00    -0.550 OA
ENDBRANCH  10  11
ENDBRANCH   9  10
ENDBRANCH   8   9
ENDBRANCH   1   8
TORSDOF 8
ENDMDL
MODEL 3
REMARK VINA RESULT:    -4.998      2.077      5.195
REMARK INTER + INTRA:          -7.817
REMARK INTER:                  -7.281
REMARK INTRA:                  -0.536
REMARK UNBOUND:                -0.481
REMARK SMILES O=C([O-])CCCCCCCC(=O)[O-]
REMARK SMILES IDX 7 1 6 2 5 3 4 4 2 5 1 6 3 7 8 8 9 9 10 10 11 11 12 12 13 13
REMARK H PARENT
REMARK Flexibility Score: inf
ROOT
ATOM      1  C   UNL     1       8.163  22.228  -9.528  1.00  0.00     0.000 C 
ENDROOT
BRANCH   1   2
ATOM      2  C   UNL     1       9.505  22.879  -9.880  1.00  0.00     0.000 C 
BRANCH   2   3
ATOM      3  C   UNL     1      10.547  22.620  -8.786  1.00  0.00     0.006 C 
BRANCH   3   4
ATOM      4  C   UNL     1       9.957  21.769  -7.657  1.00  0.00     0.053 C 
BRANCH   4   5
ATOM      5  C   UNL     1      10.653  20.447  -7.580  1.00  0.00     0.041 C 
ATOM      6  O   UNL     1      10.038  19.431  -7.160  1.00  0.00    -0.550 OA
ATOM      7  O   UNL     1      11.994  20.346  -7.926  1.00  0.00    -0.550 OA
ENDBRANCH   4   5
ENDBRANCH   3   4
ENDBRANCH   2   3
ENDBRANCH   1   2
BRANCH   1   8
ATOM      8  C   UNL     1       7.033  23.266  -9.515  1.00  0.00     0.000 C 
BRANCH   8   9
ATOM      9  C   UNL     1       7.123  24.162  -8.275  1.00  0.00     0.006 C 
BRANCH   9  10
ATOM     10  C   UNL     1       6.209  23.649  -7.157  1.00  0.00     0.053 C 
BRANCH  10  11
ATOM     11  C   UNL     1       6.766  24.011  -5.817  1.00  0.00     0.041 C 
ATOM     12  O   UNL     1       7.333  23.137  -5.110  1.00  0.00    -0.550 OA
ATOM     13  O   UNL     1       6.616  25.302  -5.327  1.00  0.00    -0.550 OA
ENDBRANCH  10  11
ENDBRANCH   9  10
ENDBRANCH   8   9
ENDBRANCH   1   8
TORSDOF 8
ENDMDL
MODEL 4
REMARK VINA RESULT:    -4.977      2.019      2.672
REMARK INTER + INTRA:          -7.786
REMARK INTER:                  -7.145
REMARK INTRA:                  -0.641
REMARK UNBOUND:                -0.481
REMARK SMILES O=C([O-])CCCCCCCC(=O)[O-]
REMARK SMILES IDX 7 1 6 2 5 3 4 4 2 5 1 6 3 7 8 8 9 9 10 10 11 11 12 12 13 13
REMARK H PARENT
REMARK Flexibility Score: inf
ROOT
ATOM      1  C   UNL     1       8.205  22.176  -9.637  1.00  0.00     0.000 C 
ENDROOT
BRANCH   1   2
ATOM      2  C   UNL     1       6.999  23.110  -9.790  1.00  0.00     0.000 C 
BRANCH   2   3
ATOM      3  C   UNL     1       6.308  23.340  -8.441  1.00  0.00     0.006 C 
BRANCH   3   4
ATOM      4  C   UNL     1       6.965  24.494  -7.677  1.00  0.00     0.053 C 
BRANCH   4   5
ATOM      5  C   UNL     1       6.780  24.318  -6.203  1.00  0.00     0.041 C 
ATOM      6  O   UNL     1       6.873  23.174  -5.685  1.00  0.00    -0.550 OA
ATOM      7  O   UNL     1       6.456  25.410  -5.407  1.00  0.00    -0.550 OA
ENDBRANCH   4   5
ENDBRANCH   3   4
ENDBRANCH   2   3
ENDBRANCH   1   2
BRANCH   1   8
ATOM      8  C   UNL     1       9.522  22.940  -9.828  1.00  0.00     0.000 C 
BRANCH   8   9
ATOM      9  C   UNL     1      10.340  22.959  -8.532  1.00  0.00     0.006 C 
BRANCH   9  10
ATOM     10  C   UNL     1       9.811  21.927  -7.532  1.00  0.00     0.053 C 
BRANCH  10  11
ATOM     11  C   UNL     1      10.660  20.695  -7.551  1.00  0.00     0.041 C 
ATOM     12  O   UNL     1      11.854  20.756  -7.944  1.00  0.00    -0.550 OA
ATOM     13  O   UNL     1      10.117  19.471  -7.183  1.00  0.00    -0.550 OA
ENDBRANCH  10  11
ENDBRANCH   9  10
ENDBRANCH   8   9
ENDBRANCH   1   8
TORSDOF 8
ENDMDL
MODEL 5
REMARK VINA RESULT:    -4.906      3.116      6.018
REMARK INTER + INTRA:          -7.682
REMARK INTER:                  -7.273
REMARK INTRA:                  -0.409
REMARK UNBOUND:                -0.481
REMARK SMILES O=C([O-])CCCCCCCC(=O)[O-]
REMARK SMILES IDX 7 1 6 2 5 3 4 4 2 5 1 6 3 7 8 8 9 9 10 10 11 11 12 12 13 13
REMARK H PARENT
REMARK Flexibility Score: inf
ROOT
ATOM      1  C   UNL     1       8.625  22.496  -9.752  1.00  0.00     0.000 C 
ENDROOT
BRANCH   1   2
ATOM      2  C   UNL     1       8.735  23.139  -8.365  1.00  0.00     0.000 C 
BRANCH   2   3
ATOM      3  C   UNL     1       9.763  22.404  -7.497  1.00  0.00     0.006 C 
BRANCH   3   4
ATOM      4  C   UNL     1      10.721  21.578  -8.362  1.00  0.00     0.053 C 
BRANCH   4   5
ATOM      5  C   UNL     1      10.894  20.207  -7.788  1.00  0.00     0.041 C 
ATOM      6  O   UNL     1      11.974  19.582  -7.955  1.00  0.00    -0.550 OA
ATOM      7  O   UNL     1       9.845  19.601  -7.108  1.00  0.00    -0.550 OA
ENDBRANCH   4   5
ENDBRANCH   3   4
ENDBRANCH   2   3
ENDBRANCH   1   2
BRANCH   1   8
ATOM      8  C   UNL     1       7.177  22.517 -10.257  1.00  0.00     0.000 C 
BRANCH   8   9
ATOM      9  C   UNL     1       6.218  22.993  -9.160  1.00  0.00     0.006 C 
BRANCH   9  10
ATOM     10  C   UNL     1       4.767  22.654  -9.513  1.00  0.00     0.053 C 
BRANCH  10  11
ATOM     11  C   UNL     1       3.948  22.496  -8.271  1.00  0.00     0.041 C 
ATOM     12  O   UNL     1       4.449  22.759  -7.146  1.00  0.00    -0.550 OA
ATOM     13  O   UNL     1       2.649  22.012  -8.351  1.00  0.00    -0.550 OA
ENDBRANCH  10  11
ENDBRANCH   9  10
ENDBRANCH   8   9
ENDBRANCH   1   8
TORSDOF 8
ENDMDL
MODEL 6
REMARK VINA RESULT:    -4.804      1.516      5.347
REMARK INTER + INTRA:          -7.532
REMARK INTER:                  -7.162
REMARK INTRA:                  -0.370
REMARK UNBOUND:                -0.481
REMARK SMILES O=C([O-])CCCCCCCC(=O)[O-]
REMARK SMILES IDX 7 1 6 2 5 3 4 4 2 5 1 6 3 7 8 8 9 9 10 10 11 11 12 12 13 13
REMARK H PARENT
REMARK Flexibility Score: inf
ROOT
ATOM      1  C   UNL     1       9.258  22.535  -9.277  1.00  0.00     0.000 C 
ENDROOT
BRANCH   1   2
ATOM      2  C   UNL     1       9.707  22.432  -7.815  1.00  0.00     0.000 C 
BRANCH   2   3
ATOM      3  C   UNL     1      10.460  21.121  -7.562  1.00  0.00     0.006 C 
BRANCH   3   4
ATOM      4  C   UNL     1      11.944  21.263  -7.914  1.00  0.00     0.053 C 
BRANCH   4   5
ATOM      5  C   UNL     1      12.532  22.458  -7.233  1.00  0.00     0.041 C 
ATOM      6  O   UNL     1      12.785  23.501  -7.891  1.00  0.00    -0.550 OA
ATOM      7  O   UNL     1      12.845  22.403  -5.881  1.00  0.00    -0.550 OA
ENDBRANCH   4   5
ENDBRANCH   3   4
ENDBRANCH   2   3
ENDBRANCH   1   2
BRANCH   1   8
ATOM      8  C   UNL     1       7.761  22.859  -9.372  1.00  0.00     0.000 C 
BRANCH   8   9
ATOM      9  C   UNL     1       7.392  24.032  -8.458  1.00  0.00     0.006 C 
BRANCH   9  10
ATOM     10  C   UNL     1       6.313  23.627  -7.450  1.00  0.00     0.053 C 
BRANCH  10  11
ATOM     11  C   UNL     1       6.732  23.986  -6.060  1.00  0.00     0.041 C 
ATOM     12  O   UNL     1       6.664  25.180  -5.667  1.00  0.00    -0.550 OA
ATOM     13  O   UNL     1       7.244  23.010  -5.215  1.00  0.00    -0.550 OA
ENDBRANCH  10  11
ENDBRANCH   9  10
ENDBRANCH   8   9
ENDBRANCH   1   8
TORSDOF 8
ENDMDL
MODEL 7
REMARK VINA RESULT:    -4.757      1.485      2.057
REMARK INTER + INTRA:          -7.463
REMARK INTER:                  -7.085
REMARK INTRA:                  -0.378
REMARK UNBOUND:                -0.481
REMARK SMILES O=C([O-])CCCCCCCC(=O)[O-]
REMARK SMILES IDX 7 1 6 2 5 3 4 4 2 5 1 6 3 7 8 8 9 9 10 10 11 11 12 12 13 13
REMARK H PARENT
REMARK Flexibility Score: inf
ROOT
ATOM      1  C   UNL     1       8.766  22.530  -9.740  1.00  0.00     0.000 C 
ENDROOT
BRANCH   1   2
ATOM      2  C   UNL     1       7.310  22.922  -9.462  1.00  0.00     0.000 C 
BRANCH   2   3
ATOM      3  C   UNL     1       7.231  24.027  -8.402  1.00  0.00     0.006 C 
BRANCH   3   4
ATOM      4  C   UNL     1       6.217  23.671  -7.311  1.00  0.00     0.053 C 
BRANCH   4   5
ATOM      5  C   UNL     1       6.752  24.031  -5.961  1.00  0.00     0.041 C 
ATOM      6  O   UNL     1       7.317  23.158  -5.250  1.00  0.00    -0.550 OA
ATOM      7  O   UNL     1       6.585  25.319  -5.467  1.00  0.00    -0.550 OA
ENDBRANCH   4   5
ENDBRANCH   3   4
ENDBRANCH   2   3
ENDBRANCH   1   2
BRANCH   1   8
ATOM      8  C   UNL     1       9.491  22.149  -8.443  1.00  0.00     0.000 C 
BRANCH   8   9
ATOM      9  C   UNL     1      10.930  22.677  -8.442  1.00  0.00     0.006 C 
BRANCH   9  10
ATOM     10  C   UNL     1      11.728  22.098  -7.270  1.00  0.00     0.053 C 
BRANCH  10  11
ATOM     11  C   UNL     1      12.990  22.873  -7.060  1.00  0.00     0.041 C 
ATOM     12  O   UNL     1      13.782  22.554  -6.135  1.00  0.00    -0.550 OA
ATOM     13  O   UNL     1      13.268  23.977  -7.856  1.00  0.00    -0.550 OA
ENDBRANCH  10  11
ENDBRANCH   9  10
ENDBRANCH   8   9
ENDBRANCH   1   8
TORSDOF 8
ENDMDL
MODEL 8
REMARK VINA RESULT:    -4.662      2.202      2.980
REMARK INTER + INTRA:          -7.323
REMARK INTER:                  -6.817
REMARK INTRA:                  -0.506
REMARK UNBOUND:                -0.481
REMARK SMILES O=C([O-])CCCCCCCC(=O)[O-]
REMARK SMILES IDX 7 1 6 2 5 3 4 4 2 5 1 6 3 7 8 8 9 9 10 10 11 11 12 12 13 13
REMARK H PARENT
REMARK Flexibility Score: inf
ROOT
ATOM      1  C   UNL     1      10.954  22.973  -9.989  1.00  0.00     0.000 C 
ENDROOT
BRANCH   1   2
ATOM      2  C   UNL     1       9.537  22.493  -9.653  1.00  0.00     0.000 C 
BRANCH   2   3
ATOM      3  C   UNL     1       8.842  23.464  -8.691  1.00  0.00     0.006 C 
BRANCH   3   4
ATOM      4  C   UNL     1       8.495  22.772  -7.369  1.00  0.00     0.053 C 
BRANCH   4   5
ATOM      5  C   UNL     1       7.361  23.475  -6.692  1.00  0.00     0.041 C 
ATOM      6  O   UNL     1       6.814  22.966  -5.679  1.00  0.00    -0.550 OA
ATOM      7  O   UNL     1       6.876  24.670  -7.208  1.00  0.00    -0.550 OA
ENDBRANCH   4   5
ENDBRANCH   3   4
ENDBRANCH   2   3
ENDBRANCH   1   2
BRANCH   1   8
ATOM      8  C   UNL     1      11.296  24.258  -9.225  1.00  0.00     0.000 C 
BRANCH   8   9
ATOM      9  C   UNL     1      12.565  24.078  -8.385  1.00  0.00     0.006 C 
BRANCH   9  10
ATOM     10  C   UNL     1      12.485  22.808  -7.533  1.00  0.00     0.053 C 
BRANCH  10  11
ATOM     11  C   UNL     1      13.744  22.622  -6.748  1.00  0.00     0.041 C 
ATOM     12  O   UNL     1      14.834  22.406  -7.341  1.00  0.00    -0.550 OA
ATOM     13  O   UNL     1      13.708  22.638  -5.359  1.00  0.00    -0.550 OA
ENDBRANCH  10  11
ENDBRANCH   9  10
ENDBRANCH   8   9
ENDBRANCH   1   8
TORSDOF 8
ENDMDL
MODEL 9
REMARK VINA RESULT:    -4.600      3.030      4.320
REMARK INTER + INTRA:          -7.232
REMARK INTER:                  -6.790
REMARK INTRA:                  -0.443
REMARK UNBOUND:                -0.481
REMARK SMILES O=C([O-])CCCCCCCC(=O)[O-]
REMARK SMILES IDX 7 1 6 2 5 3 4 4 2 5 1 6 3 7 8 8 9 9 10 10 11 11 12 12 13 13
REMARK H PARENT
REMARK Flexibility Score: inf
ROOT
ATOM      1  C   UNL     1      11.969  24.401  -9.406  1.00  0.00     0.000 C 
ENDROOT
BRANCH   1   2
ATOM      2  C   UNL     1      11.032  23.620 -10.334  1.00  0.00     0.000 C 
BRANCH   2   3
ATOM      3  C   UNL     1      10.259  22.547  -9.560  1.00  0.00     0.006 C 
BRANCH   3   4
ATOM      4  C   UNL     1       8.779  22.921  -9.431  1.00  0.00     0.053 C 
BRANCH   4   5
ATOM      5  C   UNL     1       8.385  23.012  -7.991  1.00  0.00     0.041 C 
ATOM      6  O   UNL     1       7.368  23.673  -7.653  1.00  0.00    -0.550 OA
ATOM      7  O   UNL     1       9.169  22.407  -7.017  1.00  0.00    -0.550 OA
ENDBRANCH   4   5
ENDBRANCH   3   4
ENDBRANCH   2   3
ENDBRANCH   1   2
BRANCH   1   8
ATOM      8  C   UNL     1      12.316  23.581  -8.156  1.00  0.00     0.000 C 
BRANCH   8   9
ATOM      9  C   UNL     1      13.693  23.970  -7.607  1.00  0.00     0.006 C 
BRANCH   9  10
ATOM     10  C   UNL     1      14.422  22.749  -7.036  1.00  0.00     0.053 C 
BRANCH  10  11
ATOM     11  C   UNL     1      14.577  22.877  -5.554  1.00  0.00     0.041 C 
ATOM     12  O   UNL     1      13.600  22.647  -4.794  1.00  0.00    -0.550 OA
ATOM     13  O   UNL     1      15.786  23.296  -5.014  1.00  0.00    -0.550 OA
ENDBRANCH  10  11
ENDBRANCH   9  10
ENDBRANCH   8   9
ENDBRANCH   1   8
TORSDOF 8
ENDMDL
