MODEL 1
REMARK VINA RESULT:    -4.018      0.000      0.000
REMARK INTER + INTRA:         -12.368
REMARK INTER:                  -8.716
REMARK INTRA:                  -3.652
REMARK UNBOUND:                -3.652
REMARK SMILES CCCCCCCCCCCCCCCCCCCCCC(=O)[O-]
REMARK SMILES IDX 12 1 11 2 10 3 9 4 8 5 7 6 6 7 5 8 4 9 3 10 2 11 1 12 13 13
REMARK SMILES IDX 14 14 15 15 16 16 17 17 18 18 19 19 20 20 21 21 22 22 23 23
REMARK SMILES IDX 24 24
REMARK H PARENT
REMARK Flexibility Score: inf
ROOT
ATOM      1  C   UNL     1      24.461  -4.776 -10.447  1.00  0.00     0.000 C 
ENDROOT
BRANCH   1   2
ATOM      2  C   UNL     1      24.475  -4.996  -8.925  1.00  0.00     0.000 C 
BRANCH   2   3
ATOM      3  C   UNL     1      24.535  -3.675  -8.137  1.00  0.00     0.000 C 
BRANCH   3   4
ATOM      4  C   UNL     1      25.881  -3.475  -7.423  1.00  0.00    -0.000 C 
BRANCH   4   5
ATOM      5  C   UNL     1      26.448  -4.786  -6.846  1.00  0.00    -0.000 C 
BRANCH   5   6
ATOM      6  C   UNL     1      27.972  -4.891  -7.011  1.00  0.00    -0.000 C 
BRANCH   6   7
ATOM      7  C   UNL     1      28.428  -4.651  -8.461  1.00  0.00    -0.000 C 
BRANCH   7   8
ATOM      8  C   UNL     1      29.530  -3.574  -8.554  1.00  0.00    -0.000 C 
BRANCH   8   9
ATOM      9  C   UNL     1      29.974  -3.028  -7.186  1.00  0.00    -0.000 C 
BRANCH   9  10
ATOM     10  C   UNL     1      29.855  -1.501  -7.084  1.00  0.00    -0.000 C 
BRANCH  10  11
ATOM     11  C   UNL     1      28.502  -1.094  -6.488  1.00  0.00    -0.003 C 
ATOM     12  C   UNL     1      27.623  -0.413  -7.532  1.00  0.00     0.004 C 
ENDBRANCH  10  11
ENDBRANCH   9  10
ENDBRANCH   8   9
ENDBRANCH   7   8
ENDBRANCH   6   7
ENDBRANCH   5   6
ENDBRANCH   4   5
ENDBRANCH   3   4
ENDBRANCH   2   3
ENDBRANCH   1   2
BRANCH   1  13
ATOM     13  C   UNL     1      25.876  -4.643 -11.037  1.00  0.00     0.000 C 
BRANCH  13  14
ATOM     14  C   UNL     1      26.100  -3.293 -11.737  1.00  0.00     0.000 C 
BRANCH  14  15
ATOM     15  C   UNL     1      26.703  -2.233 -10.798  1.00  0.00     0.000 C 
BRANCH  15  16
ATOM     16  C   UNL     1      25.876  -0.938 -10.763  1.00  0.00     0.000 C 
BRANCH  16  17
ATOM     17  C   UNL     1      24.383  -1.180 -11.042  1.00  0.00     0.000 C 
BRANCH  17  18
ATOM     18  C   UNL     1      23.881  -0.437 -12.294  1.00  0.00     0.000 C 
BRANCH  18  19
ATOM     19  C   UNL     1      24.849   0.660 -12.789  1.00  0.00     0.000 C 
BRANCH  19  20
ATOM     20  C   UNL     1      24.911   0.731 -14.322  1.00  0.00     0.006 C 
BRANCH  20  21
ATOM     21  C   UNL     1      24.967  -0.671 -14.935  1.00  0.00     0.053 C 
BRANCH  21  22
ATOM     22  C   UNL     1      26.386  -1.114 -15.102  1.00  0.00     0.041 C 
ATOM     23  O   UNL     1      27.316  -0.266 -15.119  1.00  0.00    -0.550 OA
ATOM     24  O   UNL     1      26.686  -2.467 -15.192  1.00  0.00    -0.550 OA
ENDBRANCH  21  22
ENDBRANCH  20  21
ENDBRANCH  19  20
ENDBRANCH  18  19
ENDBRANCH  17  18
ENDBRANCH  16  17
ENDBRANCH  15  16
ENDBRANCH  14  15
ENDBRANCH  13  14
ENDBRANCH   1  13
TORSDOF 20
ENDMDL
MODEL 2
REMARK VINA RESULT:    -3.904      3.030      6.865
REMARK INTER + INTRA:         -12.120
REMARK INTER:                  -7.917
REMARK INTRA:                  -4.203
REMARK UNBOUND:                -3.652
REMARK SMILES CCCCCCCCCCCCCCCCCCCCCC(=O)[O-]
REMARK SMILES IDX 12 1 11 2 10 3 9 4 8 5 7 6 6 7 5 8 4 9 3 10 2 11 1 12 13 13
REMARK SMILES IDX 14 14 15 15 16 16 17 17 18 18 19 19 20 20 21 21 22 22 23 23
REMARK SMILES IDX 24 24
REMARK H PARENT
REMARK Flexibility Score: inf
ROOT
ATOM      1  C   UNL     1      25.361  -2.683  -7.830  1.00  0.00     0.000 C 
ENDROOT
BRANCH   1   2
ATOM      2  C   UNL     1      24.687  -1.691  -8.792  1.00  0.00     0.000 C 
BRANCH   2   3
ATOM      3  C   UNL     1      25.684  -0.686  -9.399  1.00  0.00     0.000 C 
BRANCH   3   4
ATOM      4  C   UNL     1      25.601  -0.628 -10.933  1.00  0.00    -0.000 C 
BRANCH   4   5
ATOM      5  C   UNL     1      24.205  -0.997 -11.467  1.00  0.00    -0.000 C 
BRANCH   5   6
ATOM      6  C   UNL     1      23.882  -0.302 -12.799  1.00  0.00    -0.000 C 
BRANCH   6   7
ATOM      7  C   UNL     1      24.866   0.835 -13.127  1.00  0.00    -0.000 C 
BRANCH   7   8
ATOM      8  C   UNL     1      25.539   0.644 -14.502  1.00  0.00    -0.000 C 
BRANCH   8   9
ATOM      9  C   UNL     1      25.152  -0.671 -15.200  1.00  0.00    -0.000 C 
BRANCH   9  10
ATOM     10  C   UNL     1      26.350  -1.605 -15.423  1.00  0.00    -0.000 C 
BRANCH  10  11
ATOM     11  C   UNL     1      26.776  -2.275 -14.112  1.00  0.00    -0.003 C 
ATOM     12  C   UNL     1      28.219  -1.927 -13.759  1.00  0.00     0.004 C 
ENDBRANCH  10  11
ENDBRANCH   9  10
ENDBRANCH   8   9
ENDBRANCH   7   8
ENDBRANCH   6   7
ENDBRANCH   5   6
ENDBRANCH   4   5
ENDBRANCH   3   4
ENDBRANCH   2   3
ENDBRANCH   1   2
BRANCH   1  13
ATOM     13  C   UNL     1      24.833  -4.119  -8.000  1.00  0.00     0.000 C 
BRANCH  13  14
ATOM     14  C   UNL     1      23.921  -4.272  -9.227  1.00  0.00     0.000 C 
BRANCH  14  15
ATOM     15  C   UNL     1      24.541  -5.165 -10.317  1.00  0.00     0.000 C 
BRANCH  15  16
ATOM     16  C   UNL     1      25.458  -4.381 -11.270  1.00  0.00     0.000 C 
BRANCH  16  17
ATOM     17  C   UNL     1      26.653  -5.214 -11.764  1.00  0.00     0.000 C 
BRANCH  17  18
ATOM     18  C   UNL     1      27.961  -4.876 -11.028  1.00  0.00     0.000 C 
BRANCH  18  19
ATOM     19  C   UNL     1      27.985  -3.449 -10.437  1.00  0.00     0.000 C 
BRANCH  19  20
ATOM     20  C   UNL     1      28.731  -3.389  -9.095  1.00  0.00     0.006 C 
BRANCH  20  21
ATOM     21  C   UNL     1      28.465  -4.646  -8.262  1.00  0.00     0.053 C 
BRANCH  21  22
ATOM     22  C   UNL     1      28.830  -4.413  -6.830  1.00  0.00     0.041 C 
ATOM     23  O   UNL     1      29.463  -5.291  -6.187  1.00  0.00    -0.550 OA
ATOM     24  O   UNL     1      28.512  -3.206  -6.220  1.00  0.00    -0.550 OA
ENDBRANCH  21  22
ENDBRANCH  20  21
ENDBRANCH  19  20
ENDBRANCH  18  19
ENDBRANCH  17  18
ENDBRANCH  16  17
ENDBRANCH  15  16
ENDBRANCH  14  15
ENDBRANCH  13  14
ENDBRANCH   1  13
TORSDOF 20
ENDMDL
MODEL 3
REMARK VINA RESULT:    -3.861      2.736      6.459
REMARK INTER + INTRA:         -12.026
REMARK INTER:                  -8.036
REMARK INTRA:                  -3.990
REMARK UNBOUND:                -3.652
REMARK SMILES CCCCCCCCCCCCCCCCCCCCCC(=O)[O-]
REMARK SMILES IDX 12 1 11 2 10 3 9 4 8 5 7 6 6 7 5 8 4 9 3 10 2 11 1 12 13 13
REMARK SMILES IDX 14 14 15 15 16 16 17 17 18 18 19 19 20 20 21 21 22 22 23 23
REMARK SMILES IDX 24 24
REMARK H PARENT
REMARK Flexibility Score: inf
ROOT
ATOM      1  C   UNL     1      25.369  -0.614  -8.895  1.00  0.00     0.000 C 
ENDROOT
BRANCH   1   2
ATOM      2  C   UNL     1      24.324  -1.742  -8.941  1.00  0.00     0.000 C 
BRANCH   2   3
ATOM      3  C   UNL     1      24.629  -2.872  -7.941  1.00  0.00     0.000 C 
BRANCH   3   4
ATOM      4  C   UNL     1      24.446  -4.269  -8.557  1.00  0.00    -0.000 C 
BRANCH   4   5
ATOM      5  C   UNL     1      24.133  -4.218 -10.063  1.00  0.00    -0.000 C 
BRANCH   5   6
ATOM      6  C   UNL     1      25.280  -4.769 -10.923  1.00  0.00    -0.000 C 
BRANCH   6   7
ATOM      7  C   UNL     1      26.664  -4.318 -10.422  1.00  0.00    -0.000 C 
BRANCH   7   8
ATOM      8  C   UNL     1      27.387  -3.413 -11.442  1.00  0.00    -0.000 C 
BRANCH   8   9
ATOM      9  C   UNL     1      26.458  -2.852 -12.533  1.00  0.00    -0.000 C 
BRANCH   9  10
ATOM     10  C   UNL     1      26.167  -1.354 -12.359  1.00  0.00    -0.000 C 
BRANCH  10  11
ATOM     11  C   UNL     1      24.675  -1.059 -12.546  1.00  0.00    -0.003 C 
ATOM     12  C   UNL     1      24.436   0.424 -12.814  1.00  0.00     0.004 C 
ENDBRANCH  10  11
ENDBRANCH   9  10
ENDBRANCH   8   9
ENDBRANCH   7   8
ENDBRANCH   6   7
ENDBRANCH   5   6
ENDBRANCH   4   5
ENDBRANCH   3   4
ENDBRANCH   2   3
ENDBRANCH   1   2
BRANCH   1  13
ATOM     13  C   UNL     1      26.796  -1.142  -8.665  1.00  0.00     0.000 C 
BRANCH  13  14
ATOM     14  C   UNL     1      27.518  -0.414  -7.520  1.00  0.00     0.000 C 
BRANCH  14  15
ATOM     15  C   UNL     1      28.455  -1.342  -6.726  1.00  0.00     0.000 C 
BRANCH  15  16
ATOM     16  C   UNL     1      29.043  -2.467  -7.593  1.00  0.00     0.000 C 
BRANCH  16  17
ATOM     17  C   UNL     1      29.104  -3.815  -6.855  1.00  0.00     0.000 C 
BRANCH  17  18
ATOM     18  C   UNL     1      27.734  -4.512  -6.771  1.00  0.00     0.000 C 
BRANCH  18  19
ATOM     19  C   UNL     1      27.773  -5.999  -7.183  1.00  0.00     0.000 C 
BRANCH  19  20
ATOM     20  C   UNL     1      26.383  -6.653  -7.133  1.00  0.00     0.006 C 
BRANCH  20  21
ATOM     21  C   UNL     1      26.406  -8.042  -7.776  1.00  0.00     0.053 C 
BRANCH  21  22
ATOM     22  C   UNL     1      25.876  -7.981  -9.174  1.00  0.00     0.041 C 
ATOM     23  O   UNL     1      24.638  -7.886  -9.378  1.00  0.00    -0.550 OA
ATOM     24  O   UNL     1      26.754  -7.981 -10.250  1.00  0.00    -0.550 OA
ENDBRANCH  21  22
ENDBRANCH  20  21
ENDBRANCH  19  20
ENDBRANCH  18  19
ENDBRANCH  17  18
ENDBRANCH  16  17
ENDBRANCH  15  16
ENDBRANCH  14  15
ENDBRANCH  13  14
ENDBRANCH   1  13
TORSDOF 20
ENDMDL
MODEL 4
REMARK VINA RESULT:    -3.843      1.275      4.055
REMARK INTER + INTRA:         -11.987
REMARK INTER:                  -9.556
REMARK INTRA:                  -2.431
REMARK UNBOUND:                -3.652
REMARK SMILES CCCCCCCCCCCCCCCCCCCCCC(=O)[O-]
REMARK SMILES IDX 12 1 11 2 10 3 9 4 8 5 7 6 6 7 5 8 4 9 3 10 2 11 1 12 13 13
REMARK SMILES IDX 14 14 15 15 16 16 17 17 18 18 19 19 20 20 21 21 22 22 23 23
REMARK SMILES IDX 24 24
REMARK H PARENT
REMARK Flexibility Score: inf
ROOT
ATOM      1  C   UNL     1      26.839  -0.352  -7.877  1.00  0.00     0.000 C 
ENDROOT
BRANCH   1   2
ATOM      2  C   UNL     1      28.329  -0.626  -7.614  1.00  0.00     0.000 C 
BRANCH   2   3
ATOM      3  C   UNL     1      28.578  -1.268  -6.237  1.00  0.00     0.000 C 
BRANCH   3   4
ATOM      4  C   UNL     1      29.199  -2.670  -6.344  1.00  0.00    -0.000 C 
BRANCH   4   5
ATOM      5  C   UNL     1      29.078  -3.267  -7.758  1.00  0.00    -0.000 C 
BRANCH   5   6
ATOM      6  C   UNL     1      28.605  -4.729  -7.742  1.00  0.00    -0.000 C 
BRANCH   6   7
ATOM      7  C   UNL     1      27.463  -4.970  -6.740  1.00  0.00    -0.000 C 
BRANCH   7   8
ATOM      8  C   UNL     1      26.144  -4.305  -7.188  1.00  0.00    -0.000 C 
BRANCH   8   9
ATOM      9  C   UNL     1      25.491  -4.988  -8.401  1.00  0.00    -0.000 C 
BRANCH   9  10
ATOM     10  C   UNL     1      23.976  -4.752  -8.478  1.00  0.00    -0.000 C 
BRANCH  10  11
ATOM     11  C   UNL     1      23.428  -5.143  -9.855  1.00  0.00    -0.003 C 
ATOM     12  C   UNL     1      22.538  -6.379  -9.763  1.00  0.00     0.004 C 
ENDBRANCH  10  11
ENDBRANCH   9  10
ENDBRANCH   8   9
ENDBRANCH   7   8
ENDBRANCH   6   7
ENDBRANCH   5   6
ENDBRANCH   4   5
ENDBRANCH   3   4
ENDBRANCH   2   3
ENDBRANCH   1   2
BRANCH   1  13
ATOM     13  C   UNL     1      26.286  -1.179  -9.052  1.00  0.00     0.000 C 
BRANCH  13  14
ATOM     14  C   UNL     1      24.761  -1.357  -8.982  1.00  0.00     0.000 C 
BRANCH  14  15
ATOM     15  C   UNL     1      24.101  -1.355 -10.373  1.00  0.00     0.000 C 
BRANCH  15  16
ATOM     16  C   UNL     1      24.918  -0.568 -11.411  1.00  0.00     0.000 C 
BRANCH  16  17
ATOM     17  C   UNL     1      24.108  -0.237 -12.676  1.00  0.00     0.000 C 
BRANCH  17  18
ATOM     18  C   UNL     1      24.565   1.068 -13.352  1.00  0.00     0.000 C 
BRANCH  18  19
ATOM     19  C   UNL     1      25.217   0.851 -14.735  1.00  0.00     0.000 C 
BRANCH  19  20
ATOM     20  C   UNL     1      24.916  -0.543 -15.306  1.00  0.00     0.006 C 
BRANCH  20  21
ATOM     21  C   UNL     1      26.180  -1.180 -15.891  1.00  0.00     0.053 C 
BRANCH  21  22
ATOM     22  C   UNL     1      27.242  -1.295 -14.844  1.00  0.00     0.041 C 
ATOM     23  O   UNL     1      27.054  -2.013 -13.827  1.00  0.00    -0.550 OA
ATOM     24  O   UNL     1      28.459  -0.646 -15.014  1.00  0.00    -0.550 OA
ENDBRANCH  21  22
ENDBRANCH  20  21
ENDBRANCH  19  20
ENDBRANCH  18  19
ENDBRANCH  17  18
ENDBRANCH  16  17
ENDBRANCH  15  16
ENDBRANCH  14  15
ENDBRANCH  13  14
ENDBRANCH   1  13
TORSDOF 20
ENDMDL
MODEL 5
REMARK VINA RESULT:    -3.819      2.733      6.506
REMARK INTER + INTRA:         -11.935
REMARK INTER:                  -7.832
REMARK INTRA:                  -4.102
REMARK UNBOUND:                -3.652
REMARK SMILES CCCCCCCCCCCCCCCCCCCCCC(=O)[O-]
REMARK SMILES IDX 12 1 11 2 10 3 9 4 8 5 7 6 6 7 5 8 4 9 3 10 2 11 1 12 13 13
REMARK SMILES IDX 14 14 15 15 16 16 17 17 18 18 19 19 20 20 21 21 22 22 23 23
REMARK SMILES IDX 24 24
REMARK H PARENT
REMARK Flexibility Score: inf
ROOT
ATOM      1  C   UNL     1      25.541  -0.494  -9.195  1.00  0.00     0.000 C 
ENDROOT
BRANCH   1   2
ATOM      2  C   UNL     1      24.452  -1.496  -8.777  1.00  0.00     0.000 C 
BRANCH   2   3
ATOM      3  C   UNL     1      23.992  -2.389  -9.944  1.00  0.00     0.000 C 
BRANCH   3   4
ATOM      4  C   UNL     1      24.685  -3.761  -9.945  1.00  0.00    -0.000 C 
BRANCH   4   5
ATOM      5  C   UNL     1      25.484  -4.022 -11.235  1.00  0.00    -0.000 C 
BRANCH   5   6
ATOM      6  C   UNL     1      26.910  -3.455 -11.169  1.00  0.00    -0.000 C 
BRANCH   6   7
ATOM      7  C   UNL     1      27.054  -2.124 -11.930  1.00  0.00    -0.000 C 
BRANCH   7   8
ATOM      8  C   UNL     1      26.682  -2.264 -13.422  1.00  0.00    -0.000 C 
BRANCH   8   9
ATOM      9  C   UNL     1      25.850  -1.088 -13.961  1.00  0.00    -0.000 C 
BRANCH   9  10
ATOM     10  C   UNL     1      24.526  -0.897 -13.209  1.00  0.00    -0.000 C 
BRANCH  10  11
ATOM     11  C   UNL     1      24.374   0.549 -12.722  1.00  0.00    -0.003 C 
ATOM     12  C   UNL     1      25.145   1.515 -13.617  1.00  0.00     0.004 C 
ENDBRANCH  10  11
ENDBRANCH   9  10
ENDBRANCH   8   9
ENDBRANCH   7   8
ENDBRANCH   6   7
ENDBRANCH   5   6
ENDBRANCH   4   5
ENDBRANCH   3   4
ENDBRANCH   2   3
ENDBRANCH   1   2
BRANCH   1  13
ATOM     13  C   UNL     1      26.772  -0.543  -8.272  1.00  0.00     0.000 C 
BRANCH  13  14
ATOM     14  C   UNL     1      26.919  -1.895  -7.556  1.00  0.00     0.000 C 
BRANCH  14  15
ATOM     15  C   UNL     1      28.259  -2.586  -7.867  1.00  0.00     0.000 C 
BRANCH  15  16
ATOM     16  C   UNL     1      28.192  -4.110  -7.681  1.00  0.00     0.000 C 
BRANCH  16  17
ATOM     17  C   UNL     1      26.925  -4.563  -6.935  1.00  0.00     0.000 C 
BRANCH  17  18
ATOM     18  C   UNL     1      26.367  -5.897  -7.461  1.00  0.00     0.000 C 
BRANCH  18  19
ATOM     19  C   UNL     1      27.220  -6.521  -8.586  1.00  0.00     0.000 C 
BRANCH  19  20
ATOM     20  C   UNL     1      26.378  -7.371  -9.550  1.00  0.00     0.006 C 
BRANCH  20  21
ATOM     21  C   UNL     1      24.893  -7.303  -9.187  1.00  0.00     0.053 C 
BRANCH  21  22
ATOM     22  C   UNL     1      24.048  -7.662 -10.369  1.00  0.00     0.041 C 
ATOM     23  O   UNL     1      24.552  -7.694 -11.522  1.00  0.00    -0.550 OA
ATOM     24  O   UNL     1      22.714  -8.009 -10.190  1.00  0.00    -0.550 OA
ENDBRANCH  21  22
ENDBRANCH  20  21
ENDBRANCH  19  20
ENDBRANCH  18  19
ENDBRANCH  17  18
ENDBRANCH  16  17
ENDBRANCH  15  16
ENDBRANCH  14  15
ENDBRANCH  13  14
ENDBRANCH   1  13
TORSDOF 20
ENDMDL
MODEL 6
REMARK VINA RESULT:    -3.815      1.382      3.994
REMARK INTER + INTRA:         -11.927
REMARK INTER:                  -9.406
REMARK INTRA:                  -2.520
REMARK UNBOUND:                -3.652
REMARK SMILES CCCCCCCCCCCCCCCCCCCCCC(=O)[O-]
REMARK SMILES IDX 12 1 11 2 10 3 9 4 8 5 7 6 6 7 5 8 4 9 3 10 2 11 1 12 13 13
REMARK SMILES IDX 14 14 15 15 16 16 17 17 18 18 19 19 20 20 21 21 22 22 23 23
REMARK SMILES IDX 24 24
REMARK H PARENT
REMARK Flexibility Score: inf
ROOT
ATOM      1  C   UNL     1      26.235  -1.014  -9.103  1.00  0.00     0.000 C 
ENDROOT
BRANCH   1   2
ATOM      2  C   UNL     1      26.794  -0.285  -7.870  1.00  0.00     0.000 C 
BRANCH   2   3
ATOM      3  C   UNL     1      28.267  -0.636  -7.594  1.00  0.00     0.000 C 
BRANCH   3   4
ATOM      4  C   UNL     1      28.433  -1.578  -6.390  1.00  0.00    -0.000 C 
BRANCH   4   5
ATOM      5  C   UNL     1      29.147  -2.892  -6.758  1.00  0.00    -0.000 C 
BRANCH   5   6
ATOM      6  C   UNL     1      28.250  -3.842  -7.567  1.00  0.00    -0.000 C 
BRANCH   6   7
ATOM      7  C   UNL     1      27.061  -4.374  -6.748  1.00  0.00    -0.000 C 
BRANCH   7   8
ATOM      8  C   UNL     1      25.730  -4.279  -7.525  1.00  0.00    -0.000 C 
BRANCH   8   9
ATOM      9  C   UNL     1      25.795  -4.892  -8.934  1.00  0.00    -0.000 C 
BRANCH   9  10
ATOM     10  C   UNL     1      24.736  -5.980  -9.163  1.00  0.00    -0.000 C 
BRANCH  10  11
ATOM     11  C   UNL     1      23.321  -5.404  -9.036  1.00  0.00    -0.003 C 
ATOM     12  C   UNL     1      22.304  -6.273  -9.770  1.00  0.00     0.004 C 
ENDBRANCH  10  11
ENDBRANCH   9  10
ENDBRANCH   8   9
ENDBRANCH   7   8
ENDBRANCH   6   7
ENDBRANCH   5   6
ENDBRANCH   4   5
ENDBRANCH   3   4
ENDBRANCH   2   3
ENDBRANCH   1   2
BRANCH   1  13
ATOM     13  C   UNL     1      24.722  -1.279  -8.996  1.00  0.00     0.000 C 
BRANCH  13  14
ATOM     14  C   UNL     1      24.104  -1.722 -10.331  1.00  0.00     0.000 C 
BRANCH  14  15
ATOM     15  C   UNL     1      25.058  -1.518 -11.522  1.00  0.00     0.000 C 
BRANCH  15  16
ATOM     16  C   UNL     1      24.334  -1.000 -12.775  1.00  0.00     0.000 C 
BRANCH  16  17
ATOM     17  C   UNL     1      24.156   0.528 -12.770  1.00  0.00     0.000 C 
BRANCH  17  18
ATOM     18  C   UNL     1      25.288   1.262 -13.510  1.00  0.00     0.000 C 
BRANCH  18  19
ATOM     19  C   UNL     1      25.306   0.995 -15.030  1.00  0.00     0.000 C 
BRANCH  19  20
ATOM     20  C   UNL     1      26.683   0.525 -15.522  1.00  0.00     0.006 C 
BRANCH  20  21
ATOM     21  C   UNL     1      26.810  -0.998 -15.423  1.00  0.00     0.053 C 
BRANCH  21  22
ATOM     22  C   UNL     1      28.012  -1.372 -14.614  1.00  0.00     0.041 C 
ATOM     23  O   UNL     1      29.162  -1.023 -14.988  1.00  0.00    -0.550 OA
ATOM     24  O   UNL     1      27.857  -2.066 -13.420  1.00  0.00    -0.550 OA
ENDBRANCH  21  22
ENDBRANCH  20  21
ENDBRANCH  19  20
ENDBRANCH  18  19
ENDBRANCH  17  18
ENDBRANCH  16  17
ENDBRANCH  15  16
ENDBRANCH  14  15
ENDBRANCH  13  14
ENDBRANCH   1  13
TORSDOF 20
ENDMDL
MODEL 7
REMARK VINA RESULT:    -3.774      1.011      4.147
REMARK INTER + INTRA:         -11.838
REMARK INTER:                  -8.174
REMARK INTRA:                  -3.664
REMARK UNBOUND:                -3.652
REMARK SMILES CCCCCCCCCCCCCCCCCCCCCC(=O)[O-]
REMARK SMILES IDX 12 1 11 2 10 3 9 4 8 5 7 6 6 7 5 8 4 9 3 10 2 11 1 12 13 13
REMARK SMILES IDX 14 14 15 15 16 16 17 17 18 18 19 19 20 20 21 21 22 22 23 23
REMARK SMILES IDX 24 24
REMARK H PARENT
REMARK Flexibility Score: inf
ROOT
ATOM      1  C   UNL     1      28.392  -1.074  -6.486  1.00  0.00     0.000 C 
ENDROOT
BRANCH   1   2
ATOM      2  C   UNL     1      28.960  -2.502  -6.462  1.00  0.00     0.000 C 
BRANCH   2   3
ATOM      3  C   UNL     1      28.939  -3.169  -7.850  1.00  0.00     0.000 C 
BRANCH   3   4
ATOM      4  C   UNL     1      28.020  -4.400  -7.898  1.00  0.00    -0.000 C 
BRANCH   4   5
ATOM      5  C   UNL     1      26.721  -4.203  -7.095  1.00  0.00    -0.000 C 
BRANCH   5   6
ATOM      6  C   UNL     1      25.508  -4.869  -7.765  1.00  0.00    -0.000 C 
BRANCH   6   7
ATOM      7  C   UNL     1      24.448  -3.849  -8.218  1.00  0.00    -0.000 C 
BRANCH   7   8
ATOM      8  C   UNL     1      23.855  -4.200  -9.598  1.00  0.00    -0.000 C 
BRANCH   8   9
ATOM      9  C   UNL     1      24.595  -5.342 -10.314  1.00  0.00    -0.000 C 
BRANCH   9  10
ATOM     10  C   UNL     1      25.560  -4.843 -11.399  1.00  0.00    -0.000 C 
BRANCH  10  11
ATOM     11  C   UNL     1      26.929  -5.520 -11.271  1.00  0.00    -0.003 C 
ATOM     12  C   UNL     1      28.058  -4.549 -11.606  1.00  0.00     0.004 C 
ENDBRANCH  10  11
ENDBRANCH   9  10
ENDBRANCH   8   9
ENDBRANCH   7   8
ENDBRANCH   6   7
ENDBRANCH   5   6
ENDBRANCH   4   5
ENDBRANCH   3   4
ENDBRANCH   2   3
ENDBRANCH   1   2
BRANCH   1  13
ATOM     13  C   UNL     1      27.948  -0.638  -7.894  1.00  0.00     0.000 C 
BRANCH  13  14
ATOM     14  C   UNL     1      26.526  -0.055  -7.911  1.00  0.00     0.000 C 
BRANCH  14  15
ATOM     15  C   UNL     1      25.690  -0.570  -9.096  1.00  0.00     0.000 C 
BRANCH  15  16
ATOM     16  C   UNL     1      26.505  -1.458 -10.051  1.00  0.00     0.000 C 
BRANCH  16  17
ATOM     17  C   UNL     1      26.156  -1.217 -11.529  1.00  0.00     0.000 C 
BRANCH  17  18
ATOM     18  C   UNL     1      24.643  -1.278 -11.803  1.00  0.00     0.000 C 
BRANCH  18  19
ATOM     19  C   UNL     1      24.069   0.028 -12.393  1.00  0.00     0.000 C 
BRANCH  19  20
ATOM     20  C   UNL     1      24.798   0.455 -13.676  1.00  0.00     0.006 C 
BRANCH  20  21
ATOM     21  C   UNL     1      24.689  -0.626 -14.755  1.00  0.00     0.053 C 
BRANCH  21  22
ATOM     22  C   UNL     1      26.026  -0.885 -15.375  1.00  0.00     0.041 C 
ATOM     23  O   UNL     1      26.226  -1.938 -16.035  1.00  0.00    -0.550 OA
ATOM     24  O   UNL     1      27.039   0.060 -15.262  1.00  0.00    -0.550 OA
ENDBRANCH  21  22
ENDBRANCH  20  21
ENDBRANCH  19  20
ENDBRANCH  18  19
ENDBRANCH  17  18
ENDBRANCH  16  17
ENDBRANCH  15  16
ENDBRANCH  14  15
ENDBRANCH  13  14
ENDBRANCH   1  13
TORSDOF 20
ENDMDL
MODEL 8
REMARK VINA RESULT:    -3.747      1.472      3.625
REMARK INTER + INTRA:         -11.779
REMARK INTER:                  -8.308
REMARK INTRA:                  -3.470
REMARK UNBOUND:                -3.652
REMARK SMILES CCCCCCCCCCCCCCCCCCCCCC(=O)[O-]
REMARK SMILES IDX 12 1 11 2 10 3 9 4 8 5 7 6 6 7 5 8 4 9 3 10 2 11 1 12 13 13
REMARK SMILES IDX 14 14 15 15 16 16 17 17 18 18 19 19 20 20 21 21 22 22 23 23
REMARK SMILES IDX 24 24
REMARK H PARENT
REMARK Flexibility Score: inf
ROOT
ATOM      1  C   UNL     1      25.158  -3.095  -7.751  1.00  0.00     0.000 C 
ENDROOT
BRANCH   1   2
ATOM      2  C   UNL     1      25.065  -1.820  -8.607  1.00  0.00     0.000 C 
BRANCH   2   3
ATOM      3  C   UNL     1      26.446  -1.212  -8.913  1.00  0.00     0.000 C 
BRANCH   3   4
ATOM      4  C   UNL     1      26.875  -0.169  -7.868  1.00  0.00    -0.000 C 
BRANCH   4   5
ATOM      5  C   UNL     1      28.155  -0.573  -7.115  1.00  0.00    -0.000 C 
BRANCH   5   6
ATOM      6  C   UNL     1      28.678  -1.953  -7.541  1.00  0.00    -0.000 C 
BRANCH   6   7
ATOM      7  C   UNL     1      28.946  -2.881  -6.343  1.00  0.00    -0.000 C 
BRANCH   7   8
ATOM      8  C   UNL     1      28.737  -4.368  -6.700  1.00  0.00    -0.000 C 
BRANCH   8   9
ATOM      9  C   UNL     1      28.584  -4.624  -8.209  1.00  0.00    -0.000 C 
BRANCH   9  10
ATOM     10  C   UNL     1      27.724  -5.857  -8.523  1.00  0.00    -0.000 C 
BRANCH  10  11
ATOM     11  C   UNL     1      27.109  -6.438  -7.244  1.00  0.00    -0.003 C 
ATOM     12  C   UNL     1      26.055  -7.492  -7.570  1.00  0.00     0.004 C 
ENDBRANCH  10  11
ENDBRANCH   9  10
ENDBRANCH   8   9
ENDBRANCH   7   8
ENDBRANCH   6   7
ENDBRANCH   5   6
ENDBRANCH   4   5
ENDBRANCH   3   4
ENDBRANCH   2   3
ENDBRANCH   1   2
BRANCH   1  13
ATOM     13  C   UNL     1      24.316  -4.250  -8.321  1.00  0.00     0.000 C 
BRANCH  13  14
ATOM     14  C   UNL     1      24.195  -4.193  -9.853  1.00  0.00     0.000 C 
BRANCH  14  15
ATOM     15  C   UNL     1      24.855  -5.400 -10.544  1.00  0.00     0.000 C 
BRANCH  15  16
ATOM     16  C   UNL     1      25.740  -4.988 -11.731  1.00  0.00     0.000 C 
BRANCH  16  17
ATOM     17  C   UNL     1      26.463  -3.651 -11.497  1.00  0.00     0.000 C 
BRANCH  17  18
ATOM     18  C   UNL     1      26.254  -2.649 -12.647  1.00  0.00     0.000 C 
BRANCH  18  19
ATOM     19  C   UNL     1      25.970  -1.210 -12.167  1.00  0.00     0.000 C 
BRANCH  19  20
ATOM     20  C   UNL     1      24.605  -0.695 -12.648  1.00  0.00     0.006 C 
BRANCH  20  21
ATOM     21  C   UNL     1      24.636  -0.375 -14.145  1.00  0.00     0.053 C 
BRANCH  21  22
ATOM     22  C   UNL     1      25.198   0.992 -14.377  1.00  0.00     0.041 C 
ATOM     23  O   UNL     1      25.086   1.881 -13.493  1.00  0.00    -0.550 OA
ATOM     24  O   UNL     1      25.888   1.269 -15.551  1.00  0.00    -0.550 OA
ENDBRANCH  21  22
ENDBRANCH  20  21
ENDBRANCH  19  20
ENDBRANCH  18  19
ENDBRANCH  17  18
ENDBRANCH  16  17
ENDBRANCH  15  16
ENDBRANCH  14  15
ENDBRANCH  13  14
ENDBRANCH   1  13
TORSDOF 20
ENDMDL
MODEL 9
REMARK VINA RESULT:    -3.693      2.994      6.843
REMARK INTER + INTRA:         -11.662
REMARK INTER:                  -8.029
REMARK INTRA:                  -3.632
REMARK UNBOUND:                -3.652
REMARK SMILES CCCCCCCCCCCCCCCCCCCCCC(=O)[O-]
REMARK SMILES IDX 12 1 11 2 10 3 9 4 8 5 7 6 6 7 5 8 4 9 3 10 2 11 1 12 13 13
REMARK SMILES IDX 14 14 15 15 16 16 17 17 18 18 19 19 20 20 21 21 22 22 23 23
REMARK SMILES IDX 24 24
REMARK H PARENT
REMARK Flexibility Score: inf
ROOT
ATOM      1  C   UNL     1      24.128  -0.111 -12.699  1.00  0.00     0.000 C 
ENDROOT
BRANCH   1   2
ATOM      2  C   UNL     1      24.681   1.148 -13.386  1.00  0.00     0.000 C 
BRANCH   2   3
ATOM      3  C   UNL     1      25.387   0.833 -14.718  1.00  0.00     0.000 C 
BRANCH   3   4
ATOM      4  C   UNL     1      24.896  -0.481 -15.348  1.00  0.00    -0.000 C 
BRANCH   4   5
ATOM      5  C   UNL     1      26.048  -1.445 -15.686  1.00  0.00    -0.000 C 
BRANCH   5   6
ATOM      6  C   UNL     1      27.296  -1.196 -14.825  1.00  0.00    -0.000 C 
BRANCH   6   7
ATOM      7  C   UNL     1      27.727  -2.444 -14.033  1.00  0.00    -0.000 C 
BRANCH   7   8
ATOM      8  C   UNL     1      27.855  -2.159 -12.521  1.00  0.00    -0.000 C 
BRANCH   8   9
ATOM      9  C   UNL     1      27.463  -3.353 -11.635  1.00  0.00    -0.000 C 
BRANCH   9  10
ATOM     10  C   UNL     1      26.105  -3.961 -12.016  1.00  0.00    -0.000 C 
BRANCH  10  11
ATOM     11  C   UNL     1      26.182  -5.492 -12.057  1.00  0.00    -0.003 C 
ATOM     12  C   UNL     1      26.812  -5.977 -13.359  1.00  0.00     0.004 C 
ENDBRANCH  10  11
ENDBRANCH   9  10
ENDBRANCH   8   9
ENDBRANCH   7   8
ENDBRANCH   6   7
ENDBRANCH   5   6
ENDBRANCH   4   5
ENDBRANCH   3   4
ENDBRANCH   2   3
ENDBRANCH   1   2
BRANCH   1  13
ATOM     13  C   UNL     1      24.876  -0.448 -11.396  1.00  0.00     0.000 C 
BRANCH  13  14
ATOM     14  C   UNL     1      24.128  -1.479 -10.535  1.00  0.00     0.000 C 
BRANCH  14  15
ATOM     15  C   UNL     1      24.489  -1.377  -9.042  1.00  0.00     0.000 C 
BRANCH  15  16
ATOM     16  C   UNL     1      25.955  -0.974  -8.817  1.00  0.00     0.000 C 
BRANCH  16  17
ATOM     17  C   UNL     1      26.779  -2.085  -8.143  1.00  0.00     0.000 C 
BRANCH  17  18
ATOM     18  C   UNL     1      25.915  -3.275  -7.686  1.00  0.00     0.000 C 
BRANCH  18  19
ATOM     19  C   UNL     1      26.270  -4.601  -8.393  1.00  0.00     0.000 C 
BRANCH  19  20
ATOM     20  C   UNL     1      25.142  -5.638  -8.283  1.00  0.00     0.006 C 
BRANCH  20  21
ATOM     21  C   UNL     1      23.905  -5.189  -9.067  1.00  0.00     0.053 C 
BRANCH  21  22
ATOM     22  C   UNL     1      23.221  -6.366  -9.686  1.00  0.00     0.041 C 
ATOM     23  O   UNL     1      21.974  -6.357  -9.856  1.00  0.00    -0.550 OA
ATOM     24  O   UNL     1      23.968  -7.454 -10.121  1.00  0.00    -0.550 OA
ENDBRANCH  21  22
ENDBRANCH  20  21
ENDBRANCH  19  20
ENDBRANCH  18  19
ENDBRANCH  17  18
ENDBRANCH  16  17
ENDBRANCH  15  16
ENDBRANCH  14  15
ENDBRANCH  13  14
ENDBRANCH   1  13
TORSDOF 20
ENDMDL
