MODEL 1
REMARK VINA RESULT:    -2.264      0.000      0.000
REMARK INTER + INTRA:          -3.236
REMARK INTER:                  -2.992
REMARK INTRA:                  -0.243
REMARK UNBOUND:                -0.243
REMARK SMILES CCCCC=CC=CCO
REMARK SMILES IDX 5 1 6 2 4 3 3 4 2 5 1 6 7 7 8 8 9 9 10 10
REMARK H PARENT 10 11
REMARK Flexibility Score: inf
ROOT
ATOM      1  C   UNL     1       4.812 -33.120  35.144  1.00  0.00    -0.027 C 
ATOM      2  C   UNL     1       6.140 -33.114  34.996  1.00  0.00    -0.005 C 
ENDROOT
BRANCH   1   3
ATOM      3  C   UNL     1       4.172 -33.123  36.502  1.00  0.00     0.027 C 
BRANCH   3   4
ATOM      4  C   UNL     1       4.445 -31.812  37.248  1.00  0.00     0.004 C 
BRANCH   4   5
ATOM      5  C   UNL     1       5.022 -32.083  38.642  1.00  0.00    -0.003 C 
ATOM      6  C   UNL     1       4.190 -33.119  39.391  1.00  0.00     0.004 C 
ENDBRANCH   4   5
ENDBRANCH   3   4
ENDBRANCH   1   3
BRANCH   2   7
ATOM      7  C   UNL     1       6.754 -33.125  33.659  1.00  0.00    -0.002 C 
ATOM      8  C   UNL     1       8.075 -33.013  33.508  1.00  0.00     0.001 C 
BRANCH   8   9
ATOM      9  C   UNL     1       8.707 -33.028  32.149  1.00  0.00     0.183 C 
BRANCH   9  10
ATOM     10  O   UNL     1      10.053 -32.643  32.228  1.00  0.00    -0.392 OA
ATOM     11  H   UNL     1      10.278 -32.217  31.360  1.00  0.00     0.210 HD
ENDBRANCH   9  10
ENDBRANCH   8   9
ENDBRANCH   2   7
TORSDOF 6
ENDMDL
MODEL 2
REMARK VINA RESULT:    -1.981      4.000      6.753
REMARK INTER + INTRA:          -2.861
REMARK INTER:                  -2.699
REMARK INTRA:                  -0.161
REMARK UNBOUND:                -0.243
REMARK SMILES CCCCC=CC=CCO
REMARK SMILES IDX 5 1 6 2 4 3 3 4 2 5 1 6 7 7 8 8 9 9 10 10
REMARK H PARENT 10 11
REMARK Flexibility Score: inf
ROOT
ATOM      1  C   UNL     1       3.996 -32.869  37.567  1.00  0.00    -0.027 C 
ATOM      2  C   UNL     1       4.833 -32.573  38.564  1.00  0.00    -0.005 C 
ENDROOT
BRANCH   1   3
ATOM      3  C   UNL     1       4.294 -32.485  36.147  1.00  0.00     0.027 C 
BRANCH   3   4
ATOM      4  C   UNL     1       5.696 -32.948  35.730  1.00  0.00     0.004 C 
BRANCH   4   5
ATOM      5  C   UNL     1       5.785 -33.125  34.209  1.00  0.00    -0.003 C 
ATOM      6  C   UNL     1       7.223 -32.982  33.721  1.00  0.00     0.004 C 
ENDBRANCH   4   5
ENDBRANCH   3   4
ENDBRANCH   1   3
BRANCH   2   7
ATOM      7  C   UNL     1       4.521 -32.943  39.954  1.00  0.00    -0.002 C 
ATOM      8  C   UNL     1       5.408 -32.751  40.933  1.00  0.00     0.001 C 
BRANCH   8   9
ATOM      9  C   UNL     1       5.094 -33.122  42.351  1.00  0.00     0.183 C 
BRANCH   9  10
ATOM     10  O   UNL     1       5.477 -32.095  43.224  1.00  0.00    -0.392 OA
ATOM     11  H   UNL     1       5.948 -31.416  42.675  1.00  0.00     0.210 HD
ENDBRANCH   9  10
ENDBRANCH   8   9
ENDBRANCH   2   7
TORSDOF 6
ENDMDL
MODEL 3
REMARK VINA RESULT:    -1.819      3.111      6.269
REMARK INTER + INTRA:          -2.647
REMARK INTER:                  -2.522
REMARK INTRA:                  -0.125
REMARK UNBOUND:                -0.243
REMARK SMILES CCCCC=CC=CCO
REMARK SMILES IDX 5 1 6 2 4 3 3 4 2 5 1 6 7 7 8 8 9 9 10 10
REMARK H PARENT 10 11
REMARK Flexibility Score: inf
ROOT
ATOM      1  C   UNL     1       5.788 -33.106  35.496  1.00  0.00    -0.027 C 
ATOM      2  C   UNL     1       4.597 -32.778  36.005  1.00  0.00    -0.005 C 
ENDROOT
BRANCH   1   3
ATOM      3  C   UNL     1       6.154 -32.782  34.077  1.00  0.00     0.027 C 
BRANCH   3   4
ATOM      4  C   UNL     1       7.621 -33.125  33.790  1.00  0.00     0.004 C 
BRANCH   4   5
ATOM      5  C   UNL     1       8.050 -32.594  32.417  1.00  0.00    -0.003 C 
ATOM      6  C   UNL     1       9.563 -32.675  32.243  1.00  0.00     0.004 C 
ENDBRANCH   4   5
ENDBRANCH   3   4
ENDBRANCH   1   3
BRANCH   2   7
ATOM      7  C   UNL     1       4.246 -33.115  37.394  1.00  0.00    -0.002 C 
ATOM      8  C   UNL     1       4.628 -32.335  38.408  1.00  0.00     0.001 C 
BRANCH   8   9
ATOM      9  C   UNL     1       4.270 -32.670  39.824  1.00  0.00     0.183 C 
BRANCH   9  10
ATOM     10  O   UNL     1       5.419 -33.000  40.557  1.00  0.00    -0.392 OA
ATOM     11  H   UNL     1       6.053 -33.417  39.917  1.00  0.00     0.210 HD
ENDBRANCH   9  10
ENDBRANCH   8   9
ENDBRANCH   2   7
TORSDOF 6
ENDMDL
MODEL 4
REMARK VINA RESULT:    -0.461      2.482      3.978
REMARK INTER + INTRA:          -0.852
REMARK INTER:                  -0.683
REMARK INTRA:                  -0.169
REMARK UNBOUND:                -0.243
REMARK SMILES CCCCC=CC=CCO
REMARK SMILES IDX 5 1 6 2 4 3 3 4 2 5 1 6 7 7 8 8 9 9 10 10
REMARK H PARENT 10 11
REMARK Flexibility Score: inf
ROOT
ATOM      1  C   UNL     1       5.112 -32.114  39.042  1.00  0.00    -0.027 C 
ATOM      2  C   UNL     1       5.589 -32.954  38.121  1.00  0.00    -0.005 C 
ENDROOT
BRANCH   1   3
ATOM      3  C   UNL     1       5.687 -32.057  40.428  1.00  0.00     0.027 C 
BRANCH   3   4
ATOM      4  C   UNL     1       4.944 -33.006  41.376  1.00  0.00     0.004 C 
BRANCH   4   5
ATOM      5  C   UNL     1       5.607 -33.032  42.758  1.00  0.00    -0.003 C 
ATOM      6  C   UNL     1       5.809 -31.620  43.300  1.00  0.00     0.004 C 
ENDBRANCH   4   5
ENDBRANCH   3   4
ENDBRANCH   1   3
BRANCH   2   7
ATOM      7  C   UNL     1       5.007 -33.008  36.770  1.00  0.00    -0.002 C 
ATOM      8  C   UNL     1       5.786 -33.064  35.687  1.00  0.00     0.001 C 
BRANCH   8   9
ATOM      9  C   UNL     1       5.198 -33.124  34.309  1.00  0.00     0.183 C 
BRANCH   9  10
ATOM     10  O   UNL     1       6.213 -33.118  33.342  1.00  0.00    -0.392 OA
ATOM     11  H   UNL     1       5.977 -32.410  32.687  1.00  0.00     0.210 HD
ENDBRANCH   9  10
ENDBRANCH   8   9
ENDBRANCH   2   7
TORSDOF 6
ENDMDL
MODEL 5
REMARK VINA RESULT:    -0.225     15.095     16.765
REMARK INTER + INTRA:          -0.541
REMARK INTER:                  -0.711
REMARK INTRA:                   0.170
REMARK UNBOUND:                -0.243
REMARK SMILES CCCCC=CC=CCO
REMARK SMILES IDX 5 1 6 2 4 3 3 4 2 5 1 6 7 7 8 8 9 9 10 10
REMARK H PARENT 10 11
REMARK Flexibility Score: inf
ROOT
ATOM      1  C   UNL     1      22.959 -30.945  38.246  1.00  0.00    -0.027 C 
ATOM      2  C   UNL     1      21.751 -31.147  38.778  1.00  0.00    -0.005 C 
ENDROOT
BRANCH   1   3
ATOM      3  C   UNL     1      24.125 -31.828  38.583  1.00  0.00     0.027 C 
BRANCH   3   4
ATOM      4  C   UNL     1      23.662 -33.125  39.258  1.00  0.00     0.004 C 
BRANCH   4   5
ATOM      5  C   UNL     1      23.887 -33.065  40.774  1.00  0.00    -0.003 C 
ATOM      6  C   UNL     1      22.767 -32.296  41.468  1.00  0.00     0.004 C 
ENDBRANCH   4   5
ENDBRANCH   3   4
ENDBRANCH   1   3
BRANCH   2   7
ATOM      7  C   UNL     1      20.619 -30.264  38.449  1.00  0.00    -0.002 C 
ATOM      8  C   UNL     1      20.820 -28.999  38.074  1.00  0.00     0.001 C 
BRANCH   8   9
ATOM      9  C   UNL     1      19.672 -28.097  37.733  1.00  0.00     0.183 C 
BRANCH   9  10
ATOM     10  O   UNL     1      19.013 -28.553  36.583  1.00  0.00    -0.392 OA
ATOM     11  H   UNL     1      18.219 -27.971  36.462  1.00  0.00     0.210 HD
ENDBRANCH   9  10
ENDBRANCH   8   9
ENDBRANCH   2   7
TORSDOF 6
ENDMDL
MODEL 6
REMARK VINA RESULT:     0.522     17.321     18.147
REMARK INTER + INTRA:           0.447
REMARK INTER:                   0.625
REMARK INTRA:                  -0.178
REMARK UNBOUND:                -0.243
REMARK SMILES CCCCC=CC=CCO
REMARK SMILES IDX 5 1 6 2 4 3 3 4 2 5 1 6 7 7 8 8 9 9 10 10
REMARK H PARENT 10 11
REMARK Flexibility Score: inf
ROOT
ATOM      1  C   UNL     1      13.614 -17.963  41.274  1.00  0.00    -0.027 C 
ATOM      2  C   UNL     1      14.935 -17.783  41.202  1.00  0.00    -0.005 C 
ENDROOT
BRANCH   1   3
ATOM      3  C   UNL     1      13.000 -18.901  42.272  1.00  0.00     0.027 C 
BRANCH   3   4
ATOM      4  C   UNL     1      12.796 -20.296  41.669  1.00  0.00     0.004 C 
BRANCH   4   5
ATOM      5  C   UNL     1      12.867 -20.249  40.138  1.00  0.00    -0.003 C 
ATOM      6  C   UNL     1      11.759 -21.088  39.509  1.00  0.00     0.004 C 
ENDBRANCH   4   5
ENDBRANCH   3   4
ENDBRANCH   1   3
BRANCH   2   7
ATOM      7  C   UNL     1      15.524 -16.870  40.208  1.00  0.00    -0.002 C 
ATOM      8  C   UNL     1      14.983 -15.673  39.969  1.00  0.00     0.001 C 
BRANCH   8   9
ATOM      9  C   UNL     1      15.581 -14.737  38.962  1.00  0.00     0.183 C 
BRANCH   9  10
ATOM     10  O   UNL     1      15.827 -13.484  39.540  1.00  0.00    -0.392 OA
ATOM     11  H   UNL     1      15.596 -12.805  38.855  1.00  0.00     0.210 HD
ENDBRANCH   9  10
ENDBRANCH   8   9
ENDBRANCH   2   7
TORSDOF 6
ENDMDL
MODEL 7
REMARK VINA RESULT:     0.612     21.193     22.327
REMARK INTER + INTRA:           0.566
REMARK INTER:                   0.902
REMARK INTRA:                  -0.336
REMARK UNBOUND:                -0.243
REMARK SMILES CCCCC=CC=CCO
REMARK SMILES IDX 5 1 6 2 4 3 3 4 2 5 1 6 7 7 8 8 9 9 10 10
REMARK H PARENT 10 11
REMARK Flexibility Score: inf
ROOT
ATOM      1  C   UNL     1      15.546 -14.105  41.416  1.00  0.00    -0.027 C 
ATOM      2  C   UNL     1      14.800 -13.198  42.051  1.00  0.00    -0.005 C 
ENDROOT
BRANCH   1   3
ATOM      3  C   UNL     1      15.381 -14.372  39.949  1.00  0.00     0.027 C 
BRANCH   3   4
ATOM      4  C   UNL     1      15.492 -15.870  39.641  1.00  0.00     0.004 C 
BRANCH   4   5
ATOM      5  C   UNL     1      15.328 -16.706  40.916  1.00  0.00    -0.003 C 
ATOM      6  C   UNL     1      14.204 -17.728  40.765  1.00  0.00     0.004 C 
ENDBRANCH   4   5
ENDBRANCH   3   4
ENDBRANCH   1   3
BRANCH   2   7
ATOM      7  C   UNL     1      14.963 -12.957  43.494  1.00  0.00    -0.002 C 
ATOM      8  C   UNL     1      16.117 -13.222  44.110  1.00  0.00     0.001 C 
BRANCH   8   9
ATOM      9  C   UNL     1      16.291 -12.974  45.578  1.00  0.00     0.183 C 
BRANCH   9  10
ATOM     10  O   UNL     1      17.475 -13.565  46.040  1.00  0.00    -0.392 OA
ATOM     11  H   UNL     1      17.953 -13.906  45.240  1.00  0.00     0.210 HD
ENDBRANCH   9  10
ENDBRANCH   8   9
ENDBRANCH   2   7
TORSDOF 6
ENDMDL
