MODEL 1
REMARK VINA RESULT:    -5.345      0.000      0.000
REMARK INTER + INTRA:          -5.710
REMARK INTER:                  -5.814
REMARK INTRA:                   0.104
REMARK UNBOUND:                 0.104
REMARK SMILES COc1cc2ccc(=O)oc2cc1O
REMARK SMILES IDX 3 1 13 2 12 3 11 4 5 5 4 6 6 7 7 8 8 9 9 10 10 11 2 12 1 13
REMARK SMILES IDX 14 14
REMARK H PARENT 14 15
REMARK Flexibility Score: inf
ROOT
ATOM      1  C   UNL     1      19.671  -0.625 -17.965  1.00  0.00     0.161 A 
ATOM      2  C   UNL     1      20.474   0.501 -17.698  1.00  0.00     0.161 A 
ATOM      3  C   UNL     1      21.215   1.099 -18.724  1.00  0.00     0.098 A 
ATOM      4  C   UNL     1      21.165   0.587 -20.022  1.00  0.00     0.142 A 
ATOM      5  C   UNL     1      20.363  -0.540 -20.300  1.00  0.00     0.022 A 
ATOM      6  C   UNL     1      19.621  -1.142 -19.276  1.00  0.00     0.062 A 
ATOM      7  C   UNL     1      20.335  -1.031 -21.610  1.00  0.00     0.019 A 
ATOM      8  C   UNL     1      21.092  -0.397 -22.595  1.00  0.00     0.094 A 
ATOM      9  C   UNL     1      21.863   0.717 -22.246  1.00  0.00     0.336 A 
ATOM     10  O   UNL     1      22.553   1.303 -23.121  1.00  0.00    -0.246 OA
ATOM     11  O   UNL     1      21.872   1.162 -20.991  1.00  0.00    -0.423 OA
ENDROOT
BRANCH   1  12
ATOM     12  O   UNL     1      18.941  -1.201 -16.913  1.00  0.00    -0.493 OA
ATOM     13  C   UNL     1      17.831  -0.587 -16.267  1.00  0.00     0.278 C 
ENDBRANCH   1  12
BRANCH   2  14
ATOM     14  O   UNL     1      20.550   1.041 -16.413  1.00  0.00    -0.504 OA
ATOM     15  H   UNL     1      21.021   1.917 -16.222  1.00  0.00     0.293 HD
ENDBRANCH   2  14
TORSDOF 2
ENDMDL
MODEL 2
REMARK VINA RESULT:    -5.319      1.799      5.056
REMARK INTER + INTRA:          -5.681
REMARK INTER:                  -5.634
REMARK INTRA:                  -0.047
REMARK UNBOUND:                 0.104
REMARK SMILES COc1cc2ccc(=O)oc2cc1O
REMARK SMILES IDX 3 1 13 2 12 3 11 4 5 5 4 6 6 7 7 8 8 9 9 10 10 11 2 12 1 13
REMARK SMILES IDX 14 14
REMARK H PARENT 14 15
REMARK Flexibility Score: inf
ROOT
ATOM      1  C   UNL     1      20.277   0.070 -19.882  1.00  0.00     0.161 A 
ATOM      2  C   UNL     1      19.294  -0.304 -18.945  1.00  0.00     0.161 A 
ATOM      3  C   UNL     1      19.459   0.000 -17.589  1.00  0.00     0.098 A 
ATOM      4  C   UNL     1      20.599   0.678 -17.151  1.00  0.00     0.142 A 
ATOM      5  C   UNL     1      21.589   1.058 -18.081  1.00  0.00     0.022 A 
ATOM      6  C   UNL     1      21.427   0.754 -19.439  1.00  0.00     0.062 A 
ATOM      7  C   UNL     1      22.719   1.735 -17.611  1.00  0.00     0.019 A 
ATOM      8  C   UNL     1      22.834   2.014 -16.250  1.00  0.00     0.094 A 
ATOM      9  C   UNL     1      21.812   1.607 -15.386  1.00  0.00     0.336 A 
ATOM     10  O   UNL     1      21.897   1.849 -14.154  1.00  0.00    -0.246 OA
ATOM     11  O   UNL     1      20.747   0.963 -15.860  1.00  0.00    -0.423 OA
ENDROOT
BRANCH   1  12
ATOM     12  O   UNL     1      20.080  -0.252 -21.234  1.00  0.00    -0.493 OA
ATOM     13  C   UNL     1      21.116  -0.617 -22.139  1.00  0.00     0.278 C 
ENDBRANCH   1  12
BRANCH   2  14
ATOM     14  O   UNL     1      18.142  -0.983 -19.344  1.00  0.00    -0.504 OA
ATOM     15  H   UNL     1      17.920  -1.914 -19.012  1.00  0.00     0.293 HD
ENDBRANCH   2  14
TORSDOF 2
ENDMDL
MODEL 3
REMARK VINA RESULT:    -5.309      1.283      5.370
REMARK INTER + INTRA:          -5.671
REMARK INTER:                  -5.617
REMARK INTRA:                  -0.054
REMARK UNBOUND:                 0.104
REMARK SMILES COc1cc2ccc(=O)oc2cc1O
REMARK SMILES IDX 3 1 13 2 12 3 11 4 5 5 4 6 6 7 7 8 8 9 9 10 10 11 2 12 1 13
REMARK SMILES IDX 14 14
REMARK H PARENT 14 15
REMARK Flexibility Score: inf
ROOT
ATOM      1  C   UNL     1      21.516   0.602 -21.457  1.00  0.00     0.161 A 
ATOM      2  C   UNL     1      20.816  -0.576 -21.781  1.00  0.00     0.161 A 
ATOM      3  C   UNL     1      20.045  -1.229 -20.813  1.00  0.00     0.098 A 
ATOM      4  C   UNL     1      19.961  -0.718 -19.516  1.00  0.00     0.142 A 
ATOM      5  C   UNL     1      20.658   0.462 -19.181  1.00  0.00     0.022 A 
ATOM      6  C   UNL     1      21.432   1.117 -20.147  1.00  0.00     0.062 A 
ATOM      7  C   UNL     1      20.555   0.948 -17.873  1.00  0.00     0.019 A 
ATOM      8  C   UNL     1      19.772   0.259 -16.946  1.00  0.00     0.094 A 
ATOM      9  C   UNL     1      19.109  -0.904 -17.350  1.00  0.00     0.336 A 
ATOM     10  O   UNL     1      18.398  -1.539 -16.528  1.00  0.00    -0.246 OA
ATOM     11  O   UNL     1      19.225  -1.345 -18.601  1.00  0.00    -0.423 OA
ENDROOT
BRANCH   1  12
ATOM     12  O   UNL     1      22.281   1.230 -22.453  1.00  0.00    -0.493 OA
ATOM     13  C   UNL     1      22.159   2.600 -22.823  1.00  0.00     0.278 C 
ENDBRANCH   1  12
BRANCH   2  14
ATOM     14  O   UNL     1      20.876  -1.117 -23.067  1.00  0.00    -0.504 OA
ATOM     15  H   UNL     1      20.276  -1.878 -23.362  1.00  0.00     0.293 HD
ENDBRANCH   2  14
TORSDOF 2
ENDMDL
MODEL 4
REMARK VINA RESULT:    -5.228     15.676     17.540
REMARK INTER + INTRA:          -5.583
REMARK INTER:                  -5.564
REMARK INTRA:                  -0.018
REMARK UNBOUND:                 0.104
REMARK SMILES COc1cc2ccc(=O)oc2cc1O
REMARK SMILES IDX 3 1 13 2 12 3 11 4 5 5 4 6 6 7 7 8 8 9 9 10 10 11 2 12 1 13
REMARK SMILES IDX 14 14
REMARK H PARENT 14 15
REMARK Flexibility Score: inf
ROOT
ATOM      1  C   UNL     1       8.013  -7.118  -7.623  1.00  0.00     0.161 A 
ATOM      2  C   UNL     1       7.763  -5.749  -7.404  1.00  0.00     0.161 A 
ATOM      3  C   UNL     1       7.646  -4.871  -8.488  1.00  0.00     0.098 A 
ATOM      4  C   UNL     1       7.776  -5.343  -9.796  1.00  0.00     0.142 A 
ATOM      5  C   UNL     1       8.026  -6.712 -10.026  1.00  0.00     0.022 A 
ATOM      6  C   UNL     1       8.144  -7.593  -8.944  1.00  0.00     0.062 A 
ATOM      7  C   UNL     1       8.153  -7.153 -11.347  1.00  0.00     0.019 A 
ATOM      8  C   UNL     1       8.027  -6.236 -12.391  1.00  0.00     0.094 A 
ATOM      9  C   UNL     1       7.778  -4.894 -12.087  1.00  0.00     0.336 A 
ATOM     10  O   UNL     1       7.662  -4.051 -13.015  1.00  0.00    -0.246 OA
ATOM     11  O   UNL     1       7.664  -4.501 -10.820  1.00  0.00    -0.423 OA
ENDROOT
BRANCH   1  12
ATOM     12  O   UNL     1       8.125  -7.971  -6.513  1.00  0.00    -0.493 OA
ATOM     13  C   UNL     1       7.023  -8.556  -5.828  1.00  0.00     0.278 C 
ENDBRANCH   1  12
BRANCH   2  14
ATOM     14  O   UNL     1       7.627  -5.241  -6.112  1.00  0.00    -0.504 OA
ATOM     15  H   UNL     1       7.018  -5.667  -5.424  1.00  0.00     0.293 HD
ENDBRANCH   2  14
TORSDOF 2
ENDMDL
MODEL 5
REMARK VINA RESULT:    -5.124     16.067     17.627
REMARK INTER + INTRA:          -5.469
REMARK INTER:                  -5.425
REMARK INTRA:                  -0.044
REMARK UNBOUND:                 0.104
REMARK SMILES COc1cc2ccc(=O)oc2cc1O
REMARK SMILES IDX 3 1 13 2 12 3 11 4 5 5 4 6 6 7 7 8 8 9 9 10 10 11 2 12 1 13
REMARK SMILES IDX 14 14
REMARK H PARENT 14 15
REMARK Flexibility Score: inf
ROOT
ATOM      1  C   UNL     1       8.474  -6.037  -6.523  1.00  0.00     0.161 A 
ATOM      2  C   UNL     1       9.787  -5.634  -6.836  1.00  0.00     0.161 A 
ATOM      3  C   UNL     1      10.380  -6.035  -8.039  1.00  0.00     0.098 A 
ATOM      4  C   UNL     1       9.676  -6.836  -8.941  1.00  0.00     0.142 A 
ATOM      5  C   UNL     1       8.361  -7.244  -8.637  1.00  0.00     0.022 A 
ATOM      6  C   UNL     1       7.764  -6.846  -7.433  1.00  0.00     0.062 A 
ATOM      7  C   UNL     1       7.682  -8.048  -9.559  1.00  0.00     0.019 A 
ATOM      8  C   UNL     1       8.319  -8.418 -10.744  1.00  0.00     0.094 A 
ATOM      9  C   UNL     1       9.625  -7.975 -10.978  1.00  0.00     0.336 A 
ATOM     10  O   UNL     1      10.217  -8.298 -12.041  1.00  0.00    -0.246 OA
ATOM     11  O   UNL     1      10.248  -7.212 -10.082  1.00  0.00    -0.423 OA
ENDROOT
BRANCH   1  12
ATOM     12  O   UNL     1       7.910  -5.618  -5.307  1.00  0.00    -0.493 OA
ATOM     13  C   UNL     1       8.037  -6.315  -4.073  1.00  0.00     0.278 C 
ENDBRANCH   1  12
BRANCH   2  14
ATOM     14  O   UNL     1      10.522  -4.834  -5.960  1.00  0.00    -0.504 OA
ATOM     15  H   UNL     1      11.285  -5.200  -5.404  1.00  0.00     0.293 HD
ENDBRANCH   2  14
TORSDOF 2
ENDMDL
MODEL 6
REMARK VINA RESULT:    -5.105     13.769     18.140
REMARK INTER + INTRA:          -5.449
REMARK INTER:                  -5.385
REMARK INTRA:                  -0.065
REMARK UNBOUND:                 0.104
REMARK SMILES COc1cc2ccc(=O)oc2cc1O
REMARK SMILES IDX 3 1 13 2 12 3 11 4 5 5 4 6 6 7 7 8 8 9 9 10 10 11 2 12 1 13
REMARK SMILES IDX 14 14
REMARK H PARENT 14 15
REMARK Flexibility Score: inf
ROOT
ATOM      1  C   UNL     1      11.319  -6.715  -9.197  1.00  0.00     0.161 A 
ATOM      2  C   UNL     1      11.030  -8.074  -9.430  1.00  0.00     0.161 A 
ATOM      3  C   UNL     1      10.007  -8.710  -8.716  1.00  0.00     0.098 A 
ATOM      4  C   UNL     1       9.264  -8.004  -7.768  1.00  0.00     0.142 A 
ATOM      5  C   UNL     1       9.545  -6.643  -7.528  1.00  0.00     0.022 A 
ATOM      6  C   UNL     1      10.568  -6.004  -8.240  1.00  0.00     0.062 A 
ATOM      7  C   UNL     1       8.784  -5.964  -6.571  1.00  0.00     0.019 A 
ATOM      8  C   UNL     1       7.776  -6.645  -5.888  1.00  0.00     0.094 A 
ATOM      9  C   UNL     1       7.553  -7.995  -6.179  1.00  0.00     0.336 A 
ATOM     10  O   UNL     1       6.649  -8.627  -5.573  1.00  0.00    -0.246 OA
ATOM     11  O   UNL     1       8.294  -8.617  -7.094  1.00  0.00    -0.423 OA
ENDROOT
BRANCH   1  12
ATOM     12  O   UNL     1      12.351  -6.109  -9.931  1.00  0.00    -0.493 OA
ATOM     13  C   UNL     1      12.153  -5.249 -11.048  1.00  0.00     0.278 C 
ENDBRANCH   1  12
BRANCH   2  14
ATOM     14  O   UNL     1      11.751  -8.812 -10.369  1.00  0.00    -0.504 OA
ATOM     15  H   UNL     1      11.437  -9.714 -10.705  1.00  0.00     0.293 HD
ENDBRANCH   2  14
TORSDOF 2
ENDMDL
MODEL 7
REMARK VINA RESULT:    -5.059     15.035     17.221
REMARK INTER + INTRA:          -5.399
REMARK INTER:                  -5.355
REMARK INTRA:                  -0.044
REMARK UNBOUND:                 0.104
REMARK SMILES COc1cc2ccc(=O)oc2cc1O
REMARK SMILES IDX 3 1 13 2 12 3 11 4 5 5 4 6 6 7 7 8 8 9 9 10 10 11 2 12 1 13
REMARK SMILES IDX 14 14
REMARK H PARENT 14 15
REMARK Flexibility Score: inf
ROOT
ATOM      1  C   UNL     1       8.058  -5.669  -7.057  1.00  0.00     0.161 A 
ATOM      2  C   UNL     1       7.350  -5.272  -8.209  1.00  0.00     0.161 A 
ATOM      3  C   UNL     1       7.841  -5.586  -9.481  1.00  0.00     0.098 A 
ATOM      4  C   UNL     1       9.036  -6.295  -9.622  1.00  0.00     0.142 A 
ATOM      5  C   UNL     1       9.752  -6.697  -8.475  1.00  0.00     0.022 A 
ATOM      6  C   UNL     1       9.264  -6.385  -7.200  1.00  0.00     0.062 A 
ATOM      7  C   UNL     1      10.946  -7.405  -8.649  1.00  0.00     0.019 A 
ATOM      8  C   UNL     1      11.390  -7.692  -9.940  1.00  0.00     0.094 A 
ATOM      9  C   UNL     1      10.627  -7.262 -11.031  1.00  0.00     0.336 A 
ATOM     10  O   UNL     1      11.012  -7.511 -12.203  1.00  0.00    -0.246 OA
ATOM     11  O   UNL     1       9.495  -6.589 -10.836  1.00  0.00    -0.423 OA
ENDROOT
BRANCH   1  12
ATOM     12  O   UNL     1       7.537  -5.337  -5.796  1.00  0.00    -0.493 OA
ATOM     13  C   UNL     1       8.292  -5.314  -4.589  1.00  0.00     0.278 C 
ENDBRANCH   1  12
BRANCH   2  14
ATOM     14  O   UNL     1       6.153  -4.562  -8.108  1.00  0.00    -0.504 OA
ATOM     15  H   UNL     1       6.061  -3.608  -8.437  1.00  0.00     0.293 HD
ENDBRANCH   2  14
TORSDOF 2
ENDMDL
MODEL 8
REMARK VINA RESULT:    -5.046     15.143     17.776
REMARK INTER + INTRA:          -5.385
REMARK INTER:                  -5.329
REMARK INTRA:                  -0.056
REMARK UNBOUND:                 0.104
REMARK SMILES COc1cc2ccc(=O)oc2cc1O
REMARK SMILES IDX 3 1 13 2 12 3 11 4 5 5 4 6 6 7 7 8 8 9 9 10 10 11 2 12 1 13
REMARK SMILES IDX 14 14
REMARK H PARENT 14 15
REMARK Flexibility Score: inf
ROOT
ATOM      1  C   UNL     1       8.377  -6.568  -6.655  1.00  0.00     0.161 A 
ATOM      2  C   UNL     1       7.973  -7.887  -6.940  1.00  0.00     0.161 A 
ATOM      3  C   UNL     1       8.654  -8.641  -7.903  1.00  0.00     0.098 A 
ATOM      4  C   UNL     1       9.740  -8.095  -8.590  1.00  0.00     0.142 A 
ATOM      5  C   UNL     1      10.153  -6.775  -8.312  1.00  0.00     0.022 A 
ATOM      6  C   UNL     1       9.474  -6.017  -7.349  1.00  0.00     0.062 A 
ATOM      7  C   UNL     1      11.243  -6.256  -9.017  1.00  0.00     0.019 A 
ATOM      8  C   UNL     1      11.886  -7.051  -9.966  1.00  0.00     0.094 A 
ATOM      9  C   UNL     1      11.422  -8.351 -10.188  1.00  0.00     0.336 A 
ATOM     10  O   UNL     1      11.988  -9.084 -11.041  1.00  0.00    -0.246 OA
ATOM     11  O   UNL     1      10.381  -8.819  -9.504  1.00  0.00    -0.423 OA
ENDROOT
BRANCH   1  12
ATOM     12  O   UNL     1       7.672  -5.839  -5.684  1.00  0.00    -0.493 OA
ATOM     13  C   UNL     1       8.258  -5.260  -4.523  1.00  0.00     0.278 C 
ENDBRANCH   1  12
BRANCH   2  14
ATOM     14  O   UNL     1       6.892  -8.467  -6.275  1.00  0.00    -0.504 OA
ATOM     15  H   UNL     1       6.119  -8.896  -6.770  1.00  0.00     0.293 HD
ENDBRANCH   2  14
TORSDOF 2
ENDMDL
MODEL 9
REMARK VINA RESULT:    -5.030     15.912     17.938
REMARK INTER + INTRA:          -5.367
REMARK INTER:                  -5.313
REMARK INTRA:                  -0.053
REMARK UNBOUND:                 0.104
REMARK SMILES COc1cc2ccc(=O)oc2cc1O
REMARK SMILES IDX 3 1 13 2 12 3 11 4 5 5 4 6 6 7 7 8 8 9 9 10 10 11 2 12 1 13
REMARK SMILES IDX 14 14
REMARK H PARENT 14 15
REMARK Flexibility Score: inf
ROOT
ATOM      1  C   UNL     1       7.795  -6.514  -6.838  1.00  0.00     0.161 A 
ATOM      2  C   UNL     1       8.023  -7.850  -7.223  1.00  0.00     0.161 A 
ATOM      3  C   UNL     1       8.206  -8.175  -8.572  1.00  0.00     0.098 A 
ATOM      4  C   UNL     1       8.166  -7.178  -9.550  1.00  0.00     0.142 A 
ATOM      5  C   UNL     1       7.939  -5.837  -9.175  1.00  0.00     0.022 A 
ATOM      6  C   UNL     1       7.754  -5.509  -7.825  1.00  0.00     0.062 A 
ATOM      7  C   UNL     1       7.903  -4.862 -10.177  1.00  0.00     0.019 A 
ATOM      8  C   UNL     1       8.091  -5.240 -11.507  1.00  0.00     0.094 A 
ATOM      9  C   UNL     1       8.312  -6.588 -11.804  1.00  0.00     0.336 A 
ATOM     10  O   UNL     1       8.484  -6.949 -12.998  1.00  0.00    -0.246 OA
ATOM     11  O   UNL     1       8.340  -7.496 -10.830  1.00  0.00    -0.423 OA
ENDROOT
BRANCH   1  12
ATOM     12  O   UNL     1       7.615  -6.224  -5.476  1.00  0.00    -0.493 OA
ATOM     13  C   UNL     1       8.345  -5.236  -4.756  1.00  0.00     0.278 C 
ENDBRANCH   1  12
BRANCH   2  14
ATOM     14  O   UNL     1       8.070  -8.873  -6.275  1.00  0.00    -0.504 OA
ATOM     15  H   UNL     1       8.662  -9.687  -6.387  1.00  0.00     0.293 HD
ENDBRANCH   2  14
TORSDOF 2
ENDMDL
