MODEL 1
REMARK VINA RESULT:    -3.909      0.000      0.000
REMARK INTER + INTRA:          -4.023
REMARK INTER:                  -4.023
REMARK INTRA:                   0.000
REMARK UNBOUND:                 0.000
REMARK SMILES Nc1ncnc2nc[nH]c12
REMARK SMILES IDX 8 1 7 2 6 3 5 4 4 5 3 6 2 7 10 8 9 9 1 11
REMARK H PARENT 9 10 1 12 1 13
REMARK Flexibility Score: inf
ROOT
ATOM      1  C   UNL     1     176.761 162.944 184.792  1.00  0.00     0.199 A 
ATOM      2  N   UNL     1     175.844 162.825 183.793  1.00  0.00    -0.217 NA
ATOM      3  C   UNL     1     176.503 162.082 182.888  1.00  0.00     0.182 A 
ATOM      4  N   UNL     1     176.033 161.668 181.687  1.00  0.00    -0.215 NA
ATOM      5  C   UNL     1     176.856 160.914 180.897  1.00  0.00     0.226 A 
ATOM      6  N   UNL     1     178.121 160.589 181.319  1.00  0.00    -0.217 NA
ATOM      7  C   UNL     1     178.595 161.006 182.532  1.00  0.00     0.152 A 
ATOM      8  C   UNL     1     177.745 161.773 183.322  1.00  0.00     0.127 A 
ATOM      9  N   UNL     1     177.934 162.311 184.534  1.00  0.00    -0.340 N 
ATOM     10  H   UNL     1     178.777 162.263 185.146  1.00  0.00     0.168 HD
ENDROOT
BRANCH   7  11
ATOM     11  N   UNL     1     179.915 160.655 182.949  1.00  0.00    -0.382 N 
ATOM     12  H   UNL     1     180.294 159.705 182.741  1.00  0.00     0.158 HD
ATOM     13  H   UNL     1     180.520 161.333 183.464  1.00  0.00     0.158 HD
ENDBRANCH   7  11
TORSDOF 1
ENDMDL
MODEL 2
REMARK VINA RESULT:    -3.868      3.193      4.968
REMARK INTER + INTRA:          -3.981
REMARK INTER:                  -3.981
REMARK INTRA:                   0.000
REMARK UNBOUND:                 0.000
REMARK SMILES Nc1ncnc2nc[nH]c12
REMARK SMILES IDX 8 1 7 2 6 3 5 4 4 5 3 6 2 7 10 8 9 9 1 11
REMARK H PARENT 9 10 1 12 1 13
REMARK Flexibility Score: inf
ROOT
ATOM      1  C   UNL     1     178.268 165.714 187.306  1.00  0.00     0.199 A 
ATOM      2  N   UNL     1     177.521 165.178 188.310  1.00  0.00    -0.217 NA
ATOM      3  C   UNL     1     177.159 163.992 187.792  1.00  0.00     0.182 A 
ATOM      4  N   UNL     1     176.394 163.049 188.393  1.00  0.00    -0.215 NA
ATOM      5  C   UNL     1     176.130 161.898 187.704  1.00  0.00     0.226 A 
ATOM      6  N   UNL     1     176.632 161.711 186.440  1.00  0.00    -0.217 NA
ATOM      7  C   UNL     1     177.404 162.663 185.834  1.00  0.00     0.152 A 
ATOM      8  C   UNL     1     177.662 163.829 186.548  1.00  0.00     0.127 A 
ATOM      9  N   UNL     1     178.374 164.913 186.216  1.00  0.00    -0.340 N 
ATOM     10  H   UNL     1     178.892 165.109 185.331  1.00  0.00     0.168 HD
ENDROOT
BRANCH   7  11
ATOM     11  N   UNL     1     177.915 162.447 184.517  1.00  0.00    -0.382 N 
ATOM     12  H   UNL     1     178.788 162.929 184.210  1.00  0.00     0.158 HD
ATOM     13  H   UNL     1     177.432 161.811 183.845  1.00  0.00     0.158 HD
ENDBRANCH   7  11
TORSDOF 1
ENDMDL
MODEL 3
REMARK VINA RESULT:    -3.867      7.866      9.522
REMARK INTER + INTRA:          -3.980
REMARK INTER:                  -3.980
REMARK INTRA:                   0.000
REMARK UNBOUND:                 0.000
REMARK SMILES Nc1ncnc2nc[nH]c12
REMARK SMILES IDX 8 1 7 2 6 3 5 4 4 5 3 6 2 7 10 8 9 9 1 11
REMARK H PARENT 9 10 1 12 1 13
REMARK Flexibility Score: inf
ROOT
ATOM      1  C   UNL     1     176.896 163.862 172.804  1.00  0.00     0.199 A 
ATOM      2  N   UNL     1     177.542 162.998 171.974  1.00  0.00    -0.217 NA
ATOM      3  C   UNL     1     178.415 162.404 172.804  1.00  0.00     0.182 A 
ATOM      4  N   UNL     1     179.314 161.445 172.479  1.00  0.00    -0.215 NA
ATOM      5  C   UNL     1     180.125 160.958 173.467  1.00  0.00     0.226 A 
ATOM      6  N   UNL     1     180.021 161.433 174.750  1.00  0.00    -0.217 NA
ATOM      7  C   UNL     1     179.114 162.401 175.079  1.00  0.00     0.152 A 
ATOM      8  C   UNL     1     178.297 162.886 174.062  1.00  0.00     0.127 A 
ATOM      9  N   UNL     1     177.335 163.817 174.088  1.00  0.00    -0.340 N 
ATOM     10  H   UNL     1     176.993 164.381 174.896  1.00  0.00     0.168 HD
ENDROOT
BRANCH   7  11
ATOM     11  N   UNL     1     179.025 162.880 176.422  1.00  0.00    -0.382 N 
ATOM     12  H   UNL     1     178.095 163.131 176.827  1.00  0.00     0.158 HD
ATOM     13  H   UNL     1     179.875 162.989 177.017  1.00  0.00     0.158 HD
ENDBRANCH   7  11
TORSDOF 1
ENDMDL
MODEL 4
REMARK VINA RESULT:    -3.818     12.870     14.104
REMARK INTER + INTRA:          -3.930
REMARK INTER:                  -3.930
REMARK INTRA:                   0.000
REMARK UNBOUND:                 0.000
REMARK SMILES Nc1ncnc2nc[nH]c12
REMARK SMILES IDX 8 1 7 2 6 3 5 4 4 5 3 6 2 7 10 8 9 9 1 11
REMARK H PARENT 9 10 1 12 1 13
REMARK Flexibility Score: inf
ROOT
ATOM      1  C   UNL     1     175.886 176.498 187.429  1.00  0.00     0.199 A 
ATOM      2  N   UNL     1     176.232 175.621 188.411  1.00  0.00    -0.217 NA
ATOM      3  C   UNL     1     177.239 174.939 187.841  1.00  0.00     0.182 A 
ATOM      4  N   UNL     1     177.951 173.932 188.402  1.00  0.00    -0.215 NA
ATOM      5  C   UNL     1     178.947 173.356 187.662  1.00  0.00     0.226 A 
ATOM      6  N   UNL     1     179.211 173.794 186.389  1.00  0.00    -0.217 NA
ATOM      7  C   UNL     1     178.494 174.811 185.823  1.00  0.00     0.152 A 
ATOM      8  C   UNL     1     177.484 175.385 186.589  1.00  0.00     0.127 A 
ATOM      9  N   UNL     1     176.634 176.380 186.302  1.00  0.00    -0.340 N 
ATOM     10  H   UNL     1     176.554 176.939 185.426  1.00  0.00     0.168 HD
ENDROOT
BRANCH   7  11
ATOM     11  N   UNL     1     178.787 175.249 184.496  1.00  0.00    -0.382 N 
ATOM     12  H   UNL     1     178.376 174.748 183.677  1.00  0.00     0.158 HD
ATOM     13  H   UNL     1     179.410 176.068 184.319  1.00  0.00     0.158 HD
ENDBRANCH   7  11
TORSDOF 1
ENDMDL
MODEL 5
REMARK VINA RESULT:    -3.762      7.558      9.270
REMARK INTER + INTRA:          -3.872
REMARK INTER:                  -3.872
REMARK INTRA:                   0.000
REMARK UNBOUND:                 0.000
REMARK SMILES Nc1ncnc2nc[nH]c12
REMARK SMILES IDX 8 1 7 2 6 3 5 4 4 5 3 6 2 7 10 8 9 9 1 11
REMARK H PARENT 9 10 1 12 1 13
REMARK Flexibility Score: inf
ROOT
ATOM      1  C   UNL     1     178.438 162.018 176.364  1.00  0.00     0.199 A 
ATOM      2  N   UNL     1     179.278 160.983 176.085  1.00  0.00    -0.217 NA
ATOM      3  C   UNL     1     179.390 161.060 174.749  1.00  0.00     0.182 A 
ATOM      4  N   UNL     1     180.125 160.247 173.952  1.00  0.00    -0.215 NA
ATOM      5  C   UNL     1     180.114 160.483 172.605  1.00  0.00     0.226 A 
ATOM      6  N   UNL     1     179.377 161.517 172.084  1.00  0.00    -0.217 NA
ATOM      7  C   UNL     1     178.636 162.338 172.888  1.00  0.00     0.152 A 
ATOM      8  C   UNL     1     178.657 162.084 174.256  1.00  0.00     0.127 A 
ATOM      9  N   UNL     1     178.041 162.711 175.266  1.00  0.00    -0.340 N 
ATOM     10  H   UNL     1     177.404 163.536 175.232  1.00  0.00     0.168 HD
ENDROOT
BRANCH   7  11
ATOM     11  N   UNL     1     177.877 163.407 172.323  1.00  0.00    -0.382 N 
ATOM     12  H   UNL     1     178.299 164.016 171.587  1.00  0.00     0.158 HD
ATOM     13  H   UNL     1     176.898 163.600 172.630  1.00  0.00     0.158 HD
ENDBRANCH   7  11
TORSDOF 1
ENDMDL
MODEL 6
REMARK VINA RESULT:    -3.750     11.858     13.412
REMARK INTER + INTRA:          -3.860
REMARK INTER:                  -3.860
REMARK INTRA:                   0.000
REMARK UNBOUND:                 0.000
REMARK SMILES Nc1ncnc2nc[nH]c12
REMARK SMILES IDX 8 1 7 2 6 3 5 4 4 5 3 6 2 7 10 8 9 9 1 11
REMARK H PARENT 9 10 1 12 1 13
REMARK Flexibility Score: inf
ROOT
ATOM      1  C   UNL     1     179.914 171.965 187.382  1.00  0.00     0.199 A 
ATOM      2  N   UNL     1     179.044 172.061 188.425  1.00  0.00    -0.217 NA
ATOM      3  C   UNL     1     178.385 173.196 188.142  1.00  0.00     0.182 A 
ATOM      4  N   UNL     1     177.392 173.758 188.874  1.00  0.00    -0.215 NA
ATOM      5  C   UNL     1     176.839 174.923 188.423  1.00  0.00     0.226 A 
ATOM      6  N   UNL     1     177.281 175.501 187.260  1.00  0.00    -0.217 NA
ATOM      7  C   UNL     1     178.282 174.935 186.520  1.00  0.00     0.152 A 
ATOM      8  C   UNL     1     178.835 173.749 186.994  1.00  0.00     0.127 A 
ATOM      9  N   UNL     1     179.810 172.982 186.489  1.00  0.00    -0.340 N 
ATOM     10  H   UNL     1     180.367 173.122 185.618  1.00  0.00     0.168 HD
ENDROOT
BRANCH   7  11
ATOM     11  N   UNL     1     178.726 175.554 185.312  1.00  0.00    -0.382 N 
ATOM     12  H   UNL     1     179.165 174.978 184.560  1.00  0.00     0.158 HD
ATOM     13  H   UNL     1     178.622 176.581 185.158  1.00  0.00     0.158 HD
ENDBRANCH   7  11
TORSDOF 1
ENDMDL
MODEL 7
REMARK VINA RESULT:    -3.694      3.643      5.307
REMARK INTER + INTRA:          -3.802
REMARK INTER:                  -3.802
REMARK INTRA:                   0.000
REMARK UNBOUND:                 0.000
REMARK SMILES Nc1ncnc2nc[nH]c12
REMARK SMILES IDX 8 1 7 2 6 3 5 4 4 5 3 6 2 7 10 8 9 9 1 11
REMARK H PARENT 9 10 1 12 1 13
REMARK Flexibility Score: inf
ROOT
ATOM      1  C   UNL     1     175.442 160.847 187.903  1.00  0.00     0.199 A 
ATOM      2  N   UNL     1     175.329 161.938 188.711  1.00  0.00    -0.217 NA
ATOM      3  C   UNL     1     176.149 162.819 188.116  1.00  0.00     0.182 A 
ATOM      4  N   UNL     1     176.405 164.086 188.523  1.00  0.00    -0.215 NA
ATOM      5  C   UNL     1     177.275 164.838 187.783  1.00  0.00     0.226 A 
ATOM      6  N   UNL     1     177.867 164.316 186.660  1.00  0.00    -0.217 NA
ATOM      7  C   UNL     1     177.608 163.038 186.249  1.00  0.00     0.152 A 
ATOM      8  C   UNL     1     176.721 162.286 187.013  1.00  0.00     0.127 A 
ATOM      9  N   UNL     1     176.286 161.030 186.855  1.00  0.00    -0.340 N 
ATOM     10  H   UNL     1     176.530 160.342 186.109  1.00  0.00     0.168 HD
ENDROOT
BRANCH   7  11
ATOM     11  N   UNL     1     178.236 162.516 185.077  1.00  0.00    -0.382 N 
ATOM     12  H   UNL     1     178.341 161.485 184.955  1.00  0.00     0.158 HD
ATOM     13  H   UNL     1     178.598 163.147 184.328  1.00  0.00     0.158 HD
ENDBRANCH   7  11
TORSDOF 1
ENDMDL
MODEL 8
REMARK VINA RESULT:    -3.629      7.286      8.629
REMARK INTER + INTRA:          -3.735
REMARK INTER:                  -3.735
REMARK INTRA:                   0.000
REMARK UNBOUND:                 0.000
REMARK SMILES Nc1ncnc2nc[nH]c12
REMARK SMILES IDX 8 1 7 2 6 3 5 4 4 5 3 6 2 7 10 8 9 9 1 11
REMARK H PARENT 9 10 1 12 1 13
REMARK Flexibility Score: inf
ROOT
ATOM      1  C   UNL     1     175.757 161.026 174.081  1.00  0.00     0.199 A 
ATOM      2  N   UNL     1     176.764 160.301 173.519  1.00  0.00    -0.217 NA
ATOM      3  C   UNL     1     177.855 160.844 174.085  1.00  0.00     0.182 A 
ATOM      4  N   UNL     1     179.142 160.482 173.867  1.00  0.00    -0.215 NA
ATOM      5  C   UNL     1     180.124 161.155 174.539  1.00  0.00     0.226 A 
ATOM      6  N   UNL     1     179.805 162.167 175.410  1.00  0.00    -0.217 NA
ATOM      7  C   UNL     1     178.506 162.532 175.631  1.00  0.00     0.152 A 
ATOM      8  C   UNL     1     177.519 161.837 174.938  1.00  0.00     0.127 A 
ATOM      9  N   UNL     1     176.187 161.972 174.954  1.00  0.00    -0.340 N 
ATOM     10  H   UNL     1     175.604 162.642 175.501  1.00  0.00     0.168 HD
ENDROOT
BRANCH   7  11
ATOM     11  N   UNL     1     178.198 163.588 176.542  1.00  0.00    -0.382 N 
ATOM     12  H   UNL     1     178.932 163.951 177.189  1.00  0.00     0.158 HD
ATOM     13  H   UNL     1     177.245 164.012 176.579  1.00  0.00     0.158 HD
ENDBRANCH   7  11
TORSDOF 1
ENDMDL
