MODEL 1
REMARK VINA RESULT:    -6.543      0.000      0.000
REMARK INTER + INTRA:          -7.152
REMARK INTER:                  -7.116
REMARK INTRA:                  -0.036
REMARK UNBOUND:                -0.036
REMARK SMILES C[C@@H]1[C@H](C)CC[C@@]2(C(=O)[O-])CC[C@@]3(C)C(=CC[C@@H]4[C@@]5(C)CC[C@@H](O)C(C)(C)[C@H]5CC[C@]43C)[C@@H]12
REMARK SMILES IDX 7 1 6 2 11 3 33 4 5 5 12 6 15 7 2 8 3 9 13 10 16 11 1 12
REMARK SMILES IDX 4 13 14 14 31 15 17 16 18 17 30 18 32 19 19 20 29 21 28 22
REMARK SMILES IDX 21 23 20 24 25 25 22 26 23 27 26 28 27 29 8 30 9 31 10 32
REMARK SMILES IDX 24 33
REMARK H PARENT 24 34
REMARK Flexibility Score: inf
ROOT
ATOM      1  C   UNL     1       8.430 -39.186  47.412  1.00  0.00     0.017 C 
ATOM      2  C   UNL     1       8.848 -38.727  48.850  1.00  0.00     0.014 C 
ATOM      3  C   UNL     1       7.795 -40.592  47.473  1.00  0.00     0.014 C 
ATOM      4  C   UNL     1       7.415 -38.184  46.741  1.00  0.00     0.030 C 
ATOM      5  C   UNL     1       9.315 -37.275  48.917  1.00  0.00     0.004 C 
ATOM      6  C   UNL     1       6.527 -40.645  48.333  1.00  0.00     0.013 C 
ATOM      7  C   UNL     1       5.922 -38.456  47.039  1.00  0.00    -0.063 C 
ATOM      8  C   UNL     1       7.836 -36.674  46.936  1.00  0.00    -0.003 C 
ATOM      9  C   UNL     1       8.209 -36.349  48.405  1.00  0.00    -0.011 C 
ATOM     10  C   UNL     1       5.393 -39.629  47.918  1.00  0.00    -0.006 C 
ATOM     11  C   UNL     1       5.005 -37.669  46.412  1.00  0.00    -0.027 C 
ATOM     12  C   UNL     1       8.921 -36.251  45.920  1.00  0.00     0.008 C 
ATOM     13  C   UNL     1       8.595 -34.877  48.622  1.00  0.00     0.008 C 
ATOM     14  C   UNL     1       4.990 -38.905  49.252  1.00  0.00     0.017 C 
ATOM     15  C   UNL     1       4.113 -40.406  47.206  1.00  0.00    -0.020 C 
ATOM     16  C   UNL     1       3.552 -38.039  46.372  1.00  0.00     0.032 C 
ATOM     17  C   UNL     1       3.485 -39.539  46.051  1.00  0.00     0.006 C 
ATOM     18  C   UNL     1       4.497 -41.767  46.503  1.00  0.00     0.008 C 
ATOM     19  C   UNL     1       3.067 -40.741  48.317  1.00  0.00     0.012 C 
ATOM     20  C   UNL     1       2.141 -40.081  45.378  1.00  0.00    -0.025 C 
ATOM     21  C   UNL     1       3.675 -42.174  45.245  1.00  0.00     0.005 C 
ATOM     22  C   UNL     1       2.199 -41.679  45.254  1.00  0.00     0.003 C 
ATOM     23  C   UNL     1       2.045 -39.407  43.960  1.00  0.00     0.010 C 
ATOM     24  C   UNL     1       0.900 -39.636  46.215  1.00  0.00     0.012 C 
ATOM     25  C   UNL     1       1.288 -42.326  44.117  1.00  0.00    -0.006 C 
ATOM     26  C   UNL     1       1.055 -40.051  42.993  1.00  0.00     0.033 C 
ATOM     27  C   UNL     1       1.371 -41.532  42.786  1.00  0.00     0.120 C 
ATOM     28  C   UNL     1       1.673 -43.805  43.821  1.00  0.00     0.014 C 
ATOM     29  C   UNL     1      -0.191 -42.398  44.596  1.00  0.00     0.014 C 
ENDROOT
BRANCH   1  30
ATOM     30  C   UNL     1       9.679 -39.330  46.540  1.00  0.00     0.048 C 
ATOM     31  O   UNL     1       9.578 -39.717  45.344  1.00  0.00    -0.550 OA
ATOM     32  O   UNL     1      10.949 -39.101  47.059  1.00  0.00    -0.550 OA
ENDBRANCH   1  30
BRANCH  27  33
ATOM     33  O   UNL     1       2.650 -41.665  42.209  1.00  0.00    -0.393 OA
ATOM     34  H   UNL     1       2.651 -42.516  41.694  1.00  0.00     0.210 HD
ENDBRANCH  27  33
TORSDOF 2
ENDMDL
MODEL 2
REMARK VINA RESULT:    -6.006      1.760      7.810
REMARK INTER + INTRA:          -6.569
REMARK INTER:                  -6.510
REMARK INTRA:                  -0.058
REMARK UNBOUND:                -0.036
REMARK SMILES C[C@@H]1[C@H](C)CC[C@@]2(C(=O)[O-])CC[C@@]3(C)C(=CC[C@@H]4[C@@]5(C)CC[C@@H](O)C(C)(C)[C@H]5CC[C@]43C)[C@@H]12
REMARK SMILES IDX 7 1 6 2 11 3 33 4 5 5 12 6 15 7 2 8 3 9 13 10 16 11 1 12
REMARK SMILES IDX 4 13 14 14 31 15 17 16 18 17 30 18 32 19 19 20 29 21 28 22
REMARK SMILES IDX 21 23 20 24 25 25 22 26 23 27 26 28 27 29 8 30 9 31 10 32
REMARK SMILES IDX 24 33
REMARK H PARENT 24 34
REMARK Flexibility Score: inf
ROOT
ATOM      1  C   UNL     1       1.152 -38.288  44.483  1.00  0.00     0.017 C 
ATOM      2  C   UNL     1      -0.204 -38.540  45.225  1.00  0.00     0.014 C 
ATOM      3  C   UNL     1       1.985 -37.240  45.251  1.00  0.00     0.014 C 
ATOM      4  C   UNL     1       1.994 -39.610  44.322  1.00  0.00     0.030 C 
ATOM      5  C   UNL     1      -1.016 -39.694  44.642  1.00  0.00     0.004 C 
ATOM      6  C   UNL     1       2.343 -37.681  46.675  1.00  0.00     0.013 C 
ATOM      7  C   UNL     1       2.938 -39.940  45.503  1.00  0.00    -0.063 C 
ATOM      8  C   UNL     1       1.116 -40.836  43.851  1.00  0.00    -0.003 C 
ATOM      9  C   UNL     1      -0.188 -40.981  44.677  1.00  0.00    -0.011 C 
ATOM     10  C   UNL     1       3.102 -39.060  46.779  1.00  0.00    -0.006 C 
ATOM     11  C   UNL     1       3.749 -41.025  45.371  1.00  0.00    -0.027 C 
ATOM     12  C   UNL     1       0.875 -40.808  42.325  1.00  0.00     0.008 C 
ATOM     13  C   UNL     1      -1.043 -42.185  44.253  1.00  0.00     0.008 C 
ATOM     14  C   UNL     1       2.312 -39.877  47.862  1.00  0.00     0.017 C 
ATOM     15  C   UNL     1       4.696 -38.848  47.181  1.00  0.00    -0.020 C 
ATOM     16  C   UNL     1       4.911 -41.252  46.292  1.00  0.00     0.032 C 
ATOM     17  C   UNL     1       5.618 -39.897  46.454  1.00  0.00     0.006 C 
ATOM     18  C   UNL     1       5.287 -37.449  46.750  1.00  0.00     0.008 C 
ATOM     19  C   UNL     1       4.822 -38.941  48.736  1.00  0.00     0.012 C 
ATOM     20  C   UNL     1       7.161 -39.926  46.867  1.00  0.00    -0.025 C 
ATOM     21  C   UNL     1       6.797 -37.402  46.372  1.00  0.00     0.005 C 
ATOM     22  C   UNL     1       7.683 -38.432  47.131  1.00  0.00     0.003 C 
ATOM     23  C   UNL     1       7.935 -40.592  45.671  1.00  0.00     0.010 C 
ATOM     24  C   UNL     1       7.364 -40.815  48.135  1.00  0.00     0.012 C 
ATOM     25  C   UNL     1       9.250 -38.198  46.958  1.00  0.00    -0.006 C 
ATOM     26  C   UNL     1       9.448 -40.390  45.674  1.00  0.00     0.033 C 
ATOM     27  C   UNL     1       9.805 -38.904  45.692  1.00  0.00     0.120 C 
ATOM     28  C   UNL     1       9.616 -36.688  46.867  1.00  0.00     0.014 C 
ATOM     29  C   UNL     1      10.007 -38.706  48.219  1.00  0.00     0.014 C 
ENDROOT
BRANCH   1  30
ATOM     30  C   UNL     1       0.873 -37.674  43.109  1.00  0.00     0.048 C 
ATOM     31  O   UNL     1       1.825 -37.422  42.321  1.00  0.00    -0.550 OA
ATOM     32  O   UNL     1      -0.417 -37.323  42.726  1.00  0.00    -0.550 OA
ENDBRANCH   1  30
BRANCH  27  33
ATOM     33  O   UNL     1       9.314 -38.287  44.525  1.00  0.00    -0.393 OA
ATOM     34  H   UNL     1       9.068 -39.013  43.891  1.00  0.00     0.210 HD
ENDBRANCH  27  33
TORSDOF 2
ENDMDL
MODEL 3
REMARK VINA RESULT:    -5.787      1.839      8.002
REMARK INTER + INTRA:          -6.330
REMARK INTER:                  -6.269
REMARK INTRA:                  -0.061
REMARK UNBOUND:                -0.036
REMARK SMILES C[C@@H]1[C@H](C)CC[C@@]2(C(=O)[O-])CC[C@@]3(C)C(=CC[C@@H]4[C@@]5(C)CC[C@@H](O)C(C)(C)[C@H]5CC[C@]43C)[C@@H]12
REMARK SMILES IDX 7 1 6 2 11 3 33 4 5 5 12 6 15 7 2 8 3 9 13 10 16 11 1 12
REMARK SMILES IDX 4 13 14 14 31 15 17 16 18 17 30 18 32 19 19 20 29 21 28 22
REMARK SMILES IDX 21 23 20 24 25 25 22 26 23 27 26 28 27 29 8 30 9 31 10 32
REMARK SMILES IDX 24 33
REMARK H PARENT 24 34
REMARK Flexibility Score: inf
ROOT
ATOM      1  C   UNL     1       1.604 -38.160  44.038  1.00  0.00     0.017 C 
ATOM      2  C   UNL     1       0.282 -37.527  44.591  1.00  0.00     0.014 C 
ATOM      3  C   UNL     1       2.507 -37.058  43.446  1.00  0.00     0.014 C 
ATOM      4  C   UNL     1       2.397 -38.944  45.151  1.00  0.00     0.030 C 
ATOM      5  C   UNL     1      -0.592 -38.512  45.361  1.00  0.00     0.004 C 
ATOM      6  C   UNL     1       2.928 -36.004  44.477  1.00  0.00     0.013 C 
ATOM      7  C   UNL     1       3.393 -38.094  45.976  1.00  0.00    -0.063 C 
ATOM      8  C   UNL     1       1.459 -39.857  46.035  1.00  0.00    -0.003 C 
ATOM      9  C   UNL     1       0.197 -39.105  46.530  1.00  0.00    -0.011 C 
ATOM     10  C   UNL     1       3.650 -36.572  45.760  1.00  0.00    -0.006 C 
ATOM     11  C   UNL     1       4.162 -38.744  46.890  1.00  0.00    -0.027 C 
ATOM     12  C   UNL     1       1.138 -41.193  45.328  1.00  0.00     0.008 C 
ATOM     13  C   UNL     1      -0.715 -39.969  47.415  1.00  0.00     0.008 C 
ATOM     14  C   UNL     1       2.894 -35.920  46.972  1.00  0.00     0.017 C 
ATOM     15  C   UNL     1       5.269 -36.215  45.754  1.00  0.00    -0.020 C 
ATOM     16  C   UNL     1       5.365 -38.093  47.508  1.00  0.00     0.032 C 
ATOM     17  C   UNL     1       6.119 -37.388  46.371  1.00  0.00     0.006 C 
ATOM     18  C   UNL     1       5.877 -36.013  44.311  1.00  0.00     0.008 C 
ATOM     19  C   UNL     1       5.475 -34.875  46.532  1.00  0.00     0.012 C 
ATOM     20  C   UNL     1       7.681 -37.126  46.585  1.00  0.00    -0.025 C 
ATOM     21  C   UNL     1       7.366 -36.421  44.105  1.00  0.00     0.005 C 
ATOM     22  C   UNL     1       8.259 -36.256  45.368  1.00  0.00     0.003 C 
ATOM     23  C   UNL     1       8.369 -38.538  46.649  1.00  0.00     0.010 C 
ATOM     24  C   UNL     1       7.924 -36.402  47.947  1.00  0.00     0.012 C 
ATOM     25  C   UNL     1       9.821 -36.401  45.085  1.00  0.00    -0.006 C 
ATOM     26  C   UNL     1       9.886 -38.537  46.473  1.00  0.00     0.033 C 
ATOM     27  C   UNL     1      10.287 -37.880  45.153  1.00  0.00     0.120 C 
ATOM     28  C   UNL     1      10.226 -35.832  43.695  1.00  0.00     0.014 C 
ATOM     29  C   UNL     1      10.629 -35.547  46.105  1.00  0.00     0.014 C 
ENDROOT
BRANCH   1  30
ATOM     30  C   UNL     1       1.271 -39.096  42.874  1.00  0.00     0.048 C 
ATOM     31  O   UNL     1       2.183 -39.765  42.316  1.00  0.00    -0.550 OA
ATOM     32  O   UNL     1      -0.021 -39.183  42.367  1.00  0.00    -0.550 OA
ENDBRANCH   1  30
BRANCH  27  33
ATOM     33  O   UNL     1       9.754 -38.618  44.078  1.00  0.00    -0.393 OA
ATOM     34  H   UNL     1      10.287 -38.387  43.271  1.00  0.00     0.210 HD
ENDBRANCH  27  33
TORSDOF 2
ENDMDL
MODEL 4
REMARK VINA RESULT:    -5.774      1.425      7.856
REMARK INTER + INTRA:          -6.316
REMARK INTER:                  -6.242
REMARK INTRA:                  -0.074
REMARK UNBOUND:                -0.036
REMARK SMILES C[C@@H]1[C@H](C)CC[C@@]2(C(=O)[O-])CC[C@@]3(C)C(=CC[C@@H]4[C@@]5(C)CC[C@@H](O)C(C)(C)[C@H]5CC[C@]43C)[C@@H]12
REMARK SMILES IDX 7 1 6 2 11 3 33 4 5 5 12 6 15 7 2 8 3 9 13 10 16 11 1 12
REMARK SMILES IDX 4 13 14 14 31 15 17 16 18 17 30 18 32 19 19 20 29 21 28 22
REMARK SMILES IDX 21 23 20 24 25 25 22 26 23 27 26 28 27 29 8 30 9 31 10 32
REMARK SMILES IDX 24 33
REMARK H PARENT 24 34
REMARK Flexibility Score: inf
ROOT
ATOM      1  C   UNL     1       1.510 -39.927  44.637  1.00  0.00     0.017 C 
ATOM      2  C   UNL     1       0.274 -40.296  45.525  1.00  0.00     0.014 C 
ATOM      3  C   UNL     1       2.031 -38.525  45.017  1.00  0.00     0.014 C 
ATOM      4  C   UNL     1       2.679 -40.975  44.781  1.00  0.00     0.030 C 
ATOM      5  C   UNL     1      -0.196 -41.738  45.350  1.00  0.00     0.004 C 
ATOM      6  C   UNL     1       2.497 -38.429  46.475  1.00  0.00     0.013 C 
ATOM      7  C   UNL     1       3.678 -40.696  45.928  1.00  0.00    -0.063 C 
ATOM      8  C   UNL     1       2.163 -42.468  44.738  1.00  0.00    -0.003 C 
ATOM      9  C   UNL     1       0.948 -42.701  45.673  1.00  0.00    -0.011 C 
ATOM     10  C   UNL     1       3.600 -39.476  46.895  1.00  0.00    -0.006 C 
ATOM     11  C   UNL     1       4.752 -41.525  46.038  1.00  0.00    -0.027 C 
ATOM     12  C   UNL     1       1.921 -42.942  43.288  1.00  0.00     0.008 C 
ATOM     13  C   UNL     1       0.449 -44.154  45.666  1.00  0.00     0.008 C 
ATOM     14  C   UNL     1       3.062 -40.122  48.221  1.00  0.00     0.017 C 
ATOM     15  C   UNL     1       5.078 -38.753  47.096  1.00  0.00    -0.020 C 
ATOM     16  C   UNL     1       5.933 -41.170  46.891  1.00  0.00     0.032 C 
ATOM     17  C   UNL     1       6.249 -39.691  46.616  1.00  0.00     0.006 C 
ATOM     18  C   UNL     1       5.269 -37.434  46.250  1.00  0.00     0.008 C 
ATOM     19  C   UNL     1       5.228 -38.359  48.601  1.00  0.00     0.012 C 
ATOM     20  C   UNL     1       7.743 -39.201  46.898  1.00  0.00    -0.025 C 
ATOM     21  C   UNL     1       6.710 -37.108  45.755  1.00  0.00     0.005 C 
ATOM     22  C   UNL     1       7.842 -37.612  46.697  1.00  0.00     0.003 C 
ATOM     23  C   UNL     1       8.666 -39.959  45.874  1.00  0.00     0.010 C 
ATOM     24  C   UNL     1       8.181 -39.604  48.341  1.00  0.00     0.012 C 
ATOM     25  C   UNL     1       9.287 -37.041  46.342  1.00  0.00    -0.006 C 
ATOM     26  C   UNL     1      10.068 -39.380  45.702  1.00  0.00     0.033 C 
ATOM     27  C   UNL     1      10.010 -37.912  45.281  1.00  0.00     0.120 C 
ATOM     28  C   UNL     1       9.231 -35.580  45.809  1.00  0.00     0.014 C 
ATOM     29  C   UNL     1      10.156 -36.951  47.630  1.00  0.00     0.014 C 
ENDROOT
BRANCH   1  30
ATOM     30  C   UNL     1       1.073 -39.827  43.173  1.00  0.00     0.048 C 
ATOM     31  O   UNL     1       1.936 -39.741  42.258  1.00  0.00    -0.550 OA
ATOM     32  O   UNL     1      -0.272 -39.763  42.826  1.00  0.00    -0.550 OA
ENDBRANCH   1  30
BRANCH  27  33
ATOM     33  O   UNL     1       9.369 -37.805  44.031  1.00  0.00    -0.393 OA
ATOM     34  H   UNL     1       8.486 -38.255  44.116  1.00  0.00     0.210 HD
ENDBRANCH  27  33
TORSDOF 2
ENDMDL
MODEL 5
REMARK VINA RESULT:    -5.304      3.499      9.756
REMARK INTER + INTRA:          -5.805
REMARK INTER:                  -5.852
REMARK INTRA:                   0.047
REMARK UNBOUND:                -0.036
REMARK SMILES C[C@@H]1[C@H](C)CC[C@@]2(C(=O)[O-])CC[C@@]3(C)C(=CC[C@@H]4[C@@]5(C)CC[C@@H](O)C(C)(C)[C@H]5CC[C@]43C)[C@@H]12
REMARK SMILES IDX 7 1 6 2 11 3 33 4 5 5 12 6 15 7 2 8 3 9 13 10 16 11 1 12
REMARK SMILES IDX 4 13 14 14 31 15 17 16 18 17 30 18 32 19 19 20 29 21 28 22
REMARK SMILES IDX 21 23 20 24 25 25 22 26 23 27 26 28 27 29 8 30 9 31 10 32
REMARK SMILES IDX 24 33
REMARK H PARENT 24 34
REMARK Flexibility Score: inf
ROOT
ATOM      1  C   UNL     1       1.623 -45.979  40.389  1.00  0.00     0.017 C 
ATOM      2  C   UNL     1       0.301 -46.724  40.000  1.00  0.00     0.014 C 
ATOM      3  C   UNL     1       1.353 -44.465  40.521  1.00  0.00     0.014 C 
ATOM      4  C   UNL     1       2.235 -46.520  41.737  1.00  0.00     0.030 C 
ATOM      5  C   UNL     1       0.427 -48.245  40.027  1.00  0.00     0.004 C 
ATOM      6  C   UNL     1       0.326 -44.128  41.609  1.00  0.00     0.013 C 
ATOM      7  C   UNL     1       1.712 -45.835  43.022  1.00  0.00    -0.063 C 
ATOM      8  C   UNL     1       2.232 -48.098  41.814  1.00  0.00    -0.003 C 
ATOM      9  C   UNL     1       0.862 -48.707  41.420  1.00  0.00    -0.011 C 
ATOM     10  C   UNL     1       0.669 -44.677  43.047  1.00  0.00    -0.006 C 
ATOM     11  C   UNL     1       2.274 -46.209  44.203  1.00  0.00    -0.027 C 
ATOM     12  C   UNL     1       3.419 -48.706  41.034  1.00  0.00     0.008 C 
ATOM     13  C   UNL     1       0.830 -50.240  41.514  1.00  0.00     0.008 C 
ATOM     14  C   UNL     1      -0.638 -45.402  43.527  1.00  0.00     0.017 C 
ATOM     15  C   UNL     1       1.129 -43.456  44.070  1.00  0.00    -0.020 C 
ATOM     16  C   UNL     1       2.083 -45.403  45.453  1.00  0.00     0.032 C 
ATOM     17  C   UNL     1       2.259 -43.928  45.060  1.00  0.00     0.006 C 
ATOM     18  C   UNL     1       1.755 -42.205  43.337  1.00  0.00     0.008 C 
ATOM     19  C   UNL     1      -0.140 -42.954  44.831  1.00  0.00     0.012 C 
ATOM     20  C   UNL     1       2.692 -42.913  46.215  1.00  0.00    -0.025 C 
ATOM     21  C   UNL     1       2.849 -41.405  44.105  1.00  0.00     0.005 C 
ATOM     22  C   UNL     1       2.681 -41.411  45.652  1.00  0.00     0.003 C 
ATOM     23  C   UNL     1       4.137 -43.337  46.669  1.00  0.00     0.010 C 
ATOM     24  C   UNL     1       1.735 -43.051  47.441  1.00  0.00     0.012 C 
ATOM     25  C   UNL     1       3.622 -40.372  46.413  1.00  0.00    -0.006 C 
ATOM     26  C   UNL     1       4.899 -42.298  47.487  1.00  0.00     0.033 C 
ATOM     27  C   UNL     1       5.016 -40.977  46.728  1.00  0.00     0.120 C 
ATOM     28  C   UNL     1       3.837 -39.063  45.600  1.00  0.00     0.014 C 
ATOM     29  C   UNL     1       2.941 -39.904  47.732  1.00  0.00     0.014 C 
ENDROOT
BRANCH   1  30
ATOM     30  C   UNL     1       2.641 -46.123  39.256  1.00  0.00     0.048 C 
ATOM     31  O   UNL     1       3.877 -46.091  39.504  1.00  0.00    -0.550 OA
ATOM     32  O   UNL     1       2.233 -46.228  37.930  1.00  0.00    -0.550 OA
ENDBRANCH   1  30
BRANCH  27  33
ATOM     33  O   UNL     1       5.749 -41.178  45.542  1.00  0.00    -0.393 OA
ATOM     34  H   UNL     1       6.180 -40.311  45.314  1.00  0.00     0.210 HD
ENDBRANCH  27  33
TORSDOF 2
ENDMDL
MODEL 6
REMARK VINA RESULT:    -5.285      4.364      9.287
REMARK INTER + INTRA:          -5.785
REMARK INTER:                  -5.801
REMARK INTRA:                   0.016
REMARK UNBOUND:                -0.036
REMARK SMILES C[C@@H]1[C@H](C)CC[C@@]2(C(=O)[O-])CC[C@@]3(C)C(=CC[C@@H]4[C@@]5(C)CC[C@@H](O)C(C)(C)[C@H]5CC[C@]43C)[C@@H]12
REMARK SMILES IDX 7 1 6 2 11 3 33 4 5 5 12 6 15 7 2 8 3 9 13 10 16 11 1 12
REMARK SMILES IDX 4 13 14 14 31 15 17 16 18 17 30 18 32 19 19 20 29 21 28 22
REMARK SMILES IDX 21 23 20 24 25 25 22 26 23 27 26 28 27 29 8 30 9 31 10 32
REMARK SMILES IDX 24 33
REMARK H PARENT 24 34
REMARK Flexibility Score: inf
ROOT
ATOM      1  C   UNL     1       1.338 -45.941  40.592  1.00  0.00     0.017 C 
ATOM      2  C   UNL     1       0.565 -47.296  40.740  1.00  0.00     0.014 C 
ATOM      3  C   UNL     1       0.335 -44.772  40.489  1.00  0.00     0.014 C 
ATOM      4  C   UNL     1       2.319 -45.684  41.798  1.00  0.00     0.030 C 
ATOM      5  C   UNL     1       1.471 -48.488  41.033  1.00  0.00     0.004 C 
ATOM      6  C   UNL     1      -0.557 -44.632  41.728  1.00  0.00     0.013 C 
ATOM      7  C   UNL     1       1.696 -44.959  43.014  1.00  0.00    -0.063 C 
ATOM      8  C   UNL     1       3.154 -46.967  42.185  1.00  0.00    -0.003 C 
ATOM      9  C   UNL     1       2.269 -48.233  42.314  1.00  0.00    -0.011 C 
ATOM     10  C   UNL     1       0.216 -44.477  43.096  1.00  0.00    -0.006 C 
ATOM     11  C   UNL     1       2.525 -44.638  44.044  1.00  0.00    -0.027 C 
ATOM     12  C   UNL     1       4.365 -47.161  41.245  1.00  0.00     0.008 C 
ATOM     13  C   UNL     1       3.059 -49.488  42.717  1.00  0.00     0.008 C 
ATOM     14  C   UNL     1      -0.438 -45.537  44.052  1.00  0.00     0.017 C 
ATOM     15  C   UNL     1       0.101 -42.933  43.687  1.00  0.00    -0.020 C 
ATOM     16  C   UNL     1       2.112 -43.669  45.112  1.00  0.00     0.032 C 
ATOM     17  C   UNL     1       1.433 -42.489  44.399  1.00  0.00     0.006 C 
ATOM     18  C   UNL     1      -0.128 -41.835  42.576  1.00  0.00     0.008 C 
ATOM     19  C   UNL     1      -1.125 -42.871  44.654  1.00  0.00     0.012 C 
ATOM     20  C   UNL     1       1.422 -41.086  45.164  1.00  0.00    -0.025 C 
ATOM     21  C   UNL     1       0.476 -40.423  42.836  1.00  0.00     0.005 C 
ATOM     22  C   UNL     1       0.549 -40.023  44.339  1.00  0.00     0.003 C 
ATOM     23  C   UNL     1       2.921 -40.622  45.275  1.00  0.00     0.010 C 
ATOM     24  C   UNL     1       0.857 -41.263  46.609  1.00  0.00     0.012 C 
ATOM     25  C   UNL     1       0.899 -38.487  44.587  1.00  0.00    -0.006 C 
ATOM     26  C   UNL     1       3.128 -39.152  45.627  1.00  0.00     0.033 C 
ATOM     27  C   UNL     1       2.431 -38.240  44.618  1.00  0.00     0.120 C 
ATOM     28  C   UNL     1       0.283 -37.557  43.503  1.00  0.00     0.014 C 
ATOM     29  C   UNL     1       0.260 -38.005  45.922  1.00  0.00     0.014 C 
ENDROOT
BRANCH   1  30
ATOM     30  C   UNL     1       2.115 -45.940  39.274  1.00  0.00     0.048 C 
ATOM     31  O   UNL     1       2.695 -44.893  38.879  1.00  0.00    -0.550 OA
ATOM     32  O   UNL     1       2.148 -47.065  38.456  1.00  0.00    -0.550 OA
ENDBRANCH   1  30
BRANCH  27  33
ATOM     33  O   UNL     1       2.991 -38.435  43.341  1.00  0.00    -0.393 OA
ATOM     34  H   UNL     1       3.361 -37.561  43.047  1.00  0.00     0.210 HD
ENDBRANCH  27  33
TORSDOF 2
ENDMDL
MODEL 7
REMARK VINA RESULT:    -5.113      3.246      5.912
REMARK INTER + INTRA:          -5.597
REMARK INTER:                  -5.532
REMARK INTRA:                  -0.065
REMARK UNBOUND:                -0.036
REMARK SMILES C[C@@H]1[C@H](C)CC[C@@]2(C(=O)[O-])CC[C@@]3(C)C(=CC[C@@H]4[C@@]5(C)CC[C@@H](O)C(C)(C)[C@H]5CC[C@]43C)[C@@H]12
REMARK SMILES IDX 7 1 6 2 11 3 33 4 5 5 12 6 15 7 2 8 3 9 13 10 16 11 1 12
REMARK SMILES IDX 4 13 14 14 31 15 17 16 18 17 30 18 32 19 19 20 29 21 28 22
REMARK SMILES IDX 21 23 20 24 25 25 22 26 23 27 26 28 27 29 8 30 9 31 10 32
REMARK SMILES IDX 24 33
REMARK H PARENT 24 34
REMARK Flexibility Score: inf
ROOT
ATOM      1  C   UNL     1       4.682 -42.279  47.170  1.00  0.00     0.017 C 
ATOM      2  C   UNL     1       4.070 -41.895  48.560  1.00  0.00     0.014 C 
ATOM      3  C   UNL     1       4.856 -43.810  47.077  1.00  0.00     0.014 C 
ATOM      4  C   UNL     1       3.788 -41.781  45.971  1.00  0.00     0.030 C 
ATOM      5  C   UNL     1       3.689 -40.421  48.675  1.00  0.00     0.004 C 
ATOM      6  C   UNL     1       3.534 -44.576  47.198  1.00  0.00     0.013 C 
ATOM      7  C   UNL     1       2.678 -42.762  45.523  1.00  0.00    -0.063 C 
ATOM      8  C   UNL     1       3.283 -40.298  46.166  1.00  0.00    -0.003 C 
ATOM      9  C   UNL     1       2.687 -40.056  47.577  1.00  0.00    -0.011 C 
ATOM     10  C   UNL     1       2.421 -44.161  46.159  1.00  0.00    -0.006 C 
ATOM     11  C   UNL     1       1.937 -42.413  44.436  1.00  0.00    -0.027 C 
ATOM     12  C   UNL     1       4.371 -39.272  45.777  1.00  0.00     0.008 C 
ATOM     13  C   UNL     1       2.165 -38.625  47.778  1.00  0.00     0.008 C 
ATOM     14  C   UNL     1       1.133 -43.915  47.022  1.00  0.00     0.017 C 
ATOM     15  C   UNL     1       2.199 -45.331  45.006  1.00  0.00    -0.020 C 
ATOM     16  C   UNL     1       1.067 -43.408  43.727  1.00  0.00     0.032 C 
ATOM     17  C   UNL     1       1.888 -44.700  43.597  1.00  0.00     0.006 C 
ATOM     18  C   UNL     1       3.470 -46.234  44.754  1.00  0.00     0.008 C 
ATOM     19  C   UNL     1       1.052 -46.277  45.486  1.00  0.00     0.012 C 
ATOM     20  C   UNL     1       1.489 -45.702  42.418  1.00  0.00    -0.025 C 
ATOM     21  C   UNL     1       3.673 -46.788  43.313  1.00  0.00     0.005 C 
ATOM     22  C   UNL     1       2.352 -47.049  42.532  1.00  0.00     0.003 C 
ATOM     23  C   UNL     1       1.787 -44.951  41.069  1.00  0.00     0.010 C 
ATOM     24  C   UNL     1      -0.040 -46.017  42.473  1.00  0.00     0.012 C 
ATOM     25  C   UNL     1       2.545 -47.872  41.180  1.00  0.00    -0.006 C 
ATOM     26  C   UNL     1       1.839 -45.833  39.825  1.00  0.00     0.033 C 
ATOM     27  C   UNL     1       2.876 -46.945  39.980  1.00  0.00     0.120 C 
ATOM     28  C   UNL     1       3.674 -48.937  41.292  1.00  0.00     0.014 C 
ATOM     29  C   UNL     1       1.262 -48.697  40.871  1.00  0.00     0.014 C 
ENDROOT
BRANCH   1  30
ATOM     30  C   UNL     1       6.090 -41.691  47.054  1.00  0.00     0.048 C 
ATOM     31  O   UNL     1       6.656 -41.616  45.930  1.00  0.00    -0.550 OA
ATOM     32  O   UNL     1       6.797 -41.289  48.182  1.00  0.00    -0.550 OA
ENDBRANCH   1  30
BRANCH  27  33
ATOM     33  O   UNL     1       4.157 -46.378  40.130  1.00  0.00    -0.393 OA
ATOM     34  H   UNL     1       4.687 -46.636  39.330  1.00  0.00     0.210 HD
ENDBRANCH  27  33
TORSDOF 2
ENDMDL
MODEL 8
REMARK VINA RESULT:    -4.869      1.589      8.033
REMARK INTER + INTRA:          -5.332
REMARK INTER:                  -5.259
REMARK INTRA:                  -0.073
REMARK UNBOUND:                -0.036
REMARK SMILES C[C@@H]1[C@H](C)CC[C@@]2(C(=O)[O-])CC[C@@]3(C)C(=CC[C@@H]4[C@@]5(C)CC[C@@H](O)C(C)(C)[C@H]5CC[C@]43C)[C@@H]12
REMARK SMILES IDX 7 1 6 2 11 3 33 4 5 5 12 6 15 7 2 8 3 9 13 10 16 11 1 12
REMARK SMILES IDX 4 13 14 14 31 15 17 16 18 17 30 18 32 19 19 20 29 21 28 22
REMARK SMILES IDX 21 23 20 24 25 25 22 26 23 27 26 28 27 29 8 30 9 31 10 32
REMARK SMILES IDX 24 33
REMARK H PARENT 24 34
REMARK Flexibility Score: inf
ROOT
ATOM      1  C   UNL     1       1.275 -42.499  44.739  1.00  0.00     0.017 C 
ATOM      2  C   UNL     1      -0.021 -43.131  45.351  1.00  0.00     0.014 C 
ATOM      3  C   UNL     1       1.289 -40.977  44.994  1.00  0.00     0.014 C 
ATOM      4  C   UNL     1       2.586 -43.140  45.336  1.00  0.00     0.030 C 
ATOM      5  C   UNL     1      -0.035 -44.657  45.311  1.00  0.00     0.004 C 
ATOM      6  C   UNL     1       1.288 -40.614  46.484  1.00  0.00     0.013 C 
ATOM      7  C   UNL     1       3.118 -42.475  46.628  1.00  0.00    -0.063 C 
ATOM      8  C   UNL     1       2.506 -44.716  45.421  1.00  0.00    -0.003 C 
ATOM      9  C   UNL     1       1.181 -45.208  46.059  1.00  0.00    -0.011 C 
ATOM     10  C   UNL     1       2.461 -41.248  47.328  1.00  0.00    -0.006 C 
ATOM     11  C   UNL     1       4.294 -42.939  47.131  1.00  0.00    -0.027 C 
ATOM     12  C   UNL     1       2.810 -45.373  44.056  1.00  0.00     0.008 C 
ATOM     13  C   UNL     1       1.096 -46.737  46.175  1.00  0.00     0.008 C 
ATOM     14  C   UNL     1       1.759 -41.898  48.573  1.00  0.00     0.017 C 
ATOM     15  C   UNL     1       3.585 -40.107  47.757  1.00  0.00    -0.020 C 
ATOM     16  C   UNL     1       5.056 -42.175  48.173  1.00  0.00     0.032 C 
ATOM     17  C   UNL     1       5.044 -40.702  47.739  1.00  0.00     0.006 C 
ATOM     18  C   UNL     1       3.658 -38.875  46.773  1.00  0.00     0.008 C 
ATOM     19  C   UNL     1       3.201 -39.550  49.165  1.00  0.00     0.012 C 
ATOM     20  C   UNL     1       6.220 -39.771  48.288  1.00  0.00    -0.025 C 
ATOM     21  C   UNL     1       5.045 -38.189  46.595  1.00  0.00     0.005 C 
ATOM     22  C   UNL     1       5.958 -38.249  47.853  1.00  0.00     0.003 C 
ATOM     23  C   UNL     1       7.555 -40.316  47.660  1.00  0.00     0.010 C 
ATOM     24  C   UNL     1       6.325 -39.892  49.841  1.00  0.00     0.012 C 
ATOM     25  C   UNL     1       7.247 -37.314  47.769  1.00  0.00    -0.006 C 
ATOM     26  C   UNL     1       8.751 -39.371  47.738  1.00  0.00     0.033 C 
ATOM     27  C   UNL     1       8.437 -38.030  47.075  1.00  0.00     0.120 C 
ATOM     28  C   UNL     1       6.968 -35.990  47.000  1.00  0.00     0.014 C 
ATOM     29  C   UNL     1       7.667 -36.855  49.195  1.00  0.00     0.014 C 
ENDROOT
BRANCH   1  30
ATOM     30  C   UNL     1       1.255 -42.667  43.218  1.00  0.00     0.048 C 
ATOM     31  O   UNL     1       2.269 -42.366  42.532  1.00  0.00    -0.550 OA
ATOM     32  O   UNL     1       0.107 -43.091  42.556  1.00  0.00    -0.550 OA
ENDBRANCH   1  30
BRANCH  27  33
ATOM     33  O   UNL     1       8.166 -38.232  45.708  1.00  0.00    -0.393 OA
ATOM     34  H   UNL     1       8.949 -37.887  45.200  1.00  0.00     0.210 HD
ENDBRANCH  27  33
TORSDOF 2
ENDMDL
