MODEL 1
REMARK VINA RESULT:    -3.437      0.000      0.000
REMARK INTER + INTRA:          -9.039
REMARK INTER:                  -6.451
REMARK INTRA:                  -2.589
REMARK UNBOUND:                -2.589
REMARK SMILES O=C([O-])CCCCCCCCCCCCCCC(=O)[O-]
REMARK SMILES IDX 10 1 9 2 8 3 7 4 6 5 5 6 4 7 2 8 1 9 3 10 11 11 12 12 13 13
REMARK SMILES IDX 14 14 15 15 16 16 17 17 18 18 19 19 20 20
REMARK H PARENT
REMARK Flexibility Score: inf
ROOT
ATOM      1  C   UNL     1      42.357  11.635  17.279  1.00  0.00     0.000 C 
ENDROOT
BRANCH   1   2
ATOM      2  C   UNL     1      41.973  12.665  16.197  1.00  0.00     0.000 C 
BRANCH   2   3
ATOM      3  C   UNL     1      41.564  12.029  14.857  1.00  0.00     0.000 C 
BRANCH   3   4
ATOM      4  C   UNL     1      40.869  13.024  13.913  1.00  0.00     0.000 C 
BRANCH   4   5
ATOM      5  C   UNL     1      39.531  12.490  13.374  1.00  0.00     0.000 C 
BRANCH   5   6
ATOM      6  C   UNL     1      39.391  10.969  13.534  1.00  0.00     0.006 C 
BRANCH   6   7
ATOM      7  C   UNL     1      39.208  10.290  12.174  1.00  0.00     0.053 C 
BRANCH   7   8
ATOM      8  C   UNL     1      40.460   9.579  11.769  1.00  0.00     0.041 C 
ATOM      9  O   UNL     1      40.489   8.321  11.723  1.00  0.00    -0.550 OA
ATOM     10  O   UNL     1      41.611  10.304  11.485  1.00  0.00    -0.550 OA
ENDBRANCH   7   8
ENDBRANCH   6   7
ENDBRANCH   5   6
ENDBRANCH   4   5
ENDBRANCH   3   4
ENDBRANCH   2   3
ENDBRANCH   1   2
BRANCH   1  11
ATOM     11  C   UNL     1      41.266  10.569  17.477  1.00  0.00     0.000 C 
BRANCH  11  12
ATOM     12  C   UNL     1      39.964  11.150  18.050  1.00  0.00     0.000 C 
BRANCH  12  13
ATOM     13  C   UNL     1      38.749  10.878  17.151  1.00  0.00     0.000 C 
BRANCH  13  14
ATOM     14  C   UNL     1      38.042  12.188  16.774  1.00  0.00     0.000 C 
BRANCH  14  15
ATOM     15  C   UNL     1      38.594  13.409  17.532  1.00  0.00     0.000 C 
BRANCH  15  16
ATOM     16  C   UNL     1      38.888  14.643  16.653  1.00  0.00     0.006 C 
BRANCH  16  17
ATOM     17  C   UNL     1      39.891  15.635  17.262  1.00  0.00     0.053 C 
BRANCH  17  18
ATOM     18  C   UNL     1      40.493  16.531  16.223  1.00  0.00     0.041 C 
ATOM     19  O   UNL     1      40.264  16.328  15.001  1.00  0.00    -0.550 OA
ATOM     20  O   UNL     1      41.281  17.608  16.606  1.00  0.00    -0.550 OA
ENDBRANCH  17  18
ENDBRANCH  16  17
ENDBRANCH  15  16
ENDBRANCH  14  15
ENDBRANCH  13  14
ENDBRANCH  12  13
ENDBRANCH  11  12
ENDBRANCH   1  11
TORSDOF 15
ENDMDL
MODEL 2
REMARK VINA RESULT:    -3.305      2.334      5.760
REMARK INTER + INTRA:          -8.791
REMARK INTER:                  -6.621
REMARK INTRA:                  -2.171
REMARK UNBOUND:                -2.589
REMARK SMILES O=C([O-])CCCCCCCCCCCCCCC(=O)[O-]
REMARK SMILES IDX 10 1 9 2 8 3 7 4 6 5 5 6 4 7 2 8 1 9 3 10 11 11 12 12 13 13
REMARK SMILES IDX 14 14 15 15 16 16 17 17 18 18 19 19 20 20
REMARK H PARENT
REMARK Flexibility Score: inf
ROOT
ATOM      1  C   UNL     1      40.961  10.378  11.735  1.00  0.00     0.000 C 
ENDROOT
BRANCH   1   2
ATOM      2  C   UNL     1      39.794  11.369  11.542  1.00  0.00     0.000 C 
BRANCH   2   3
ATOM      3  C   UNL     1      39.650  12.384  12.688  1.00  0.00     0.000 C 
BRANCH   3   4
ATOM      4  C   UNL     1      40.917  12.489  13.553  1.00  0.00     0.000 C 
BRANCH   4   5
ATOM      5  C   UNL     1      40.895  13.712  14.486  1.00  0.00     0.000 C 
BRANCH   5   6
ATOM      6  C   UNL     1      39.471  14.142  14.867  1.00  0.00     0.006 C 
BRANCH   6   7
ATOM      7  C   UNL     1      39.448  14.790  16.254  1.00  0.00     0.053 C 
BRANCH   7   8
ATOM      8  C   UNL     1      39.536  16.279  16.140  1.00  0.00     0.041 C 
ATOM      9  O   UNL     1      38.489  16.972  16.059  1.00  0.00    -0.550 OA
ATOM     10  O   UNL     1      40.778  16.899  16.077  1.00  0.00    -0.550 OA
ENDBRANCH   7   8
ENDBRANCH   6   7
ENDBRANCH   5   6
ENDBRANCH   4   5
ENDBRANCH   3   4
ENDBRANCH   2   3
ENDBRANCH   1   2
BRANCH   1  11
ATOM     11  C   UNL     1      40.496   8.914  11.666  1.00  0.00     0.000 C 
BRANCH  11  12
ATOM     12  C   UNL     1      38.990   8.756  11.929  1.00  0.00     0.000 C 
BRANCH  12  13
ATOM     13  C   UNL     1      38.688   8.205  13.330  1.00  0.00     0.000 C 
BRANCH  13  14
ATOM     14  C   UNL     1      38.249   9.330  14.278  1.00  0.00     0.000 C 
BRANCH  14  15
ATOM     15  C   UNL     1      39.232   9.553  15.441  1.00  0.00     0.000 C 
BRANCH  15  16
ATOM     16  C   UNL     1      39.038  10.875  16.214  1.00  0.00     0.006 C 
BRANCH  16  17
ATOM     17  C   UNL     1      39.729  10.920  17.585  1.00  0.00     0.053 C 
BRANCH  17  18
ATOM     18  C   UNL     1      41.186  10.588  17.489  1.00  0.00     0.041 C 
ATOM     19  O   UNL     1      41.966  11.338  16.843  1.00  0.00    -0.550 OA
ATOM     20  O   UNL     1      41.690   9.469  18.139  1.00  0.00    -0.550 OA
ENDBRANCH  17  18
ENDBRANCH  16  17
ENDBRANCH  15  16
ENDBRANCH  14  15
ENDBRANCH  13  14
ENDBRANCH  12  13
ENDBRANCH  11  12
ENDBRANCH   1  11
TORSDOF 15
ENDMDL
MODEL 3
REMARK VINA RESULT:    -3.304      0.999      2.244
REMARK INTER + INTRA:          -8.789
REMARK INTER:                  -6.360
REMARK INTRA:                  -2.430
REMARK UNBOUND:                -2.589
REMARK SMILES O=C([O-])CCCCCCCCCCCCCCC(=O)[O-]
REMARK SMILES IDX 10 1 9 2 8 3 7 4 6 5 5 6 4 7 2 8 1 9 3 10 11 11 12 12 13 13
REMARK SMILES IDX 14 14 15 15 16 16 17 17 18 18 19 19 20 20
REMARK H PARENT
REMARK Flexibility Score: inf
ROOT
ATOM      1  C   UNL     1      41.322  11.982  14.444  1.00  0.00     0.000 C 
ENDROOT
BRANCH   1   2
ATOM      2  C   UNL     1      40.055  12.685  13.913  1.00  0.00     0.000 C 
BRANCH   2   3
ATOM      3  C   UNL     1      38.783  11.826  14.019  1.00  0.00     0.000 C 
BRANCH   3   4
ATOM      4  C   UNL     1      39.052  10.433  14.611  1.00  0.00     0.000 C 
BRANCH   4   5
ATOM      5  C   UNL     1      38.431   9.304  13.771  1.00  0.00     0.000 C 
BRANCH   5   6
ATOM      6  C   UNL     1      38.539   9.560  12.261  1.00  0.00     0.006 C 
BRANCH   6   7
ATOM      7  C   UNL     1      39.858   9.013  11.706  1.00  0.00     0.053 C 
BRANCH   7   8
ATOM      8  C   UNL     1      40.755  10.132  11.283  1.00  0.00     0.041 C 
ATOM      9  O   UNL     1      41.971  10.128  11.609  1.00  0.00    -0.550 OA
ATOM     10  O   UNL     1      40.239  11.205  10.568  1.00  0.00    -0.550 OA
ENDBRANCH   7   8
ENDBRANCH   6   7
ENDBRANCH   5   6
ENDBRANCH   4   5
ENDBRANCH   3   4
ENDBRANCH   2   3
ENDBRANCH   1   2
BRANCH   1  11
ATOM     11  C   UNL     1      41.862  12.648  15.721  1.00  0.00     0.000 C 
BRANCH  11  12
ATOM     12  C   UNL     1      42.018  11.658  16.887  1.00  0.00     0.000 C 
BRANCH  12  13
ATOM     13  C   UNL     1      40.692  11.381  17.609  1.00  0.00     0.000 C 
BRANCH  13  14
ATOM     14  C   UNL     1      40.170  12.648  18.302  1.00  0.00     0.000 C 
BRANCH  14  15
ATOM     15  C   UNL     1      38.840  13.151  17.712  1.00  0.00     0.000 C 
BRANCH  15  16
ATOM     16  C   UNL     1      38.927  14.500  16.967  1.00  0.00     0.006 C 
BRANCH  16  17
ATOM     17  C   UNL     1      40.122  15.376  17.372  1.00  0.00     0.053 C 
BRANCH  17  18
ATOM     18  C   UNL     1      40.488  16.353  16.297  1.00  0.00     0.041 C 
ATOM     19  O   UNL     1      40.898  17.506  16.601  1.00  0.00    -0.550 OA
ATOM     20  O   UNL     1      40.407  15.982  14.961  1.00  0.00    -0.550 OA
ENDBRANCH  17  18
ENDBRANCH  16  17
ENDBRANCH  15  16
ENDBRANCH  14  15
ENDBRANCH  13  14
ENDBRANCH  12  13
ENDBRANCH  11  12
ENDBRANCH   1  11
TORSDOF 15
ENDMDL
MODEL 4
REMARK VINA RESULT:    -3.284      2.591      4.609
REMARK INTER + INTRA:          -8.752
REMARK INTER:                  -6.619
REMARK INTRA:                  -2.133
REMARK UNBOUND:                -2.589
REMARK SMILES O=C([O-])CCCCCCCCCCCCCCC(=O)[O-]
REMARK SMILES IDX 10 1 9 2 8 3 7 4 6 5 5 6 4 7 2 8 1 9 3 10 11 11 12 12 13 13
REMARK SMILES IDX 14 14 15 15 16 16 17 17 18 18 19 19 20 20
REMARK H PARENT
REMARK Flexibility Score: inf
ROOT
ATOM      1  C   UNL     1      41.063  10.174  11.562  1.00  0.00     0.000 C 
ENDROOT
BRANCH   1   2
ATOM      2  C   UNL     1      40.504   8.738  11.634  1.00  0.00     0.000 C 
BRANCH   2   3
ATOM      3  C   UNL     1      39.037   8.668  12.091  1.00  0.00     0.000 C 
BRANCH   3   4
ATOM      4  C   UNL     1      38.894   8.419  13.601  1.00  0.00     0.000 C 
BRANCH   4   5
ATOM      5  C   UNL     1      38.294   9.624  14.345  1.00  0.00     0.000 C 
BRANCH   5   6
ATOM      6  C   UNL     1      38.267   9.427  15.867  1.00  0.00     0.006 C 
BRANCH   6   7
ATOM      7  C   UNL     1      39.618   9.789  16.490  1.00  0.00     0.053 C 
BRANCH   7   8
ATOM      8  C   UNL     1      39.423  10.575  17.749  1.00  0.00     0.041 C 
ATOM      9  O   UNL     1      40.316  11.367  18.147  1.00  0.00    -0.550 OA
ATOM     10  O   UNL     1      38.272  10.398  18.507  1.00  0.00    -0.550 OA
ENDBRANCH   7   8
ENDBRANCH   6   7
ENDBRANCH   5   6
ENDBRANCH   4   5
ENDBRANCH   3   4
ENDBRANCH   2   3
ENDBRANCH   1   2
BRANCH   1  11
ATOM     11  C   UNL     1      39.945  11.227  11.475  1.00  0.00     0.000 C 
BRANCH  11  12
ATOM     12  C   UNL     1      40.102  12.348  12.515  1.00  0.00     0.000 C 
BRANCH  12  13
ATOM     13  C   UNL     1      41.191  12.043  13.554  1.00  0.00     0.000 C 
BRANCH  13  14
ATOM     14  C   UNL     1      40.914  12.781  14.871  1.00  0.00     0.000 C 
BRANCH  14  15
ATOM     15  C   UNL     1      39.437  13.183  15.036  1.00  0.00     0.000 C 
BRANCH  15  16
ATOM     16  C   UNL     1      39.161  14.202  16.162  1.00  0.00     0.006 C 
BRANCH  16  17
ATOM     17  C   UNL     1      40.395  14.988  16.629  1.00  0.00     0.053 C 
BRANCH  17  18
ATOM     18  C   UNL     1      40.466  16.344  15.998  1.00  0.00     0.041 C 
ATOM     19  O   UNL     1      39.951  16.545  14.866  1.00  0.00    -0.550 OA
ATOM     20  O   UNL     1      41.074  17.395  16.674  1.00  0.00    -0.550 OA
ENDBRANCH  17  18
ENDBRANCH  16  17
ENDBRANCH  15  16
ENDBRANCH  14  15
ENDBRANCH  13  14
ENDBRANCH  12  13
ENDBRANCH  11  12
ENDBRANCH   1  11
TORSDOF 15
ENDMDL
MODEL 5
REMARK VINA RESULT:    -3.246      1.638      6.692
REMARK INTER + INTRA:          -8.681
REMARK INTER:                  -6.589
REMARK INTRA:                  -2.092
REMARK UNBOUND:                -2.589
REMARK SMILES O=C([O-])CCCCCCCCCCCCCCC(=O)[O-]
REMARK SMILES IDX 10 1 9 2 8 3 7 4 6 5 5 6 4 7 2 8 1 9 3 10 11 11 12 12 13 13
REMARK SMILES IDX 14 14 15 15 16 16 17 17 18 18 19 19 20 20
REMARK H PARENT
REMARK Flexibility Score: inf
ROOT
ATOM      1  C   UNL     1      41.733  12.971  16.115  1.00  0.00     0.000 C 
ENDROOT
BRANCH   1   2
ATOM      2  C   UNL     1      40.592  13.947  16.470  1.00  0.00     0.000 C 
BRANCH   2   3
ATOM      3  C   UNL     1      40.153  14.837  15.295  1.00  0.00     0.000 C 
BRANCH   3   4
ATOM      4  C   UNL     1      38.654  15.177  15.332  1.00  0.00     0.000 C 
BRANCH   4   5
ATOM      5  C   UNL     1      38.392  16.664  15.625  1.00  0.00     0.000 C 
BRANCH   5   6
ATOM      6  C   UNL     1      38.231  16.953  17.124  1.00  0.00     0.006 C 
BRANCH   6   7
ATOM      7  C   UNL     1      39.180  18.069  17.572  1.00  0.00     0.053 C 
BRANCH   7   8
ATOM      8  C   UNL     1      40.574  17.547  17.716  1.00  0.00     0.041 C 
ATOM      9  O   UNL     1      40.885  16.834  18.706  1.00  0.00    -0.550 OA
ATOM     10  O   UNL     1      41.544  17.885  16.780  1.00  0.00    -0.550 OA
ENDBRANCH   7   8
ENDBRANCH   6   7
ENDBRANCH   5   6
ENDBRANCH   4   5
ENDBRANCH   3   4
ENDBRANCH   2   3
ENDBRANCH   1   2
BRANCH   1  11
ATOM     11  C   UNL     1      41.328  11.503  16.330  1.00  0.00     0.000 C 
BRANCH  11  12
ATOM     12  C   UNL     1      39.805  11.296  16.299  1.00  0.00     0.000 C 
BRANCH  12  13
ATOM     13  C   UNL     1      39.317  10.686  14.978  1.00  0.00     0.000 C 
BRANCH  13  14
ATOM     14  C   UNL     1      38.590  11.737  14.125  1.00  0.00     0.000 C 
BRANCH  14  15
ATOM     15  C   UNL     1      39.373  12.128  12.859  1.00  0.00     0.000 C 
BRANCH  15  16
ATOM     16  C   UNL     1      40.632  11.279  12.582  1.00  0.00     0.006 C 
BRANCH  16  17
ATOM     17  C   UNL     1      40.534  10.378  11.342  1.00  0.00     0.053 C 
BRANCH  17  18
ATOM     18  C   UNL     1      39.861   9.075  11.648  1.00  0.00     0.041 C 
ATOM     19  O   UNL     1      40.547   8.062  11.947  1.00  0.00    -0.550 OA
ATOM     20  O   UNL     1      38.475   8.987  11.634  1.00  0.00    -0.550 OA
ENDBRANCH  17  18
ENDBRANCH  16  17
ENDBRANCH  15  16
ENDBRANCH  14  15
ENDBRANCH  13  14
ENDBRANCH  12  13
ENDBRANCH  11  12
ENDBRANCH   1  11
TORSDOF 15
ENDMDL
MODEL 6
REMARK VINA RESULT:    -3.196      1.300      6.079
REMARK INTER + INTRA:          -8.588
REMARK INTER:                  -6.041
REMARK INTRA:                  -2.547
REMARK UNBOUND:                -2.589
REMARK SMILES O=C([O-])CCCCCCCCCCCCCCC(=O)[O-]
REMARK SMILES IDX 10 1 9 2 8 3 7 4 6 5 5 6 4 7 2 8 1 9 3 10 11 11 12 12 13 13
REMARK SMILES IDX 14 14 15 15 16 16 17 17 18 18 19 19 20 20
REMARK H PARENT
REMARK Flexibility Score: inf
ROOT
ATOM      1  C   UNL     1      40.716  13.132  13.957  1.00  0.00     0.000 C 
ENDROOT
BRANCH   1   2
ATOM      2  C   UNL     1      41.460  11.996  14.688  1.00  0.00     0.000 C 
BRANCH   2   3
ATOM      3  C   UNL     1      42.019  12.408  16.061  1.00  0.00     0.000 C 
BRANCH   3   4
ATOM      4  C   UNL     1      41.216  11.819  17.232  1.00  0.00     0.000 C 
BRANCH   4   5
ATOM      5  C   UNL     1      40.365  12.875  17.956  1.00  0.00     0.000 C 
BRANCH   5   6
ATOM      6  C   UNL     1      40.759  14.312  17.582  1.00  0.00     0.006 C 
BRANCH   6   7
ATOM      7  C   UNL     1      39.519  15.163  17.297  1.00  0.00     0.053 C 
BRANCH   7   8
ATOM      8  C   UNL     1      39.798  16.149  16.206  1.00  0.00     0.041 C 
ATOM      9  O   UNL     1      39.070  16.182  15.180  1.00  0.00    -0.550 OA
ATOM     10  O   UNL     1      40.891  17.002  16.302  1.00  0.00    -0.550 OA
ENDBRANCH   7   8
ENDBRANCH   6   7
ENDBRANCH   5   6
ENDBRANCH   4   5
ENDBRANCH   3   4
ENDBRANCH   2   3
ENDBRANCH   1   2
BRANCH   1  11
ATOM     11  C   UNL     1      39.260  12.757  13.634  1.00  0.00     0.000 C 
BRANCH  11  12
ATOM     12  C   UNL     1      38.371  12.693  14.887  1.00  0.00     0.000 C 
BRANCH  12  13
ATOM     13  C   UNL     1      37.899  11.267  15.205  1.00  0.00     0.000 C 
BRANCH  13  14
ATOM     14  C   UNL     1      37.933  10.385  13.948  1.00  0.00     0.000 C 
BRANCH  14  15
ATOM     15  C   UNL     1      38.666   9.050  14.170  1.00  0.00     0.000 C 
BRANCH  15  16
ATOM     16  C   UNL     1      39.624   8.636  13.032  1.00  0.00     0.006 C 
BRANCH  16  17
ATOM     17  C   UNL     1      39.338   9.310  11.682  1.00  0.00     0.053 C 
BRANCH  17  18
ATOM     18  C   UNL     1      40.439  10.243  11.278  1.00  0.00     0.041 C 
ATOM     19  O   UNL     1      40.201  11.207  10.504  1.00  0.00    -0.550 OA
ATOM     20  O   UNL     1      41.721  10.065  11.782  1.00  0.00    -0.550 OA
ENDBRANCH  17  18
ENDBRANCH  16  17
ENDBRANCH  15  16
ENDBRANCH  14  15
ENDBRANCH  13  14
ENDBRANCH  12  13
ENDBRANCH  11  12
ENDBRANCH   1  11
TORSDOF 15
ENDMDL
MODEL 7
REMARK VINA RESULT:    -3.182      2.866      4.826
REMARK INTER + INTRA:          -8.560
REMARK INTER:                  -6.295
REMARK INTRA:                  -2.265
REMARK UNBOUND:                -2.589
REMARK SMILES O=C([O-])CCCCCCCCCCCCCCC(=O)[O-]
REMARK SMILES IDX 10 1 9 2 8 3 7 4 6 5 5 6 4 7 2 8 1 9 3 10 11 11 12 12 13 13
REMARK SMILES IDX 14 14 15 15 16 16 17 17 18 18 19 19 20 20
REMARK H PARENT
REMARK Flexibility Score: inf
ROOT
ATOM      1  C   UNL     1      41.166  10.192  11.752  1.00  0.00     0.000 C 
ENDROOT
BRANCH   1   2
ATOM      2  C   UNL     1      40.863   8.684  11.629  1.00  0.00     0.000 C 
BRANCH   2   3
ATOM      3  C   UNL     1      39.367   8.344  11.744  1.00  0.00     0.000 C 
BRANCH   3   4
ATOM      4  C   UNL     1      38.967   7.882  13.155  1.00  0.00     0.000 C 
BRANCH   4   5
ATOM      5  C   UNL     1      38.023   8.873  13.855  1.00  0.00     0.000 C 
BRANCH   5   6
ATOM      6  C   UNL     1      38.252   8.937  15.373  1.00  0.00     0.006 C 
BRANCH   6   7
ATOM      7  C   UNL     1      39.365   9.932  15.717  1.00  0.00     0.053 C 
BRANCH   7   8
ATOM      8  C   UNL     1      39.696   9.867  17.174  1.00  0.00     0.041 C 
ATOM      9  O   UNL     1      40.364   8.903  17.630  1.00  0.00    -0.550 OA
ATOM     10  O   UNL     1      39.226  10.848  18.039  1.00  0.00    -0.550 OA
ENDBRANCH   7   8
ENDBRANCH   6   7
ENDBRANCH   5   6
ENDBRANCH   4   5
ENDBRANCH   3   4
ENDBRANCH   2   3
ENDBRANCH   1   2
BRANCH   1  11
ATOM     11  C   UNL     1      39.942  11.058  11.409  1.00  0.00     0.000 C 
BRANCH  11  12
ATOM     12  C   UNL     1      39.643  12.116  12.484  1.00  0.00     0.000 C 
BRANCH  12  13
ATOM     13  C   UNL     1      38.146  12.224  12.808  1.00  0.00     0.000 C 
BRANCH  13  14
ATOM     14  C   UNL     1      37.931  12.709  14.249  1.00  0.00     0.000 C 
BRANCH  14  15
ATOM     15  C   UNL     1      38.878  13.856  14.645  1.00  0.00     0.000 C 
BRANCH  15  16
ATOM     16  C   UNL     1      39.565  13.689  16.017  1.00  0.00     0.006 C 
BRANCH  16  17
ATOM     17  C   UNL     1      41.079  13.948  16.008  1.00  0.00     0.053 C 
BRANCH  17  18
ATOM     18  C   UNL     1      41.865  12.676  16.083  1.00  0.00     0.041 C 
ATOM     19  O   UNL     1      42.064  11.991  15.044  1.00  0.00    -0.550 OA
ATOM     20  O   UNL     1      42.405  12.261  17.293  1.00  0.00    -0.550 OA
ENDBRANCH  17  18
ENDBRANCH  16  17
ENDBRANCH  15  16
ENDBRANCH  14  15
ENDBRANCH  13  14
ENDBRANCH  12  13
ENDBRANCH  11  12
ENDBRANCH   1  11
TORSDOF 15
ENDMDL
MODEL 8
REMARK VINA RESULT:    -3.180      2.928      5.896
REMARK INTER + INTRA:          -8.558
REMARK INTER:                  -6.080
REMARK INTRA:                  -2.478
REMARK UNBOUND:                -2.589
REMARK SMILES O=C([O-])CCCCCCCCCCCCCCC(=O)[O-]
REMARK SMILES IDX 10 1 9 2 8 3 7 4 6 5 5 6 4 7 2 8 1 9 3 10 11 11 12 12 13 13
REMARK SMILES IDX 14 14 15 15 16 16 17 17 18 18 19 19 20 20
REMARK H PARENT
REMARK Flexibility Score: inf
ROOT
ATOM      1  C   UNL     1      40.856  11.965  13.135  1.00  0.00     0.000 C 
ENDROOT
BRANCH   1   2
ATOM      2  C   UNL     1      39.587  12.419  12.383  1.00  0.00     0.000 C 
BRANCH   2   3
ATOM      3  C   UNL     1      38.302  12.309  13.221  1.00  0.00     0.000 C 
BRANCH   3   4
ATOM      4  C   UNL     1      38.145  13.460  14.227  1.00  0.00     0.000 C 
BRANCH   4   5
ATOM      5  C   UNL     1      38.517  13.048  15.660  1.00  0.00     0.000 C 
BRANCH   5   6
ATOM      6  C   UNL     1      39.339  14.120  16.391  1.00  0.00     0.006 C 
BRANCH   6   7
ATOM      7  C   UNL     1      40.837  13.812  16.308  1.00  0.00     0.053 C 
BRANCH   7   8
ATOM      8  C   UNL     1      41.160  12.565  17.070  1.00  0.00     0.041 C 
ATOM      9  O   UNL     1      40.760  12.425  18.256  1.00  0.00    -0.550 OA
ATOM     10  O   UNL     1      41.941  11.576  16.486  1.00  0.00    -0.550 OA
ENDBRANCH   7   8
ENDBRANCH   6   7
ENDBRANCH   5   6
ENDBRANCH   4   5
ENDBRANCH   3   4
ENDBRANCH   2   3
ENDBRANCH   1   2
BRANCH   1  11
ATOM     11  C   UNL     1      41.597  10.839  12.392  1.00  0.00     0.000 C 
BRANCH  11  12
ATOM     12  C   UNL     1      40.740  10.187  11.295  1.00  0.00     0.000 C 
BRANCH  12  13
ATOM     13  C   UNL     1      40.306   8.759  11.653  1.00  0.00     0.000 C 
BRANCH  13  14
ATOM     14  C   UNL     1      38.811   8.711  11.999  1.00  0.00     0.000 C 
BRANCH  14  15
ATOM     15  C   UNL     1      38.523   7.987  13.326  1.00  0.00     0.000 C 
BRANCH  15  16
ATOM     16  C   UNL     1      38.103   8.906  14.492  1.00  0.00     0.006 C 
BRANCH  16  17
ATOM     17  C   UNL     1      39.273   9.494  15.295  1.00  0.00     0.053 C 
BRANCH  17  18
ATOM     18  C   UNL     1      38.997   9.493  16.767  1.00  0.00     0.041 C 
ATOM     19  O   UNL     1      37.881   9.881  17.204  1.00  0.00    -0.550 OA
ATOM     20  O   UNL     1      39.962   9.036  17.656  1.00  0.00    -0.550 OA
ENDBRANCH  17  18
ENDBRANCH  16  17
ENDBRANCH  15  16
ENDBRANCH  14  15
ENDBRANCH  13  14
ENDBRANCH  12  13
ENDBRANCH  11  12
ENDBRANCH   1  11
TORSDOF 15
ENDMDL
