MODEL 1
REMARK VINA RESULT:    -5.132      0.000      0.000
REMARK INTER + INTRA:          -7.875
REMARK INTER:                  -6.332
REMARK INTRA:                  -1.543
REMARK UNBOUND:                -1.543
REMARK SMILES CC(C)=CCC[C@H](C)c1ccc(C)cc1
REMARK SMILES IDX 6 1 7 2 8 3 9 4 13 5 12 6 11 7 14 8 10 9 15 10 5 11 4 12
REMARK SMILES IDX 2 13 1 14 3 15
REMARK H PARENT
REMARK Flexibility Score: inf
ROOT
ATOM      1  C   UNL     1     -37.936  12.160  -5.984  1.00  0.00     0.012 C 
ENDROOT
BRANCH   1   2
ATOM      2  C   UNL     1     -38.616  10.876  -5.453  1.00  0.00     0.016 C 
ATOM      3  C   UNL     1     -37.604   9.834  -4.955  1.00  0.00     0.013 C 
BRANCH   2   4
ATOM      4  C   UNL     1     -39.509  10.276  -6.524  1.00  0.00    -0.045 A 
ATOM      5  C   UNL     1     -42.021   8.609  -9.619  1.00  0.00     0.044 C 
ATOM      6  C   UNL     1     -41.170   9.181  -8.525  1.00  0.00    -0.051 A 
ATOM      7  C   UNL     1     -40.255   8.367  -7.842  1.00  0.00     0.004 A 
ATOM      8  C   UNL     1     -41.232  10.550  -8.222  1.00  0.00     0.004 A 
ATOM      9  C   UNL     1     -39.435   8.908  -6.848  1.00  0.00     0.004 A 
ATOM     10  C   UNL     1     -40.413  11.092  -7.228  1.00  0.00     0.004 A 
ENDBRANCH   2   4
ENDBRANCH   1   2
BRANCH   1  11
ATOM     11  C   UNL     1     -36.725  11.892  -6.900  1.00  0.00     0.028 C 
BRANCH  11  12
ATOM     12  C   UNL     1     -37.106  11.864  -8.362  1.00  0.00    -0.028 C 
ATOM     13  C   UNL     1     -36.923  10.804  -9.180  1.00  0.00    -0.080 C 
ATOM     14  C   UNL     1     -36.349   9.496  -8.683  1.00  0.00     0.039 C 
ATOM     15  C   UNL     1     -37.339  10.930 -10.623  1.00  0.00     0.039 C 
ENDBRANCH  11  12
ENDBRANCH   1  11
TORSDOF 4
ENDMDL
MODEL 2
REMARK VINA RESULT:    -4.941      1.898      5.307
REMARK INTER + INTRA:          -7.639
REMARK INTER:                  -6.916
REMARK INTRA:                  -0.723
REMARK UNBOUND:                -1.543
REMARK SMILES CC(C)=CCC[C@H](C)c1ccc(C)cc1
REMARK SMILES IDX 6 1 7 2 8 3 9 4 13 5 12 6 11 7 14 8 10 9 15 10 5 11 4 12
REMARK SMILES IDX 2 13 1 14 3 15
REMARK H PARENT
REMARK Flexibility Score: inf
ROOT
ATOM      1  C   UNL     1     -39.102  11.785  -6.450  1.00  0.00     0.012 C 
ENDROOT
BRANCH   1   2
ATOM      2  C   UNL     1     -37.683  12.049  -7.007  1.00  0.00     0.016 C 
ATOM      3  C   UNL     1     -37.534  11.615  -8.473  1.00  0.00     0.013 C 
BRANCH   2   4
ATOM      4  C   UNL     1     -36.644  11.358  -6.143  1.00  0.00    -0.045 A 
ATOM      5  C   UNL     1     -33.645   9.447  -3.690  1.00  0.00     0.044 C 
ATOM      6  C   UNL     1     -34.696  10.084  -4.550  1.00  0.00    -0.051 A 
ATOM      7  C   UNL     1     -35.952  10.398  -4.013  1.00  0.00     0.004 A 
ATOM      8  C   UNL     1     -34.408  10.433  -5.877  1.00  0.00     0.004 A 
ATOM      9  C   UNL     1     -36.920  11.026  -4.803  1.00  0.00     0.004 A 
ATOM     10  C   UNL     1     -35.374  11.060  -6.669  1.00  0.00     0.004 A 
ENDBRANCH   2   4
ENDBRANCH   1   2
BRANCH   1  11
ATOM     11  C   UNL     1     -39.762  10.506  -7.004  1.00  0.00     0.028 C 
BRANCH  11  12
ATOM     12  C   UNL     1     -41.059  10.795  -7.724  1.00  0.00    -0.028 C 
ATOM     13  C   UNL     1     -41.377  10.317  -8.948  1.00  0.00    -0.080 C 
ATOM     14  C   UNL     1     -40.462   9.385  -9.708  1.00  0.00     0.039 C 
ATOM     15  C   UNL     1     -42.704  10.705  -9.547  1.00  0.00     0.039 C 
ENDBRANCH  11  12
ENDBRANCH   1  11
TORSDOF 4
ENDMDL
MODEL 3
REMARK VINA RESULT:    -4.805      1.911      4.731
REMARK INTER + INTRA:          -7.472
REMARK INTER:                  -6.457
REMARK INTRA:                  -1.015
REMARK UNBOUND:                -1.543
REMARK SMILES CC(C)=CCC[C@H](C)c1ccc(C)cc1
REMARK SMILES IDX 6 1 7 2 8 3 9 4 13 5 12 6 11 7 14 8 10 9 15 10 5 11 4 12
REMARK SMILES IDX 2 13 1 14 3 15
REMARK H PARENT
REMARK Flexibility Score: inf
ROOT
ATOM      1  C   UNL     1     -39.560   9.902  -6.615  1.00  0.00     0.012 C 
ENDROOT
BRANCH   1   2
ATOM      2  C   UNL     1     -38.981  11.035  -5.735  1.00  0.00     0.016 C 
ATOM      3  C   UNL     1     -39.266  12.432  -6.307  1.00  0.00     0.013 C 
BRANCH   2   4
ATOM      4  C   UNL     1     -37.488  10.837  -5.541  1.00  0.00    -0.045 A 
ATOM      5  C   UNL     1     -33.251  10.205  -4.988  1.00  0.00     0.044 C 
ATOM      6  C   UNL     1     -34.719  10.451  -5.168  1.00  0.00    -0.051 A 
ATOM      7  C   UNL     1     -35.199  11.031  -6.351  1.00  0.00     0.004 A 
ATOM      8  C   UNL     1     -35.630  10.041  -4.184  1.00  0.00     0.004 A 
ATOM      9  C   UNL     1     -36.571  11.226  -6.535  1.00  0.00     0.004 A 
ATOM     10  C   UNL     1     -37.002  10.236  -4.367  1.00  0.00     0.004 A 
ENDBRANCH   2   4
ENDBRANCH   1   2
BRANCH   1  11
ATOM     11  C   UNL     1     -39.678  10.270  -8.108  1.00  0.00     0.028 C 
BRANCH  11  12
ATOM     12  C   UNL     1     -38.948   9.294  -9.000  1.00  0.00    -0.028 C 
ATOM     13  C   UNL     1     -38.030   9.645  -9.928  1.00  0.00    -0.080 C 
ATOM     14  C   UNL     1     -37.605  11.080 -10.133  1.00  0.00     0.039 C 
ATOM     15  C   UNL     1     -37.396   8.558 -10.757  1.00  0.00     0.039 C 
ENDBRANCH  11  12
ENDBRANCH   1  11
TORSDOF 4
ENDMDL
MODEL 4
REMARK VINA RESULT:    -4.741      1.684      5.257
REMARK INTER + INTRA:          -7.393
REMARK INTER:                  -6.477
REMARK INTRA:                  -0.916
REMARK UNBOUND:                -1.543
REMARK SMILES CC(C)=CCC[C@H](C)c1ccc(C)cc1
REMARK SMILES IDX 6 1 7 2 8 3 9 4 13 5 12 6 11 7 14 8 10 9 15 10 5 11 4 12
REMARK SMILES IDX 2 13 1 14 3 15
REMARK H PARENT
REMARK Flexibility Score: inf
ROOT
ATOM      1  C   UNL     1     -37.973   9.370  -9.215  1.00  0.00     0.012 C 
ENDROOT
BRANCH   1   2
ATOM      2  C   UNL     1     -37.798  10.791  -8.631  1.00  0.00     0.016 C 
ATOM      3  C   UNL     1     -37.104  11.751  -9.609  1.00  0.00     0.013 C 
BRANCH   2   4
ATOM      4  C   UNL     1     -37.034  10.729  -7.320  1.00  0.00    -0.045 A 
ATOM      5  C   UNL     1     -34.822  10.605  -3.612  1.00  0.00     0.044 C 
ATOM      6  C   UNL     1     -35.595  10.619  -4.897  1.00  0.00    -0.051 A 
ATOM      7  C   UNL     1     -36.973  10.875  -4.889  1.00  0.00     0.004 A 
ATOM      8  C   UNL     1     -34.934  10.446  -6.122  1.00  0.00     0.004 A 
ATOM      9  C   UNL     1     -37.688  10.925  -6.090  1.00  0.00     0.004 A 
ATOM     10  C   UNL     1     -35.647  10.495  -7.323  1.00  0.00     0.004 A 
ENDBRANCH   2   4
ENDBRANCH   1   2
BRANCH   1  11
ATOM     11  C   UNL     1     -39.300   8.691  -8.820  1.00  0.00     0.028 C 
BRANCH  11  12
ATOM     12  C   UNL     1     -40.482   9.262  -9.568  1.00  0.00    -0.028 C 
ATOM     13  C   UNL     1     -41.373  10.132  -9.041  1.00  0.00    -0.080 C 
ATOM     14  C   UNL     1     -41.238  10.663  -7.632  1.00  0.00     0.039 C 
ATOM     15  C   UNL     1     -42.513  10.604  -9.906  1.00  0.00     0.039 C 
ENDBRANCH  11  12
ENDBRANCH   1  11
TORSDOF 4
ENDMDL
MODEL 5
REMARK VINA RESULT:    -4.716      2.029      3.442
REMARK INTER + INTRA:          -7.362
REMARK INTER:                  -6.543
REMARK INTRA:                  -0.819
REMARK UNBOUND:                -1.543
REMARK SMILES CC(C)=CCC[C@H](C)c1ccc(C)cc1
REMARK SMILES IDX 6 1 7 2 8 3 9 4 13 5 12 6 11 7 14 8 10 9 15 10 5 11 4 12
REMARK SMILES IDX 2 13 1 14 3 15
REMARK H PARENT
REMARK Flexibility Score: inf
ROOT
ATOM      1  C   UNL     1     -37.782  11.026  -5.256  1.00  0.00     0.012 C 
ENDROOT
BRANCH   1   2
ATOM      2  C   UNL     1     -37.476  10.905  -6.767  1.00  0.00     0.016 C 
ATOM      3  C   UNL     1     -36.694  12.110  -7.311  1.00  0.00     0.013 C 
BRANCH   2   4
ATOM      4  C   UNL     1     -38.764  10.715  -7.548  1.00  0.00    -0.045 A 
ATOM      5  C   UNL     1     -42.414  10.107  -9.777  1.00  0.00     0.044 C 
ATOM      6  C   UNL     1     -41.147  10.347  -9.013  1.00  0.00    -0.051 A 
ATOM      7  C   UNL     1     -41.197  10.767  -7.676  1.00  0.00     0.004 A 
ATOM      8  C   UNL     1     -39.903  10.085  -9.605  1.00  0.00     0.004 A 
ATOM      9  C   UNL     1     -40.016  10.954  -6.951  1.00  0.00     0.004 A 
ATOM     10  C   UNL     1     -38.722  10.272  -8.882  1.00  0.00     0.004 A 
ENDBRANCH   2   4
ENDBRANCH   1   2
BRANCH   1  11
ATOM     11  C   UNL     1     -37.055   9.981  -4.385  1.00  0.00     0.028 C 
BRANCH  11  12
ATOM     12  C   UNL     1     -35.662  10.421  -4.001  1.00  0.00    -0.028 C 
ATOM     13  C   UNL     1     -34.528   9.943  -4.558  1.00  0.00    -0.080 C 
ATOM     14  C   UNL     1     -34.550   8.930  -5.679  1.00  0.00     0.039 C 
ATOM     15  C   UNL     1     -33.206  10.468  -4.058  1.00  0.00     0.039 C 
ENDBRANCH  11  12
ENDBRANCH   1  11
TORSDOF 4
ENDMDL
MODEL 6
REMARK VINA RESULT:    -4.704      1.338      2.337
REMARK INTER + INTRA:          -7.347
REMARK INTER:                  -5.782
REMARK INTRA:                  -1.565
REMARK UNBOUND:                -1.543
REMARK SMILES CC(C)=CCC[C@H](C)c1ccc(C)cc1
REMARK SMILES IDX 6 1 7 2 8 3 9 4 13 5 12 6 11 7 14 8 10 9 15 10 5 11 4 12
REMARK SMILES IDX 2 13 1 14 3 15
REMARK H PARENT
REMARK Flexibility Score: inf
ROOT
ATOM      1  C   UNL     1     -38.654   9.661  -5.949  1.00  0.00     0.012 C 
ENDROOT
BRANCH   1   2
ATOM      2  C   UNL     1     -39.813   8.675  -6.224  1.00  0.00     0.016 C 
ATOM      3  C   UNL     1     -39.321   7.246  -6.500  1.00  0.00     0.013 C 
BRANCH   2   4
ATOM      4  C   UNL     1     -40.661   9.174  -7.381  1.00  0.00    -0.045 A 
ATOM      5  C   UNL     1     -43.125  10.553 -10.650  1.00  0.00     0.044 C 
ATOM      6  C   UNL     1     -42.245  10.080  -9.532  1.00  0.00    -0.051 A 
ATOM      7  C   UNL     1     -41.803  10.979  -8.552  1.00  0.00     0.004 A 
ATOM      8  C   UNL     1     -41.915   8.721  -9.418  1.00  0.00     0.004 A 
ATOM      9  C   UNL     1     -41.015  10.532  -7.488  1.00  0.00     0.004 A 
ATOM     10  C   UNL     1     -41.126   8.273  -8.355  1.00  0.00     0.004 A 
ENDBRANCH   2   4
ENDBRANCH   1   2
BRANCH   1  11
ATOM     11  C   UNL     1     -37.428   9.454  -6.862  1.00  0.00     0.028 C 
BRANCH  11  12
ATOM     12  C   UNL     1     -37.409  10.417  -8.026  1.00  0.00    -0.028 C 
ATOM     13  C   UNL     1     -37.538  10.053  -9.322  1.00  0.00    -0.080 C 
ATOM     14  C   UNL     1     -37.764   8.616  -9.733  1.00  0.00     0.039 C 
ATOM     15  C   UNL     1     -37.483  11.127 -10.377  1.00  0.00     0.039 C 
ENDBRANCH  11  12
ENDBRANCH   1  11
TORSDOF 4
ENDMDL
MODEL 7
REMARK VINA RESULT:    -4.691      1.441      3.202
REMARK INTER + INTRA:          -7.330
REMARK INTER:                  -5.790
REMARK INTRA:                  -1.540
REMARK UNBOUND:                -1.543
REMARK SMILES CC(C)=CCC[C@H](C)c1ccc(C)cc1
REMARK SMILES IDX 6 1 7 2 8 3 9 4 13 5 12 6 11 7 14 8 10 9 15 10 5 11 4 12
REMARK SMILES IDX 2 13 1 14 3 15
REMARK H PARENT
REMARK Flexibility Score: inf
ROOT
ATOM      1  C   UNL     1     -37.480   8.286  -5.506  1.00  0.00     0.012 C 
ENDROOT
BRANCH   1   2
ATOM      2  C   UNL     1     -37.424   8.156  -7.046  1.00  0.00     0.016 C 
ATOM      3  C   UNL     1     -36.150   8.772  -7.646  1.00  0.00     0.013 C 
BRANCH   2   4
ATOM      4  C   UNL     1     -38.658   8.783  -7.670  1.00  0.00    -0.045 A 
ATOM      5  C   UNL     1     -42.179  10.605  -9.386  1.00  0.00     0.044 C 
ATOM      6  C   UNL     1     -40.962   9.948  -8.807  1.00  0.00    -0.051 A 
ATOM      7  C   UNL     1     -39.708  10.131  -9.407  1.00  0.00     0.004 A 
ATOM      8  C   UNL     1     -41.056   9.204  -7.622  1.00  0.00     0.004 A 
ATOM      9  C   UNL     1     -38.566   9.551  -8.846  1.00  0.00     0.004 A 
ATOM     10  C   UNL     1     -39.915   8.622  -7.061  1.00  0.00     0.004 A 
ENDBRANCH   2   4
ENDBRANCH   1   2
BRANCH   1  11
ATOM     11  C   UNL     1     -36.953   9.635  -4.974  1.00  0.00     0.028 C 
BRANCH  11  12
ATOM     12  C   UNL     1     -38.055  10.653  -4.796  1.00  0.00    -0.028 C 
ATOM     13  C   UNL     1     -38.175  11.785  -5.525  1.00  0.00    -0.080 C 
ATOM     14  C   UNL     1     -37.219  12.123  -6.645  1.00  0.00     0.039 C 
ATOM     15  C   UNL     1     -39.321  12.715  -5.222  1.00  0.00     0.039 C 
ENDBRANCH  11  12
ENDBRANCH   1  11
TORSDOF 4
ENDMDL
MODEL 8
REMARK VINA RESULT:    -4.670      2.105      4.983
REMARK INTER + INTRA:          -7.305
REMARK INTER:                  -6.487
REMARK INTRA:                  -0.818
REMARK UNBOUND:                -1.543
REMARK SMILES CC(C)=CCC[C@H](C)c1ccc(C)cc1
REMARK SMILES IDX 6 1 7 2 8 3 9 4 13 5 12 6 11 7 14 8 10 9 15 10 5 11 4 12
REMARK SMILES IDX 2 13 1 14 3 15
REMARK H PARENT
REMARK Flexibility Score: inf
ROOT
ATOM      1  C   UNL     1     -37.138  11.972  -8.509  1.00  0.00     0.012 C 
ENDROOT
BRANCH   1   2
ATOM      2  C   UNL     1     -37.774  11.299  -7.269  1.00  0.00     0.016 C 
ATOM      3  C   UNL     1     -38.861  12.167  -6.618  1.00  0.00     0.013 C 
BRANCH   2   4
ATOM      4  C   UNL     1     -36.699  10.950  -6.255  1.00  0.00    -0.045 A 
ATOM      5  C   UNL     1     -33.615  10.018  -3.378  1.00  0.00     0.044 C 
ATOM      6  C   UNL     1     -34.688  10.312  -4.383  1.00  0.00    -0.051 A 
ATOM      7  C   UNL     1     -36.034  10.335  -3.993  1.00  0.00     0.004 A 
ATOM      8  C   UNL     1     -34.349  10.635  -5.705  1.00  0.00     0.004 A 
ATOM      9  C   UNL     1     -37.032  10.647  -4.921  1.00  0.00     0.004 A 
ATOM     10  C   UNL     1     -35.345  10.947  -6.634  1.00  0.00     0.004 A 
ENDBRANCH   2   4
ENDBRANCH   1   2
BRANCH   1  11
ATOM     11  C   UNL     1     -37.454  11.256  -9.838  1.00  0.00     0.028 C 
BRANCH  11  12
ATOM     12  C   UNL     1     -38.592  10.272  -9.705  1.00  0.00    -0.028 C 
ATOM     13  C   UNL     1     -38.497   8.952  -9.982  1.00  0.00    -0.080 C 
ATOM     14  C   UNL     1     -37.198   8.314 -10.417  1.00  0.00     0.039 C 
ATOM     15  C   UNL     1     -39.726   8.095  -9.816  1.00  0.00     0.039 C 
ENDBRANCH  11  12
ENDBRANCH   1  11
TORSDOF 4
ENDMDL
MODEL 9
REMARK VINA RESULT:    -4.643      1.501      2.443
REMARK INTER + INTRA:          -7.272
REMARK INTER:                  -5.807
REMARK INTRA:                  -1.465
REMARK UNBOUND:                -1.543
REMARK SMILES CC(C)=CCC[C@H](C)c1ccc(C)cc1
REMARK SMILES IDX 6 1 7 2 8 3 9 4 13 5 12 6 11 7 14 8 10 9 15 10 5 11 4 12
REMARK SMILES IDX 2 13 1 14 3 15
REMARK H PARENT
REMARK Flexibility Score: inf
ROOT
ATOM      1  C   UNL     1     -36.405  11.876  -7.049  1.00  0.00     0.012 C 
ENDROOT
BRANCH   1   2
ATOM      2  C   UNL     1     -37.869  12.075  -6.589  1.00  0.00     0.016 C 
ATOM      3  C   UNL     1     -38.086  11.677  -5.121  1.00  0.00     0.013 C 
BRANCH   2   4
ATOM      4  C   UNL     1     -38.811  11.299  -7.492  1.00  0.00    -0.045 A 
ATOM      5  C   UNL     1     -41.447   9.038 -10.061  1.00  0.00     0.044 C 
ATOM      6  C   UNL     1     -40.543   9.848  -9.180  1.00  0.00    -0.051 A 
ATOM      7  C   UNL     1     -40.961  10.227  -7.897  1.00  0.00     0.004 A 
ATOM      8  C   UNL     1     -39.247  10.173  -9.606  1.00  0.00     0.004 A 
ATOM      9  C   UNL     1     -40.105  10.949  -7.060  1.00  0.00     0.004 A 
ATOM     10  C   UNL     1     -38.390  10.896  -8.771  1.00  0.00     0.004 A 
ENDBRANCH   2   4
ENDBRANCH   1   2
BRANCH   1  11
ATOM     11  C   UNL     1     -35.655  10.767  -6.284  1.00  0.00     0.028 C 
BRANCH  11  12
ATOM     12  C   UNL     1     -35.334   9.580  -7.161  1.00  0.00    -0.028 C 
ATOM     13  C   UNL     1     -36.041   8.428  -7.178  1.00  0.00    -0.080 C 
ATOM     14  C   UNL     1     -37.279   8.234  -6.332  1.00  0.00     0.039 C 
ATOM     15  C   UNL     1     -35.590   7.323  -8.097  1.00  0.00     0.039 C 
ENDBRANCH  11  12
ENDBRANCH   1  11
TORSDOF 4
ENDMDL
