MODEL 1
REMARK VINA RESULT:     4.451      0.000      0.000
REMARK INTER + INTRA:           6.937
REMARK INTER:                   5.882
REMARK INTRA:                   1.056
REMARK UNBOUND:                 1.056
REMARK SMILES CC[C@@H](C=C[C@H](C)[C@H]1CC[C@H]2[C@@H]3CC=C4C[C@H](O)CC[C@]4(C)[C@@H]3CC[C@]12C)C(C)C
REMARK SMILES IDX 6 1 7 2 5 3 4 4 3 5 2 6 1 7 28 8 29 9 30 10 8 11 9 12 26 13
REMARK SMILES IDX 10 14 11 15 25 16 27 17 12 18 24 19 23 20 13 21 21 22 14 23
REMARK SMILES IDX 15 24 20 25 22 26 16 27 19 28 17 29 18 30
REMARK H PARENT 18 31
REMARK Flexibility Score: inf
ROOT
ATOM      1  C   UNL     1      72.839  34.289  53.730  1.00  0.00     0.012 C 
ATOM      2  C   UNL     1      72.757  32.838  54.243  1.00  0.00     0.012 C 
ENDROOT
BRANCH   1   3
ATOM      3  C   UNL     1      73.276  35.165  54.890  1.00  0.00    -0.028 C 
ATOM      4  C   UNL     1      72.949  34.964  56.180  1.00  0.00    -0.027 C 
BRANCH   4   5
ATOM      5  C   UNL     1      72.030  33.867  56.694  1.00  0.00     0.014 C 
BRANCH   5   6
ATOM      6  C   UNL     1      70.721  34.500  57.233  1.00  0.00     0.004 C 
ATOM      7  C   UNL     1      69.602  34.608  56.191  1.00  0.00     0.004 C 
ENDBRANCH   5   6
BRANCH   5   8
ATOM      8  C   UNL     1      72.776  32.959  57.722  1.00  0.00    -0.011 C 
ATOM      9  C   UNL     1      74.083  32.381  57.148  1.00  0.00     0.008 C 
ATOM     10  C   UNL     1      73.101  33.743  59.006  1.00  0.00     0.008 C 
ENDBRANCH   5   8
ENDBRANCH   4   5
ENDBRANCH   1   3
BRANCH   1  11
ATOM     11  C   UNL     1      73.784  34.524  52.501  1.00  0.00     0.002 C 
ATOM     12  C   UNL     1      73.421  35.683  51.541  1.00  0.00     0.005 C 
ATOM     13  C   UNL     1      75.297  34.720  52.797  1.00  0.00    -0.026 C 
ATOM     14  C   UNL     1      74.740  36.125  50.883  1.00  0.00     0.005 C 
ATOM     15  C   UNL     1      75.785  35.137  51.399  1.00  0.00    -0.001 C 
ATOM     16  C   UNL     1      76.044  33.421  53.229  1.00  0.00     0.007 C 
ATOM     17  C   UNL     1      75.514  35.836  53.864  1.00  0.00     0.012 C 
ATOM     18  C   UNL     1      77.269  35.570  51.382  1.00  0.00     0.000 C 
ATOM     19  C   UNL     1      77.418  33.225  52.528  1.00  0.00     0.005 C 
ATOM     20  C   UNL     1      78.164  34.556  52.194  1.00  0.00     0.003 C 
ATOM     21  C   UNL     1      77.754  35.741  49.947  1.00  0.00     0.031 C 
ATOM     22  C   UNL     1      79.653  34.340  51.646  1.00  0.00    -0.008 C 
ATOM     23  C   UNL     1      79.198  36.115  49.933  1.00  0.00    -0.027 C 
ATOM     24  C   UNL     1      80.094  35.450  50.685  1.00  0.00    -0.065 C 
ATOM     25  C   UNL     1      79.836  33.010  50.847  1.00  0.00     0.014 C 
ATOM     26  C   UNL     1      80.590  34.319  52.889  1.00  0.00     0.016 C 
ATOM     27  C   UNL     1      81.520  35.405  50.185  1.00  0.00     0.063 C 
ATOM     28  C   UNL     1      81.250  32.839  50.235  1.00  0.00     0.033 C 
ATOM     29  C   UNL     1      81.754  34.073  49.440  1.00  0.00     0.118 C 
BRANCH  29  30
ATOM     30  O   UNL     1      81.192  34.109  48.151  1.00  0.00    -0.393 OA
ATOM     31  H   UNL     1      80.265  34.455  48.229  1.00  0.00     0.210 HD
ENDBRANCH  29  30
ENDBRANCH   1  11
TORSDOF 6
ENDMDL
MODEL 2
REMARK VINA RESULT:     6.557      1.368      2.593
REMARK INTER + INTRA:           9.722
REMARK INTER:                  10.342
REMARK INTRA:                  -0.620
REMARK UNBOUND:                 1.056
REMARK SMILES CC[C@@H](C=C[C@H](C)[C@H]1CC[C@H]2[C@@H]3CC=C4C[C@H](O)CC[C@]4(C)[C@@H]3CC[C@]12C)C(C)C
REMARK SMILES IDX 6 1 7 2 5 3 4 4 3 5 2 6 1 7 28 8 29 9 30 10 8 11 9 12 26 13
REMARK SMILES IDX 10 14 11 15 25 16 27 17 12 18 24 19 23 20 13 21 21 22 14 23
REMARK SMILES IDX 15 24 20 25 22 26 16 27 19 28 17 29 18 30
REMARK H PARENT 18 31
REMARK Flexibility Score: inf
ROOT
ATOM      1  C   UNL     1      72.832  35.064  53.931  1.00  0.00     0.012 C 
ATOM      2  C   UNL     1      71.540  34.227  53.858  1.00  0.00     0.012 C 
ENDROOT
BRANCH   1   3
ATOM      3  C   UNL     1      72.723  35.977  55.138  1.00  0.00    -0.028 C 
ATOM      4  C   UNL     1      72.476  35.572  56.398  1.00  0.00    -0.027 C 
BRANCH   4   5
ATOM      5  C   UNL     1      72.192  34.139  56.821  1.00  0.00     0.014 C 
BRANCH   5   6
ATOM      6  C   UNL     1      70.793  34.063  57.485  1.00  0.00     0.004 C 
ATOM      7  C   UNL     1      69.740  34.963  56.829  1.00  0.00     0.004 C 
ENDBRANCH   5   6
BRANCH   5   8
ATOM      8  C   UNL     1      73.354  33.585  57.705  1.00  0.00    -0.011 C 
ATOM      9  C   UNL     1      72.879  33.205  59.120  1.00  0.00     0.008 C 
ATOM     10  C   UNL     1      73.998  32.350  57.049  1.00  0.00     0.008 C 
ENDBRANCH   5   8
ENDBRANCH   4   5
ENDBRANCH   1   3
BRANCH   1  11
ATOM     11  C   UNL     1      74.169  34.248  54.000  1.00  0.00     0.002 C 
ATOM     12  C   UNL     1      74.055  32.706  54.068  1.00  0.00     0.005 C 
ATOM     13  C   UNL     1      75.221  34.515  52.888  1.00  0.00    -0.026 C 
ATOM     14  C   UNL     1      75.362  32.152  53.474  1.00  0.00     0.005 C 
ATOM     15  C   UNL     1      76.219  33.386  53.196  1.00  0.00    -0.001 C 
ATOM     16  C   UNL     1      75.954  35.887  53.007  1.00  0.00     0.007 C 
ATOM     17  C   UNL     1      74.581  34.378  51.474  1.00  0.00     0.012 C 
ATOM     18  C   UNL     1      77.343  33.270  52.141  1.00  0.00     0.000 C 
ATOM     19  C   UNL     1      77.491  35.798  52.793  1.00  0.00     0.005 C 
ATOM     20  C   UNL     1      77.935  34.688  51.787  1.00  0.00     0.003 C 
ATOM     21  C   UNL     1      78.421  32.303  52.621  1.00  0.00     0.031 C 
ATOM     22  C   UNL     1      79.496  34.729  51.431  1.00  0.00    -0.008 C 
ATOM     23  C   UNL     1      79.526  32.228  51.621  1.00  0.00    -0.027 C 
ATOM     24  C   UNL     1      80.059  33.344  51.092  1.00  0.00    -0.065 C 
ATOM     25  C   UNL     1      80.387  35.258  52.599  1.00  0.00     0.014 C 
ATOM     26  C   UNL     1      79.652  35.674  50.203  1.00  0.00     0.016 C 
ATOM     27  C   UNL     1      81.500  33.275  50.639  1.00  0.00     0.063 C 
ATOM     28  C   UNL     1      81.907  35.212  52.295  1.00  0.00     0.033 C 
ATOM     29  C   UNL     1      82.407  33.849  51.749  1.00  0.00     0.118 C 
BRANCH  29  30
ATOM     30  O   UNL     1      82.580  32.919  52.791  1.00  0.00    -0.393 OA
ATOM     31  H   UNL     1      81.796  32.311  52.794  1.00  0.00     0.210 HD
ENDBRANCH  29  30
ENDBRANCH   1  11
TORSDOF 6
ENDMDL
MODEL 3
REMARK VINA RESULT:     7.138      0.639      1.751
REMARK INTER + INTRA:          10.489
REMARK INTER:                   9.598
REMARK INTRA:                   0.890
REMARK UNBOUND:                 1.056
REMARK SMILES CC[C@@H](C=C[C@H](C)[C@H]1CC[C@H]2[C@@H]3CC=C4C[C@H](O)CC[C@]4(C)[C@@H]3CC[C@]12C)C(C)C
REMARK SMILES IDX 6 1 7 2 5 3 4 4 3 5 2 6 1 7 28 8 29 9 30 10 8 11 9 12 26 13
REMARK SMILES IDX 10 14 11 15 25 16 27 17 12 18 24 19 23 20 13 21 21 22 14 23
REMARK SMILES IDX 15 24 20 25 22 26 16 27 19 28 17 29 18 30
REMARK H PARENT 18 31
REMARK Flexibility Score: inf
ROOT
ATOM      1  C   UNL     1      72.888  34.057  53.893  1.00  0.00     0.012 C 
ATOM      2  C   UNL     1      71.411  33.771  53.558  1.00  0.00     0.012 C 
ENDROOT
BRANCH   1   3
ATOM      3  C   UNL     1      73.435  32.852  54.636  1.00  0.00    -0.028 C 
ATOM      4  C   UNL     1      73.473  32.717  55.975  1.00  0.00    -0.027 C 
BRANCH   4   5
ATOM      5  C   UNL     1      73.039  33.775  56.978  1.00  0.00     0.014 C 
BRANCH   5   6
ATOM      6  C   UNL     1      72.793  33.110  58.357  1.00  0.00     0.004 C 
ATOM      7  C   UNL     1      74.030  33.067  59.261  1.00  0.00     0.004 C 
ENDBRANCH   5   6
BRANCH   5   8
ATOM      8  C   UNL     1      71.824  34.588  56.430  1.00  0.00    -0.011 C 
ATOM      9  C   UNL     1      70.681  34.691  57.459  1.00  0.00     0.008 C 
ATOM     10  C   UNL     1      72.257  36.009  56.024  1.00  0.00     0.008 C 
ENDBRANCH   5   8
ENDBRANCH   4   5
ENDBRANCH   1   3
BRANCH   1  11
ATOM     11  C   UNL     1      73.811  34.393  52.671  1.00  0.00     0.002 C 
ATOM     12  C   UNL     1      73.451  35.646  51.835  1.00  0.00     0.005 C 
ATOM     13  C   UNL     1      75.334  34.531  52.950  1.00  0.00    -0.026 C 
ATOM     14  C   UNL     1      74.765  36.124  51.193  1.00  0.00     0.005 C 
ATOM     15  C   UNL     1      75.801  35.072  51.588  1.00  0.00    -0.001 C 
ATOM     16  C   UNL     1      76.063  33.183  53.238  1.00  0.00     0.007 C 
ATOM     17  C   UNL     1      75.596  35.535  54.113  1.00  0.00     0.012 C 
ATOM     18  C   UNL     1      77.292  35.478  51.578  1.00  0.00     0.000 C 
ATOM     19  C   UNL     1      77.417  33.031  52.489  1.00  0.00     0.005 C 
ATOM     20  C   UNL     1      78.183  34.374  52.267  1.00  0.00     0.003 C 
ATOM     21  C   UNL     1      77.750  35.778  50.155  1.00  0.00     0.031 C 
ATOM     22  C   UNL     1      79.655  34.185  51.667  1.00  0.00    -0.008 C 
ATOM     23  C   UNL     1      79.201  36.125  50.144  1.00  0.00    -0.027 C 
ATOM     24  C   UNL     1      80.099  35.374  50.807  1.00  0.00    -0.065 C 
ATOM     25  C   UNL     1      79.794  32.935  50.741  1.00  0.00     0.014 C 
ATOM     26  C   UNL     1      80.618  34.027  52.881  1.00  0.00     0.016 C 
ATOM     27  C   UNL     1      81.513  35.352  50.272  1.00  0.00     0.063 C 
ATOM     28  C   UNL     1      81.191  32.799  50.082  1.00  0.00     0.033 C 
ATOM     29  C   UNL     1      81.704  34.094  49.398  1.00  0.00     0.118 C 
BRANCH  29  30
ATOM     30  O   UNL     1      81.115  34.265  48.131  1.00  0.00    -0.393 OA
ATOM     31  H   UNL     1      80.200  33.883  48.163  1.00  0.00     0.210 HD
ENDBRANCH  29  30
ENDBRANCH   1  11
TORSDOF 6
ENDMDL
