MODEL 1
REMARK VINA RESULT:     3.630      0.000      0.000
REMARK INTER + INTRA:           6.058
REMARK INTER:                   6.601
REMARK INTRA:                  -0.543
REMARK UNBOUND:                -0.543
REMARK SMILES CCCCCC=CCC=CCCCCCCCC(=O)[O-]
REMARK SMILES IDX 11 1 12 2 13 3 14 4 15 5 16 6 17 7 18 8 19 9 20 10 10 11
REMARK SMILES IDX 9 12 8 13 7 14 6 15 5 16 4 17 3 18 2 19 1 20
REMARK H PARENT
REMARK Flexibility Score: inf
ROOT
ATOM      1  C   UNL     1      31.053  17.607   5.776  1.00  0.00     0.027 C 
ENDROOT
BRANCH   1   2
ATOM      2  C   UNL     1      29.791  17.166   6.532  1.00  0.00     0.004 C 
BRANCH   2   3
ATOM      3  C   UNL     1      30.020  15.870   7.338  1.00  0.00     0.000 C 
BRANCH   3   4
ATOM      4  C   UNL     1      29.957  16.073   8.862  1.00  0.00     0.000 C 
BRANCH   4   5
ATOM      5  C   UNL     1      28.686  16.811   9.313  1.00  0.00     0.000 C 
BRANCH   5   6
ATOM      6  C   UNL     1      27.544  15.852   9.697  1.00  0.00     0.006 C 
BRANCH   6   7
ATOM      7  C   UNL     1      27.529  14.535   8.904  1.00  0.00     0.053 C 
BRANCH   7   8
ATOM      8  C   UNL     1      26.144  13.983   8.757  1.00  0.00     0.041 C 
ATOM      9  O   UNL     1      25.161  14.604   9.238  1.00  0.00    -0.550 OA
ATOM     10  O   UNL     1      25.937  12.799   8.060  1.00  0.00    -0.550 OA
ENDBRANCH   7   8
ENDBRANCH   6   7
ENDBRANCH   5   6
ENDBRANCH   4   5
ENDBRANCH   3   4
ENDBRANCH   2   3
ENDBRANCH   1   2
BRANCH   1  11
ATOM     11  C   UNL     1      30.702  18.395   4.545  1.00  0.00    -0.031 C 
ATOM     12  C   UNL     1      29.461  18.377   4.032  1.00  0.00    -0.027 C 
BRANCH  12  13
ATOM     13  C   UNL     1      29.114  19.154   2.793  1.00  0.00     0.054 C 
BRANCH  13  14
ATOM     14  C   UNL     1      28.781  18.236   1.649  1.00  0.00    -0.027 C 
ATOM     15  C   UNL     1      28.094  18.686   0.590  1.00  0.00    -0.031 C 
BRANCH  15  16
ATOM     16  C   UNL     1      27.753  17.789  -0.570  1.00  0.00     0.027 C 
BRANCH  16  17
ATOM     17  C   UNL     1      28.872  16.784  -0.883  1.00  0.00     0.004 C 
BRANCH  17  18
ATOM     18  C   UNL     1      28.398  15.668  -1.831  1.00  0.00     0.000 C 
BRANCH  18  19
ATOM     19  C   UNL     1      29.549  15.062  -2.649  1.00  0.00    -0.003 C 
ATOM     20  C   UNL     1      30.924  15.372  -2.057  1.00  0.00     0.004 C 
ENDBRANCH  18  19
ENDBRANCH  17  18
ENDBRANCH  16  17
ENDBRANCH  15  16
ENDBRANCH  13  14
ENDBRANCH  12  13
ENDBRANCH   1  11
TORSDOF 14
ENDMDL
MODEL 2
REMARK VINA RESULT:     3.992      2.134      2.562
REMARK INTER + INTRA:           6.717
REMARK INTER:                   6.886
REMARK INTRA:                  -0.169
REMARK UNBOUND:                -0.543
REMARK SMILES CCCCCC=CCC=CCCCCCCCC(=O)[O-]
REMARK SMILES IDX 11 1 12 2 13 3 14 4 15 5 16 6 17 7 18 8 19 9 20 10 10 11
REMARK SMILES IDX 9 12 8 13 7 14 6 15 5 16 4 17 3 18 2 19 1 20
REMARK H PARENT
REMARK Flexibility Score: inf
ROOT
ATOM      1  C   UNL     1      31.135  17.585   5.912  1.00  0.00     0.027 C 
ENDROOT
BRANCH   1   2
ATOM      2  C   UNL     1      29.956  16.723   6.388  1.00  0.00     0.004 C 
BRANCH   2   3
ATOM      3  C   UNL     1      30.009  16.457   7.908  1.00  0.00     0.000 C 
BRANCH   3   4
ATOM      4  C   UNL     1      29.565  15.037   8.300  1.00  0.00     0.000 C 
BRANCH   4   5
ATOM      5  C   UNL     1      28.103  14.980   8.774  1.00  0.00     0.000 C 
BRANCH   5   6
ATOM      6  C   UNL     1      27.793  16.011   9.875  1.00  0.00     0.006 C 
BRANCH   6   7
ATOM      7  C   UNL     1      27.778  17.469   9.391  1.00  0.00     0.053 C 
BRANCH   7   8
ATOM      8  C   UNL     1      28.169  18.426  10.475  1.00  0.00     0.041 C 
ATOM      9  O   UNL     1      29.232  18.246  11.125  1.00  0.00    -0.550 OA
ATOM     10  O   UNL     1      27.376  19.534  10.746  1.00  0.00    -0.550 OA
ENDBRANCH   7   8
ENDBRANCH   6   7
ENDBRANCH   5   6
ENDBRANCH   4   5
ENDBRANCH   3   4
ENDBRANCH   2   3
ENDBRANCH   1   2
BRANCH   1  11
ATOM     11  C   UNL     1      30.737  18.456   4.752  1.00  0.00    -0.031 C 
ATOM     12  C   UNL     1      29.539  18.330   4.160  1.00  0.00    -0.027 C 
BRANCH  12  13
ATOM     13  C   UNL     1      29.147  19.191   2.992  1.00  0.00     0.054 C 
BRANCH  13  14
ATOM     14  C   UNL     1      28.869  18.358   1.771  1.00  0.00    -0.027 C 
ATOM     15  C   UNL     1      28.069  18.819   0.798  1.00  0.00    -0.031 C 
BRANCH  15  16
ATOM     16  C   UNL     1      27.779  18.007  -0.436  1.00  0.00     0.027 C 
BRANCH  16  17
ATOM     17  C   UNL     1      28.662  16.755  -0.536  1.00  0.00     0.004 C 
BRANCH  17  18
ATOM     18  C   UNL     1      28.229  15.833  -1.689  1.00  0.00     0.000 C 
BRANCH  18  19
ATOM     19  C   UNL     1      29.380  14.956  -2.206  1.00  0.00    -0.003 C 
ATOM     20  C   UNL     1      30.732  15.668  -2.165  1.00  0.00     0.004 C 
ENDBRANCH  18  19
ENDBRANCH  17  18
ENDBRANCH  16  17
ENDBRANCH  15  16
ENDBRANCH  13  14
ENDBRANCH  12  13
ENDBRANCH   1  11
TORSDOF 14
ENDMDL
MODEL 3
REMARK VINA RESULT:     4.097      3.977      9.515
REMARK INTER + INTRA:           6.907
REMARK INTER:                   7.541
REMARK INTRA:                  -0.634
REMARK UNBOUND:                -0.543
REMARK SMILES CCCCCC=CCC=CCCCCCCCC(=O)[O-]
REMARK SMILES IDX 11 1 12 2 13 3 14 4 15 5 16 6 17 7 18 8 19 9 20 10 10 11
REMARK SMILES IDX 9 12 8 13 7 14 6 15 5 16 4 17 3 18 2 19 1 20
REMARK H PARENT
REMARK Flexibility Score: inf
ROOT
ATOM      1  C   UNL     1      29.261  19.143   3.495  1.00  0.00     0.027 C 
ENDROOT
BRANCH   1   2
ATOM      2  C   UNL     1      28.772  18.109   2.470  1.00  0.00     0.004 C 
BRANCH   2   3
ATOM      3  C   UNL     1      29.040  18.559   1.018  1.00  0.00     0.000 C 
BRANCH   3   4
ATOM      4  C   UNL     1      27.759  18.770   0.193  1.00  0.00     0.000 C 
BRANCH   4   5
ATOM      5  C   UNL     1      27.543  17.674  -0.864  1.00  0.00     0.000 C 
BRANCH   5   6
ATOM      6  C   UNL     1      28.551  16.516  -0.736  1.00  0.00     0.006 C 
BRANCH   6   7
ATOM      7  C   UNL     1      28.628  15.605  -1.971  1.00  0.00     0.053 C 
BRANCH   7   8
ATOM      8  C   UNL     1      30.037  15.412  -2.441  1.00  0.00     0.041 C 
ATOM      9  O   UNL     1      30.979  15.345  -1.607  1.00  0.00    -0.550 OA
ATOM     10  O   UNL     1      30.307  15.274  -3.796  1.00  0.00    -0.550 OA
ENDBRANCH   7   8
ENDBRANCH   6   7
ENDBRANCH   5   6
ENDBRANCH   4   5
ENDBRANCH   3   4
ENDBRANCH   2   3
ENDBRANCH   1   2
BRANCH   1  11
ATOM     11  C   UNL     1      29.581  18.494   4.813  1.00  0.00    -0.031 C 
ATOM     12  C   UNL     1      30.784  17.947   5.050  1.00  0.00    -0.027 C 
BRANCH  12  13
ATOM     13  C   UNL     1      31.099  17.286   6.362  1.00  0.00     0.054 C 
BRANCH  13  14
ATOM     14  C   UNL     1      29.918  16.511   6.880  1.00  0.00    -0.027 C 
ATOM     15  C   UNL     1      29.917  16.021   8.127  1.00  0.00    -0.031 C 
BRANCH  15  16
ATOM     16  C   UNL     1      28.745  15.247   8.671  1.00  0.00     0.027 C 
BRANCH  16  17
ATOM     17  C   UNL     1      27.881  16.086   9.625  1.00  0.00     0.004 C 
BRANCH  17  18
ATOM     18  C   UNL     1      28.136  17.594   9.461  1.00  0.00     0.000 C 
BRANCH  18  19
ATOM     19  C   UNL     1      28.235  18.324  10.809  1.00  0.00    -0.003 C 
ATOM     20  C   UNL     1      27.436  19.627  10.837  1.00  0.00     0.004 C 
ENDBRANCH  18  19
ENDBRANCH  17  18
ENDBRANCH  16  17
ENDBRANCH  15  16
ENDBRANCH  13  14
ENDBRANCH  12  13
ENDBRANCH   1  11
TORSDOF 14
ENDMDL
MODEL 4
REMARK VINA RESULT:     4.304      3.914      9.298
REMARK INTER + INTRA:           7.284
REMARK INTER:                   7.896
REMARK INTRA:                  -0.612
REMARK UNBOUND:                -0.543
REMARK SMILES CCCCCC=CCC=CCCCCCCCC(=O)[O-]
REMARK SMILES IDX 11 1 12 2 13 3 14 4 15 5 16 6 17 7 18 8 19 9 20 10 10 11
REMARK SMILES IDX 9 12 8 13 7 14 6 15 5 16 4 17 3 18 2 19 1 20
REMARK H PARENT
REMARK Flexibility Score: inf
ROOT
ATOM      1  C   UNL     1      28.940  19.007   3.233  1.00  0.00     0.027 C 
ENDROOT
BRANCH   1   2
ATOM      2  C   UNL     1      28.547  18.037   2.108  1.00  0.00     0.004 C 
BRANCH   2   3
ATOM      3  C   UNL     1      28.817  18.631   0.709  1.00  0.00     0.000 C 
BRANCH   3   4
ATOM      4  C   UNL     1      27.573  18.668  -0.195  1.00  0.00     0.000 C 
BRANCH   4   5
ATOM      5  C   UNL     1      27.511  17.483  -1.173  1.00  0.00     0.000 C 
BRANCH   5   6
ATOM      6  C   UNL     1      28.612  16.438  -0.914  1.00  0.00     0.006 C 
BRANCH   6   7
ATOM      7  C   UNL     1      28.761  15.386  -2.024  1.00  0.00     0.053 C 
BRANCH   7   8
ATOM      8  C   UNL     1      30.154  15.340  -2.573  1.00  0.00     0.041 C 
ATOM      9  O   UNL     1      30.343  15.295  -3.817  1.00  0.00    -0.550 OA
ATOM     10  O   UNL     1      31.244  15.381  -1.712  1.00  0.00    -0.550 OA
ENDBRANCH   7   8
ENDBRANCH   6   7
ENDBRANCH   5   6
ENDBRANCH   4   5
ENDBRANCH   3   4
ENDBRANCH   2   3
ENDBRANCH   1   2
BRANCH   1  11
ATOM     11  C   UNL     1      29.457  18.265   4.434  1.00  0.00    -0.031 C 
ATOM     12  C   UNL     1      30.758  18.288   4.765  1.00  0.00    -0.027 C 
BRANCH  12  13
ATOM     13  C   UNL     1      31.277  17.535   5.958  1.00  0.00     0.054 C 
BRANCH  13  14
ATOM     14  C   UNL     1      30.150  17.068   6.839  1.00  0.00    -0.027 C 
ATOM     15  C   UNL     1      30.339  16.898   8.156  1.00  0.00    -0.031 C 
BRANCH  15  16
ATOM     16  C   UNL     1      29.228  16.438   9.060  1.00  0.00     0.027 C 
BRANCH  16  17
ATOM     17  C   UNL     1      28.750  15.016   8.726  1.00  0.00     0.004 C 
BRANCH  17  18
ATOM     18  C   UNL     1      27.607  14.558   9.647  1.00  0.00     0.000 C 
BRANCH  18  19
ATOM     19  C   UNL     1      26.250  14.521   8.929  1.00  0.00    -0.003 C 
ATOM     20  C   UNL     1      25.945  13.157   8.309  1.00  0.00     0.004 C 
ENDBRANCH  18  19
ENDBRANCH  17  18
ENDBRANCH  16  17
ENDBRANCH  15  16
ENDBRANCH  13  14
ENDBRANCH  12  13
ENDBRANCH   1  11
TORSDOF 14
ENDMDL
MODEL 5
REMARK VINA RESULT:     5.019      3.856      9.135
REMARK INTER + INTRA:           8.584
REMARK INTER:                   9.316
REMARK INTRA:                  -0.732
REMARK UNBOUND:                -0.543
REMARK SMILES CCCCCC=CCC=CCCCCCCCC(=O)[O-]
REMARK SMILES IDX 11 1 12 2 13 3 14 4 15 5 16 6 17 7 18 8 19 9 20 10 10 11
REMARK SMILES IDX 9 12 8 13 7 14 6 15 5 16 4 17 3 18 2 19 1 20
REMARK H PARENT
REMARK Flexibility Score: inf
ROOT
ATOM      1  C   UNL     1      30.145  18.825   3.977  1.00  0.00     0.027 C 
ENDROOT
BRANCH   1   2
ATOM      2  C   UNL     1      28.934  18.107   3.363  1.00  0.00     0.004 C 
BRANCH   2   3
ATOM      3  C   UNL     1      28.354  18.875   2.156  1.00  0.00     0.000 C 
BRANCH   3   4
ATOM      4  C   UNL     1      28.869  18.369   0.798  1.00  0.00     0.000 C 
BRANCH   4   5
ATOM      5  C   UNL     1      27.740  18.137  -0.220  1.00  0.00     0.000 C 
BRANCH   5   6
ATOM      6  C   UNL     1      28.002  16.927  -1.135  1.00  0.00     0.006 C 
BRANCH   6   7
ATOM      7  C   UNL     1      29.451  16.416  -1.111  1.00  0.00     0.053 C 
BRANCH   7   8
ATOM      8  C   UNL     1      29.702  15.384  -2.168  1.00  0.00     0.041 C 
ATOM      9  O   UNL     1      28.734  14.822  -2.746  1.00  0.00    -0.550 OA
ATOM     10  O   UNL     1      31.002  15.068  -2.538  1.00  0.00    -0.550 OA
ENDBRANCH   7   8
ENDBRANCH   6   7
ENDBRANCH   5   6
ENDBRANCH   4   5
ENDBRANCH   3   4
ENDBRANCH   2   3
ENDBRANCH   1   2
BRANCH   1  11
ATOM     11  C   UNL     1      30.741  18.022   5.100  1.00  0.00    -0.031 C 
ATOM     12  C   UNL     1      29.976  17.510   6.077  1.00  0.00    -0.027 C 
BRANCH  12  13
ATOM     13  C   UNL     1      30.574  16.719   7.207  1.00  0.00     0.054 C 
BRANCH  13  14
ATOM     14  C   UNL     1      29.504  16.094   8.060  1.00  0.00    -0.027 C 
ATOM     15  C   UNL     1      28.962  16.773   9.081  1.00  0.00    -0.031 C 
BRANCH  15  16
ATOM     16  C   UNL     1      27.887  16.172   9.947  1.00  0.00     0.027 C 
BRANCH  16  17
ATOM     17  C   UNL     1      27.624  14.695   9.615  1.00  0.00     0.004 C 
BRANCH  17  18
ATOM     18  C   UNL     1      26.253  14.487   8.948  1.00  0.00     0.000 C 
BRANCH  18  19
ATOM     19  C   UNL     1      26.155  13.144   8.210  1.00  0.00    -0.003 C 
ATOM     20  C   UNL     1      24.712  12.671   8.031  1.00  0.00     0.004 C 
ENDBRANCH  18  19
ENDBRANCH  17  18
ENDBRANCH  16  17
ENDBRANCH  15  16
ENDBRANCH  13  14
ENDBRANCH  12  13
ENDBRANCH   1  11
TORSDOF 14
ENDMDL
MODEL 6
REMARK VINA RESULT:     5.435      2.165      2.480
REMARK INTER + INTRA:           9.341
REMARK INTER:                  10.013
REMARK INTRA:                  -0.672
REMARK UNBOUND:                -0.543
REMARK SMILES CCCCCC=CCC=CCCCCCCCC(=O)[O-]
REMARK SMILES IDX 11 1 12 2 13 3 14 4 15 5 16 6 17 7 18 8 19 9 20 10 10 11
REMARK SMILES IDX 9 12 8 13 7 14 6 15 5 16 4 17 3 18 2 19 1 20
REMARK H PARENT
REMARK Flexibility Score: inf
ROOT
ATOM      1  C   UNL     1      31.188  18.379   5.482  1.00  0.00     0.027 C 
ENDROOT
BRANCH   1   2
ATOM      2  C   UNL     1      30.822  16.913   5.760  1.00  0.00     0.004 C 
BRANCH   2   3
ATOM      3  C   UNL     1      30.332  16.701   7.208  1.00  0.00     0.000 C 
BRANCH   3   4
ATOM      4  C   UNL     1      29.327  15.546   7.355  1.00  0.00     0.000 C 
BRANCH   4   5
ATOM      5  C   UNL     1      29.168  15.076   8.810  1.00  0.00     0.000 C 
BRANCH   5   6
ATOM      6  C   UNL     1      27.959  15.718   9.515  1.00  0.00     0.006 C 
BRANCH   6   7
ATOM      7  C   UNL     1      27.790  17.221   9.239  1.00  0.00     0.053 C 
BRANCH   7   8
ATOM      8  C   UNL     1      28.426  18.063  10.302  1.00  0.00     0.041 C 
ATOM      9  O   UNL     1      27.780  19.004  10.835  1.00  0.00    -0.550 OA
ATOM     10  O   UNL     1      29.719  17.788  10.729  1.00  0.00    -0.550 OA
ENDBRANCH   7   8
ENDBRANCH   6   7
ENDBRANCH   5   6
ENDBRANCH   4   5
ENDBRANCH   3   4
ENDBRANCH   2   3
ENDBRANCH   1   2
BRANCH   1  11
ATOM     11  C   UNL     1      30.304  18.967   4.417  1.00  0.00    -0.031 C 
ATOM     12  C   UNL     1      29.323  18.250   3.846  1.00  0.00    -0.027 C 
BRANCH  12  13
ATOM     13  C   UNL     1      28.449  18.834   2.772  1.00  0.00     0.054 C 
BRANCH  13  14
ATOM     14  C   UNL     1      28.904  18.402   1.405  1.00  0.00    -0.027 C 
ATOM     15  C   UNL     1      28.011  18.080   0.458  1.00  0.00    -0.031 C 
BRANCH  15  16
ATOM     16  C   UNL     1      28.440  17.650  -0.919  1.00  0.00     0.027 C 
BRANCH  16  17
ATOM     17  C   UNL     1      27.998  16.217  -1.251  1.00  0.00     0.004 C 
BRANCH  17  18
ATOM     18  C   UNL     1      28.957  15.529  -2.237  1.00  0.00     0.000 C 
BRANCH  18  19
ATOM     19  C   UNL     1      30.347  15.281  -1.631  1.00  0.00    -0.003 C 
ATOM     20  C   UNL     1      31.417  15.018  -2.691  1.00  0.00     0.004 C 
ENDBRANCH  18  19
ENDBRANCH  17  18
ENDBRANCH  16  17
ENDBRANCH  15  16
ENDBRANCH  13  14
ENDBRANCH  12  13
ENDBRANCH   1  11
TORSDOF 14
ENDMDL
MODEL 7
REMARK VINA RESULT:     5.820      4.275      9.504
REMARK INTER + INTRA:          10.041
REMARK INTER:                  10.621
REMARK INTRA:                  -0.580
REMARK UNBOUND:                -0.543
REMARK SMILES CCCCCC=CCC=CCCCCCCCC(=O)[O-]
REMARK SMILES IDX 11 1 12 2 13 3 14 4 15 5 16 6 17 7 18 8 19 9 20 10 10 11
REMARK SMILES IDX 9 12 8 13 7 14 6 15 5 16 4 17 3 18 2 19 1 20
REMARK H PARENT
REMARK Flexibility Score: inf
ROOT
ATOM      1  C   UNL     1      29.218  16.750   9.226  1.00  0.00     0.027 C 
ENDROOT
BRANCH   1   2
ATOM      2  C   UNL     1      30.328  17.196   8.263  1.00  0.00     0.004 C 
BRANCH   2   3
ATOM      3  C   UNL     1      30.134  16.618   6.846  1.00  0.00     0.000 C 
BRANCH   3   4
ATOM      4  C   UNL     1      30.639  17.545   5.727  1.00  0.00     0.000 C 
BRANCH   4   5
ATOM      5  C   UNL     1      29.521  18.401   5.111  1.00  0.00     0.000 C 
BRANCH   5   6
ATOM      6  C   UNL     1      29.729  18.660   3.607  1.00  0.00     0.006 C 
BRANCH   6   7
ATOM      7  C   UNL     1      28.572  18.181   2.716  1.00  0.00     0.053 C 
BRANCH   7   8
ATOM      8  C   UNL     1      28.809  18.491   1.270  1.00  0.00     0.041 C 
ATOM      9  O   UNL     1      29.625  19.393   0.942  1.00  0.00    -0.550 OA
ATOM     10  O   UNL     1      28.155  17.764   0.284  1.00  0.00    -0.550 OA
ENDBRANCH   7   8
ENDBRANCH   6   7
ENDBRANCH   5   6
ENDBRANCH   4   5
ENDBRANCH   3   4
ENDBRANCH   2   3
ENDBRANCH   1   2
BRANCH   1  11
ATOM     11  C   UNL     1      28.756  15.354   8.914  1.00  0.00    -0.031 C 
ATOM     12  C   UNL     1      27.456  15.019   8.958  1.00  0.00    -0.027 C 
BRANCH  12  13
ATOM     13  C   UNL     1      26.997  13.620   8.660  1.00  0.00     0.054 C 
BRANCH  13  14
ATOM     14  C   UNL     1      25.498  13.513   8.726  1.00  0.00    -0.027 C 
ATOM     15  C   UNL     1      24.864  12.459   8.192  1.00  0.00    -0.031 C 
BRANCH  15  16
ATOM     16  C   UNL     1      23.366  12.325   8.251  1.00  0.00     0.027 C 
BRANCH  16  17
ATOM     17  C   UNL     1      22.882  11.728   9.581  1.00  0.00     0.004 C 
BRANCH  17  18
ATOM     18  C   UNL     1      21.737  10.720   9.379  1.00  0.00     0.000 C 
BRANCH  18  19
ATOM     19  C   UNL     1      21.737   9.608  10.440  1.00  0.00    -0.003 C 
ATOM     20  C   UNL     1      21.597   8.212   9.835  1.00  0.00     0.004 C 
ENDBRANCH  18  19
ENDBRANCH  17  18
ENDBRANCH  16  17
ENDBRANCH  15  16
ENDBRANCH  13  14
ENDBRANCH  12  13
ENDBRANCH   1  11
TORSDOF 14
ENDMDL
MODEL 8
REMARK VINA RESULT:     5.871      4.054      9.439
REMARK INTER + INTRA:          10.134
REMARK INTER:                  10.623
REMARK INTRA:                  -0.489
REMARK UNBOUND:                -0.543
REMARK SMILES CCCCCC=CCC=CCCCCCCCC(=O)[O-]
REMARK SMILES IDX 11 1 12 2 13 3 14 4 15 5 16 6 17 7 18 8 19 9 20 10 10 11
REMARK SMILES IDX 9 12 8 13 7 14 6 15 5 16 4 17 3 18 2 19 1 20
REMARK H PARENT
REMARK Flexibility Score: inf
ROOT
ATOM      1  C   UNL     1      30.357  16.809   7.517  1.00  0.00     0.027 C 
ENDROOT
BRANCH   1   2
ATOM      2  C   UNL     1      29.844  16.815   6.069  1.00  0.00     0.004 C 
BRANCH   2   3
ATOM      3  C   UNL     1      30.604  17.830   5.189  1.00  0.00     0.000 C 
BRANCH   3   4
ATOM      4  C   UNL     1      29.680  18.749   4.371  1.00  0.00     0.000 C 
BRANCH   4   5
ATOM      5  C   UNL     1      28.921  17.999   3.264  1.00  0.00     0.000 C 
BRANCH   5   6
ATOM      6  C   UNL     1      28.591  18.896   2.056  1.00  0.00     0.006 C 
BRANCH   6   7
ATOM      7  C   UNL     1      29.240  18.447   0.737  1.00  0.00     0.053 C 
BRANCH   7   8
ATOM      8  C   UNL     1      28.251  17.806  -0.188  1.00  0.00     0.041 C 
ATOM      9  O   UNL     1      27.205  18.423  -0.521  1.00  0.00    -0.550 OA
ATOM     10  O   UNL     1      28.500  16.543  -0.708  1.00  0.00    -0.550 OA
ENDBRANCH   7   8
ENDBRANCH   6   7
ENDBRANCH   5   6
ENDBRANCH   4   5
ENDBRANCH   3   4
ENDBRANCH   2   3
ENDBRANCH   1   2
BRANCH   1  11
ATOM     11  C   UNL     1      29.249  16.501   8.486  1.00  0.00    -0.031 C 
ATOM     12  C   UNL     1      28.572  15.343   8.430  1.00  0.00    -0.027 C 
BRANCH  12  13
ATOM     13  C   UNL     1      27.455  15.041   9.389  1.00  0.00     0.054 C 
BRANCH  13  14
ATOM     14  C   UNL     1      26.637  13.869   8.921  1.00  0.00    -0.027 C 
ATOM     15  C   UNL     1      25.299  13.941   8.884  1.00  0.00    -0.031 C 
BRANCH  15  16
ATOM     16  C   UNL     1      24.457  12.785   8.415  1.00  0.00     0.027 C 
BRANCH  16  17
ATOM     17  C   UNL     1      23.367  12.404   9.428  1.00  0.00     0.004 C 
BRANCH  17  18
ATOM     18  C   UNL     1      22.500  11.234   8.931  1.00  0.00     0.000 C 
BRANCH  18  19
ATOM     19  C   UNL     1      21.934  10.389  10.083  1.00  0.00    -0.003 C 
ATOM     20  C   UNL     1      21.682   8.935   9.683  1.00  0.00     0.004 C 
ENDBRANCH  18  19
ENDBRANCH  17  18
ENDBRANCH  16  17
ENDBRANCH  15  16
ENDBRANCH  13  14
ENDBRANCH  12  13
ENDBRANCH   1  11
TORSDOF 14
ENDMDL
