MODEL 1
REMARK VINA RESULT:    -3.450      0.000      0.000
REMARK INTER + INTRA:          -3.551
REMARK INTER:                  -3.551
REMARK INTRA:                   0.000
REMARK UNBOUND:                 0.000
REMARK SMILES CC1(C)[C@@H]2CC[C@@](C)(C2)[C@H]1O
REMARK SMILES IDX 1 1 2 2 4 3 5 4 6 5 7 6 9 7 10 8 8 9 3 10 11 11
REMARK H PARENT 11 12
REMARK Flexibility Score: inf
ROOT
ATOM      1  C   UNL     1     163.012 173.792 167.505  1.00  0.00     0.014 C 
ATOM      2  C   UNL     1     162.306 173.488 168.853  1.00  0.00    -0.006 C 
ATOM      3  C   UNL     1     161.814 172.000 168.869  1.00  0.00    -0.002 C 
ATOM      4  C   UNL     1     160.861 171.736 170.055  1.00  0.00     0.005 C 
ATOM      5  C   UNL     1     161.792 171.857 171.271  1.00  0.00     0.010 C 
ATOM      6  C   UNL     1     163.181 172.061 170.621  1.00  0.00    -0.006 C 
ATOM      7  C   UNL     1     163.045 171.253 169.349  1.00  0.00     0.013 C 
ATOM      8  C   UNL     1     163.275 173.517 170.084  1.00  0.00     0.126 C 
ATOM      9  C   UNL     1     164.340 171.621 171.525  1.00  0.00     0.014 C 
ATOM     10  C   UNL     1     161.162 174.519 169.015  1.00  0.00     0.014 C 
ENDROOT
BRANCH   8  11
ATOM     11  O   UNL     1     164.593 173.831 169.698  1.00  0.00    -0.392 OA
ATOM     12  H   UNL     1     164.538 174.273 168.810  1.00  0.00     0.211 HD
ENDBRANCH   8  11
TORSDOF 1
ENDMDL
MODEL 2
REMARK VINA RESULT:    -3.417     14.111     15.633
REMARK INTER + INTRA:          -3.517
REMARK INTER:                  -3.517
REMARK INTRA:                   0.000
REMARK UNBOUND:                 0.000
REMARK SMILES CC1(C)[C@@H]2CC[C@@](C)(C2)[C@H]1O
REMARK SMILES IDX 1 1 2 2 4 3 5 4 6 5 7 6 9 7 10 8 8 9 3 10 11 11
REMARK H PARENT 11 12
REMARK Flexibility Score: inf
ROOT
ATOM      1  C   UNL     1     168.443 157.384 167.657  1.00  0.00     0.014 C 
ATOM      2  C   UNL     1     169.029 157.763 169.042  1.00  0.00    -0.006 C 
ATOM      3  C   UNL     1     169.489 159.261 169.031  1.00  0.00    -0.002 C 
ATOM      4  C   UNL     1     170.336 159.598 170.276  1.00  0.00     0.005 C 
ATOM      5  C   UNL     1     169.312 159.508 171.418  1.00  0.00     0.010 C 
ATOM      6  C   UNL     1     167.985 159.244 170.668  1.00  0.00    -0.006 C 
ATOM      7  C   UNL     1     168.207 159.998 169.376  1.00  0.00     0.013 C 
ATOM      8  C   UNL     1     167.964 157.763 170.191  1.00  0.00     0.126 C 
ATOM      9  C   UNL     1     166.747 159.694 171.454  1.00  0.00     0.014 C 
ATOM     10  C   UNL     1     170.177 156.766 169.342  1.00  0.00     0.014 C 
ENDROOT
BRANCH   8  11
ATOM     11  O   UNL     1     166.688 157.402 169.715  1.00  0.00    -0.392 OA
ATOM     12  H   UNL     1     166.084 158.170 169.893  1.00  0.00     0.211 HD
ENDBRANCH   8  11
TORSDOF 1
ENDMDL
MODEL 3
REMARK VINA RESULT:    -3.354     14.825     16.001
REMARK INTER + INTRA:          -3.452
REMARK INTER:                  -3.452
REMARK INTRA:                   0.000
REMARK UNBOUND:                 0.000
REMARK SMILES CC1(C)[C@@H]2CC[C@@](C)(C2)[C@H]1O
REMARK SMILES IDX 1 1 2 2 4 3 5 4 6 5 7 6 9 7 10 8 8 9 3 10 11 11
REMARK H PARENT 11 12
REMARK Flexibility Score: inf
ROOT
ATOM      1  C   UNL     1     171.486 159.640 169.548  1.00  0.00     0.014 C 
ATOM      2  C   UNL     1     170.310 158.744 170.021  1.00  0.00    -0.006 C 
ATOM      3  C   UNL     1     168.992 159.589 170.081  1.00  0.00    -0.002 C 
ATOM      4  C   UNL     1     167.869 158.826 170.816  1.00  0.00     0.005 C 
ATOM      5  C   UNL     1     167.555 157.672 169.852  1.00  0.00     0.010 C 
ATOM      6  C   UNL     1     168.458 157.986 168.636  1.00  0.00    -0.006 C 
ATOM      7  C   UNL     1     168.482 159.499 168.654  1.00  0.00     0.013 C 
ATOM      8  C   UNL     1     169.928 157.624 168.994  1.00  0.00     0.126 C 
ATOM      9  C   UNL     1     167.938 157.381 167.325  1.00  0.00     0.014 C 
ATOM     10  C   UNL     1     170.718 158.137 171.387  1.00  0.00     0.014 C 
ENDROOT
BRANCH   8  11
ATOM     11  O   UNL     1     170.752 157.665 167.853  1.00  0.00    -0.392 OA
ATOM     12  H   UNL     1     170.887 158.622 167.626  1.00  0.00     0.211 HD
ENDBRANCH   8  11
TORSDOF 1
ENDMDL
MODEL 4
REMARK VINA RESULT:    -3.344      1.650      3.109
REMARK INTER + INTRA:          -3.442
REMARK INTER:                  -3.442
REMARK INTRA:                   0.000
REMARK UNBOUND:                 0.000
REMARK SMILES CC1(C)[C@@H]2CC[C@@](C)(C2)[C@H]1O
REMARK SMILES IDX 1 1 2 2 4 3 5 4 6 5 7 6 9 7 10 8 8 9 3 10 11 11
REMARK H PARENT 11 12
REMARK Flexibility Score: inf
ROOT
ATOM      1  C   UNL     1     159.690 171.519 169.570  1.00  0.00     0.014 C 
ATOM      2  C   UNL     1     160.864 172.417 170.043  1.00  0.00    -0.006 C 
ATOM      3  C   UNL     1     162.186 171.578 170.089  1.00  0.00    -0.002 C 
ATOM      4  C   UNL     1     163.310 172.340 170.824  1.00  0.00     0.005 C 
ATOM      5  C   UNL     1     163.614 173.503 169.866  1.00  0.00     0.010 C 
ATOM      6  C   UNL     1     162.706 173.193 168.652  1.00  0.00    -0.006 C 
ATOM      7  C   UNL     1     162.689 171.680 168.660  1.00  0.00     0.013 C 
ATOM      8  C   UNL     1     161.236 173.545 169.021  1.00  0.00     0.126 C 
ATOM      9  C   UNL     1     163.216 173.809 167.343  1.00  0.00     0.014 C 
ATOM     10  C   UNL     1     160.461 173.013 171.415  1.00  0.00     0.014 C 
ENDROOT
BRANCH   8  11
ATOM     11  O   UNL     1     160.406 173.509 167.884  1.00  0.00    -0.392 OA
ATOM     12  H   UNL     1     159.770 174.267 167.964  1.00  0.00     0.211 HD
ENDBRANCH   8  11
TORSDOF 1
ENDMDL
MODEL 5
REMARK VINA RESULT:    -3.213      1.775      2.843
REMARK INTER + INTRA:          -3.307
REMARK INTER:                  -3.307
REMARK INTRA:                   0.000
REMARK UNBOUND:                 0.000
REMARK SMILES CC1(C)[C@@H]2CC[C@@](C)(C2)[C@H]1O
REMARK SMILES IDX 1 1 2 2 4 3 5 4 6 5 7 6 9 7 10 8 8 9 3 10 11 11
REMARK H PARENT 11 12
REMARK Flexibility Score: inf
ROOT
ATOM      1  C   UNL     1     162.242 174.166 167.943  1.00  0.00     0.014 C 
ATOM      2  C   UNL     1     162.601 172.783 168.546  1.00  0.00    -0.006 C 
ATOM      3  C   UNL     1     163.240 172.974 169.965  1.00  0.00    -0.002 C 
ATOM      4  C   UNL     1     163.873 171.663 170.476  1.00  0.00     0.005 C 
ATOM      5  C   UNL     1     162.650 170.764 170.713  1.00  0.00     0.010 C 
ATOM      6  C   UNL     1     161.465 171.713 170.415  1.00  0.00    -0.006 C 
ATOM      7  C   UNL     1     162.020 173.047 170.865  1.00  0.00     0.013 C 
ATOM      8  C   UNL     1     161.347 171.902 168.876  1.00  0.00     0.126 C 
ATOM      9  C   UNL     1     160.168 171.300 171.124  1.00  0.00     0.014 C 
ATOM     10  C   UNL     1     163.536 172.071 167.538  1.00  0.00     0.014 C 
ENDROOT
BRANCH   8  11
ATOM     11  O   UNL     1     160.149 172.561 168.537  1.00  0.00    -0.392 OA
ATOM     12  H   UNL     1     160.332 173.096 167.721  1.00  0.00     0.211 HD
ENDBRANCH   8  11
TORSDOF 1
ENDMDL
MODEL 6
REMARK VINA RESULT:    -3.185     14.023     15.363
REMARK INTER + INTRA:          -3.278
REMARK INTER:                  -3.278
REMARK INTRA:                   0.000
REMARK UNBOUND:                 0.000
REMARK SMILES CC1(C)[C@@H]2CC[C@@](C)(C2)[C@H]1O
REMARK SMILES IDX 1 1 2 2 4 3 5 4 6 5 7 6 9 7 10 8 8 9 3 10 11 11
REMARK H PARENT 11 12
REMARK Flexibility Score: inf
ROOT
ATOM      1  C   UNL     1     169.094 156.917 167.973  1.00  0.00     0.014 C 
ATOM      2  C   UNL     1     168.646 158.296 168.524  1.00  0.00    -0.006 C 
ATOM      3  C   UNL     1     167.992 158.115 169.937  1.00  0.00    -0.002 C 
ATOM      4  C   UNL     1     167.276 159.404 170.394  1.00  0.00     0.005 C 
ATOM      5  C   UNL     1     168.442 160.378 170.621  1.00  0.00     0.010 C 
ATOM      6  C   UNL     1     169.684 159.489 170.376  1.00  0.00    -0.006 C 
ATOM      7  C   UNL     1     169.197 158.141 170.860  1.00  0.00     0.013 C 
ATOM      8  C   UNL     1     169.842 159.257 168.846  1.00  0.00     0.126 C 
ATOM      9  C   UNL     1     170.942 159.998 171.092  1.00  0.00     0.014 C 
ATOM     10  C   UNL     1     167.691 158.921 167.476  1.00  0.00     0.014 C 
ENDROOT
BRANCH   8  11
ATOM     11  O   UNL     1     171.081 158.657 168.549  1.00  0.00    -0.392 OA
ATOM     12  H   UNL     1     170.979 158.195 167.676  1.00  0.00     0.211 HD
ENDBRANCH   8  11
TORSDOF 1
ENDMDL
MODEL 7
REMARK VINA RESULT:    -3.064      2.310      3.248
REMARK INTER + INTRA:          -3.153
REMARK INTER:                  -3.153
REMARK INTRA:                   0.000
REMARK UNBOUND:                 0.000
REMARK SMILES CC1(C)[C@@H]2CC[C@@](C)(C2)[C@H]1O
REMARK SMILES IDX 1 1 2 2 4 3 5 4 6 5 7 6 9 7 10 8 8 9 3 10 11 11
REMARK H PARENT 11 12
REMARK Flexibility Score: inf
ROOT
ATOM      1  C   UNL     1     158.401 174.109 167.529  1.00  0.00     0.014 C 
ATOM      2  C   UNL     1     158.958 173.906 168.963  1.00  0.00    -0.006 C 
ATOM      3  C   UNL     1     158.476 172.525 169.527  1.00  0.00    -0.002 C 
ATOM      4  C   UNL     1     158.758 172.408 171.041  1.00  0.00     0.005 C 
ATOM      5  C   UNL     1     160.292 172.343 171.097  1.00  0.00     0.010 C 
ATOM      6  C   UNL     1     160.688 172.316 169.601  1.00  0.00    -0.006 C 
ATOM      7  C   UNL     1     159.524 171.568 168.989  1.00  0.00     0.013 C 
ATOM      8  C   UNL     1     160.516 173.744 169.010  1.00  0.00     0.126 C 
ATOM      9  C   UNL     1     162.055 171.666 169.350  1.00  0.00     0.014 C 
ATOM     10  C   UNL     1     158.494 175.116 169.811  1.00  0.00     0.014 C 
ENDROOT
BRANCH   8  11
ATOM     11  O   UNL     1     161.084 173.832 167.724  1.00  0.00    -0.392 OA
ATOM     12  H   UNL     1     162.050 173.623 167.818  1.00  0.00     0.211 HD
ENDBRANCH   8  11
TORSDOF 1
ENDMDL
MODEL 8
REMARK VINA RESULT:    -3.062      1.750      3.423
REMARK INTER + INTRA:          -3.151
REMARK INTER:                  -3.151
REMARK INTRA:                   0.000
REMARK UNBOUND:                 0.000
REMARK SMILES CC1(C)[C@@H]2CC[C@@](C)(C2)[C@H]1O
REMARK SMILES IDX 1 1 2 2 4 3 5 4 6 5 7 6 9 7 10 8 8 9 3 10 11 11
REMARK H PARENT 11 12
REMARK Flexibility Score: inf
ROOT
ATOM      1  C   UNL     1     163.314 173.500 169.981  1.00  0.00     0.014 C 
ATOM      2  C   UNL     1     162.263 172.358 169.950  1.00  0.00    -0.006 C 
ATOM      3  C   UNL     1     161.218 172.569 171.098  1.00  0.00    -0.002 C 
ATOM      4  C   UNL     1     160.334 171.318 171.289  1.00  0.00     0.005 C 
ATOM      5  C   UNL     1     159.502 171.289 169.998  1.00  0.00     0.010 C 
ATOM      6  C   UNL     1     159.933 172.592 169.283  1.00  0.00    -0.006 C 
ATOM      7  C   UNL     1     160.212 173.507 170.455  1.00  0.00     0.013 C 
ATOM      8  C   UNL     1     161.351 172.386 168.676  1.00  0.00     0.126 C 
ATOM      9  C   UNL     1     158.876 173.124 168.307  1.00  0.00     0.014 C 
ATOM     10  C   UNL     1     163.037 171.021 170.056  1.00  0.00     0.014 C 
ENDROOT
BRANCH   8  11
ATOM     11  O   UNL     1     161.693 173.448 167.817  1.00  0.00    -0.392 OA
ATOM     12  H   UNL     1     162.625 173.287 167.513  1.00  0.00     0.211 HD
ENDBRANCH   8  11
TORSDOF 1
ENDMDL
MODEL 9
REMARK VINA RESULT:    -3.042      1.380      2.502
REMARK INTER + INTRA:          -3.131
REMARK INTER:                  -3.131
REMARK INTRA:                   0.000
REMARK UNBOUND:                 0.000
REMARK SMILES CC1(C)[C@@H]2CC[C@@](C)(C2)[C@H]1O
REMARK SMILES IDX 1 1 2 2 4 3 5 4 6 5 7 6 9 7 10 8 8 9 3 10 11 11
REMARK H PARENT 11 12
REMARK Flexibility Score: inf
ROOT
ATOM      1  C   UNL     1     160.480 174.654 170.566  1.00  0.00     0.014 C 
ATOM      2  C   UNL     1     161.450 173.476 170.845  1.00  0.00    -0.006 C 
ATOM      3  C   UNL     1     160.773 172.124 170.431  1.00  0.00    -0.002 C 
ATOM      4  C   UNL     1     161.574 170.912 170.953  1.00  0.00     0.005 C 
ATOM      5  C   UNL     1     162.867 170.976 170.126  1.00  0.00     0.010 C 
ATOM      6  C   UNL     1     162.594 172.149 169.154  1.00  0.00    -0.006 C 
ATOM      7  C   UNL     1     161.099 172.037 168.950  1.00  0.00     0.013 C 
ATOM      8  C   UNL     1     162.725 173.488 169.934  1.00  0.00     0.126 C 
ATOM      9  C   UNL     1     163.413 172.064 167.860  1.00  0.00     0.014 C 
ATOM     10  C   UNL     1     161.832 173.542 172.345  1.00  0.00     0.014 C 
ENDROOT
BRANCH   8  11
ATOM     11  O   UNL     1     162.721 174.589 169.055  1.00  0.00    -0.392 OA
ATOM     12  H   UNL     1     163.575 175.076 169.196  1.00  0.00     0.211 HD
ENDBRANCH   8  11
TORSDOF 1
ENDMDL
