MODEL 1
REMARK VINA RESULT:    -9.019      0.000      0.000
REMARK INTER + INTRA:         -11.782
REMARK INTER:                 -10.601
REMARK INTRA:                  -1.182
REMARK UNBOUND:                -1.182
REMARK SMILES C[C@H]1O[C@@H](OC[C@@H]2O[C@H](Oc3c(-c4ccc(OCCO)c(OCCO)c4)oc4cc(OCCO)cc(O)c4c3=O)[C@H](O)[C@@H](O)[C@H]2O)[C@H](O)[C@H](O)[C@H]1O
REMARK SMILES IDX 11 1 12 2 27 3 28 4 29 5 30 6 35 7 36 8 38 9 39 10 40 11
REMARK SMILES IDX 10 12 9 13 7 14 45 15 8 16 43 17 41 18 6 19 5 20 4 21 1 22
REMARK SMILES IDX 2 23 51 24 3 25 49 26 47 27 52 28 50 30 48 32 46 34 44 36
REMARK SMILES IDX 42 38 13 40 26 41 14 42 21 43 15 44 16 45 22 46 23 47 24 48
REMARK SMILES IDX 25 49 17 51 18 52 19 53 20 54 37 56 31 58 32 59 33 60 34 61
REMARK H PARENT 52 29 50 31 48 33 46 35 44 37 42 39 25 50 20 55 37 57 34 62
REMARK Flexibility Score: inf
ROOT
ATOM      1  C   UNL     1       0.499 -18.634  25.917  1.00  0.00     0.214 A 
ATOM      2  C   UNL     1       0.095 -19.813  27.307  1.00  0.00     0.180 A 
ATOM      3  O   UNL     1      -0.551 -21.162  26.660  1.00  0.00    -0.452 OA
ATOM      4  C   UNL     1       0.617 -22.363  26.418  1.00  0.00     0.146 A 
ATOM      5  C   UNL     1       2.096 -23.901  26.597  1.00  0.00     0.094 A 
ATOM      6  C   UNL     1       2.543 -25.395  27.825  1.00  0.00     0.126 A 
ATOM      7  C   UNL     1       1.075 -24.569  28.207  1.00  0.00     0.093 A 
ATOM      8  C   UNL     1       0.671 -22.761  28.016  1.00  0.00     0.134 A 
ATOM      9  C   UNL     1       1.600 -21.674  26.846  1.00  0.00     0.111 A 
ATOM     10  C   UNL     1       1.430 -20.187  25.753  1.00  0.00     0.239 A 
ATOM     11  O   UNL     1       2.444 -20.888  26.635  1.00  0.00    -0.285 OA
ENDROOT
BRANCH   1  12
ATOM     12  O   UNL     1       0.746 -16.637  25.631  1.00  0.00    -0.454 OA
BRANCH  12  13
ATOM     13  C   UNL     1       1.247 -14.297  25.568  1.00  0.00     0.339 C 
ATOM     14  C   UNL     1      -0.302 -11.660  26.636  1.00  0.00     0.180 C 
ATOM     15  C   UNL     1       0.519 -10.324  25.680  1.00  0.00     0.177 C 
ATOM     16  O   UNL     1       0.317 -13.354  26.612  1.00  0.00    -0.332 OA
ATOM     17  C   UNL     1       2.069 -10.562  25.786  1.00  0.00     0.180 C 
ATOM     18  C   UNL     1       2.615 -12.504  25.379  1.00  0.00     0.214 C 
BRANCH  14  19
ATOM     19  C   UNL     1      -1.553 -10.929  28.271  1.00  0.00     0.198 C 
BRANCH  19  20
ATOM     20  O   UNL     1      -2.957 -11.157  29.853  1.00  0.00    -0.347 OA
BRANCH  20  21
ATOM     21  C   UNL     1      -4.194 -12.542  29.472  1.00  0.00     0.281 C 
ATOM     22  C   UNL     1      -6.130 -15.159  31.507  1.00  0.00     0.041 C 
ATOM     23  C   UNL     1      -6.335 -13.432  31.182  1.00  0.00     0.150 C 
ATOM     24  C   UNL     1      -7.788 -13.845  30.591  1.00  0.00     0.174 C 
ATOM     25  O   UNL     1      -5.174 -12.617  30.680  1.00  0.00    -0.344 OA
ATOM     26  C   UNL     1      -6.584 -14.759  29.059  1.00  0.00     0.179 C 
ATOM     27  C   UNL     1      -3.662 -14.542  28.753  1.00  0.00     0.202 C 
BRANCH  24  28
ATOM     28  O   UNL     1      -8.458 -14.208  32.213  1.00  0.00    -0.388 OA
ATOM     29  H   UNL     1     -10.061 -13.833  31.748  1.00  0.00     0.211 HD
ENDBRANCH  24  28
BRANCH  26  30
ATOM     30  O   UNL     1      -6.539 -13.826  28.064  1.00  0.00    -0.387 OA
ATOM     31  H   UNL     1      -7.595 -13.092  27.559  1.00  0.00     0.211 HD
ENDBRANCH  26  30
BRANCH  27  32
ATOM     32  O   UNL     1      -1.959 -15.733  27.978  1.00  0.00    -0.385 OA
ATOM     33  H   UNL     1      -2.382 -14.902  26.703  1.00  0.00     0.211 HD
ENDBRANCH  27  32
ENDBRANCH  20  21
ENDBRANCH  19  20
ENDBRANCH  14  19
BRANCH  15  34
ATOM     34  O   UNL     1       0.447 -10.398  24.107  1.00  0.00    -0.387 OA
ATOM     35  H   UNL     1       0.352 -11.506  24.126  1.00  0.00     0.211 HD
ENDBRANCH  15  34
BRANCH  17  36
ATOM     36  O   UNL     1       2.412  -8.895  26.031  1.00  0.00    -0.387 OA
ATOM     37  H   UNL     1       3.440  -8.844  25.929  1.00  0.00     0.211 HD
ENDBRANCH  17  36
BRANCH  18  38
ATOM     38  O   UNL     1       4.040 -12.727  26.033  1.00  0.00    -0.384 OA
ATOM     39  H   UNL     1       4.627 -12.278  27.116  1.00  0.00     0.211 HD
ENDBRANCH  18  38
ENDBRANCH  12  13
ENDBRANCH   1  12
BRANCH   2  40
ATOM     40  C   UNL     1       0.983 -20.105  28.964  1.00  0.00     0.025 A 
ATOM     41  C   UNL     1       1.723 -18.855  29.163  1.00  0.00     0.062 A 
ATOM     42  C   UNL     1       1.342 -21.082  30.381  1.00  0.00     0.016 A 
ATOM     43  C   UNL     1       2.705 -18.335  30.148  1.00  0.00     0.162 A 
ATOM     44  C   UNL     1       1.991 -20.679  31.615  1.00  0.00     0.051 A 
ATOM     45  C   UNL     1       2.383 -18.915  31.529  1.00  0.00     0.161 A 
BRANCH  43  46
ATOM     46  O   UNL     1       3.212 -16.762  30.125  1.00  0.00    -0.487 OA
BRANCH  46  47
ATOM     47  C   UNL     1       2.811 -15.191  29.850  1.00  0.00     0.258 C 
BRANCH  47  48
ATOM     48  C   UNL     1       1.158 -15.195  30.202  1.00  0.00     0.197 C 
BRANCH  48  49
ATOM     49  O   UNL     1       0.787 -15.204  31.585  1.00  0.00    -0.393 OA
ATOM     50  H   UNL     1      -0.109 -15.790  31.736  1.00  0.00     0.210 HD
ENDBRANCH  48  49
ENDBRANCH  47  48
ENDBRANCH  46  47
ENDBRANCH  43  46
BRANCH  45  51
ATOM     51  O   UNL     1       2.224 -17.710  32.728  1.00  0.00    -0.487 OA
BRANCH  51  52
ATOM     52  C   UNL     1       2.255 -16.747  34.203  1.00  0.00     0.258 C 
BRANCH  52  53
ATOM     53  C   UNL     1       1.102 -16.130  35.740  1.00  0.00     0.197 C 
BRANCH  53  54
ATOM     54  O   UNL     1       0.757 -15.461  37.148  1.00  0.00    -0.393 OA
ATOM     55  H   UNL     1       0.680 -14.456  37.026  1.00  0.00     0.210 HD
ENDBRANCH  53  54
ENDBRANCH  52  53
ENDBRANCH  51  52
ENDBRANCH  45  51
ENDBRANCH   2  40
BRANCH   8  56
ATOM     56  O   UNL     1      -0.415 -22.432  28.815  1.00  0.00    -0.507 OA
ATOM     57  H   UNL     1      -0.739 -23.195  29.414  1.00  0.00     0.293 HD
ENDBRANCH   8  56
BRANCH   6  58
ATOM     58  O   UNL     1       3.645 -27.387  28.349  1.00  0.00    -0.491 OA
BRANCH  58  59
ATOM     59  C   UNL     1       4.125 -29.084  29.681  1.00  0.00     0.257 C 
BRANCH  59  60
ATOM     60  C   UNL     1       2.453 -28.693  30.432  1.00  0.00     0.197 C 
BRANCH  60  61
ATOM     61  O   UNL     1       1.317 -28.113  29.741  1.00  0.00    -0.393 OA
ATOM     62  H   UNL     1       1.685 -27.918  28.725  1.00  0.00     0.210 HD
ENDBRANCH  60  61
ENDBRANCH  59  60
ENDBRANCH  58  59
ENDBRANCH   6  58
TORSDOF 25
ENDMDL
MODEL 2
REMARK VINA RESULT:    -8.343      3.090      6.855
REMARK INTER + INTRA:         -10.988
REMARK INTER:                  -8.875
REMARK INTRA:                  -2.113
REMARK UNBOUND:                -1.182
REMARK SMILES C[C@H]1O[C@@H](OC[C@@H]2O[C@H](Oc3c(-c4ccc(OCCO)c(OCCO)c4)oc4cc(OCCO)cc(O)c4c3=O)[C@H](O)[C@@H](O)[C@H]2O)[C@H](O)[C@H](O)[C@H]1O
REMARK SMILES IDX 11 1 12 2 27 3 28 4 29 5 30 6 35 7 36 8 38 9 39 10 40 11
REMARK SMILES IDX 10 12 9 13 7 14 45 15 8 16 43 17 41 18 6 19 5 20 4 21 1 22
REMARK SMILES IDX 2 23 51 24 3 25 49 26 47 27 52 28 50 30 48 32 46 34 44 36
REMARK SMILES IDX 42 38 13 40 26 41 14 42 21 43 15 44 16 45 22 46 23 47 24 48
REMARK SMILES IDX 25 49 17 51 18 52 19 53 20 54 37 56 31 58 32 59 33 60 34 61
REMARK H PARENT 52 29 50 31 48 33 46 35 44 37 42 39 25 50 20 55 37 57 34 62
REMARK Flexibility Score: inf
ROOT
ATOM      1  C   UNL     1       3.600 -18.448  31.404  1.00  0.00     0.214 A 
ATOM      2  C   UNL     1       3.296 -19.602  29.969  1.00  0.00     0.180 A 
ATOM      3  O   UNL     1       4.107 -20.988  30.247  1.00  0.00    -0.452 OA
ATOM      4  C   UNL     1       3.120 -22.157  30.971  1.00  0.00     0.146 A 
ATOM      5  C   UNL     1       1.654 -23.641  31.454  1.00  0.00     0.094 A 
ATOM      6  C   UNL     1       0.647 -25.087  30.539  1.00  0.00     0.126 A 
ATOM      7  C   UNL     1       1.825 -24.298  29.552  1.00  0.00     0.093 A 
ATOM      8  C   UNL     1       2.345 -22.510  29.561  1.00  0.00     0.134 A 
ATOM      9  C   UNL     1       2.078 -21.426  31.033  1.00  0.00     0.111 A 
ATOM     10  C   UNL     1       2.776 -19.975  31.951  1.00  0.00     0.239 A 
ATOM     11  O   UNL     1       1.448 -20.619  31.605  1.00  0.00    -0.285 OA
ENDROOT
BRANCH   1  12
ATOM     12  O   UNL     1       3.588 -16.453  31.789  1.00  0.00    -0.454 OA
BRANCH  12  13
ATOM     13  C   UNL     1       3.232 -14.119  32.191  1.00  0.00     0.339 C 
ATOM     14  C   UNL     1       0.966 -12.016  31.223  1.00  0.00     0.180 C 
ATOM     15  C   UNL     1       1.786 -10.404  31.539  1.00  0.00     0.177 C 
ATOM     16  O   UNL     1       1.689 -13.568  31.790  1.00  0.00    -0.332 OA
ATOM     17  C   UNL     1       2.394 -10.467  32.988  1.00  0.00     0.180 C 
ATOM     18  C   UNL     1       3.487 -12.178  33.326  1.00  0.00     0.214 C 
BRANCH  14  19
ATOM     19  C   UNL     1      -1.168 -11.847  30.788  1.00  0.00     0.198 C 
BRANCH  19  20
ATOM     20  O   UNL     1      -2.999 -12.494  29.920  1.00  0.00    -0.347 OA
BRANCH  20  21
ATOM     21  C   UNL     1      -2.748 -14.066  28.890  1.00  0.00     0.281 C 
ATOM     22  C   UNL     1      -1.164 -14.930  25.502  1.00  0.00     0.041 C 
ATOM     23  C   UNL     1      -0.538 -14.612  27.126  1.00  0.00     0.150 C 
ATOM     24  C   UNL     1       0.129 -16.087  27.019  1.00  0.00     0.174 C 
ATOM     25  O   UNL     1      -1.394 -13.901  28.138  1.00  0.00    -0.344 OA
ATOM     26  C   UNL     1      -1.929 -16.709  27.118  1.00  0.00     0.179 C 
ATOM     27  C   UNL     1      -4.267 -14.983  27.606  1.00  0.00     0.202 C 
BRANCH  24  28
ATOM     28  O   UNL     1       1.351 -15.559  25.818  1.00  0.00    -0.388 OA
ATOM     29  H   UNL     1       0.364 -14.299  25.215  1.00  0.00     0.211 HD
ENDBRANCH  24  28
BRANCH  26  30
ATOM     30  O   UNL     1      -2.133 -16.989  28.438  1.00  0.00    -0.387 OA
ATOM     31  H   UNL     1      -3.304 -17.426  29.027  1.00  0.00     0.211 HD
ENDBRANCH  26  30
BRANCH  27  32
ATOM     32  O   UNL     1      -6.422 -14.888  27.093  1.00  0.00    -0.385 OA
ATOM     33  H   UNL     1      -5.868 -15.874  25.990  1.00  0.00     0.211 HD
ENDBRANCH  27  32
ENDBRANCH  20  21
ENDBRANCH  19  20
ENDBRANCH  14  19
BRANCH  15  34
ATOM     34  O   UNL     1       3.148 -10.115  30.800  1.00  0.00    -0.387 OA
ATOM     35  H   UNL     1       3.152  -9.056  31.143  1.00  0.00     0.211 HD
ENDBRANCH  15  34
BRANCH  17  36
ATOM     36  O   UNL     1       1.883  -8.875  33.385  1.00  0.00    -0.387 OA
ATOM     37  H   UNL     1       1.763  -8.424  32.462  1.00  0.00     0.211 HD
ENDBRANCH  17  36
BRANCH  18  38
ATOM     38  O   UNL     1       3.562 -12.372  34.895  1.00  0.00    -0.384 OA
ATOM     39  H   UNL     1       4.315 -11.866  35.843  1.00  0.00     0.211 HD
ENDBRANCH  18  38
ENDBRANCH  12  13
ENDBRANCH   1  12
BRANCH   2  40
ATOM     40  C   UNL     1       1.753 -19.821  28.877  1.00  0.00     0.025 A 
ATOM     41  C   UNL     1       2.251 -19.490  27.538  1.00  0.00     0.062 A 
ATOM     42  C   UNL     1       0.062 -20.243  28.648  1.00  0.00     0.016 A 
ATOM     43  C   UNL     1       1.663 -19.337  26.183  1.00  0.00     0.162 A 
ATOM     44  C   UNL     1      -0.646 -20.489  27.405  1.00  0.00     0.051 A 
ATOM     45  C   UNL     1       0.510 -20.333  26.022  1.00  0.00     0.161 A 
BRANCH  43  46
ATOM     46  O   UNL     1       2.606 -19.102  24.846  1.00  0.00    -0.487 OA
BRANCH  46  47
ATOM     47  C   UNL     1       3.240 -19.759  23.478  1.00  0.00     0.258 C 
BRANCH  47  48
ATOM     48  C   UNL     1       4.125 -21.057  24.100  1.00  0.00     0.197 C 
BRANCH  48  49
ATOM     49  O   UNL     1       3.589 -21.716  25.254  1.00  0.00    -0.393 OA
ATOM     50  H   UNL     1       4.309 -22.411  25.665  1.00  0.00     0.210 HD
ENDBRANCH  48  49
ENDBRANCH  47  48
ENDBRANCH  46  47
ENDBRANCH  43  46
BRANCH  45  51
ATOM     51  O   UNL     1       0.668 -21.303  24.626  1.00  0.00    -0.487 OA
BRANCH  51  52
ATOM     52  C   UNL     1       0.569 -22.555  23.390  1.00  0.00     0.258 C 
BRANCH  52  53
ATOM     53  C   UNL     1      -0.010 -24.464  23.084  1.00  0.00     0.197 C 
BRANCH  53  54
ATOM     54  O   UNL     1      -1.002 -25.714  23.042  1.00  0.00    -0.393 OA
ATOM     55  H   UNL     1      -1.316 -25.854  22.087  1.00  0.00     0.210 HD
ENDBRANCH  53  54
ENDBRANCH  52  53
ENDBRANCH  51  52
ENDBRANCH  45  51
ENDBRANCH   2  40
BRANCH   8  56
ATOM     56  O   UNL     1       2.976 -22.195  28.365  1.00  0.00    -0.507 OA
ATOM     57  H   UNL     1       2.373 -21.728  27.685  1.00  0.00     0.293 HD
ENDBRANCH   8  56
BRANCH   6  58
ATOM     58  O   UNL     1      -0.653 -27.027  30.541  1.00  0.00    -0.491 OA
BRANCH  58  59
ATOM     59  C   UNL     1      -2.418 -28.218  31.133  1.00  0.00     0.257 C 
BRANCH  59  60
ATOM     60  C   UNL     1      -2.228 -27.300  32.756  1.00  0.00     0.197 C 
BRANCH  60  61
ATOM     61  O   UNL     1      -1.929 -27.892  34.046  1.00  0.00    -0.393 OA
ATOM     62  H   UNL     1      -2.667 -28.699  34.156  1.00  0.00     0.210 HD
ENDBRANCH  60  61
ENDBRANCH  59  60
ENDBRANCH  58  59
ENDBRANCH   6  58
TORSDOF 25
ENDMDL
MODEL 3
REMARK VINA RESULT:    -8.190      2.780      5.391
REMARK INTER + INTRA:         -10.808
REMARK INTER:                  -9.585
REMARK INTRA:                  -1.223
REMARK UNBOUND:                -1.182
REMARK SMILES C[C@H]1O[C@@H](OC[C@@H]2O[C@H](Oc3c(-c4ccc(OCCO)c(OCCO)c4)oc4cc(OCCO)cc(O)c4c3=O)[C@H](O)[C@@H](O)[C@H]2O)[C@H](O)[C@H](O)[C@H]1O
REMARK SMILES IDX 11 1 12 2 27 3 28 4 29 5 30 6 35 7 36 8 38 9 39 10 40 11
REMARK SMILES IDX 10 12 9 13 7 14 45 15 8 16 43 17 41 18 6 19 5 20 4 21 1 22
REMARK SMILES IDX 2 23 51 24 3 25 49 26 47 27 52 28 50 30 48 32 46 34 44 36
REMARK SMILES IDX 42 38 13 40 26 41 14 42 21 43 15 44 16 45 22 46 23 47 24 48
REMARK SMILES IDX 25 49 17 51 18 52 19 53 20 54 37 56 31 58 32 59 33 60 34 61
REMARK H PARENT 52 29 50 31 48 33 46 35 44 37 42 39 25 50 20 55 37 57 34 62
REMARK Flexibility Score: inf
ROOT
ATOM      1  C   UNL     1       2.191 -18.036  31.198  1.00  0.00     0.214 A 
ATOM      2  C   UNL     1       2.830 -19.392  30.088  1.00  0.00     0.180 A 
ATOM      3  O   UNL     1       3.601 -20.489  31.014  1.00  0.00    -0.452 OA
ATOM      4  C   UNL     1       2.584 -21.771  31.445  1.00  0.00     0.146 A 
ATOM      5  C   UNL     1       1.329 -23.504  31.519  1.00  0.00     0.094 A 
ATOM      6  C   UNL     1       1.157 -25.254  30.597  1.00  0.00     0.126 A 
ATOM      7  C   UNL     1       2.529 -24.321  30.115  1.00  0.00     0.093 A 
ATOM      8  C   UNL     1       2.684 -22.472  29.957  1.00  0.00     0.134 A 
ATOM      9  C   UNL     1       1.550 -21.320  30.852  1.00  0.00     0.111 A 
ATOM     10  C   UNL     1       1.457 -19.642  31.633  1.00  0.00     0.239 A 
ATOM     11  O   UNL     1       0.600 -20.633  30.870  1.00  0.00    -0.285 OA
ENDROOT
BRANCH   1  12
ATOM     12  O   UNL     1       1.672 -16.075  31.072  1.00  0.00    -0.454 OA
BRANCH  12  13
ATOM     13  C   UNL     1       0.735 -13.874  30.965  1.00  0.00     0.339 C 
ATOM     14  C   UNL     1      -1.575 -12.527  29.137  1.00  0.00     0.180 C 
ATOM     15  C   UNL     1      -1.232 -10.735  29.352  1.00  0.00     0.177 C 
ATOM     16  O   UNL     1      -0.721 -13.774  30.120  1.00  0.00    -0.332 OA
ATOM     17  C   UNL     1      -1.040 -10.480  30.891  1.00  0.00     0.180 C 
ATOM     18  C   UNL     1       0.257 -11.814  31.771  1.00  0.00     0.214 C 
BRANCH  14  19
ATOM     19  C   UNL     1      -3.497 -12.945  28.187  1.00  0.00     0.198 C 
BRANCH  19  20
ATOM     20  O   UNL     1      -5.458 -13.767  28.122  1.00  0.00    -0.347 OA
BRANCH  20  21
ATOM     21  C   UNL     1      -5.996 -14.384  29.833  1.00  0.00     0.281 C 
ATOM     22  C   UNL     1      -9.276 -14.505  31.823  1.00  0.00     0.041 C 
ATOM     23  C   UNL     1      -8.574 -15.471  30.518  1.00  0.00     0.150 C 
ATOM     24  C   UNL     1      -8.732 -16.725  31.534  1.00  0.00     0.174 C 
ATOM     25  O   UNL     1      -7.454 -14.910  29.684  1.00  0.00    -0.344 OA
ATOM     26  C   UNL     1      -7.187 -15.680  32.607  1.00  0.00     0.179 C 
ATOM     27  C   UNL     1      -5.734 -13.280  31.706  1.00  0.00     0.202 C 
BRANCH  24  28
ATOM     28  O   UNL     1     -10.517 -16.759  31.377  1.00  0.00    -0.388 OA
ATOM     29  H   UNL     1     -10.573 -18.461  31.210  1.00  0.00     0.211 HD
ENDBRANCH  24  28
BRANCH  26  30
ATOM     30  O   UNL     1      -6.029 -16.271  32.192  1.00  0.00    -0.387 OA
ATOM     31  H   UNL     1      -5.465 -17.435  32.678  1.00  0.00     0.211 HD
ENDBRANCH  26  30
BRANCH  27  32
ATOM     32  O   UNL     1      -4.742 -11.494  32.568  1.00  0.00    -0.385 OA
ATOM     33  H   UNL     1      -4.501 -11.285  31.021  1.00  0.00     0.211 HD
ENDBRANCH  27  32
ENDBRANCH  20  21
ENDBRANCH  19  20
ENDBRANCH  14  19
BRANCH  15  34
ATOM     34  O   UNL     1       0.186 -10.202  28.917  1.00  0.00    -0.387 OA
ATOM     35  H   UNL     1       0.100 -10.681  27.916  1.00  0.00     0.211 HD
ENDBRANCH  15  34
BRANCH  17  36
ATOM     36  O   UNL     1      -1.964  -9.031  30.872  1.00  0.00    -0.387 OA
ATOM     37  H   UNL     1      -1.506  -8.463  30.140  1.00  0.00     0.211 HD
ENDBRANCH  17  36
BRANCH  18  38
ATOM     38  O   UNL     1      -0.057 -11.803  33.323  1.00  0.00    -0.384 OA
ATOM     39  H   UNL     1      -1.126 -12.051  34.040  1.00  0.00     0.211 HD
ENDBRANCH  18  38
ENDBRANCH  12  13
ENDBRANCH   1  12
BRANCH   2  40
ATOM     40  C   UNL     1       2.096 -20.117  28.489  1.00  0.00     0.025 A 
ATOM     41  C   UNL     1       0.863 -19.342  28.316  1.00  0.00     0.062 A 
ATOM     42  C   UNL     1       2.153 -21.205  27.110  1.00  0.00     0.016 A 
ATOM     43  C   UNL     1      -0.292 -19.359  27.382  1.00  0.00     0.162 A 
ATOM     44  C   UNL     1       1.336 -21.185  25.910  1.00  0.00     0.051 A 
ATOM     45  C   UNL     1       0.194 -19.785  25.993  1.00  0.00     0.161 A 
BRANCH  43  46
ATOM     46  O   UNL     1      -1.453 -18.183  27.412  1.00  0.00    -0.487 OA
BRANCH  46  47
ATOM     47  C   UNL     1      -1.841 -16.644  27.841  1.00  0.00     0.258 C 
BRANCH  47  48
ATOM     48  C   UNL     1      -0.440 -15.805  27.405  1.00  0.00     0.197 C 
BRANCH  48  49
ATOM     49  O   UNL     1       0.666 -15.869  28.313  1.00  0.00    -0.393 OA
ATOM     50  H   UNL     1       0.859 -14.898  28.749  1.00  0.00     0.210 HD
ENDBRANCH  48  49
ENDBRANCH  47  48
ENDBRANCH  46  47
ENDBRANCH  43  46
BRANCH  45  51
ATOM     51  O   UNL     1      -0.263 -18.685  24.771  1.00  0.00    -0.487 OA
BRANCH  51  52
ATOM     52  C   UNL     1      -0.775 -17.285  23.830  1.00  0.00     0.258 C 
BRANCH  52  53
ATOM     53  C   UNL     1      -1.477 -15.402  24.010  1.00  0.00     0.197 C 
BRANCH  53  54
ATOM     54  O   UNL     1      -1.812 -14.017  24.730  1.00  0.00    -0.393 OA
ATOM     55  H   UNL     1      -1.013 -13.733  25.289  1.00  0.00     0.210 HD
ENDBRANCH  53  54
ENDBRANCH  52  53
ENDBRANCH  51  52
ENDBRANCH  45  51
ENDBRANCH   2  40
BRANCH   8  56
ATOM     56  O   UNL     1       3.769 -22.156  29.151  1.00  0.00    -0.507 OA
ATOM     57  H   UNL     1       4.369 -22.953  28.928  1.00  0.00     0.293 HD
ENDBRANCH   8  56
BRANCH   6  58
ATOM     58  O   UNL     1       0.356 -27.442  30.438  1.00  0.00    -0.491 OA
BRANCH  58  59
ATOM     59  C   UNL     1      -0.926 -29.125  31.079  1.00  0.00     0.257 C 
BRANCH  59  60
ATOM     60  C   UNL     1      -1.868 -27.784  31.989  1.00  0.00     0.197 C 
BRANCH  60  61
ATOM     61  O   UNL     1      -2.040 -26.411  31.554  1.00  0.00    -0.393 OA
ATOM     62  H   UNL     1      -3.064 -26.375  31.159  1.00  0.00     0.210 HD
ENDBRANCH  60  61
ENDBRANCH  59  60
ENDBRANCH  58  59
ENDBRANCH   6  58
TORSDOF 25
ENDMDL
MODEL 4
REMARK VINA RESULT:    -7.971      2.249      4.866
REMARK INTER + INTRA:         -10.550
REMARK INTER:                  -9.305
REMARK INTRA:                  -1.245
REMARK UNBOUND:                -1.182
REMARK SMILES C[C@H]1O[C@@H](OC[C@@H]2O[C@H](Oc3c(-c4ccc(OCCO)c(OCCO)c4)oc4cc(OCCO)cc(O)c4c3=O)[C@H](O)[C@@H](O)[C@H]2O)[C@H](O)[C@H](O)[C@H]1O
REMARK SMILES IDX 11 1 12 2 27 3 28 4 29 5 30 6 35 7 36 8 38 9 39 10 40 11
REMARK SMILES IDX 10 12 9 13 7 14 45 15 8 16 43 17 41 18 6 19 5 20 4 21 1 22
REMARK SMILES IDX 2 23 51 24 3 25 49 26 47 27 52 28 50 30 48 32 46 34 44 36
REMARK SMILES IDX 42 38 13 40 26 41 14 42 21 43 15 44 16 45 22 46 23 47 24 48
REMARK SMILES IDX 25 49 17 51 18 52 19 53 20 54 37 56 31 58 32 59 33 60 34 61
REMARK H PARENT 52 29 50 31 48 33 46 35 44 37 42 39 25 50 20 55 37 57 34 62
REMARK Flexibility Score: inf
ROOT
ATOM      1  C   UNL     1       1.531 -18.919  25.212  1.00  0.00     0.214 A 
ATOM      2  C   UNL     1       0.599 -20.279  26.085  1.00  0.00     0.180 A 
ATOM      3  O   UNL     1       0.735 -21.641  25.199  1.00  0.00    -0.452 OA
ATOM      4  C   UNL     1       2.009 -22.615  25.738  1.00  0.00     0.146 A 
ATOM      5  C   UNL     1       3.334 -23.915  26.806  1.00  0.00     0.094 A 
ATOM      6  C   UNL     1       3.217 -25.438  28.074  1.00  0.00     0.126 A 
ATOM      7  C   UNL     1       1.695 -24.892  27.468  1.00  0.00     0.093 A 
ATOM      8  C   UNL     1       1.162 -23.159  27.043  1.00  0.00     0.134 A 
ATOM      9  C   UNL     1       2.389 -21.829  26.666  1.00  0.00     0.111 A 
ATOM     10  C   UNL     1       2.641 -20.284  25.674  1.00  0.00     0.239 A 
ATOM     11  O   UNL     1       3.027 -20.904  27.002  1.00  0.00    -0.285 OA
ENDROOT
BRANCH   1  12
ATOM     12  O   UNL     1       1.528 -16.889  25.106  1.00  0.00    -0.454 OA
BRANCH  12  13
ATOM     13  C   UNL     1       1.840 -14.515  25.117  1.00  0.00     0.339 C 
ATOM     14  C   UNL     1       1.537 -12.243  27.406  1.00  0.00     0.180 C 
ATOM     15  C   UNL     1       1.428 -10.708  26.404  1.00  0.00     0.177 C 
ATOM     16  O   UNL     1       1.945 -13.831  26.655  1.00  0.00    -0.332 OA
ATOM     17  C   UNL     1       2.583 -10.764  25.339  1.00  0.00     0.180 C 
ATOM     18  C   UNL     1       2.664 -12.558  24.335  1.00  0.00     0.214 C 
BRANCH  14  19
ATOM     19  C   UNL     1       1.842 -11.880  29.539  1.00  0.00     0.198 C 
BRANCH  19  20
ATOM     20  O   UNL     1       2.981 -11.888  31.335  1.00  0.00    -0.347 OA
BRANCH  20  21
ATOM     21  C   UNL     1       2.233 -13.074  32.612  1.00  0.00     0.281 C 
ATOM     22  C   UNL     1       1.117 -16.746  32.657  1.00  0.00     0.041 C 
ATOM     23  C   UNL     1       2.676 -15.916  32.763  1.00  0.00     0.150 C 
ATOM     24  C   UNL     1       2.844 -16.682  34.182  1.00  0.00     0.174 C 
ATOM     25  O   UNL     1       2.802 -14.489  32.301  1.00  0.00    -0.344 OA
ATOM     26  C   UNL     1       1.249 -15.358  34.759  1.00  0.00     0.179 C 
ATOM     27  C   UNL     1       0.112 -13.167  33.150  1.00  0.00     0.202 C 
BRANCH  24  28
ATOM     28  O   UNL     1       3.094 -18.279  33.406  1.00  0.00    -0.388 OA
ATOM     29  H   UNL     1       3.738 -17.597  31.974  1.00  0.00     0.211 HD
ENDBRANCH  24  28
BRANCH  26  30
ATOM     30  O   UNL     1       1.883 -14.304  35.350  1.00  0.00    -0.387 OA
ATOM     31  H   UNL     1       3.146 -14.296  35.909  1.00  0.00     0.211 HD
ENDBRANCH  26  30
BRANCH  27  32
ATOM     32  O   UNL     1      -1.816 -12.106  32.879  1.00  0.00    -0.385 OA
ATOM     33  H   UNL     1      -2.276 -13.440  33.591  1.00  0.00     0.211 HD
ENDBRANCH  27  32
ENDBRANCH  20  21
ENDBRANCH  19  20
ENDBRANCH  14  19
BRANCH  15  34
ATOM     34  O   UNL     1       0.249 -10.593  25.364  1.00  0.00    -0.387 OA
ATOM     35  H   UNL     1       0.254  -9.482  25.425  1.00  0.00     0.211 HD
ENDBRANCH  15  34
BRANCH  17  36
ATOM     36  O   UNL     1       3.003  -9.111  25.556  1.00  0.00    -0.387 OA
ATOM     37  H   UNL     1       2.836  -8.696  24.623  1.00  0.00     0.211 HD
ENDBRANCH  17  36
BRANCH  18  38
ATOM     38  O   UNL     1       4.124 -12.684  23.736  1.00  0.00    -0.384 OA
ATOM     39  H   UNL     1       5.315 -12.323  24.151  1.00  0.00     0.211 HD
ENDBRANCH  18  38
ENDBRANCH  12  13
ENDBRANCH   1  12
BRANCH   2  40
ATOM     40  C   UNL     1       0.345 -20.595  27.944  1.00  0.00     0.025 A 
ATOM     41  C   UNL     1      -0.010 -19.268  28.455  1.00  0.00     0.062 A 
ATOM     42  C   UNL     1       0.286 -21.658  29.343  1.00  0.00     0.016 A 
ATOM     43  C   UNL     1      -0.267 -18.666  29.788  1.00  0.00     0.162 A 
ATOM     44  C   UNL     1      -0.253 -21.384  30.663  1.00  0.00     0.051 A 
ATOM     45  C   UNL     1      -0.937 -19.710  30.688  1.00  0.00     0.161 A 
BRANCH  43  46
ATOM     46  O   UNL     1      -0.814 -17.114  29.952  1.00  0.00    -0.487 OA
BRANCH  46  47
ATOM     47  C   UNL     1      -0.635 -15.540  29.513  1.00  0.00     0.258 C 
BRANCH  47  48
ATOM     48  C   UNL     1      -2.177 -15.172  28.927  1.00  0.00     0.197 C 
BRANCH  48  49
ATOM     49  O   UNL     1      -3.292 -15.727  29.635  1.00  0.00    -0.393 OA
ATOM     50  H   UNL     1      -3.787 -16.480  29.037  1.00  0.00     0.210 HD
ENDBRANCH  48  49
ENDBRANCH  47  48
ENDBRANCH  46  47
ENDBRANCH  43  46
BRANCH  45  51
ATOM     51  O   UNL     1      -2.386 -19.141  31.389  1.00  0.00    -0.487 OA
BRANCH  51  52
ATOM     52  C   UNL     1      -3.856 -18.908  32.333  1.00  0.00     0.258 C 
BRANCH  52  53
ATOM     53  C   UNL     1      -5.264 -17.539  32.795  1.00  0.00     0.197 C 
BRANCH  53  54
ATOM     54  O   UNL     1      -6.386 -16.433  32.535  1.00  0.00    -0.393 OA
ATOM     55  H   UNL     1      -7.161 -16.592  33.171  1.00  0.00     0.210 HD
ENDBRANCH  53  54
ENDBRANCH  52  53
ENDBRANCH  51  52
ENDBRANCH  45  51
ENDBRANCH   2  40
BRANCH   8  56
ATOM     56  O   UNL     1      -0.223 -23.085  27.007  1.00  0.00    -0.507 OA
ATOM     57  H   UNL     1      -0.665 -23.807  26.435  1.00  0.00     0.293 HD
ENDBRANCH   8  56
BRANCH   6  58
ATOM     58  O   UNL     1       4.125 -27.277  29.192  1.00  0.00    -0.491 OA
BRANCH  58  59
ATOM     59  C   UNL     1       4.033 -28.955  30.628  1.00  0.00     0.257 C 
BRANCH  59  60
ATOM     60  C   UNL     1       2.183 -28.791  30.377  1.00  0.00     0.197 C 
BRANCH  60  61
ATOM     61  O   UNL     1       1.524 -28.115  29.276  1.00  0.00    -0.393 OA
ATOM     62  H   UNL     1       1.776 -27.055  29.415  1.00  0.00     0.210 HD
ENDBRANCH  60  61
ENDBRANCH  59  60
ENDBRANCH  58  59
ENDBRANCH   6  58
TORSDOF 25
ENDMDL
MODEL 5
REMARK VINA RESULT:    -7.923      2.883      7.454
REMARK INTER + INTRA:         -10.494
REMARK INTER:                  -8.670
REMARK INTRA:                  -1.824
REMARK UNBOUND:                -1.182
REMARK SMILES C[C@H]1O[C@@H](OC[C@@H]2O[C@H](Oc3c(-c4ccc(OCCO)c(OCCO)c4)oc4cc(OCCO)cc(O)c4c3=O)[C@H](O)[C@@H](O)[C@H]2O)[C@H](O)[C@H](O)[C@H]1O
REMARK SMILES IDX 11 1 12 2 27 3 28 4 29 5 30 6 35 7 36 8 38 9 39 10 40 11
REMARK SMILES IDX 10 12 9 13 7 14 45 15 8 16 43 17 41 18 6 19 5 20 4 21 1 22
REMARK SMILES IDX 2 23 51 24 3 25 49 26 47 27 52 28 50 30 48 32 46 34 44 36
REMARK SMILES IDX 42 38 13 40 26 41 14 42 21 43 15 44 16 45 22 46 23 47 24 48
REMARK SMILES IDX 25 49 17 51 18 52 19 53 20 54 37 56 31 58 32 59 33 60 34 61
REMARK H PARENT 52 29 50 31 48 33 46 35 44 37 42 39 25 50 20 55 37 57 34 62
REMARK Flexibility Score: inf
ROOT
ATOM      1  C   UNL     1      -2.592 -19.606  32.225  1.00  0.00     0.214 A 
ATOM      2  C   UNL     1      -1.145 -19.734  31.054  1.00  0.00     0.180 A 
ATOM      3  O   UNL     1       0.146 -20.269  31.894  1.00  0.00    -0.452 OA
ATOM      4  C   UNL     1       0.321 -21.947  31.774  1.00  0.00     0.146 A 
ATOM      5  C   UNL     1       0.658 -23.971  31.162  1.00  0.00     0.094 A 
ATOM      6  C   UNL     1       1.805 -24.963  29.881  1.00  0.00     0.126 A 
ATOM      7  C   UNL     1       2.129 -23.269  29.970  1.00  0.00     0.093 A 
ATOM      8  C   UNL     1       0.936 -21.866  30.248  1.00  0.00     0.134 A 
ATOM      9  C   UNL     1      -0.709 -22.133  31.046  1.00  0.00     0.111 A 
ATOM     10  C   UNL     1      -1.987 -21.317  32.112  1.00  0.00     0.239 A 
ATOM     11  O   UNL     1      -1.866 -22.303  30.966  1.00  0.00    -0.285 OA
ENDROOT
BRANCH   1  12
ATOM     12  O   UNL     1      -4.341 -18.584  32.385  1.00  0.00    -0.454 OA
BRANCH  12  13
ATOM     13  C   UNL     1      -6.262 -17.155  32.352  1.00  0.00     0.339 C 
ATOM     14  C   UNL     1      -6.747 -14.102  31.384  1.00  0.00     0.180 C 
ATOM     15  C   UNL     1      -8.322 -13.681  32.230  1.00  0.00     0.177 C 
ATOM     16  O   UNL     1      -6.098 -15.785  31.383  1.00  0.00    -0.332 OA
ATOM     17  C   UNL     1      -9.317 -14.873  31.981  1.00  0.00     0.180 C 
ATOM     18  C   UNL     1      -8.482 -16.712  32.373  1.00  0.00     0.214 C 
BRANCH  14  19
ATOM     19  C   UNL     1      -6.153 -12.652  29.861  1.00  0.00     0.198 C 
BRANCH  19  20
ATOM     20  O   UNL     1      -4.777 -11.755  28.511  1.00  0.00    -0.347 OA
BRANCH  20  21
ATOM     21  C   UNL     1      -3.016 -11.778  29.215  1.00  0.00     0.281 C 
ATOM     22  C   UNL     1      -0.606  -9.199  30.722  1.00  0.00     0.041 C 
ATOM     23  C   UNL     1      -2.003 -10.101  31.326  1.00  0.00     0.150 C 
ATOM     24  C   UNL     1      -0.989 -10.668  32.457  1.00  0.00     0.174 C 
ATOM     25  O   UNL     1      -2.974 -10.722  30.358  1.00  0.00    -0.344 OA
ATOM     26  C   UNL     1      -0.121 -11.674  30.764  1.00  0.00     0.179 C 
ATOM     27  C   UNL     1      -1.183 -11.730  28.017  1.00  0.00     0.202 C 
BRANCH  24  28
ATOM     28  O   UNL     1      -0.905  -9.095  33.315  1.00  0.00    -0.388 OA
ATOM     29  H   UNL     1      -2.542  -9.161  33.809  1.00  0.00     0.211 HD
ENDBRANCH  24  28
BRANCH  26  30
ATOM     30  O   UNL     1      -0.694 -12.913  30.779  1.00  0.00    -0.387 OA
ATOM     31  H   UNL     1      -1.616 -13.395  31.687  1.00  0.00     0.211 HD
ENDBRANCH  26  30
BRANCH  27  32
ATOM     32  O   UNL     1      -0.444 -11.883  25.932  1.00  0.00    -0.385 OA
ATOM     33  H   UNL     1       0.420 -10.686  26.496  1.00  0.00     0.211 HD
ENDBRANCH  27  32
ENDBRANCH  20  21
ENDBRANCH  19  20
ENDBRANCH  14  19
BRANCH  15  34
ATOM     34  O   UNL     1      -8.355 -13.765  33.804  1.00  0.00    -0.387 OA
ATOM     35  H   UNL     1      -7.929 -12.741  33.904  1.00  0.00     0.211 HD
ENDBRANCH  15  34
BRANCH  17  36
ATOM     36  O   UNL     1     -10.649 -13.832  31.671  1.00  0.00    -0.387 OA
ATOM     37  H   UNL     1     -11.174 -13.841  32.562  1.00  0.00     0.211 HD
ENDBRANCH  17  36
BRANCH  18  38
ATOM     38  O   UNL     1      -9.345 -17.785  31.591  1.00  0.00    -0.384 OA
ATOM     39  H   UNL     1     -10.488 -18.383  31.825  1.00  0.00     0.211 HD
ENDBRANCH  18  38
ENDBRANCH  12  13
ENDBRANCH   1  12
BRANCH   2  40
ATOM     40  C   UNL     1      -1.098 -20.185  29.206  1.00  0.00     0.025 A 
ATOM     41  C   UNL     1      -1.500 -18.935  28.555  1.00  0.00     0.062 A 
ATOM     42  C   UNL     1      -0.791 -21.311  27.891  1.00  0.00     0.016 A 
ATOM     43  C   UNL     1      -1.789 -18.494  27.166  1.00  0.00     0.162 A 
ATOM     44  C   UNL     1      -0.681 -21.032  26.471  1.00  0.00     0.051 A 
ATOM     45  C   UNL     1      -0.876 -19.254  26.199  1.00  0.00     0.161 A 
BRANCH  43  46
ATOM     46  O   UNL     1      -2.070 -16.907  26.797  1.00  0.00    -0.487 OA
BRANCH  46  47
ATOM     47  C   UNL     1      -2.396 -15.399  27.367  1.00  0.00     0.258 C 
BRANCH  47  48
ATOM     48  C   UNL     1      -2.520 -15.682  29.029  1.00  0.00     0.197 C 
BRANCH  48  49
ATOM     49  O   UNL     1      -3.716 -15.238  29.678  1.00  0.00    -0.393 OA
ATOM     50  H   UNL     1      -4.569 -15.343  29.021  1.00  0.00     0.210 HD
ENDBRANCH  48  49
ENDBRANCH  47  48
ENDBRANCH  46  47
ENDBRANCH  43  46
BRANCH  45  51
ATOM     51  O   UNL     1      -0.008 -18.215  25.160  1.00  0.00    -0.487 OA
BRANCH  51  52
ATOM     52  C   UNL     1       0.749 -16.846  24.347  1.00  0.00     0.258 C 
BRANCH  52  53
ATOM     53  C   UNL     1       1.093 -14.866  24.525  1.00  0.00     0.197 C 
BRANCH  53  54
ATOM     54  O   UNL     1       1.108 -13.328  24.095  1.00  0.00    -0.393 OA
ATOM     55  H   UNL     1       0.162 -12.963  24.143  1.00  0.00     0.210 HD
ENDBRANCH  53  54
ENDBRANCH  52  53
ENDBRANCH  51  52
ENDBRANCH  45  51
ENDBRANCH   2  40
BRANCH   8  56
ATOM     56  O   UNL     1       1.504 -20.672  29.829  1.00  0.00    -0.507 OA
ATOM     57  H   UNL     1       0.846 -19.891  29.778  1.00  0.00     0.293 HD
ENDBRANCH   8  56
BRANCH   6  58
ATOM     58  O   UNL     1       2.793 -26.918  29.068  1.00  0.00    -0.491 OA
BRANCH  58  59
ATOM     59  C   UNL     1       3.778 -28.881  29.316  1.00  0.00     0.257 C 
BRANCH  59  60
ATOM     60  C   UNL     1       2.531 -29.094  30.699  1.00  0.00     0.197 C 
BRANCH  60  61
ATOM     61  O   UNL     1       1.210 -28.500  30.761  1.00  0.00    -0.393 OA
ATOM     62  H   UNL     1       1.119 -28.140  31.795  1.00  0.00     0.210 HD
ENDBRANCH  60  61
ENDBRANCH  59  60
ENDBRANCH  58  59
ENDBRANCH   6  58
TORSDOF 25
ENDMDL
MODEL 6
REMARK VINA RESULT:    -7.848      2.818      7.503
REMARK INTER + INTRA:         -10.406
REMARK INTER:                  -8.296
REMARK INTRA:                  -2.110
REMARK UNBOUND:                -1.182
REMARK SMILES C[C@H]1O[C@@H](OC[C@@H]2O[C@H](Oc3c(-c4ccc(OCCO)c(OCCO)c4)oc4cc(OCCO)cc(O)c4c3=O)[C@H](O)[C@@H](O)[C@H]2O)[C@H](O)[C@H](O)[C@H]1O
REMARK SMILES IDX 11 1 12 2 27 3 28 4 29 5 30 6 35 7 36 8 38 9 39 10 40 11
REMARK SMILES IDX 10 12 9 13 7 14 45 15 8 16 43 17 41 18 6 19 5 20 4 21 1 22
REMARK SMILES IDX 2 23 51 24 3 25 49 26 47 27 52 28 50 30 48 32 46 34 44 36
REMARK SMILES IDX 42 38 13 40 26 41 14 42 21 43 15 44 16 45 22 46 23 47 24 48
REMARK SMILES IDX 25 49 17 51 18 52 19 53 20 54 37 56 31 58 32 59 33 60 34 61
REMARK H PARENT 52 29 50 31 48 33 46 35 44 37 42 39 25 50 20 55 37 57 34 62
REMARK Flexibility Score: inf
ROOT
ATOM      1  C   UNL     1      -2.384 -19.714  32.161  1.00  0.00     0.214 A 
ATOM      2  C   UNL     1      -0.900 -19.824  31.035  1.00  0.00     0.180 A 
ATOM      3  O   UNL     1       0.361 -20.381  31.906  1.00  0.00    -0.452 OA
ATOM      4  C   UNL     1       0.534 -22.058  31.757  1.00  0.00     0.146 A 
ATOM      5  C   UNL     1       0.884 -24.070  31.114  1.00  0.00     0.094 A 
ATOM      6  C   UNL     1       2.069 -25.040  29.851  1.00  0.00     0.126 A 
ATOM      7  C   UNL     1       2.395 -23.349  29.985  1.00  0.00     0.093 A 
ATOM      8  C   UNL     1       1.199 -21.948  30.253  1.00  0.00     0.134 A 
ATOM      9  C   UNL     1      -0.473 -22.224  30.992  1.00  0.00     0.111 A 
ATOM     10  C   UNL     1      -1.782 -21.425  32.033  1.00  0.00     0.239 A 
ATOM     11  O   UNL     1      -1.627 -22.387  30.871  1.00  0.00    -0.285 OA
ENDROOT
BRANCH   1  12
ATOM     12  O   UNL     1      -4.134 -18.688  32.285  1.00  0.00    -0.454 OA
BRANCH  12  13
ATOM     13  C   UNL     1      -6.023 -17.216  32.290  1.00  0.00     0.339 C 
ATOM     14  C   UNL     1      -6.464 -14.161  31.310  1.00  0.00     0.180 C 
ATOM     15  C   UNL     1      -8.007 -13.699  32.193  1.00  0.00     0.177 C 
ATOM     16  O   UNL     1      -5.853 -15.858  31.306  1.00  0.00    -0.332 OA
ATOM     17  C   UNL     1      -9.034 -14.869  31.979  1.00  0.00     0.180 C 
ATOM     18  C   UNL     1      -8.231 -16.724  32.365  1.00  0.00     0.214 C 
BRANCH  14  19
ATOM     19  C   UNL     1      -5.878 -12.736  29.761  1.00  0.00     0.198 C 
BRANCH  19  20
ATOM     20  O   UNL     1      -4.478 -11.769  28.485  1.00  0.00    -0.347 OA
BRANCH  20  21
ATOM     21  C   UNL     1      -2.842 -11.444  29.389  1.00  0.00     0.281 C 
ATOM     22  C   UNL     1       0.043 -13.583  30.743  1.00  0.00     0.041 C 
ATOM     23  C   UNL     1      -0.424 -12.989  29.143  1.00  0.00     0.150 C 
ATOM     24  C   UNL     1       1.040 -12.290  29.116  1.00  0.00     0.174 C 
ATOM     25  O   UNL     1      -1.832 -12.521  28.895  1.00  0.00    -0.344 OA
ATOM     26  C   UNL     1       0.166 -11.066  30.656  1.00  0.00     0.179 C 
ATOM     27  C   UNL     1      -2.644 -11.094  31.542  1.00  0.00     0.202 C 
BRANCH  24  28
ATOM     28  O   UNL     1       1.895 -13.853  28.921  1.00  0.00    -0.388 OA
ATOM     29  H   UNL     1       0.443 -14.751  28.811  1.00  0.00     0.211 HD
ENDBRANCH  24  28
BRANCH  26  30
ATOM     30  O   UNL     1      -0.282  -9.959  29.993  1.00  0.00    -0.387 OA
ATOM     31  H   UNL     1      -1.207  -9.917  28.968  1.00  0.00     0.211 HD
ENDBRANCH  26  30
BRANCH  27  32
ATOM     32  O   UNL     1      -3.832 -10.714  33.376  1.00  0.00    -0.385 OA
ATOM     33  H   UNL     1      -4.773 -10.125  32.252  1.00  0.00     0.211 HD
ENDBRANCH  27  32
ENDBRANCH  20  21
ENDBRANCH  19  20
ENDBRANCH  14  19
BRANCH  15  34
ATOM     34  O   UNL     1      -8.001 -13.769  33.767  1.00  0.00    -0.387 OA
ATOM     35  H   UNL     1      -8.066 -12.661  33.854  1.00  0.00     0.211 HD
ENDBRANCH  15  34
BRANCH  17  36
ATOM     36  O   UNL     1     -10.351 -13.801  31.695  1.00  0.00    -0.387 OA
ATOM     37  H   UNL     1     -10.621 -13.495  32.645  1.00  0.00     0.211 HD
ENDBRANCH  17  36
BRANCH  18  38
ATOM     38  O   UNL     1      -9.137 -17.783  31.613  1.00  0.00    -0.384 OA
ATOM     39  H   UNL     1      -8.933 -18.990  31.145  1.00  0.00     0.211 HD
ENDBRANCH  18  38
ENDBRANCH  12  13
ENDBRANCH   1  12
BRANCH   2  40
ATOM     40  C   UNL     1      -0.795 -20.237  29.181  1.00  0.00     0.025 A 
ATOM     41  C   UNL     1      -1.392 -19.057  28.549  1.00  0.00     0.062 A 
ATOM     42  C   UNL     1      -0.323 -21.283  27.849  1.00  0.00     0.016 A 
ATOM     43  C   UNL     1      -1.756 -18.649  27.168  1.00  0.00     0.162 A 
ATOM     44  C   UNL     1      -0.267 -20.971  26.432  1.00  0.00     0.051 A 
ATOM     45  C   UNL     1      -0.740 -19.243  26.187  1.00  0.00     0.161 A 
BRANCH  43  46
ATOM     46  O   UNL     1      -2.285 -17.121  26.823  1.00  0.00    -0.487 OA
BRANCH  46  47
ATOM     47  C   UNL     1      -2.154 -15.514  27.146  1.00  0.00     0.258 C 
BRANCH  47  48
ATOM     48  C   UNL     1      -3.500 -15.253  28.134  1.00  0.00     0.197 C 
BRANCH  48  49
ATOM     49  O   UNL     1      -3.278 -15.244  29.549  1.00  0.00    -0.393 OA
ATOM     50  H   UNL     1      -4.203 -15.417  30.082  1.00  0.00     0.210 HD
ENDBRANCH  48  49
ENDBRANCH  47  48
ENDBRANCH  46  47
ENDBRANCH  43  46
BRANCH  45  51
ATOM     51  O   UNL     1      -0.053 -18.066  25.159  1.00  0.00    -0.487 OA
BRANCH  51  52
ATOM     52  C   UNL     1       0.428 -16.588  24.328  1.00  0.00     0.258 C 
BRANCH  52  53
ATOM     53  C   UNL     1       0.897 -14.651  24.644  1.00  0.00     0.197 C 
BRANCH  53  54
ATOM     54  O   UNL     1       0.700 -13.067  24.634  1.00  0.00    -0.393 OA
ATOM     55  H   UNL     1       0.007 -12.824  23.932  1.00  0.00     0.210 HD
ENDBRANCH  53  54
ENDBRANCH  52  53
ENDBRANCH  51  52
ENDBRANCH  45  51
ENDBRANCH   2  40
BRANCH   8  56
ATOM     56  O   UNL     1       1.784 -20.747  29.878  1.00  0.00    -0.507 OA
ATOM     57  H   UNL     1       1.471 -19.941  30.423  1.00  0.00     0.293 HD
ENDBRANCH   8  56
BRANCH   6  58
ATOM     58  O   UNL     1       3.075 -26.982  29.031  1.00  0.00    -0.491 OA
BRANCH  58  59
ATOM     59  C   UNL     1       4.067 -28.942  29.271  1.00  0.00     0.257 C 
BRANCH  59  60
ATOM     60  C   UNL     1       2.948 -29.087  30.767  1.00  0.00     0.197 C 
BRANCH  60  61
ATOM     61  O   UNL     1       1.557 -28.686  30.839  1.00  0.00    -0.393 OA
ATOM     62  H   UNL     1       1.566 -27.772  31.449  1.00  0.00     0.210 HD
ENDBRANCH  60  61
ENDBRANCH  59  60
ENDBRANCH  58  59
ENDBRANCH   6  58
TORSDOF 25
ENDMDL
MODEL 7
REMARK VINA RESULT:    -7.052      2.641      5.431
REMARK INTER + INTRA:          -9.471
REMARK INTER:                  -9.038
REMARK INTRA:                  -0.432
REMARK UNBOUND:                -1.182
REMARK SMILES C[C@H]1O[C@@H](OC[C@@H]2O[C@H](Oc3c(-c4ccc(OCCO)c(OCCO)c4)oc4cc(OCCO)cc(O)c4c3=O)[C@H](O)[C@@H](O)[C@H]2O)[C@H](O)[C@H](O)[C@H]1O
REMARK SMILES IDX 11 1 12 2 27 3 28 4 29 5 30 6 35 7 36 8 38 9 39 10 40 11
REMARK SMILES IDX 10 12 9 13 7 14 45 15 8 16 43 17 41 18 6 19 5 20 4 21 1 22
REMARK SMILES IDX 2 23 51 24 3 25 49 26 47 27 52 28 50 30 48 32 46 34 44 36
REMARK SMILES IDX 42 38 13 40 26 41 14 42 21 43 15 44 16 45 22 46 23 47 24 48
REMARK SMILES IDX 25 49 17 51 18 52 19 53 20 54 37 56 31 58 32 59 33 60 34 61
REMARK H PARENT 52 29 50 31 48 33 46 35 44 37 42 39 25 50 20 55 37 57 34 62
REMARK Flexibility Score: inf
ROOT
ATOM      1  C   UNL     1       3.226 -18.973  30.223  1.00  0.00     0.214 A 
ATOM      2  C   UNL     1       3.616 -20.590  29.377  1.00  0.00     0.180 A 
ATOM      3  O   UNL     1       4.123 -21.649  30.508  1.00  0.00    -0.452 OA
ATOM      4  C   UNL     1       2.857 -22.623  31.065  1.00  0.00     0.146 A 
ATOM      5  C   UNL     1       1.279 -24.047  31.326  1.00  0.00     0.094 A 
ATOM      6  C   UNL     1       0.790 -25.858  30.675  1.00  0.00     0.126 A 
ATOM      7  C   UNL     1       2.335 -25.297  30.143  1.00  0.00     0.093 A 
ATOM      8  C   UNL     1       2.862 -23.564  29.713  1.00  0.00     0.134 A 
ATOM      9  C   UNL     1       1.953 -22.085  30.346  1.00  0.00     0.111 A 
ATOM     10  C   UNL     1       2.173 -20.316  30.852  1.00  0.00     0.239 A 
ATOM     11  O   UNL     1       1.160 -21.234  30.198  1.00  0.00    -0.285 OA
ENDROOT
BRANCH   1  12
ATOM     12  O   UNL     1       3.114 -16.997  29.764  1.00  0.00    -0.454 OA
BRANCH  12  13
ATOM     13  C   UNL     1       2.714 -14.755  29.022  1.00  0.00     0.339 C 
ATOM     14  C   UNL     1       0.232 -13.321  27.513  1.00  0.00     0.180 C 
ATOM     15  C   UNL     1       1.015 -11.789  26.869  1.00  0.00     0.177 C 
ATOM     16  O   UNL     1       1.105 -14.420  28.647  1.00  0.00    -0.332 OA
ATOM     17  C   UNL     1       1.837 -11.155  28.050  1.00  0.00     0.180 C 
ATOM     18  C   UNL     1       3.047 -12.517  29.008  1.00  0.00     0.214 C 
BRANCH  14  19
ATOM     19  C   UNL     1      -1.948 -13.314  27.386  1.00  0.00     0.198 C 
BRANCH  19  20
ATOM     20  O   UNL     1      -3.896 -13.983  27.919  1.00  0.00    -0.347 OA
BRANCH  20  21
ATOM     21  C   UNL     1      -4.549 -13.043  29.431  1.00  0.00     0.281 C 
ATOM     22  C   UNL     1      -3.272 -12.256  32.964  1.00  0.00     0.041 C 
ATOM     23  C   UNL     1      -2.967 -11.594  31.352  1.00  0.00     0.150 C 
ATOM     24  C   UNL     1      -3.461 -10.181  31.978  1.00  0.00     0.174 C 
ATOM     25  O   UNL     1      -3.317 -12.398  30.130  1.00  0.00    -0.344 OA
ATOM     26  C   UNL     1      -5.359 -11.196  32.025  1.00  0.00     0.179 C 
ATOM     27  C   UNL     1      -5.964 -13.850  30.897  1.00  0.00     0.202 C 
BRANCH  24  28
ATOM     28  O   UNL     1      -1.980  -9.986  32.969  1.00  0.00    -0.388 OA
ATOM     29  H   UNL     1      -2.528 -11.060  34.183  1.00  0.00     0.211 HD
ENDBRANCH  24  28
BRANCH  26  30
ATOM     30  O   UNL     1      -5.978 -10.805  30.873  1.00  0.00    -0.387 OA
ATOM     31  H   UNL     1      -6.129  -9.515  30.402  1.00  0.00     0.211 HD
ENDBRANCH  26  30
BRANCH  27  32
ATOM     32  O   UNL     1      -7.316 -15.567  31.272  1.00  0.00    -0.385 OA
ATOM     33  H   UNL     1      -7.093 -15.004  32.731  1.00  0.00     0.211 HD
ENDBRANCH  27  32
ENDBRANCH  20  21
ENDBRANCH  19  20
ENDBRANCH  14  19
BRANCH  15  34
ATOM     34  O   UNL     1       2.234 -11.946  25.883  1.00  0.00    -0.387 OA
ATOM     35  H   UNL     1       1.560 -12.009  25.000  1.00  0.00     0.211 HD
ENDBRANCH  15  34
BRANCH  17  36
ATOM     36  O   UNL     1       1.317  -9.556  27.691  1.00  0.00    -0.387 OA
ATOM     37  H   UNL     1       0.308  -9.670  27.496  1.00  0.00     0.211 HD
ENDBRANCH  17  36
BRANCH  18  38
ATOM     38  O   UNL     1       3.367 -11.919  30.439  1.00  0.00    -0.384 OA
ATOM     39  H   UNL     1       4.429 -11.379  30.985  1.00  0.00     0.211 HD
ENDBRANCH  18  38
ENDBRANCH  12  13
ENDBRANCH   1  12
BRANCH   2  40
ATOM     40  C   UNL     1       2.803 -21.411  27.866  1.00  0.00     0.025 A 
ATOM     41  C   UNL     1       1.654 -20.540  27.599  1.00  0.00     0.062 A 
ATOM     42  C   UNL     1       2.741 -22.648  26.617  1.00  0.00     0.016 A 
ATOM     43  C   UNL     1       0.498 -20.544  26.667  1.00  0.00     0.162 A 
ATOM     44  C   UNL     1       1.924 -22.680  25.418  1.00  0.00     0.051 A 
ATOM     45  C   UNL     1       0.930 -21.170  25.337  1.00  0.00     0.161 A 
BRANCH  43  46
ATOM     46  O   UNL     1      -0.538 -19.260  26.558  1.00  0.00    -0.487 OA
BRANCH  46  47
ATOM     47  C   UNL     1      -0.830 -17.691  26.955  1.00  0.00     0.258 C 
BRANCH  47  48
ATOM     48  C   UNL     1      -2.299 -17.817  27.781  1.00  0.00     0.197 C 
BRANCH  48  49
ATOM     49  O   UNL     1      -3.104 -16.635  27.862  1.00  0.00    -0.393 OA
ATOM     50  H   UNL     1      -3.172 -16.289  28.884  1.00  0.00     0.210 HD
ENDBRANCH  48  49
ENDBRANCH  47  48
ENDBRANCH  46  47
ENDBRANCH  43  46
BRANCH  45  51
ATOM     51  O   UNL     1       0.580 -20.173  23.996  1.00  0.00    -0.487 OA
BRANCH  51  52
ATOM     52  C   UNL     1       0.078 -18.883  22.906  1.00  0.00     0.258 C 
BRANCH  52  53
ATOM     53  C   UNL     1      -0.710 -17.026  22.876  1.00  0.00     0.197 C 
BRANCH  53  54
ATOM     54  O   UNL     1      -1.387 -15.702  23.459  1.00  0.00    -0.393 OA
ATOM     55  H   UNL     1      -1.489 -15.799  24.464  1.00  0.00     0.210 HD
ENDBRANCH  53  54
ENDBRANCH  52  53
ENDBRANCH  51  52
ENDBRANCH  45  51
ENDBRANCH   2  40
BRANCH   8  56
ATOM     56  O   UNL     1       4.013 -23.598  28.938  1.00  0.00    -0.507 OA
ATOM     57  H   UNL     1       4.424 -22.678  28.760  1.00  0.00     0.293 HD
ENDBRANCH   8  56
BRANCH   6  58
ATOM     58  O   UNL     1      -0.427 -27.847  30.804  1.00  0.00    -0.491 OA
BRANCH  58  59
ATOM     59  C   UNL     1      -2.082 -29.102  31.561  1.00  0.00     0.257 C 
BRANCH  59  60
ATOM     60  C   UNL     1      -2.370 -27.653  32.715  1.00  0.00     0.197 C 
BRANCH  60  61
ATOM     61  O   UNL     1      -2.453 -26.257  32.333  1.00  0.00    -0.393 OA
ATOM     62  H   UNL     1      -3.479 -25.962  32.592  1.00  0.00     0.210 HD
ENDBRANCH  60  61
ENDBRANCH  59  60
ENDBRANCH  58  59
ENDBRANCH   6  58
TORSDOF 25
ENDMDL
