MODEL 1
REMARK VINA RESULT:    -4.381      0.000      0.000
REMARK INTER + INTRA:          -4.509
REMARK INTER:                  -4.509
REMARK INTRA:                   0.000
REMARK UNBOUND:                 0.000
REMARK SMILES O=c1ccc2ccc(O)cc2o1
REMARK SMILES IDX 6 1 7 2 8 3 10 4 11 5 5 6 4 7 3 8 2 9 1 10 12 11 9 12
REMARK H PARENT 9 13
REMARK Flexibility Score: inf
ROOT
ATOM      1  C   UNL     1      11.099 -16.607   7.121  1.00  0.00     0.016 A 
ATOM      2  C   UNL     1      12.256 -16.614   7.908  1.00  0.00     0.047 A 
ATOM      3  C   UNL     1      12.378 -17.510   8.977  1.00  0.00     0.119 A 
ATOM      4  C   UNL     1      11.337 -18.405   9.262  1.00  0.00     0.094 A 
ATOM      5  C   UNL     1      10.176 -18.405   8.481  1.00  0.00     0.142 A 
ATOM      6  C   UNL     1      10.055 -17.500   7.403  1.00  0.00     0.018 A 
ATOM      7  C   UNL     1       8.884 -17.523   6.641  1.00  0.00     0.019 A 
ATOM      8  C   UNL     1       7.876 -18.430   6.963  1.00  0.00     0.094 A 
ATOM      9  C   UNL     1       8.064 -19.298   8.045  1.00  0.00     0.336 A 
ATOM     10  O   UNL     1       7.165 -20.125   8.351  1.00  0.00    -0.246 OA
ATOM     11  O   UNL     1       9.189 -19.256   8.754  1.00  0.00    -0.423 OA
ENDROOT
BRANCH   3  12
ATOM     12  O   UNL     1      13.538 -17.504   9.748  1.00  0.00    -0.508 OA
ATOM     13  H   UNL     1      14.401 -17.916   9.412  1.00  0.00     0.293 HD
ENDBRANCH   3  12
TORSDOF 1
ENDMDL
MODEL 2
REMARK VINA RESULT:    -4.358      1.769      4.637
REMARK INTER + INTRA:          -4.486
REMARK INTER:                  -4.486
REMARK INTRA:                   0.000
REMARK UNBOUND:                 0.000
REMARK SMILES O=c1ccc2ccc(O)cc2o1
REMARK SMILES IDX 6 1 7 2 8 3 10 4 11 5 5 6 4 7 3 8 2 9 1 10 12 11 9 12
REMARK H PARENT 9 13
REMARK Flexibility Score: inf
ROOT
ATOM      1  C   UNL     1       8.343 -20.125   7.035  1.00  0.00     0.016 A 
ATOM      2  C   UNL     1       7.043 -19.906   7.503  1.00  0.00     0.047 A 
ATOM      3  C   UNL     1       6.735 -18.741   8.216  1.00  0.00     0.119 A 
ATOM      4  C   UNL     1       7.734 -17.787   8.463  1.00  0.00     0.094 A 
ATOM      5  C   UNL     1       9.037 -17.998   7.998  1.00  0.00     0.142 A 
ATOM      6  C   UNL     1       9.344 -19.174   7.279  1.00  0.00     0.018 A 
ATOM      7  C   UNL     1      10.654 -19.358   6.828  1.00  0.00     0.019 A 
ATOM      8  C   UNL     1      11.613 -18.382   7.098  1.00  0.00     0.094 A 
ATOM      9  C   UNL     1      11.237 -17.241   7.816  1.00  0.00     0.336 A 
ATOM     10  O   UNL     1      12.088 -16.349   8.069  1.00  0.00    -0.246 OA
ATOM     11  O   UNL     1       9.983 -17.091   8.233  1.00  0.00    -0.423 OA
ENDROOT
BRANCH   3  12
ATOM     12  O   UNL     1       5.435 -18.539   8.673  1.00  0.00    -0.508 OA
ATOM     13  H   UNL     1       4.935 -19.258   9.184  1.00  0.00     0.293 HD
ENDBRANCH   3  12
TORSDOF 1
ENDMDL
MODEL 3
REMARK VINA RESULT:    -4.358      2.091      4.674
REMARK INTER + INTRA:          -4.485
REMARK INTER:                  -4.485
REMARK INTRA:                   0.000
REMARK UNBOUND:                 0.000
REMARK SMILES O=c1ccc2ccc(O)cc2o1
REMARK SMILES IDX 6 1 7 2 8 3 10 4 11 5 5 6 4 7 3 8 2 9 1 10 12 11 9 12
REMARK H PARENT 9 13
REMARK Flexibility Score: inf
ROOT
ATOM      1  C   UNL     1       7.469 -17.502   8.627  1.00  0.00     0.016 A 
ATOM      2  C   UNL     1       6.236 -18.163   8.675  1.00  0.00     0.047 A 
ATOM      3  C   UNL     1       6.108 -19.460   8.164  1.00  0.00     0.119 A 
ATOM      4  C   UNL     1       7.221 -20.102   7.600  1.00  0.00     0.094 A 
ATOM      5  C   UNL     1       8.458 -19.450   7.547  1.00  0.00     0.142 A 
ATOM      6  C   UNL     1       8.583 -18.141   8.065  1.00  0.00     0.018 A 
ATOM      7  C   UNL     1       9.831 -17.515   7.998  1.00  0.00     0.019 A 
ATOM      8  C   UNL     1      10.907 -18.194   7.428  1.00  0.00     0.094 A 
ATOM      9  C   UNL     1      10.709 -19.489   6.937  1.00  0.00     0.336 A 
ATOM     10  O   UNL     1      11.670 -20.118   6.419  1.00  0.00    -0.246 OA
ATOM     11  O   UNL     1       9.511 -20.062   7.012  1.00  0.00    -0.423 OA
ENDROOT
BRANCH   3  12
ATOM     12  O   UNL     1       4.874 -20.101   8.221  1.00  0.00    -0.508 OA
ATOM     13  H   UNL     1       4.239 -20.101   7.431  1.00  0.00     0.293 HD
ENDBRANCH   3  12
TORSDOF 1
ENDMDL
MODEL 4
REMARK VINA RESULT:    -4.273      1.878      2.788
REMARK INTER + INTRA:          -4.398
REMARK INTER:                  -4.398
REMARK INTRA:                   0.000
REMARK UNBOUND:                 0.000
REMARK SMILES O=c1ccc2ccc(O)cc2o1
REMARK SMILES IDX 6 1 7 2 8 3 10 4 11 5 5 6 4 7 3 8 2 9 1 10 12 11 9 12
REMARK H PARENT 9 13
REMARK Flexibility Score: inf
ROOT
ATOM      1  C   UNL     1      12.860 -17.469   9.333  1.00  0.00     0.016 A 
ATOM      2  C   UNL     1      13.840 -16.568   8.902  1.00  0.00     0.047 A 
ATOM      3  C   UNL     1      13.630 -15.786   7.760  1.00  0.00     0.119 A 
ATOM      4  C   UNL     1      12.430 -15.906   7.042  1.00  0.00     0.094 A 
ATOM      5  C   UNL     1      11.444 -16.804   7.465  1.00  0.00     0.142 A 
ATOM      6  C   UNL     1      11.660 -17.591   8.618  1.00  0.00     0.018 A 
ATOM      7  C   UNL     1      10.657 -18.480   9.016  1.00  0.00     0.019 A 
ATOM      8  C   UNL     1       9.482 -18.563   8.269  1.00  0.00     0.094 A 
ATOM      9  C   UNL     1       9.338 -17.752   7.138  1.00  0.00     0.336 A 
ATOM     10  O   UNL     1       8.283 -17.813   6.452  1.00  0.00    -0.246 OA
ATOM     11  O   UNL     1      10.307 -16.915   6.781  1.00  0.00    -0.423 OA
ENDROOT
BRANCH   3  12
ATOM     12  O   UNL     1      14.616 -14.895   7.348  1.00  0.00    -0.508 OA
ATOM     13  H   UNL     1      14.387 -13.961   7.027  1.00  0.00     0.293 HD
ENDBRANCH   3  12
TORSDOF 1
ENDMDL
MODEL 5
REMARK VINA RESULT:    -4.255      2.116      2.763
REMARK INTER + INTRA:          -4.380
REMARK INTER:                  -4.380
REMARK INTRA:                   0.000
REMARK UNBOUND:                 0.000
REMARK SMILES O=c1ccc2ccc(O)cc2o1
REMARK SMILES IDX 6 1 7 2 8 3 10 4 11 5 5 6 4 7 3 8 2 9 1 10 12 11 9 12
REMARK H PARENT 9 13
REMARK Flexibility Score: inf
ROOT
ATOM      1  C   UNL     1       9.761 -17.504   7.928  1.00  0.00     0.016 A 
ATOM      2  C   UNL     1      10.819 -18.125   7.256  1.00  0.00     0.047 A 
ATOM      3  C   UNL     1      10.644 -19.386   6.673  1.00  0.00     0.119 A 
ATOM      4  C   UNL     1       9.401 -20.032   6.764  1.00  0.00     0.094 A 
ATOM      5  C   UNL     1       8.337 -19.418   7.435  1.00  0.00     0.142 A 
ATOM      6  C   UNL     1       8.518 -18.145   8.020  1.00  0.00     0.018 A 
ATOM      7  C   UNL     1       7.438 -17.557   8.684  1.00  0.00     0.019 A 
ATOM      8  C   UNL     1       6.222 -18.238   8.748  1.00  0.00     0.094 A 
ATOM      9  C   UNL     1       6.116 -19.496   8.144  1.00  0.00     0.336 A 
ATOM     10  O   UNL     1       5.026 -20.125   8.191  1.00  0.00    -0.246 OA
ATOM     11  O   UNL     1       7.160 -20.032   7.518  1.00  0.00    -0.423 OA
ENDROOT
BRANCH   3  12
ATOM     12  O   UNL     1      11.707 -19.988   6.007  1.00  0.00    -0.508 OA
ATOM     13  H   UNL     1      11.567 -20.777   5.386  1.00  0.00     0.293 HD
ENDBRANCH   3  12
TORSDOF 1
ENDMDL
MODEL 6
REMARK VINA RESULT:    -4.131      1.769      2.219
REMARK INTER + INTRA:          -4.251
REMARK INTER:                  -4.251
REMARK INTRA:                   0.000
REMARK UNBOUND:                 0.000
REMARK SMILES O=c1ccc2ccc(O)cc2o1
REMARK SMILES IDX 6 1 7 2 8 3 10 4 11 5 5 6 4 7 3 8 2 9 1 10 12 11 9 12
REMARK H PARENT 9 13
REMARK Flexibility Score: inf
ROOT
ATOM      1  C   UNL     1      10.558 -19.693   6.899  1.00  0.00     0.016 A 
ATOM      2  C   UNL     1      11.702 -18.888   6.925  1.00  0.00     0.047 A 
ATOM      3  C   UNL     1      11.646 -17.595   7.458  1.00  0.00     0.119 A 
ATOM      4  C   UNL     1      10.436 -17.102   7.971  1.00  0.00     0.094 A 
ATOM      5  C   UNL     1       9.286 -17.900   7.949  1.00  0.00     0.142 A 
ATOM      6  C   UNL     1       9.348 -19.204   7.411  1.00  0.00     0.018 A 
ATOM      7  C   UNL     1       8.184 -19.978   7.403  1.00  0.00     0.019 A 
ATOM      8  C   UNL     1       7.005 -19.444   7.923  1.00  0.00     0.094 A 
ATOM      9  C   UNL     1       7.019 -18.144   8.441  1.00  0.00     0.336 A 
ATOM     10  O   UNL     1       5.964 -17.646   8.916  1.00  0.00    -0.246 OA
ATOM     11  O   UNL     1       8.140 -17.430   8.437  1.00  0.00    -0.423 OA
ENDROOT
BRANCH   3  12
ATOM     12  O   UNL     1      12.794 -16.809   7.476  1.00  0.00    -0.508 OA
ATOM     13  H   UNL     1      12.757 -15.819   7.691  1.00  0.00     0.293 HD
ENDBRANCH   3  12
TORSDOF 1
ENDMDL
MODEL 7
REMARK VINA RESULT:    -4.077      1.726      4.919
REMARK INTER + INTRA:          -4.197
REMARK INTER:                  -4.197
REMARK INTRA:                   0.000
REMARK UNBOUND:                 0.000
REMARK SMILES O=c1ccc2ccc(O)cc2o1
REMARK SMILES IDX 6 1 7 2 8 3 10 4 11 5 5 6 4 7 3 8 2 9 1 10 12 11 9 12
REMARK H PARENT 9 13
REMARK Flexibility Score: inf
ROOT
ATOM      1  C   UNL     1      10.416 -18.875   8.999  1.00  0.00     0.016 A 
ATOM      2  C   UNL     1       9.242 -18.958   8.242  1.00  0.00     0.047 A 
ATOM      3  C   UNL     1       9.038 -18.097   7.157  1.00  0.00     0.119 A 
ATOM      4  C   UNL     1      10.014 -17.145   6.826  1.00  0.00     0.094 A 
ATOM      5  C   UNL     1      11.191 -17.055   7.578  1.00  0.00     0.142 A 
ATOM      6  C   UNL     1      11.394 -17.926   8.671  1.00  0.00     0.018 A 
ATOM      7  C   UNL     1      12.579 -17.812   9.404  1.00  0.00     0.019 A 
ATOM      8  C   UNL     1      13.520 -16.850   9.037  1.00  0.00     0.094 A 
ATOM      9  C   UNL     1      13.252 -16.022   7.941  1.00  0.00     0.336 A 
ATOM     10  O   UNL     1      14.090 -15.148   7.595  1.00  0.00    -0.246 OA
ATOM     11  O   UNL     1      12.116 -16.151   7.261  1.00  0.00    -0.423 OA
ENDROOT
BRANCH   3  12
ATOM     12  O   UNL     1       7.864 -18.194   6.415  1.00  0.00    -0.508 OA
ATOM     13  H   UNL     1       7.832 -18.701   5.538  1.00  0.00     0.293 HD
ENDBRANCH   3  12
TORSDOF 1
ENDMDL
MODEL 8
REMARK VINA RESULT:    -4.023      0.758      4.227
REMARK INTER + INTRA:          -4.141
REMARK INTER:                  -4.141
REMARK INTRA:                   0.000
REMARK UNBOUND:                 0.000
REMARK SMILES O=c1ccc2ccc(O)cc2o1
REMARK SMILES IDX 6 1 7 2 8 3 10 4 11 5 5 6 4 7 3 8 2 9 1 10 12 11 9 12
REMARK H PARENT 9 13
REMARK Flexibility Score: inf
ROOT
ATOM      1  C   UNL     1       9.046 -17.511   6.583  1.00  0.00     0.016 A 
ATOM      2  C   UNL     1       8.027 -18.404   6.934  1.00  0.00     0.047 A 
ATOM      3  C   UNL     1       8.172 -19.241   8.046  1.00  0.00     0.119 A 
ATOM      4  C   UNL     1       9.345 -19.187   8.815  1.00  0.00     0.094 A 
ATOM      5  C   UNL     1      10.370 -18.297   8.471  1.00  0.00     0.142 A 
ATOM      6  C   UNL     1      10.219 -17.453   7.349  1.00  0.00     0.018 A 
ATOM      7  C   UNL     1      11.259 -16.576   7.030  1.00  0.00     0.019 A 
ATOM      8  C   UNL     1      12.406 -16.558   7.823  1.00  0.00     0.094 A 
ATOM      9  C   UNL     1      12.485 -17.422   8.921  1.00  0.00     0.336 A 
ATOM     10  O   UNL     1      13.512 -17.419   9.650  1.00  0.00    -0.246 OA
ATOM     11  O   UNL     1      11.481 -18.247   9.202  1.00  0.00    -0.423 OA
ENDROOT
BRANCH   3  12
ATOM     12  O   UNL     1       7.148 -20.122   8.380  1.00  0.00    -0.508 OA
ATOM     13  H   UNL     1       6.977 -20.398   9.341  1.00  0.00     0.293 HD
ENDBRANCH   3  12
TORSDOF 1
ENDMDL
