MODEL 1
REMARK VINA RESULT:    -1.548      0.000      0.000
REMARK INTER + INTRA:          -1.781
REMARK INTER:                  -1.683
REMARK INTRA:                  -0.098
REMARK UNBOUND:                -0.098
REMARK SMILES C=C(C)[C@H]1CC=C(C)[C@@H](O)C1
REMARK SMILES IDX 8 1 7 2 6 3 5 4 4 5 11 6 9 7 10 8 2 10 1 11 3 12
REMARK H PARENT 10 9
REMARK Flexibility Score: inf
ROOT
ATOM      1  C   UNL     1     -32.426  35.125 -12.125  1.00  0.00     0.042 C 
ATOM      2  C   UNL     1     -33.836  35.075 -11.594  1.00  0.00    -0.049 C 
ATOM      3  C   UNL     1     -34.257  36.073 -10.788  1.00  0.00    -0.025 C 
ATOM      4  C   UNL     1     -35.644  36.125 -10.197  1.00  0.00     0.035 C 
ATOM      5  C   UNL     1     -36.653  35.321 -11.032  1.00  0.00     0.021 C 
ATOM      6  C   UNL     1     -36.099  33.913 -11.296  1.00  0.00     0.044 C 
ATOM      7  C   UNL     1     -34.787  33.994 -12.100  1.00  0.00     0.140 C 
ENDROOT
BRANCH   7   8
ATOM      8  O   UNL     1     -34.157  32.737 -12.116  1.00  0.00    -0.389 OA
ATOM      9  H   UNL     1     -34.042  32.473 -13.066  1.00  0.00     0.211 HD
ENDBRANCH   7   8
BRANCH   5  10
ATOM     10  C   UNL     1     -38.016  35.268 -10.357  1.00  0.00    -0.077 C 
ATOM     11  C   UNL     1     -38.302  36.110  -9.350  1.00  0.00     0.008 C 
ATOM     12  C   UNL     1     -39.071  34.277 -10.785  1.00  0.00     0.039 C 
ENDBRANCH   5  10
TORSDOF 2
ENDMDL
MODEL 2
REMARK VINA RESULT:    -0.462     20.464     21.390
REMARK INTER + INTRA:          -0.600
REMARK INTER:                  -0.502
REMARK INTRA:                  -0.098
REMARK UNBOUND:                -0.098
REMARK SMILES C=C(C)[C@H]1CC=C(C)[C@@H](O)C1
REMARK SMILES IDX 8 1 7 2 6 3 5 4 4 5 11 6 9 7 10 8 2 10 1 11 3 12
REMARK H PARENT 10 9
REMARK Flexibility Score: inf
ROOT
ATOM      1  C   UNL     1     -38.150  19.982   7.928  1.00  0.00     0.042 C 
ATOM      2  C   UNL     1     -38.235  21.223   7.077  1.00  0.00    -0.049 C 
ATOM      3  C   UNL     1     -38.972  21.180   5.946  1.00  0.00    -0.025 C 
ATOM      4  C   UNL     1     -39.125  22.360   5.019  1.00  0.00     0.035 C 
ATOM      5  C   UNL     1     -38.889  23.694   5.744  1.00  0.00     0.021 C 
ATOM      6  C   UNL     1     -37.566  23.632   6.521  1.00  0.00     0.044 C 
ATOM      7  C   UNL     1     -37.622  22.523   7.590  1.00  0.00     0.140 C 
ENDROOT
BRANCH   7   8
ATOM      8  O   UNL     1     -36.338  22.301   8.117  1.00  0.00    -0.389 OA
ATOM      9  H   UNL     1     -35.894  21.621   7.546  1.00  0.00     0.211 HD
ENDBRANCH   7   8
BRANCH   5  10
ATOM     10  C   UNL     1     -38.913  24.866   4.773  1.00  0.00    -0.077 C 
ATOM     11  C   UNL     1     -38.737  24.655   3.459  1.00  0.00     0.008 C 
ATOM     12  C   UNL     1     -39.124  26.282   5.252  1.00  0.00     0.039 C 
ENDBRANCH   5  10
TORSDOF 2
ENDMDL
MODEL 3
REMARK VINA RESULT:    -0.268     19.908     20.782
REMARK INTER + INTRA:          -0.390
REMARK INTER:                  -0.291
REMARK INTRA:                  -0.098
REMARK UNBOUND:                -0.098
REMARK SMILES C=C(C)[C@H]1CC=C(C)[C@@H](O)C1
REMARK SMILES IDX 8 1 7 2 6 3 5 4 4 5 11 6 9 7 10 8 2 10 1 11 3 12
REMARK H PARENT 10 9
REMARK Flexibility Score: inf
ROOT
ATOM      1  C   UNL     1     -39.109  26.153   3.806  1.00  0.00     0.042 C 
ATOM      2  C   UNL     1     -38.832  24.937   4.653  1.00  0.00    -0.049 C 
ATOM      3  C   UNL     1     -38.941  25.047   5.994  1.00  0.00    -0.025 C 
ATOM      4  C   UNL     1     -38.685  23.899   6.938  1.00  0.00     0.035 C 
ATOM      5  C   UNL     1     -38.879  22.538   6.250  1.00  0.00     0.021 C 
ATOM      6  C   UNL     1     -38.083  22.504   4.937  1.00  0.00     0.044 C 
ATOM      7  C   UNL     1     -38.593  23.592   3.972  1.00  0.00     0.140 C 
ENDROOT
BRANCH   7   8
ATOM      8  O   UNL     1     -37.705  23.726   2.890  1.00  0.00    -0.389 OA
ATOM      9  H   UNL     1     -37.349  22.823   2.683  1.00  0.00     0.211 HD
ENDBRANCH   7   8
BRANCH   5  10
ATOM     10  C   UNL     1     -38.489  21.389   7.171  1.00  0.00    -0.077 C 
ATOM     11  C   UNL     1     -37.557  21.574   8.119  1.00  0.00     0.008 C 
ATOM     12  C   UNL     1     -39.124  20.026   7.042  1.00  0.00     0.039 C 
ENDBRANCH   5  10
TORSDOF 2
ENDMDL
MODEL 4
REMARK VINA RESULT:    -0.000     20.445     21.352
REMARK INTER + INTRA:          -0.098
REMARK INTER:                  -0.008
REMARK INTRA:                  -0.090
REMARK UNBOUND:                -0.098
REMARK SMILES C=C(C)[C@H]1CC=C(C)[C@@H](O)C1
REMARK SMILES IDX 8 1 7 2 6 3 5 4 4 5 11 6 9 7 10 8 2 10 1 11 3 12
REMARK H PARENT 10 9
REMARK Flexibility Score: inf
ROOT
ATOM      1  C   UNL     1     -39.118  25.741   3.846  1.00  0.00     0.042 C 
ATOM      2  C   UNL     1     -38.908  24.614   4.824  1.00  0.00    -0.049 C 
ATOM      3  C   UNL     1     -39.123  23.348   4.406  1.00  0.00    -0.025 C 
ATOM      4  C   UNL     1     -38.946  22.145   5.298  1.00  0.00     0.035 C 
ATOM      5  C   UNL     1     -37.976  22.428   6.456  1.00  0.00     0.021 C 
ATOM      6  C   UNL     1     -38.387  23.724   7.169  1.00  0.00     0.044 C 
ATOM      7  C   UNL     1     -38.314  24.918   6.197  1.00  0.00     0.140 C 
ENDROOT
BRANCH   7   8
ATOM      8  O   UNL     1     -38.928  26.043   6.774  1.00  0.00    -0.389 OA
ATOM      9  H   UNL     1     -38.979  25.886   7.753  1.00  0.00     0.211 HD
ENDBRANCH   7   8
BRANCH   5  10
ATOM     10  C   UNL     1     -37.909  21.254   7.423  1.00  0.00    -0.077 C 
ATOM     11  C   UNL     1     -36.753  20.951   8.035  1.00  0.00     0.008 C 
ATOM     12  C   UNL     1     -39.120  20.401   7.713  1.00  0.00     0.039 C 
ENDBRANCH   5  10
TORSDOF 2
ENDMDL
