MODEL 1
REMARK VINA RESULT:    -1.452      0.000      0.000
REMARK INTER + INTRA:          -2.149
REMARK INTER:                  -1.962
REMARK INTRA:                  -0.187
REMARK UNBOUND:                -0.187
REMARK SMILES CC(=O)CCC=C(C)CCC=C(C)C
REMARK SMILES IDX 7 1 6 2 8 3 9 4 10 5 11 6 13 7 12 8 14 9 5 10 4 11 2 12 3 13
REMARK SMILES IDX 1 14
REMARK H PARENT
REMARK Flexibility Score: inf
ROOT
ATOM      1  C   UNL     1      30.764  24.664  32.816  1.00  0.00    -0.077 C 
ATOM      2  C   UNL     1      31.327  24.643  34.045  1.00  0.00    -0.028 C 
ATOM      3  C   UNL     1      29.340  24.188  32.672  1.00  0.00     0.039 C 
ENDROOT
BRANCH   1   4
ATOM      4  C   UNL     1      31.502  25.125  31.571  1.00  0.00     0.034 C 
BRANCH   4   5
ATOM      5  C   UNL     1      31.221  24.218  30.365  1.00  0.00     0.032 C 
BRANCH   5   6
ATOM      6  C   UNL     1      32.473  23.971  29.557  1.00  0.00    -0.028 C 
ATOM      7  C   UNL     1      33.922  22.914  27.878  1.00  0.00     0.039 C 
ATOM      8  C   UNL     1      32.581  23.080  28.547  1.00  0.00    -0.080 C 
ATOM      9  C   UNL     1      31.410  22.253  28.075  1.00  0.00     0.039 C 
ENDBRANCH   5   6
ENDBRANCH   4   5
ENDBRANCH   1   4
BRANCH   2  10
ATOM     10  C   UNL     1      32.728  25.125  34.341  1.00  0.00     0.035 C 
BRANCH  10  11
ATOM     11  C   UNL     1      33.800  24.120  33.895  1.00  0.00     0.079 C 
BRANCH  11  12
ATOM     12  C   UNL     1      34.823  24.755  32.990  1.00  0.00     0.130 C 
ATOM     13  O   UNL     1      34.503  25.124  31.869  1.00  0.00    -0.300 OA
ATOM     14  C   UNL     1      36.229  24.969  33.465  1.00  0.00     0.087 C 
ENDBRANCH  11  12
ENDBRANCH  10  11
ENDBRANCH   2  10
TORSDOF 6
ENDMDL
MODEL 2
REMARK VINA RESULT:    -1.374      2.460      4.524
REMARK INTER + INTRA:          -2.044
REMARK INTER:                  -1.606
REMARK INTRA:                  -0.437
REMARK UNBOUND:                -0.187
REMARK SMILES CC(=O)CCC=C(C)CCC=C(C)C
REMARK SMILES IDX 7 1 6 2 8 3 9 4 10 5 11 6 13 7 12 8 14 9 5 10 4 11 2 12 3 13
REMARK SMILES IDX 1 14
REMARK H PARENT
REMARK Flexibility Score: inf
ROOT
ATOM      1  C   UNL     1      34.359  24.594  33.363  1.00  0.00    -0.077 C 
ATOM      2  C   UNL     1      33.081  24.619  33.804  1.00  0.00    -0.028 C 
ATOM      3  C   UNL     1      35.420  24.031  34.275  1.00  0.00     0.039 C 
ENDROOT
BRANCH   1   4
ATOM      4  C   UNL     1      34.780  25.124  32.003  1.00  0.00     0.034 C 
BRANCH   4   5
ATOM      5  C   UNL     1      36.257  24.835  31.704  1.00  0.00     0.032 C 
BRANCH   5   6
ATOM      6  C   UNL     1      36.583  25.074  30.248  1.00  0.00    -0.028 C 
ATOM      7  C   UNL     1      37.123  24.512  27.919  1.00  0.00     0.039 C 
ATOM      8  C   UNL     1      36.742  24.105  29.320  1.00  0.00    -0.080 C 
ATOM      9  C   UNL     1      36.553  22.643  29.643  1.00  0.00     0.039 C 
ENDBRANCH   5   6
ENDBRANCH   4   5
ENDBRANCH   1   4
BRANCH   2  10
ATOM     10  C   UNL     1      31.914  25.118  32.984  1.00  0.00     0.035 C 
BRANCH  10  11
ATOM     11  C   UNL     1      31.484  24.115  31.905  1.00  0.00     0.079 C 
BRANCH  11  12
ATOM     12  C   UNL     1      30.296  24.608  31.120  1.00  0.00     0.130 C 
ATOM     13  O   UNL     1      29.346  25.111  31.700  1.00  0.00    -0.300 OA
ATOM     14  C   UNL     1      30.284  24.514  29.624  1.00  0.00     0.087 C 
ENDBRANCH  11  12
ENDBRANCH  10  11
ENDBRANCH   2  10
TORSDOF 6
ENDMDL
MODEL 3
REMARK VINA RESULT:    -1.060      2.042      5.095
REMARK INTER + INTRA:          -1.619
REMARK INTER:                  -2.339
REMARK INTRA:                   0.720
REMARK UNBOUND:                -0.187
REMARK SMILES CC(=O)CCC=C(C)CCC=C(C)C
REMARK SMILES IDX 7 1 6 2 8 3 9 4 10 5 11 6 13 7 12 8 14 9 5 10 4 11 2 12 3 13
REMARK SMILES IDX 1 14
REMARK H PARENT
REMARK Flexibility Score: inf
ROOT
ATOM      1  C   UNL     1      30.782  24.595  30.652  1.00  0.00    -0.077 C 
ATOM      2  C   UNL     1      29.769  24.257  29.824  1.00  0.00    -0.028 C 
ATOM      3  C   UNL     1      30.510  24.641  32.135  1.00  0.00     0.039 C 
ENDROOT
BRANCH   1   4
ATOM      4  C   UNL     1      32.175  24.948  30.161  1.00  0.00     0.034 C 
BRANCH   4   5
ATOM      5  C   UNL     1      33.173  25.099  31.316  1.00  0.00     0.032 C 
BRANCH   5   6
ATOM      6  C   UNL     1      34.599  25.125  30.816  1.00  0.00    -0.028 C 
ATOM      7  C   UNL     1      37.052  25.087  30.940  1.00  0.00     0.039 C 
ATOM      8  C   UNL     1      35.696  24.979  31.590  1.00  0.00    -0.080 C 
ATOM      9  C   UNL     1      35.603  24.713  33.074  1.00  0.00     0.039 C 
ENDBRANCH   5   6
ENDBRANCH   4   5
ENDBRANCH   1   4
BRANCH   2  10
ATOM     10  C   UNL     1      29.908  24.134  28.324  1.00  0.00     0.035 C 
BRANCH  10  11
ATOM     11  C   UNL     1      31.367  23.948  27.885  1.00  0.00     0.079 C 
BRANCH  11  12
ATOM     12  C   UNL     1      31.790  22.503  27.936  1.00  0.00     0.130 C 
ATOM     13  O   UNL     1      32.973  22.216  28.038  1.00  0.00    -0.300 OA
ATOM     14  C   UNL     1      30.764  21.411  27.893  1.00  0.00     0.087 C 
ENDBRANCH  11  12
ENDBRANCH  10  11
ENDBRANCH   2  10
TORSDOF 6
ENDMDL
MODEL 4
REMARK VINA RESULT:    -0.046      1.441      4.743
REMARK INTER + INTRA:          -0.249
REMARK INTER:                   0.295
REMARK INTRA:                  -0.544
REMARK UNBOUND:                -0.187
REMARK SMILES CC(=O)CCC=C(C)CCC=C(C)C
REMARK SMILES IDX 7 1 6 2 8 3 9 4 10 5 11 6 13 7 12 8 14 9 5 10 4 11 2 12 3 13
REMARK SMILES IDX 1 14
REMARK H PARENT
REMARK Flexibility Score: inf
ROOT
ATOM      1  C   UNL     1      30.376  23.654  30.703  1.00  0.00    -0.077 C 
ATOM      2  C   UNL     1      30.862  23.687  29.442  1.00  0.00    -0.028 C 
ATOM      3  C   UNL     1      30.422  22.348  31.454  1.00  0.00     0.039 C 
ENDROOT
BRANCH   1   4
ATOM      4  C   UNL     1      29.770  24.864  31.392  1.00  0.00     0.034 C 
BRANCH   4   5
ATOM      5  C   UNL     1      30.406  25.125  32.764  1.00  0.00     0.032 C 
BRANCH   5   6
ATOM      6  C   UNL     1      31.915  25.125  32.683  1.00  0.00    -0.028 C 
ATOM      7  C   UNL     1      34.233  25.021  33.488  1.00  0.00     0.039 C 
ATOM      8  C   UNL     1      32.747  24.933  33.729  1.00  0.00    -0.080 C 
ATOM      9  C   UNL     1      32.238  24.636  35.119  1.00  0.00     0.039 C 
ENDBRANCH   5   6
ENDBRANCH   4   5
ENDBRANCH   1   4
BRANCH   2  10
ATOM     10  C   UNL     1      30.915  24.933  28.588  1.00  0.00     0.035 C 
BRANCH  10  11
ATOM     11  C   UNL     1      32.269  25.105  27.886  1.00  0.00     0.079 C 
BRANCH  11  12
ATOM     12  C   UNL     1      33.396  24.499  28.683  1.00  0.00     0.130 C 
ATOM     13  O   UNL     1      33.724  24.993  29.751  1.00  0.00    -0.300 OA
ATOM     14  C   UNL     1      34.099  23.271  28.188  1.00  0.00     0.087 C 
ENDBRANCH  11  12
ENDBRANCH  10  11
ENDBRANCH   2  10
TORSDOF 6
ENDMDL
