MODEL 1
REMARK VINA RESULT:    62.296      0.000      0.000
REMARK INTER + INTRA:          85.572
REMARK INTER:                  85.968
REMARK INTRA:                  -0.396
REMARK UNBOUND:                -0.396
REMARK SMILES CC[C@@H](CC[C@@H](C)[C@H]1CC[C@H]2[C@H]3CC=C4C[C@@H](O)CC[C@@]4(C)[C@@H]3CC[C@@]12C)C(C)C
REMARK SMILES IDX 5 1 4 2 3 3 2 4 1 5 28 6 29 7 30 8 6 9 7 10 8 11 9 12 26 13
REMARK SMILES IDX 10 14 11 15 25 16 27 17 12 18 24 19 23 20 13 21 21 22 14 23
REMARK SMILES IDX 15 24 20 25 22 26 16 27 19 28 17 29 18 30
REMARK H PARENT 18 31
REMARK Flexibility Score: inf
ROOT
ATOM      1  C   UNL     1     -30.904  27.905  -3.728  1.00  0.00     0.004 C 
ENDROOT
BRANCH   1   2
ATOM      2  C   UNL     1     -32.159  28.329  -2.924  1.00  0.00     0.004 C 
BRANCH   2   3
ATOM      3  C   UNL     1     -32.540  29.847  -2.936  1.00  0.00    -0.009 C 
BRANCH   3   4
ATOM      4  C   UNL     1     -31.734  30.611  -1.849  1.00  0.00     0.000 C 
ATOM      5  C   UNL     1     -30.781  31.665  -2.418  1.00  0.00     0.004 C 
ENDBRANCH   3   4
BRANCH   3   6
ATOM      6  C   UNL     1     -34.071  30.159  -2.771  1.00  0.00    -0.014 C 
ATOM      7  C   UNL     1     -34.796  30.490  -4.083  1.00  0.00     0.007 C 
ATOM      8  C   UNL     1     -34.853  29.089  -1.980  1.00  0.00     0.007 C 
ENDBRANCH   3   6
ENDBRANCH   2   3
ENDBRANCH   1   2
BRANCH   1   9
ATOM      9  C   UNL     1     -31.136  26.952  -4.935  1.00  0.00    -0.011 C 
ATOM     10  C   UNL     1     -32.173  27.557  -5.904  1.00  0.00     0.008 C 
BRANCH   9  11
ATOM     11  C   UNL     1     -29.814  26.586  -5.722  1.00  0.00    -0.002 C 
ATOM     12  C   UNL     1     -29.890  26.490  -7.248  1.00  0.00     0.005 C 
ATOM     13  C   UNL     1     -28.523  27.421  -5.427  1.00  0.00    -0.026 C 
ATOM     14  C   UNL     1     -28.441  26.427  -7.719  1.00  0.00     0.005 C 
ATOM     15  C   UNL     1     -27.559  26.975  -6.571  1.00  0.00    -0.001 C 
ATOM     16  C   UNL     1     -28.697  28.992  -5.422  1.00  0.00     0.007 C 
ATOM     17  C   UNL     1     -27.942  27.004  -4.052  1.00  0.00     0.012 C 
ATOM     18  C   UNL     1     -26.576  28.101  -6.983  1.00  0.00     0.000 C 
ATOM     19  C   UNL     1     -28.623  29.661  -6.802  1.00  0.00     0.005 C 
ATOM     20  C   UNL     1     -27.295  29.351  -7.556  1.00  0.00     0.003 C 
ATOM     21  C   UNL     1     -25.506  27.634  -7.974  1.00  0.00     0.031 C 
ATOM     22  C   UNL     1     -26.285  30.555  -7.698  1.00  0.00    -0.008 C 
ATOM     23  C   UNL     1     -24.590  28.770  -8.352  1.00  0.00    -0.027 C 
ATOM     24  C   UNL     1     -24.952  30.076  -8.308  1.00  0.00    -0.065 C 
ATOM     25  C   UNL     1     -26.905  31.621  -8.655  1.00  0.00     0.014 C 
ATOM     26  C   UNL     1     -25.982  31.206  -6.315  1.00  0.00     0.016 C 
ATOM     27  C   UNL     1     -23.957  31.121  -8.771  1.00  0.00     0.063 C 
ATOM     28  C   UNL     1     -25.919  32.711  -9.123  1.00  0.00     0.033 C 
ATOM     29  C   UNL     1     -24.617  32.140  -9.713  1.00  0.00     0.118 C 
BRANCH  29  30
ATOM     30  O   UNL     1     -24.822  31.592 -10.994  1.00  0.00    -0.393 OA
ATOM     31  H   UNL     1     -25.494  30.869 -10.919  1.00  0.00     0.210 HD
ENDBRANCH  29  30
ENDBRANCH   9  11
ENDBRANCH   1   9
TORSDOF 7
ENDMDL
MODEL 2
REMARK VINA RESULT:    63.550      2.505      3.592
REMARK INTER + INTRA:          87.302
REMARK INTER:                  87.425
REMARK INTRA:                  -0.123
REMARK UNBOUND:                -0.396
REMARK SMILES CC[C@@H](CC[C@@H](C)[C@H]1CC[C@H]2[C@H]3CC=C4C[C@@H](O)CC[C@@]4(C)[C@@H]3CC[C@@]12C)C(C)C
REMARK SMILES IDX 5 1 4 2 3 3 2 4 1 5 28 6 29 7 30 8 6 9 7 10 8 11 9 12 26 13
REMARK SMILES IDX 10 14 11 15 25 16 27 17 12 18 24 19 23 20 13 21 21 22 14 23
REMARK SMILES IDX 15 24 20 25 22 26 16 27 19 28 17 29 18 30
REMARK H PARENT 18 31
REMARK Flexibility Score: inf
ROOT
ATOM      1  C   UNL     1     -30.743  31.337  -3.269  1.00  0.00     0.004 C 
ENDROOT
BRANCH   1   2
ATOM      2  C   UNL     1     -31.768  30.796  -2.241  1.00  0.00     0.004 C 
BRANCH   2   3
ATOM      3  C   UNL     1     -33.031  30.063  -2.806  1.00  0.00    -0.009 C 
BRANCH   3   4
ATOM      4  C   UNL     1     -33.585  30.823  -4.042  1.00  0.00     0.000 C 
ATOM      5  C   UNL     1     -34.814  30.161  -4.671  1.00  0.00     0.004 C 
ENDBRANCH   3   4
BRANCH   3   6
ATOM      6  C   UNL     1     -34.190  29.824  -1.772  1.00  0.00    -0.014 C 
ATOM      7  C   UNL     1     -35.392  30.766  -1.937  1.00  0.00     0.007 C 
ATOM      8  C   UNL     1     -34.664  28.359  -1.680  1.00  0.00     0.007 C 
ENDBRANCH   3   6
ENDBRANCH   2   3
ENDBRANCH   1   2
BRANCH   1   9
ATOM      9  C   UNL     1     -29.438  31.957  -2.693  1.00  0.00    -0.011 C 
ATOM     10  C   UNL     1     -29.475  31.948  -1.151  1.00  0.00     0.008 C 
BRANCH   9  11
ATOM     11  C   UNL     1     -28.117  31.253  -3.204  1.00  0.00    -0.002 C 
ATOM     12  C   UNL     1     -28.235  29.847  -3.796  1.00  0.00     0.005 C 
ATOM     13  C   UNL     1     -27.197  32.041  -4.197  1.00  0.00    -0.026 C 
ATOM     14  C   UNL     1     -26.888  29.574  -4.455  1.00  0.00     0.005 C 
ATOM     15  C   UNL     1     -26.200  30.942  -4.682  1.00  0.00    -0.001 C 
ATOM     16  C   UNL     1     -27.921  32.722  -5.425  1.00  0.00     0.007 C 
ATOM     17  C   UNL     1     -26.432  33.146  -3.425  1.00  0.00     0.012 C 
ATOM     18  C   UNL     1     -25.709  31.194  -6.130  1.00  0.00     0.000 C 
ATOM     19  C   UNL     1     -28.166  31.802  -6.630  1.00  0.00     0.005 C 
ATOM     20  C   UNL     1     -26.858  31.154  -7.174  1.00  0.00     0.003 C 
ATOM     21  C   UNL     1     -24.597  30.234  -6.566  1.00  0.00     0.031 C 
ATOM     22  C   UNL     1     -26.354  31.683  -8.573  1.00  0.00    -0.008 C 
ATOM     23  C   UNL     1     -24.171  30.512  -7.984  1.00  0.00    -0.027 C 
ATOM     24  C   UNL     1     -24.974  31.088  -8.913  1.00  0.00    -0.065 C 
ATOM     25  C   UNL     1     -27.365  31.233  -9.674  1.00  0.00     0.014 C 
ATOM     26  C   UNL     1     -26.231  33.236  -8.580  1.00  0.00     0.016 C 
ATOM     27  C   UNL     1     -24.444  31.259 -10.323  1.00  0.00     0.063 C 
ATOM     28  C   UNL     1     -26.862  31.419 -11.119  1.00  0.00     0.033 C 
ATOM     29  C   UNL     1     -25.475  30.797 -11.365  1.00  0.00     0.118 C 
BRANCH  29  30
ATOM     30  O   UNL     1     -25.540  29.391 -11.430  1.00  0.00    -0.393 OA
ATOM     31  H   UNL     1     -24.690  29.059 -11.811  1.00  0.00     0.210 HD
ENDBRANCH  29  30
ENDBRANCH   9  11
ENDBRANCH   1   9
TORSDOF 7
ENDMDL
