MODEL 1
REMARK VINA RESULT:    -4.354      0.000      0.000
REMARK INTER + INTRA:          -9.815
REMARK INTER:                  -8.171
REMARK INTRA:                  -1.643
REMARK UNBOUND:                -1.643
REMARK SMILES O=C([O-])CCCCCCCCCCCCCCC(=O)[O-]
REMARK SMILES IDX 10 1 9 2 8 3 7 4 6 5 5 6 4 7 2 8 1 9 3 10 11 11 12 12 13 13
REMARK SMILES IDX 14 14 15 15 16 16 17 17 18 18 19 19 20 20
REMARK H PARENT
REMARK Flexibility Score: inf
ROOT
ATOM      1  C   UNL     1       4.225   3.418  13.015  1.00  0.00     0.000 C 
ENDROOT
BRANCH   1   2
ATOM      2  C   UNL     1       3.655   3.800  14.390  1.00  0.00     0.000 C 
BRANCH   2   3
ATOM      3  C   UNL     1       4.685   3.633  15.521  1.00  0.00     0.000 C 
BRANCH   3   4
ATOM      4  C   UNL     1       4.558   2.286  16.255  1.00  0.00     0.000 C 
BRANCH   4   5
ATOM      5  C   UNL     1       3.176   2.007  16.873  1.00  0.00     0.000 C 
BRANCH   5   6
ATOM      6  C   UNL     1       2.192   1.367  15.878  1.00  0.00     0.006 C 
BRANCH   6   7
ATOM      7  C   UNL     1       2.600  -0.062  15.499  1.00  0.00     0.053 C 
BRANCH   7   8
ATOM      8  C   UNL     1       1.479  -0.801  14.834  1.00  0.00     0.041 C 
ATOM      9  O   UNL     1       0.327  -0.294  14.787  1.00  0.00    -0.550 OA
ATOM     10  O   UNL     1       1.698  -2.063  14.297  1.00  0.00    -0.550 OA
ENDBRANCH   7   8
ENDBRANCH   6   7
ENDBRANCH   5   6
ENDBRANCH   4   5
ENDBRANCH   3   4
ENDBRANCH   2   3
ENDBRANCH   1   2
BRANCH   1  11
ATOM     11  C   UNL     1       4.600   1.929  12.926  1.00  0.00     0.000 C 
BRANCH  11  12
ATOM     12  C   UNL     1       6.120   1.704  12.883  1.00  0.00     0.000 C 
BRANCH  12  13
ATOM     13  C   UNL     1       6.560   0.453  13.664  1.00  0.00     0.000 C 
BRANCH  13  14
ATOM     14  C   UNL     1       5.529  -0.692  13.562  1.00  0.00     0.000 C 
BRANCH  14  15
ATOM     15  C   UNL     1       5.649  -1.735  14.690  1.00  0.00     0.000 C 
BRANCH  15  16
ATOM     16  C   UNL     1       6.077  -1.164  16.056  1.00  0.00     0.006 C 
BRANCH  16  17
ATOM     17  C   UNL     1       5.040  -1.360  17.175  1.00  0.00     0.053 C 
BRANCH  17  18
ATOM     18  C   UNL     1       5.569  -0.929  18.508  1.00  0.00     0.041 C 
ATOM     19  O   UNL     1       5.085   0.079  19.087  1.00  0.00    -0.550 OA
ATOM     20  O   UNL     1       6.574  -1.661  19.126  1.00  0.00    -0.550 OA
ENDBRANCH  17  18
ENDBRANCH  16  17
ENDBRANCH  15  16
ENDBRANCH  14  15
ENDBRANCH  13  14
ENDBRANCH  12  13
ENDBRANCH  11  12
ENDBRANCH   1  11
TORSDOF 15
ENDMDL
MODEL 2
REMARK VINA RESULT:    -4.255      1.031      3.214
REMARK INTER + INTRA:          -9.629
REMARK INTER:                  -8.430
REMARK INTRA:                  -1.199
REMARK UNBOUND:                -1.643
REMARK SMILES O=C([O-])CCCCCCCCCCCCCCC(=O)[O-]
REMARK SMILES IDX 10 1 9 2 8 3 7 4 6 5 5 6 4 7 2 8 1 9 3 10 11 11 12 12 13 13
REMARK SMILES IDX 14 14 15 15 16 16 17 17 18 18 19 19 20 20
REMARK H PARENT
REMARK Flexibility Score: inf
ROOT
ATOM      1  C   UNL     1       4.647   1.958  12.916  1.00  0.00     0.000 C 
ENDROOT
BRANCH   1   2
ATOM      2  C   UNL     1       6.098   1.452  12.875  1.00  0.00     0.000 C 
BRANCH   2   3
ATOM      3  C   UNL     1       6.371   0.363  13.928  1.00  0.00     0.000 C 
BRANCH   3   4
ATOM      4  C   UNL     1       6.221  -1.064  13.369  1.00  0.00     0.000 C 
BRANCH   4   5
ATOM      5  C   UNL     1       5.208  -1.953  14.115  1.00  0.00     0.000 C 
BRANCH   5   6
ATOM      6  C   UNL     1       3.850  -2.045  13.399  1.00  0.00     0.006 C 
BRANCH   6   7
ATOM      7  C   UNL     1       2.950  -0.841  13.709  1.00  0.00     0.053 C 
BRANCH   7   8
ATOM      8  C   UNL     1       1.918  -1.172  14.744  1.00  0.00     0.041 C 
ATOM      9  O   UNL     1       2.115  -2.115  15.555  1.00  0.00    -0.550 OA
ATOM     10  O   UNL     1       0.725  -0.462  14.790  1.00  0.00    -0.550 OA
ENDBRANCH   7   8
ENDBRANCH   6   7
ENDBRANCH   5   6
ENDBRANCH   4   5
ENDBRANCH   3   4
ENDBRANCH   2   3
ENDBRANCH   1   2
BRANCH   1  11
ATOM     11  C   UNL     1       4.523   3.331  13.600  1.00  0.00     0.000 C 
BRANCH  11  12
ATOM     12  C   UNL     1       3.244   3.459  14.442  1.00  0.00     0.000 C 
BRANCH  12  13
ATOM     13  C   UNL     1       3.151   2.398  15.553  1.00  0.00     0.000 C 
BRANCH  13  14
ATOM     14  C   UNL     1       4.367   2.441  16.505  1.00  0.00     0.000 C 
BRANCH  14  15
ATOM     15  C   UNL     1       4.421   1.259  17.492  1.00  0.00     0.000 C 
BRANCH  15  16
ATOM     16  C   UNL     1       4.753  -0.104  16.853  1.00  0.00     0.006 C 
BRANCH  16  17
ATOM     17  C   UNL     1       5.000  -1.232  17.867  1.00  0.00     0.053 C 
BRANCH  17  18
ATOM     18  C   UNL     1       5.541  -0.710  19.163  1.00  0.00     0.041 C 
ATOM     19  O   UNL     1       6.712  -1.000  19.524  1.00  0.00    -0.550 OA
ATOM     20  O   UNL     1       4.762   0.123  19.956  1.00  0.00    -0.550 OA
ENDBRANCH  17  18
ENDBRANCH  16  17
ENDBRANCH  15  16
ENDBRANCH  14  15
ENDBRANCH  13  14
ENDBRANCH  12  13
ENDBRANCH  11  12
ENDBRANCH   1  11
TORSDOF 15
ENDMDL
MODEL 3
REMARK VINA RESULT:    -4.247      1.177      3.770
REMARK INTER + INTRA:          -9.615
REMARK INTER:                  -7.947
REMARK INTRA:                  -1.668
REMARK UNBOUND:                -1.643
REMARK SMILES O=C([O-])CCCCCCCCCCCCCCC(=O)[O-]
REMARK SMILES IDX 10 1 9 2 8 3 7 4 6 5 5 6 4 7 2 8 1 9 3 10 11 11 12 12 13 13
REMARK SMILES IDX 14 14 15 15 16 16 17 17 18 18 19 19 20 20
REMARK H PARENT
REMARK Flexibility Score: inf
ROOT
ATOM      1  C   UNL     1       4.368   3.492  13.019  1.00  0.00     0.000 C 
ENDROOT
BRANCH   1   2
ATOM      2  C   UNL     1       3.499   3.270  14.267  1.00  0.00     0.000 C 
BRANCH   2   3
ATOM      3  C   UNL     1       4.305   3.385  15.573  1.00  0.00     0.000 C 
BRANCH   3   4
ATOM      4  C   UNL     1       4.484   2.034  16.289  1.00  0.00     0.000 C 
BRANCH   4   5
ATOM      5  C   UNL     1       3.965   1.990  17.738  1.00  0.00     0.000 C 
BRANCH   5   6
ATOM      6  C   UNL     1       4.684   0.938  18.601  1.00  0.00     0.006 C 
BRANCH   6   7
ATOM      7  C   UNL     1       5.868   0.298  17.865  1.00  0.00     0.053 C 
BRANCH   7   8
ATOM      8  C   UNL     1       5.921  -1.183  18.083  1.00  0.00     0.041 C 
ATOM      9  O   UNL     1       5.306  -1.960  17.306  1.00  0.00    -0.550 OA
ATOM     10  O   UNL     1       6.621  -1.704  19.164  1.00  0.00    -0.550 OA
ENDBRANCH   7   8
ENDBRANCH   6   7
ENDBRANCH   5   6
ENDBRANCH   4   5
ENDBRANCH   3   4
ENDBRANCH   2   3
ENDBRANCH   1   2
BRANCH   1  11
ATOM     11  C   UNL     1       5.795   2.942  13.189  1.00  0.00     0.000 C 
BRANCH  11  12
ATOM     12  C   UNL     1       5.889   1.438  12.887  1.00  0.00     0.000 C 
BRANCH  12  13
ATOM     13  C   UNL     1       6.490   0.632  14.051  1.00  0.00     0.000 C 
BRANCH  13  14
ATOM     14  C   UNL     1       6.582  -0.876  13.732  1.00  0.00     0.000 C 
BRANCH  14  15
ATOM     15  C   UNL     1       5.217  -1.534  13.453  1.00  0.00     0.000 C 
BRANCH  15  16
ATOM     16  C   UNL     1       4.107  -1.172  14.459  1.00  0.00     0.006 C 
BRANCH  16  17
ATOM     17  C   UNL     1       2.919  -0.416  13.842  1.00  0.00     0.053 C 
BRANCH  17  18
ATOM     18  C   UNL     1       1.726  -0.415  14.748  1.00  0.00     0.041 C 
ATOM     19  O   UNL     1       0.963  -1.416  14.794  1.00  0.00    -0.550 OA
ATOM     20  O   UNL     1       1.476   0.679  15.566  1.00  0.00    -0.550 OA
ENDBRANCH  17  18
ENDBRANCH  16  17
ENDBRANCH  15  16
ENDBRANCH  14  15
ENDBRANCH  13  14
ENDBRANCH  12  13
ENDBRANCH  11  12
ENDBRANCH   1  11
TORSDOF 15
ENDMDL
MODEL 4
REMARK VINA RESULT:    -4.170      1.063      4.839
REMARK INTER + INTRA:          -9.470
REMARK INTER:                  -7.796
REMARK INTRA:                  -1.674
REMARK UNBOUND:                -1.643
REMARK SMILES O=C([O-])CCCCCCCCCCCCCCC(=O)[O-]
REMARK SMILES IDX 10 1 9 2 8 3 7 4 6 5 5 6 4 7 2 8 1 9 3 10 11 11 12 12 13 13
REMARK SMILES IDX 14 14 15 15 16 16 17 17 18 18 19 19 20 20
REMARK H PARENT
REMARK Flexibility Score: inf
ROOT
ATOM      1  C   UNL     1       5.004   1.805  13.352  1.00  0.00     0.000 C 
ENDROOT
BRANCH   1   2
ATOM      2  C   UNL     1       6.399   1.251  13.020  1.00  0.00     0.000 C 
BRANCH   2   3
ATOM      3  C   UNL     1       6.618  -0.166  13.579  1.00  0.00     0.000 C 
BRANCH   3   4
ATOM      4  C   UNL     1       5.625  -0.531  14.696  1.00  0.00     0.000 C 
BRANCH   4   5
ATOM      5  C   UNL     1       5.854  -1.907  15.349  1.00  0.00     0.000 C 
BRANCH   5   6
ATOM      6  C   UNL     1       5.846  -1.850  16.886  1.00  0.00     0.006 C 
BRANCH   6   7
ATOM      7  C   UNL     1       5.797  -0.409  17.411  1.00  0.00     0.053 C 
BRANCH   7   8
ATOM      8  C   UNL     1       5.691  -0.366  18.905  1.00  0.00     0.041 C 
ATOM      9  O   UNL     1       6.582  -0.899  19.618  1.00  0.00    -0.550 OA
ATOM     10  O   UNL     1       4.592   0.231  19.510  1.00  0.00    -0.550 OA
ENDBRANCH   7   8
ENDBRANCH   6   7
ENDBRANCH   5   6
ENDBRANCH   4   5
ENDBRANCH   3   4
ENDBRANCH   2   3
ENDBRANCH   1   2
BRANCH   1  11
ATOM     11  C   UNL     1       5.027   3.311  13.664  1.00  0.00     0.000 C 
BRANCH  11  12
ATOM     12  C   UNL     1       4.226   3.667  14.926  1.00  0.00     0.000 C 
BRANCH  12  13
ATOM     13  C   UNL     1       4.405   2.637  16.056  1.00  0.00     0.000 C 
BRANCH  13  14
ATOM     14  C   UNL     1       3.088   1.903  16.390  1.00  0.00     0.000 C 
BRANCH  14  15
ATOM     15  C   UNL     1       2.428   1.231  15.171  1.00  0.00     0.000 C 
BRANCH  15  16
ATOM     16  C   UNL     1       1.080   0.543  15.460  1.00  0.00     0.006 C 
BRANCH  16  17
ATOM     17  C   UNL     1       0.870  -0.778  14.702  1.00  0.00     0.053 C 
BRANCH  17  18
ATOM     18  C   UNL     1       2.047  -1.695  14.840  1.00  0.00     0.041 C 
ATOM     19  O   UNL     1       2.404  -2.102  15.977  1.00  0.00    -0.550 OA
ATOM     20  O   UNL     1       2.728  -2.125  13.709  1.00  0.00    -0.550 OA
ENDBRANCH  17  18
ENDBRANCH  16  17
ENDBRANCH  15  16
ENDBRANCH  14  15
ENDBRANCH  13  14
ENDBRANCH  12  13
ENDBRANCH  11  12
ENDBRANCH   1  11
TORSDOF 15
ENDMDL
MODEL 5
REMARK VINA RESULT:    -4.042      1.988      4.417
REMARK INTER + INTRA:          -9.230
REMARK INTER:                  -7.117
REMARK INTRA:                  -2.112
REMARK UNBOUND:                -1.643
REMARK SMILES O=C([O-])CCCCCCCCCCCCCCC(=O)[O-]
REMARK SMILES IDX 10 1 9 2 8 3 7 4 6 5 5 6 4 7 2 8 1 9 3 10 11 11 12 12 13 13
REMARK SMILES IDX 14 14 15 15 16 16 17 17 18 18 19 19 20 20
REMARK H PARENT
REMARK Flexibility Score: inf
ROOT
ATOM      1  C   UNL     1       5.592  -1.842  17.612  1.00  0.00     0.000 C 
ENDROOT
BRANCH   1   2
ATOM      2  C   UNL     1       5.832  -0.612  18.501  1.00  0.00     0.000 C 
BRANCH   2   3
ATOM      3  C   UNL     1       5.657   0.712  17.735  1.00  0.00     0.000 C 
BRANCH   3   4
ATOM      4  C   UNL     1       4.447   1.530  18.221  1.00  0.00     0.000 C 
BRANCH   4   5
ATOM      5  C   UNL     1       3.357   1.774  17.161  1.00  0.00     0.000 C 
BRANCH   5   6
ATOM      6  C   UNL     1       3.289   0.658  16.104  1.00  0.00     0.006 C 
BRANCH   6   7
ATOM      7  C   UNL     1       2.083   0.820  15.169  1.00  0.00     0.053 C 
BRANCH   7   8
ATOM      8  C   UNL     1       1.266  -0.433  15.095  1.00  0.00     0.041 C 
ATOM      9  O   UNL     1       1.817  -1.557  15.232  1.00  0.00    -0.550 OA
ATOM     10  O   UNL     1      -0.098  -0.362  14.841  1.00  0.00    -0.550 OA
ENDBRANCH   7   8
ENDBRANCH   6   7
ENDBRANCH   5   6
ENDBRANCH   4   5
ENDBRANCH   3   4
ENDBRANCH   2   3
ENDBRANCH   1   2
BRANCH   1  11
ATOM     11  C   UNL     1       6.196  -1.679  16.206  1.00  0.00     0.000 C 
BRANCH  11  12
ATOM     12  C   UNL     1       5.233  -2.123  15.093  1.00  0.00     0.000 C 
BRANCH  12  13
ATOM     13  C   UNL     1       5.422  -1.328  13.789  1.00  0.00     0.000 C 
BRANCH  13  14
ATOM     14  C   UNL     1       6.178  -0.002  14.018  1.00  0.00     0.000 C 
BRANCH  14  15
ATOM     15  C   UNL     1       5.954   1.038  12.903  1.00  0.00     0.000 C 
BRANCH  15  16
ATOM     16  C   UNL     1       5.769   2.486  13.395  1.00  0.00     0.006 C 
BRANCH  16  17
ATOM     17  C   UNL     1       4.355   3.050  13.180  1.00  0.00     0.053 C 
BRANCH  17  18
ATOM     18  C   UNL     1       3.876   3.829  14.367  1.00  0.00     0.041 C 
ATOM     19  O   UNL     1       4.697   4.236  15.231  1.00  0.00    -0.550 OA
ATOM     20  O   UNL     1       2.528   4.133  14.500  1.00  0.00    -0.550 OA
ENDBRANCH  17  18
ENDBRANCH  16  17
ENDBRANCH  15  16
ENDBRANCH  14  15
ENDBRANCH  13  14
ENDBRANCH  12  13
ENDBRANCH  11  12
ENDBRANCH   1  11
TORSDOF 15
ENDMDL
MODEL 6
REMARK VINA RESULT:    -3.915      2.142      5.344
REMARK INTER + INTRA:          -8.990
REMARK INTER:                  -7.765
REMARK INTRA:                  -1.226
REMARK UNBOUND:                -1.643
REMARK SMILES O=C([O-])CCCCCCCCCCCCCCC(=O)[O-]
REMARK SMILES IDX 10 1 9 2 8 3 7 4 6 5 5 6 4 7 2 8 1 9 3 10 11 11 12 12 13 13
REMARK SMILES IDX 14 14 15 15 16 16 17 17 18 18 19 19 20 20
REMARK H PARENT
REMARK Flexibility Score: inf
ROOT
ATOM      1  C   UNL     1       3.979  -0.039  13.476  1.00  0.00     0.000 C 
ENDROOT
BRANCH   1   2
ATOM      2  C   UNL     1       5.392  -0.109  12.875  1.00  0.00     0.000 C 
BRANCH   2   3
ATOM      3  C   UNL     1       5.983  -1.529  12.925  1.00  0.00     0.000 C 
BRANCH   3   4
ATOM      4  C   UNL     1       6.822  -1.786  14.190  1.00  0.00     0.000 C 
BRANCH   4   5
ATOM      5  C   UNL     1       6.009  -2.125  15.454  1.00  0.00     0.000 C 
BRANCH   5   6
ATOM      6  C   UNL     1       5.852  -0.926  16.405  1.00  0.00     0.006 C 
BRANCH   6   7
ATOM      7  C   UNL     1       4.938  -1.246  17.594  1.00  0.00     0.053 C 
BRANCH   7   8
ATOM      8  C   UNL     1       5.432  -0.616  18.860  1.00  0.00     0.041 C 
ATOM      9  O   UNL     1       6.519  -0.993  19.372  1.00  0.00    -0.550 OA
ATOM     10  O   UNL     1       4.676   0.362  19.493  1.00  0.00    -0.550 OA
ENDBRANCH   7   8
ENDBRANCH   6   7
ENDBRANCH   5   6
ENDBRANCH   4   5
ENDBRANCH   3   4
ENDBRANCH   2   3
ENDBRANCH   1   2
BRANCH   1  11
ATOM     11  C   UNL     1       3.241  -1.386  13.403  1.00  0.00     0.000 C 
BRANCH  11  12
ATOM     12  C   UNL     1       2.389  -1.663  14.651  1.00  0.00     0.000 C 
BRANCH  12  13
ATOM     13  C   UNL     1       1.107  -0.813  14.701  1.00  0.00     0.000 C 
BRANCH  13  14
ATOM     14  C   UNL     1       1.218   0.352  15.708  1.00  0.00     0.000 C 
BRANCH  14  15
ATOM     15  C   UNL     1       2.288   1.396  15.331  1.00  0.00     0.000 C 
BRANCH  15  16
ATOM     16  C   UNL     1       3.165   1.876  16.503  1.00  0.00     0.006 C 
BRANCH  16  17
ATOM     17  C   UNL     1       4.412   2.667  16.075  1.00  0.00     0.053 C 
BRANCH  17  18
ATOM     18  C   UNL     1       4.161   3.484  14.845  1.00  0.00     0.041 C 
ATOM     19  O   UNL     1       3.192   4.288  14.805  1.00  0.00    -0.550 OA
ATOM     20  O   UNL     1       5.016   3.382  13.757  1.00  0.00    -0.550 OA
ENDBRANCH  17  18
ENDBRANCH  16  17
ENDBRANCH  15  16
ENDBRANCH  14  15
ENDBRANCH  13  14
ENDBRANCH  12  13
ENDBRANCH  11  12
ENDBRANCH   1  11
TORSDOF 15
ENDMDL
MODEL 7
REMARK VINA RESULT:    -3.802      2.199      4.171
REMARK INTER + INTRA:          -8.780
REMARK INTER:                  -7.194
REMARK INTRA:                  -1.587
REMARK UNBOUND:                -1.643
REMARK SMILES O=C([O-])CCCCCCCCCCCCCCC(=O)[O-]
REMARK SMILES IDX 10 1 9 2 8 3 7 4 6 5 5 6 4 7 2 8 1 9 3 10 11 11 12 12 13 13
REMARK SMILES IDX 14 14 15 15 16 16 17 17 18 18 19 19 20 20
REMARK H PARENT
REMARK Flexibility Score: inf
ROOT
ATOM      1  C   UNL     1       1.610   0.844  15.400  1.00  0.00     0.000 C 
ENDROOT
BRANCH   1   2
ATOM      2  C   UNL     1       0.878  -0.354  14.775  1.00  0.00     0.000 C 
BRANCH   2   3
ATOM      3  C   UNL     1       1.762  -1.612  14.704  1.00  0.00     0.000 C 
BRANCH   3   4
ATOM      4  C   UNL     1       3.042  -1.494  15.550  1.00  0.00     0.000 C 
BRANCH   4   5
ATOM      5  C   UNL     1       4.328  -1.988  14.860  1.00  0.00     0.000 C 
BRANCH   5   6
ATOM      6  C   UNL     1       4.294  -1.809  13.333  1.00  0.00     0.006 C 
BRANCH   6   7
ATOM      7  C   UNL     1       4.792  -0.424  12.901  1.00  0.00     0.053 C 
BRANCH   7   8
ATOM      8  C   UNL     1       6.260  -0.259  13.152  1.00  0.00     0.041 C 
ATOM      9  O   UNL     1       6.788   0.883  13.091  1.00  0.00    -0.550 OA
ATOM     10  O   UNL     1       7.051  -1.370  13.419  1.00  0.00    -0.550 OA
ENDBRANCH   7   8
ENDBRANCH   6   7
ENDBRANCH   5   6
ENDBRANCH   4   5
ENDBRANCH   3   4
ENDBRANCH   2   3
ENDBRANCH   1   2
BRANCH   1  11
ATOM     11  C   UNL     1       2.550   1.544  14.404  1.00  0.00     0.000 C 
BRANCH  11  12
ATOM     12  C   UNL     1       2.806   3.016  14.765  1.00  0.00     0.000 C 
BRANCH  12  13
ATOM     13  C   UNL     1       4.302   3.378  14.767  1.00  0.00     0.000 C 
BRANCH  13  14
ATOM     14  C   UNL     1       5.120   2.477  15.717  1.00  0.00     0.000 C 
BRANCH  14  15
ATOM     15  C   UNL     1       4.520   2.363  17.131  1.00  0.00     0.000 C 
BRANCH  15  16
ATOM     16  C   UNL     1       4.469   0.932  17.700  1.00  0.00     0.006 C 
BRANCH  16  17
ATOM     17  C   UNL     1       5.816   0.192  17.667  1.00  0.00     0.053 C 
BRANCH  17  18
ATOM     18  C   UNL     1       5.781  -1.069  18.476  1.00  0.00     0.041 C 
ATOM     19  O   UNL     1       4.800  -1.853  18.386  1.00  0.00    -0.550 OA
ATOM     20  O   UNL     1       6.848  -1.393  19.303  1.00  0.00    -0.550 OA
ENDBRANCH  17  18
ENDBRANCH  16  17
ENDBRANCH  15  16
ENDBRANCH  14  15
ENDBRANCH  13  14
ENDBRANCH  12  13
ENDBRANCH  11  12
ENDBRANCH   1  11
TORSDOF 15
ENDMDL
MODEL 8
REMARK VINA RESULT:    -3.759      1.938      4.687
REMARK INTER + INTRA:          -8.698
REMARK INTER:                  -7.517
REMARK INTRA:                  -1.181
REMARK UNBOUND:                -1.643
REMARK SMILES O=C([O-])CCCCCCCCCCCCCCC(=O)[O-]
REMARK SMILES IDX 10 1 9 2 8 3 7 4 6 5 5 6 4 7 2 8 1 9 3 10 11 11 12 12 13 13
REMARK SMILES IDX 14 14 15 15 16 16 17 17 18 18 19 19 20 20
REMARK H PARENT
REMARK Flexibility Score: inf
ROOT
ATOM      1  C   UNL     1       4.338   1.626  18.160  1.00  0.00     0.000 C 
ENDROOT
BRANCH   1   2
ATOM      2  C   UNL     1       3.448   1.920  16.942  1.00  0.00     0.000 C 
BRANCH   2   3
ATOM      3  C   UNL     1       4.183   2.731  15.859  1.00  0.00     0.000 C 
BRANCH   3   4
ATOM      4  C   UNL     1       3.260   3.167  14.707  1.00  0.00     0.000 C 
BRANCH   4   5
ATOM      5  C   UNL     1       3.972   3.850  13.524  1.00  0.00     0.000 C 
BRANCH   5   6
ATOM      6  C   UNL     1       5.135   3.015  12.961  1.00  0.00     0.006 C 
BRANCH   6   7
ATOM      7  C   UNL     1       4.810   1.516  12.932  1.00  0.00     0.053 C 
BRANCH   7   8
ATOM      8  C   UNL     1       5.953   0.690  13.438  1.00  0.00     0.041 C 
ATOM      9  O   UNL     1       6.247  -0.397  12.875  1.00  0.00    -0.550 OA
ATOM     10  O   UNL     1       6.673   1.104  14.552  1.00  0.00    -0.550 OA
ENDBRANCH   7   8
ENDBRANCH   6   7
ENDBRANCH   5   6
ENDBRANCH   4   5
ENDBRANCH   3   4
ENDBRANCH   2   3
ENDBRANCH   1   2
BRANCH   1  11
ATOM     11  C   UNL     1       5.589   0.809  17.791  1.00  0.00     0.000 C 
BRANCH  11  12
ATOM     12  C   UNL     1       5.784  -0.417  18.697  1.00  0.00     0.000 C 
BRANCH  12  13
ATOM     13  C   UNL     1       5.627  -1.748  17.941  1.00  0.00     0.000 C 
BRANCH  13  14
ATOM     14  C   UNL     1       4.421  -1.733  16.977  1.00  0.00     0.000 C 
BRANCH  14  15
ATOM     15  C   UNL     1       4.811  -1.897  15.496  1.00  0.00     0.000 C 
BRANCH  15  16
ATOM     16  C   UNL     1       3.627  -1.899  14.510  1.00  0.00     0.006 C 
BRANCH  16  17
ATOM     17  C   UNL     1       2.246  -1.823  15.182  1.00  0.00     0.053 C 
BRANCH  17  18
ATOM     18  C   UNL     1       1.504  -0.580  14.797  1.00  0.00     0.041 C 
ATOM     19  O   UNL     1       1.904   0.124  13.832  1.00  0.00    -0.550 OA
ATOM     20  O   UNL     1       0.353  -0.218  15.484  1.00  0.00    -0.550 OA
ENDBRANCH  17  18
ENDBRANCH  16  17
ENDBRANCH  15  16
ENDBRANCH  14  15
ENDBRANCH  13  14
ENDBRANCH  12  13
ENDBRANCH  11  12
ENDBRANCH   1  11
TORSDOF 15
ENDMDL
MODEL 9
REMARK VINA RESULT:    -2.816      2.112      4.634
REMARK INTER + INTRA:          -6.929
REMARK INTER:                  -5.201
REMARK INTRA:                  -1.728
REMARK UNBOUND:                -1.643
REMARK SMILES O=C([O-])CCCCCCCCCCCCCCC(=O)[O-]
REMARK SMILES IDX 10 1 9 2 8 3 7 4 6 5 5 6 4 7 2 8 1 9 3 10 11 11 12 12 13 13
REMARK SMILES IDX 14 14 15 15 16 16 17 17 18 18 19 19 20 20
REMARK H PARENT
REMARK Flexibility Score: inf
ROOT
ATOM      1  C   UNL     1       4.991  -1.341  17.801  1.00  0.00     0.000 C 
ENDROOT
BRANCH   1   2
ATOM      2  C   UNL     1       5.316  -0.710  19.165  1.00  0.00     0.000 C 
BRANCH   2   3
ATOM      3  C   UNL     1       4.751   0.715  19.304  1.00  0.00     0.000 C 
BRANCH   3   4
ATOM      4  C   UNL     1       4.722   1.482  17.970  1.00  0.00     0.000 C 
BRANCH   4   5
ATOM      5  C   UNL     1       3.331   1.978  17.533  1.00  0.00     0.000 C 
BRANCH   5   6
ATOM      6  C   UNL     1       3.157   2.007  16.005  1.00  0.00     0.006 C 
BRANCH   6   7
ATOM      7  C   UNL     1       4.401   2.553  15.292  1.00  0.00     0.053 C 
BRANCH   7   8
ATOM      8  C   UNL     1       4.037   3.424  14.129  1.00  0.00     0.041 C 
ATOM      9  O   UNL     1       4.797   3.492  13.127  1.00  0.00    -0.550 OA
ATOM     10  O   UNL     1       2.876   4.186  14.165  1.00  0.00    -0.550 OA
ENDBRANCH   7   8
ENDBRANCH   6   7
ENDBRANCH   5   6
ENDBRANCH   4   5
ENDBRANCH   3   4
ENDBRANCH   2   3
ENDBRANCH   1   2
BRANCH   1  11
ATOM     11  C   UNL     1       6.214  -2.020  17.161  1.00  0.00     0.000 C 
BRANCH  11  12
ATOM     12  C   UNL     1       6.210  -1.922  15.627  1.00  0.00     0.000 C 
BRANCH  12  13
ATOM     13  C   UNL     1       6.185  -0.469  15.122  1.00  0.00     0.000 C 
BRANCH  13  14
ATOM     14  C   UNL     1       6.306  -0.383  13.585  1.00  0.00     0.000 C 
BRANCH  14  15
ATOM     15  C   UNL     1       4.970  -0.091  12.875  1.00  0.00     0.000 C 
BRANCH  15  16
ATOM     16  C   UNL     1       3.803  -1.007  13.289  1.00  0.00     0.006 C 
BRANCH  16  17
ATOM     17  C   UNL     1       2.506  -0.259  13.637  1.00  0.00     0.053 C 
BRANCH  17  18
ATOM     18  C   UNL     1       1.765  -0.915  14.762  1.00  0.00     0.041 C 
ATOM     19  O   UNL     1       0.577  -0.586  15.016  1.00  0.00    -0.550 OA
ATOM     20  O   UNL     1       2.379  -1.912  15.508  1.00  0.00    -0.550 OA
ENDBRANCH  17  18
ENDBRANCH  16  17
ENDBRANCH  15  16
ENDBRANCH  14  15
ENDBRANCH  13  14
ENDBRANCH  12  13
ENDBRANCH  11  12
ENDBRANCH   1  11
TORSDOF 15
ENDMDL
