MODEL 1
REMARK VINA RESULT:    -3.512      0.000      0.000
REMARK INTER + INTRA:          -4.574
REMARK INTER:                  -4.333
REMARK INTRA:                  -0.242
REMARK UNBOUND:                -0.242
REMARK SMILES CCCCCC(=O)[O-]
REMARK SMILES IDX 4 1 5 2 6 3 7 4 8 5 3 6 2 7 1 8
REMARK H PARENT
REMARK Flexibility Score: inf
ROOT
ATOM      1  C   UNL     1      62.419  29.584  11.745  1.00  0.00     0.006 C 
ENDROOT
BRANCH   1   2
ATOM      2  C   UNL     1      62.458  28.938  10.352  1.00  0.00     0.053 C 
BRANCH   2   3
ATOM      3  C   UNL     1      61.089  28.805   9.758  1.00  0.00     0.041 C 
ATOM      4  O   UNL     1      60.257  29.745   9.865  1.00  0.00    -0.550 OA
ATOM      5  O   UNL     1      60.742  27.655   9.060  1.00  0.00    -0.550 OA
ENDBRANCH   2   3
ENDBRANCH   1   2
BRANCH   1   6
ATOM      6  C   UNL     1      62.184  28.589  12.897  1.00  0.00     0.000 C 
BRANCH   6   7
ATOM      7  C   UNL     1      60.822  28.783  13.580  1.00  0.00    -0.003 C 
ATOM      8  C   UNL     1      59.792  27.795  13.039  1.00  0.00     0.004 C 
ENDBRANCH   6   7
ENDBRANCH   1   6
TORSDOF 4
ENDMDL
MODEL 2
REMARK VINA RESULT:    -3.496     14.808     15.845
REMARK INTER + INTRA:          -4.556
REMARK INTER:                  -4.366
REMARK INTRA:                  -0.189
REMARK UNBOUND:                -0.242
REMARK SMILES CCCCCC(=O)[O-]
REMARK SMILES IDX 4 1 5 2 6 3 7 4 8 5 3 6 2 7 1 8
REMARK H PARENT
REMARK Flexibility Score: inf
ROOT
ATOM      1  C   UNL     1      62.593  29.822  25.878  1.00  0.00     0.006 C 
ENDROOT
BRANCH   1   2
ATOM      2  C   UNL     1      62.760  29.010  27.172  1.00  0.00     0.053 C 
BRANCH   2   3
ATOM      3  C   UNL     1      61.980  29.599  28.307  1.00  0.00     0.041 C 
ATOM      4  O   UNL     1      62.407  30.620  28.907  1.00  0.00    -0.550 OA
ATOM      5  O   UNL     1      60.765  29.039  28.681  1.00  0.00    -0.550 OA
ENDBRANCH   2   3
ENDBRANCH   1   2
BRANCH   1   6
ATOM      6  C   UNL     1      61.862  29.071  24.750  1.00  0.00     0.000 C 
BRANCH   6   7
ATOM      7  C   UNL     1      61.558  27.609  25.109  1.00  0.00    -0.003 C 
ATOM      8  C   UNL     1      60.056  27.381  25.259  1.00  0.00     0.004 C 
ENDBRANCH   6   7
ENDBRANCH   1   6
TORSDOF 4
ENDMDL
MODEL 3
REMARK VINA RESULT:    -3.489      1.256      2.261
REMARK INTER + INTRA:          -4.546
REMARK INTER:                  -4.293
REMARK INTRA:                  -0.254
REMARK UNBOUND:                -0.242
REMARK SMILES CCCCCC(=O)[O-]
REMARK SMILES IDX 4 1 5 2 6 3 7 4 8 5 3 6 2 7 1 8
REMARK H PARENT
REMARK Flexibility Score: inf
ROOT
ATOM      1  C   UNL     1      59.299  28.417  11.961  1.00  0.00     0.006 C 
ENDROOT
BRANCH   1   2
ATOM      2  C   UNL     1      59.886  29.259  10.817  1.00  0.00     0.053 C 
BRANCH   2   3
ATOM      3  C   UNL     1      60.834  28.468   9.969  1.00  0.00     0.041 C 
ATOM      4  O   UNL     1      60.395  27.599   9.170  1.00  0.00    -0.550 OA
ATOM      5  O   UNL     1      62.200  28.713  10.038  1.00  0.00    -0.550 OA
ENDBRANCH   2   3
ENDBRANCH   1   2
BRANCH   1   6
ATOM      6  C   UNL     1      60.345  27.891  12.961  1.00  0.00     0.000 C 
BRANCH   6   7
ATOM      7  C   UNL     1      61.052  29.017  13.728  1.00  0.00    -0.003 C 
ATOM      8  C   UNL     1      62.555  29.001  13.465  1.00  0.00     0.004 C 
ENDBRANCH   6   7
ENDBRANCH   1   6
TORSDOF 4
ENDMDL
MODEL 4
REMARK VINA RESULT:    -3.457     14.817     16.256
REMARK INTER + INTRA:          -4.507
REMARK INTER:                  -4.262
REMARK INTRA:                  -0.246
REMARK UNBOUND:                -0.242
REMARK SMILES CCCCCC(=O)[O-]
REMARK SMILES IDX 4 1 5 2 6 3 7 4 8 5 3 6 2 7 1 8
REMARK H PARENT
REMARK Flexibility Score: inf
ROOT
ATOM      1  C   UNL     1      62.123  27.069  26.804  1.00  0.00     0.006 C 
ENDROOT
BRANCH   1   2
ATOM      2  C   UNL     1      61.925  27.285  28.313  1.00  0.00     0.053 C 
BRANCH   2   3
ATOM      3  C   UNL     1      61.540  28.697  28.631  1.00  0.00     0.041 C 
ATOM      4  O   UNL     1      60.410  28.951  29.125  1.00  0.00    -0.550 OA
ATOM      5  O   UNL     1      62.443  29.730  28.412  1.00  0.00    -0.550 OA
ENDBRANCH   2   3
ENDBRANCH   1   2
BRANCH   1   6
ATOM      6  C   UNL     1      60.856  27.303  25.961  1.00  0.00     0.000 C 
BRANCH   6   7
ATOM      7  C   UNL     1      61.143  28.060  24.656  1.00  0.00    -0.003 C 
ATOM      8  C   UNL     1      61.992  29.301  24.916  1.00  0.00     0.004 C 
ENDBRANCH   6   7
ENDBRANCH   1   6
TORSDOF 4
ENDMDL
MODEL 5
REMARK VINA RESULT:    -3.428      1.896      2.426
REMARK INTER + INTRA:          -4.471
REMARK INTER:                  -4.265
REMARK INTRA:                  -0.206
REMARK UNBOUND:                -0.242
REMARK SMILES CCCCCC(=O)[O-]
REMARK SMILES IDX 4 1 5 2 6 3 7 4 8 5 3 6 2 7 1 8
REMARK H PARENT
REMARK Flexibility Score: inf
ROOT
ATOM      1  C   UNL     1      60.597  28.238  10.364  1.00  0.00     0.006 C 
ENDROOT
BRANCH   1   2
ATOM      2  C   UNL     1      61.498  29.364   9.833  1.00  0.00     0.053 C 
BRANCH   2   3
ATOM      3  C   UNL     1      62.948  29.092  10.095  1.00  0.00     0.041 C 
ATOM      4  O   UNL     1      63.423  29.245  11.250  1.00  0.00    -0.550 OA
ATOM      5  O   UNL     1      63.767  28.638   9.068  1.00  0.00    -0.550 OA
ENDBRANCH   2   3
ENDBRANCH   1   2
BRANCH   1   6
ATOM      6  C   UNL     1      59.704  28.649  11.549  1.00  0.00     0.000 C 
BRANCH   6   7
ATOM      7  C   UNL     1      60.113  27.970  12.865  1.00  0.00    -0.003 C 
ATOM      8  C   UNL     1      60.991  28.891  13.707  1.00  0.00     0.004 C 
ENDBRANCH   6   7
ENDBRANCH   1   6
TORSDOF 4
ENDMDL
MODEL 6
REMARK VINA RESULT:    -3.369      2.682      3.476
REMARK INTER + INTRA:          -4.399
REMARK INTER:                  -4.267
REMARK INTRA:                  -0.131
REMARK UNBOUND:                -0.242
REMARK SMILES CCCCCC(=O)[O-]
REMARK SMILES IDX 4 1 5 2 6 3 7 4 8 5 3 6 2 7 1 8
REMARK H PARENT
REMARK Flexibility Score: inf
ROOT
ATOM      1  C   UNL     1      60.962  29.542  13.926  1.00  0.00     0.006 C 
ENDROOT
BRANCH   1   2
ATOM      2  C   UNL     1      60.841  28.347  12.967  1.00  0.00     0.053 C 
BRANCH   2   3
ATOM      3  C   UNL     1      59.476  28.257  12.355  1.00  0.00     0.041 C 
ATOM      4  O   UNL     1      59.248  28.783  11.234  1.00  0.00    -0.550 OA
ATOM      5  O   UNL     1      58.465  27.564  13.009  1.00  0.00    -0.550 OA
ENDBRANCH   2   3
ENDBRANCH   1   2
BRANCH   1   6
ATOM      6  C   UNL     1      61.258  30.884  13.230  1.00  0.00     0.000 C 
BRANCH   6   7
ATOM      7  C   UNL     1      60.058  31.842  13.251  1.00  0.00    -0.003 C 
ATOM      8  C   UNL     1      60.368  33.092  14.069  1.00  0.00     0.004 C 
ENDBRANCH   6   7
ENDBRANCH   1   6
TORSDOF 4
ENDMDL
MODEL 7
REMARK VINA RESULT:    -3.362      1.357      1.749
REMARK INTER + INTRA:          -4.389
REMARK INTER:                  -4.165
REMARK INTRA:                  -0.225
REMARK UNBOUND:                -0.242
REMARK SMILES CCCCCC(=O)[O-]
REMARK SMILES IDX 4 1 5 2 6 3 7 4 8 5 3 6 2 7 1 8
REMARK H PARENT
REMARK Flexibility Score: inf
ROOT
ATOM      1  C   UNL     1      62.438  28.616  12.837  1.00  0.00     0.006 C 
ENDROOT
BRANCH   1   2
ATOM      2  C   UNL     1      62.738  29.574  11.674  1.00  0.00     0.053 C 
BRANCH   2   3
ATOM      3  C   UNL     1      62.623  28.894  10.344  1.00  0.00     0.041 C 
ATOM      4  O   UNL     1      61.528  28.388   9.983  1.00  0.00    -0.550 OA
ATOM      5  O   UNL     1      63.718  28.847   9.490  1.00  0.00    -0.550 OA
ENDBRANCH   2   3
ENDBRANCH   1   2
BRANCH   1   6
ATOM      6  C   UNL     1      61.295  29.079  13.758  1.00  0.00     0.000 C 
BRANCH   6   7
ATOM      7  C   UNL     1      59.976  29.300  13.003  1.00  0.00    -0.003 C 
ATOM      8  C   UNL     1      59.270  27.975  12.732  1.00  0.00     0.004 C 
ENDBRANCH   6   7
ENDBRANCH   1   6
TORSDOF 4
ENDMDL
MODEL 8
REMARK VINA RESULT:    -3.317      2.331      3.828
REMARK INTER + INTRA:          -4.335
REMARK INTER:                  -4.087
REMARK INTRA:                  -0.247
REMARK UNBOUND:                -0.242
REMARK SMILES CCCCCC(=O)[O-]
REMARK SMILES IDX 4 1 5 2 6 3 7 4 8 5 3 6 2 7 1 8
REMARK H PARENT
REMARK Flexibility Score: inf
ROOT
ATOM      1  C   UNL     1      59.695  29.114  10.438  1.00  0.00     0.006 C 
ENDROOT
BRANCH   1   2
ATOM      2  C   UNL     1      59.964  29.587  11.875  1.00  0.00     0.053 C 
BRANCH   2   3
ATOM      3  C   UNL     1      60.327  28.450  12.781  1.00  0.00     0.041 C 
ATOM      4  O   UNL     1      59.472  27.572  13.069  1.00  0.00    -0.550 OA
ATOM      5  O   UNL     1      61.619  28.343  13.280  1.00  0.00    -0.550 OA
ENDBRANCH   2   3
ENDBRANCH   1   2
BRANCH   1   6
ATOM      6  C   UNL     1      60.810  28.233   9.844  1.00  0.00     0.000 C 
BRANCH   6   7
ATOM      7  C   UNL     1      61.919  29.053   9.170  1.00  0.00    -0.003 C 
ATOM      8  C   UNL     1      63.198  29.035  10.003  1.00  0.00     0.004 C 
ENDBRANCH   6   7
ENDBRANCH   1   6
TORSDOF 4
ENDMDL
MODEL 9
REMARK VINA RESULT:    -3.315     14.500     15.869
REMARK INTER + INTRA:          -4.332
REMARK INTER:                  -4.076
REMARK INTRA:                  -0.256
REMARK UNBOUND:                -0.242
REMARK SMILES CCCCCC(=O)[O-]
REMARK SMILES IDX 4 1 5 2 6 3 7 4 8 5 3 6 2 7 1 8
REMARK H PARENT
REMARK Flexibility Score: inf
ROOT
ATOM      1  C   UNL     1      61.246  27.027  27.937  1.00  0.00     0.006 C 
ENDROOT
BRANCH   1   2
ATOM      2  C   UNL     1      61.880  27.043  26.537  1.00  0.00     0.053 C 
BRANCH   2   3
ATOM      3  C   UNL     1      61.024  27.766  25.543  1.00  0.00     0.041 C 
ATOM      4  O   UNL     1      59.883  27.324  25.249  1.00  0.00    -0.550 OA
ATOM      5  O   UNL     1      61.475  28.946  24.966  1.00  0.00    -0.550 OA
ENDBRANCH   2   3
ENDBRANCH   1   2
BRANCH   1   6
ATOM      6  C   UNL     1      61.149  28.413  28.603  1.00  0.00     0.000 C 
BRANCH   6   7
ATOM      7  C   UNL     1      62.525  29.026  28.901  1.00  0.00    -0.003 C 
ATOM      8  C   UNL     1      62.685  30.376  28.208  1.00  0.00     0.004 C 
ENDBRANCH   6   7
ENDBRANCH   1   6
TORSDOF 4
ENDMDL
