MODEL 1
REMARK VINA RESULT:    -4.106      0.000      0.000
REMARK INTER + INTRA:          -7.475
REMARK INTER:                  -6.266
REMARK INTRA:                  -1.209
REMARK UNBOUND:                -1.209
REMARK SMILES CCCCCCCCCC=CC(=O)[O-]
REMARK SMILES IDX 7 1 8 2 9 3 10 4 11 5 12 6 13 7 14 8 6 9 5 10 4 11 3 12 2 13
REMARK SMILES IDX 1 14
REMARK H PARENT
REMARK Flexibility Score: inf
ROOT
ATOM      1  C   UNL     1     -14.877 -13.363  22.875  1.00  0.00     0.000 C 
ENDROOT
BRANCH   1   2
ATOM      2  C   UNL     1     -15.022 -12.264  21.816  1.00  0.00     0.004 C 
BRANCH   2   3
ATOM      3  C   UNL     1     -14.977 -12.855  20.401  1.00  0.00     0.027 C 
BRANCH   3   4
ATOM      4  C   UNL     1     -13.615 -12.697  19.790  1.00  0.00    -0.025 C 
ATOM      5  C   UNL     1     -13.445 -12.099  18.606  1.00  0.00     0.020 C 
BRANCH   5   6
ATOM      6  C   UNL     1     -12.121 -11.946  17.981  1.00  0.00     0.064 C 
ATOM      7  O   UNL     1     -11.869 -10.974  17.220  1.00  0.00    -0.545 OA
ATOM      8  O   UNL     1     -11.134 -12.888  18.234  1.00  0.00    -0.545 OA
ENDBRANCH   5   6
ENDBRANCH   3   4
ENDBRANCH   2   3
ENDBRANCH   1   2
BRANCH   1   9
ATOM      9  C   UNL     1     -13.400 -13.647  23.175  1.00  0.00     0.000 C 
BRANCH   9  10
ATOM     10  C   UNL     1     -13.030 -15.090  22.798  1.00  0.00     0.000 C 
BRANCH  10  11
ATOM     11  C   UNL     1     -14.263 -15.974  22.559  1.00  0.00    -0.000 C 
BRANCH  11  12
ATOM     12  C   UNL     1     -14.053 -16.984  21.417  1.00  0.00    -0.000 C 
BRANCH  12  13
ATOM     13  C   UNL     1     -14.471 -16.418  20.049  1.00  0.00    -0.003 C 
ATOM     14  C   UNL     1     -13.301 -16.312  19.072  1.00  0.00     0.004 C 
ENDBRANCH  12  13
ENDBRANCH  11  12
ENDBRANCH  10  11
ENDBRANCH   9  10
ENDBRANCH   1   9
TORSDOF 9
ENDMDL
MODEL 2
REMARK VINA RESULT:    -4.041      1.036      3.212
REMARK INTER + INTRA:          -7.377
REMARK INTER:                  -6.023
REMARK INTRA:                  -1.354
REMARK UNBOUND:                -1.209
REMARK SMILES CCCCCCCCCC=CC(=O)[O-]
REMARK SMILES IDX 7 1 8 2 9 3 10 4 11 5 12 6 13 7 14 8 6 9 5 10 4 11 3 12 2 13
REMARK SMILES IDX 1 14
REMARK H PARENT
REMARK Flexibility Score: inf
ROOT
ATOM      1  C   UNL     1     -13.835 -17.329  20.643  1.00  0.00     0.000 C 
ENDROOT
BRANCH   1   2
ATOM      2  C   UNL     1     -13.890 -16.687  19.251  1.00  0.00     0.004 C 
BRANCH   2   3
ATOM      3  C   UNL     1     -14.164 -15.182  19.350  1.00  0.00     0.027 C 
BRANCH   3   4
ATOM      4  C   UNL     1     -12.909 -14.386  19.134  1.00  0.00    -0.025 C 
ATOM      5  C   UNL     1     -12.951 -13.089  18.809  1.00  0.00     0.020 C 
BRANCH   5   6
ATOM      6  C   UNL     1     -11.735 -12.293  18.579  1.00  0.00     0.064 C 
ATOM      7  O   UNL     1     -10.686 -12.501  19.245  1.00  0.00    -0.545 OA
ATOM      8  O   UNL     1     -11.744 -11.296  17.613  1.00  0.00    -0.545 OA
ENDBRANCH   5   6
ENDBRANCH   3   4
ENDBRANCH   2   3
ENDBRANCH   1   2
BRANCH   1   9
ATOM      9  C   UNL     1     -14.876 -16.702  21.579  1.00  0.00     0.000 C 
BRANCH   9  10
ATOM     10  C   UNL     1     -14.442 -16.832  23.048  1.00  0.00     0.000 C 
BRANCH  10  11
ATOM     11  C   UNL     1     -14.097 -15.476  23.684  1.00  0.00    -0.000 C 
BRANCH  11  12
ATOM     12  C   UNL     1     -12.871 -14.813  23.030  1.00  0.00    -0.000 C 
BRANCH  12  13
ATOM     13  C   UNL     1     -13.116 -13.334  22.690  1.00  0.00    -0.003 C 
ATOM     14  C   UNL     1     -14.585 -13.029  22.401  1.00  0.00     0.004 C 
ENDBRANCH  12  13
ENDBRANCH  11  12
ENDBRANCH  10  11
ENDBRANCH   9  10
ENDBRANCH   1   9
TORSDOF 9
ENDMDL
MODEL 3
REMARK VINA RESULT:    -3.962      2.789      5.459
REMARK INTER + INTRA:          -7.255
REMARK INTER:                  -6.310
REMARK INTRA:                  -0.946
REMARK UNBOUND:                -1.209
REMARK SMILES CCCCCCCCCC=CC(=O)[O-]
REMARK SMILES IDX 7 1 8 2 9 3 10 4 11 5 12 6 13 7 14 8 6 9 5 10 4 11 3 12 2 13
REMARK SMILES IDX 1 14
REMARK H PARENT
REMARK Flexibility Score: inf
ROOT
ATOM      1  C   UNL     1     -13.369 -15.726  19.133  1.00  0.00     0.000 C 
ENDROOT
BRANCH   1   2
ATOM      2  C   UNL     1     -14.229 -16.913  19.584  1.00  0.00     0.004 C 
BRANCH   2   3
ATOM      3  C   UNL     1     -13.965 -17.256  21.055  1.00  0.00     0.027 C 
BRANCH   3   4
ATOM      4  C   UNL     1     -14.469 -16.173  21.965  1.00  0.00    -0.025 C 
ATOM      5  C   UNL     1     -13.639 -15.472  22.745  1.00  0.00     0.020 C 
BRANCH   5   6
ATOM      6  C   UNL     1     -14.112 -14.416  23.654  1.00  0.00     0.064 C 
ATOM      7  O   UNL     1     -14.076 -14.570  24.905  1.00  0.00    -0.545 OA
ATOM      8  O   UNL     1     -14.606 -13.232  23.127  1.00  0.00    -0.545 OA
ENDBRANCH   5   6
ENDBRANCH   3   4
ENDBRANCH   2   3
ENDBRANCH   1   2
BRANCH   1   9
ATOM      9  C   UNL     1     -14.205 -14.443  19.040  1.00  0.00     0.000 C 
BRANCH   9  10
ATOM     10  C   UNL     1     -13.443 -13.246  19.627  1.00  0.00     0.000 C 
BRANCH  10  11
ATOM     11  C   UNL     1     -11.978 -13.578  19.952  1.00  0.00    -0.000 C 
BRANCH  11  12
ATOM     12  C   UNL     1     -10.987 -12.682  19.189  1.00  0.00    -0.000 C 
BRANCH  12  13
ATOM     13  C   UNL     1     -11.366 -12.515  17.708  1.00  0.00    -0.003 C 
ATOM     14  C   UNL     1     -11.697 -11.069  17.342  1.00  0.00     0.004 C 
ENDBRANCH  12  13
ENDBRANCH  11  12
ENDBRANCH  10  11
ENDBRANCH   9  10
ENDBRANCH   1   9
TORSDOF 9
ENDMDL
MODEL 4
REMARK VINA RESULT:    -3.932      0.998      2.865
REMARK INTER + INTRA:          -7.210
REMARK INTER:                  -5.839
REMARK INTRA:                  -1.371
REMARK UNBOUND:                -1.209
REMARK SMILES CCCCCCCCCC=CC(=O)[O-]
REMARK SMILES IDX 7 1 8 2 9 3 10 4 11 5 12 6 13 7 14 8 6 9 5 10 4 11 3 12 2 13
REMARK SMILES IDX 1 14
REMARK H PARENT
REMARK Flexibility Score: inf
ROOT
ATOM      1  C   UNL     1     -13.821 -15.843  19.416  1.00  0.00     0.000 C 
ENDROOT
BRANCH   1   2
ATOM      2  C   UNL     1     -15.114 -15.031  19.564  1.00  0.00     0.004 C 
BRANCH   2   3
ATOM      3  C   UNL     1     -14.814 -13.530  19.655  1.00  0.00     0.027 C 
BRANCH   3   4
ATOM      4  C   UNL     1     -13.448 -13.215  19.117  1.00  0.00    -0.025 C 
ATOM      5  C   UNL     1     -13.231 -12.145  18.345  1.00  0.00     0.020 C 
BRANCH   5   6
ATOM      6  C   UNL     1     -11.904 -11.825  17.794  1.00  0.00     0.064 C 
ATOM      7  O   UNL     1     -10.949 -12.644  17.878  1.00  0.00    -0.545 OA
ATOM      8  O   UNL     1     -11.700 -10.601  17.172  1.00  0.00    -0.545 OA
ENDBRANCH   5   6
ENDBRANCH   3   4
ENDBRANCH   2   3
ENDBRANCH   1   2
BRANCH   1   9
ATOM      9  C   UNL     1     -13.754 -16.967  20.457  1.00  0.00     0.000 C 
BRANCH   9  10
ATOM     10  C   UNL     1     -14.780 -16.740  21.579  1.00  0.00     0.000 C 
BRANCH  10  11
ATOM     11  C   UNL     1     -14.125 -16.310  22.901  1.00  0.00    -0.000 C 
BRANCH  11  12
ATOM     12  C   UNL     1     -14.692 -14.983  23.436  1.00  0.00    -0.000 C 
BRANCH  12  13
ATOM     13  C   UNL     1     -13.718 -13.809  23.245  1.00  0.00    -0.003 C 
ATOM     14  C   UNL     1     -12.370 -14.246  22.675  1.00  0.00     0.004 C 
ENDBRANCH  12  13
ENDBRANCH  11  12
ENDBRANCH  10  11
ENDBRANCH   9  10
ENDBRANCH   1   9
TORSDOF 9
ENDMDL
MODEL 5
REMARK VINA RESULT:    -3.871      2.319      4.618
REMARK INTER + INTRA:          -7.117
REMARK INTER:                  -6.195
REMARK INTRA:                  -0.923
REMARK UNBOUND:                -1.209
REMARK SMILES CCCCCCCCCC=CC(=O)[O-]
REMARK SMILES IDX 7 1 8 2 9 3 10 4 11 5 12 6 13 7 14 8 6 9 5 10 4 11 3 12 2 13
REMARK SMILES IDX 1 14
REMARK H PARENT
REMARK Flexibility Score: inf
ROOT
ATOM      1  C   UNL     1     -13.726 -13.260  22.554  1.00  0.00     0.000 C 
ENDROOT
BRANCH   1   2
ATOM      2  C   UNL     1     -14.112 -14.109  23.771  1.00  0.00     0.004 C 
BRANCH   2   3
ATOM      3  C   UNL     1     -13.952 -15.604  23.472  1.00  0.00     0.027 C 
BRANCH   3   4
ATOM      4  C   UNL     1     -14.468 -15.942  22.103  1.00  0.00    -0.025 C 
ATOM      5  C   UNL     1     -13.775 -16.725  21.268  1.00  0.00     0.020 C 
BRANCH   5   6
ATOM      6  C   UNL     1     -14.254 -17.058  19.917  1.00  0.00     0.064 C 
ATOM      7  O   UNL     1     -13.886 -16.390  18.914  1.00  0.00    -0.545 OA
ATOM      8  O   UNL     1     -15.125 -18.125  19.745  1.00  0.00    -0.545 OA
ENDBRANCH   5   6
ENDBRANCH   3   4
ENDBRANCH   2   3
ENDBRANCH   1   2
BRANCH   1   9
ATOM      9  C   UNL     1     -14.891 -12.363  22.116  1.00  0.00     0.000 C 
BRANCH   9  10
ATOM     10  C   UNL     1     -14.831 -12.082  20.607  1.00  0.00     0.000 C 
BRANCH  10  11
ATOM     11  C   UNL     1     -13.764 -12.924  19.890  1.00  0.00    -0.000 C 
BRANCH  11  12
ATOM     12  C   UNL     1     -13.382 -12.346  18.516  1.00  0.00    -0.000 C 
BRANCH  12  13
ATOM     13  C   UNL     1     -11.893 -12.546  18.188  1.00  0.00    -0.003 C 
ATOM     14  C   UNL     1     -11.095 -13.091  19.372  1.00  0.00     0.004 C 
ENDBRANCH  12  13
ENDBRANCH  11  12
ENDBRANCH  10  11
ENDBRANCH   9  10
ENDBRANCH   1   9
TORSDOF 9
ENDMDL
MODEL 6
REMARK VINA RESULT:    -3.766      3.197      5.595
REMARK INTER + INTRA:          -6.956
REMARK INTER:                  -5.839
REMARK INTRA:                  -1.117
REMARK UNBOUND:                -1.209
REMARK SMILES CCCCCCCCCC=CC(=O)[O-]
REMARK SMILES IDX 7 1 8 2 9 3 10 4 11 5 12 6 13 7 14 8 6 9 5 10 4 11 3 12 2 13
REMARK SMILES IDX 1 14
REMARK H PARENT
REMARK Flexibility Score: inf
ROOT
ATOM      1  C   UNL     1     -11.050 -12.680  19.282  1.00  0.00     0.000 C 
ENDROOT
BRANCH   1   2
ATOM      2  C   UNL     1     -11.699 -13.667  20.259  1.00  0.00     0.004 C 
BRANCH   2   3
ATOM      3  C   UNL     1     -12.446 -14.775  19.507  1.00  0.00     0.027 C 
BRANCH   3   4
ATOM      4  C   UNL     1     -13.379 -15.518  20.418  1.00  0.00    -0.025 C 
ATOM      5  C   UNL     1     -13.283 -15.419  21.749  1.00  0.00     0.020 C 
BRANCH   5   6
ATOM      6  C   UNL     1     -14.178 -16.149  22.661  1.00  0.00     0.064 C 
ATOM      7  O   UNL     1     -14.539 -17.330  22.412  1.00  0.00    -0.545 OA
ATOM      8  O   UNL     1     -14.631 -15.526  23.816  1.00  0.00    -0.545 OA
ENDBRANCH   5   6
ENDBRANCH   3   4
ENDBRANCH   2   3
ENDBRANCH   1   2
BRANCH   1   9
ATOM      9  C   UNL     1     -11.871 -12.560  17.993  1.00  0.00     0.000 C 
BRANCH   9  10
ATOM     10  C   UNL     1     -12.945 -11.469  18.125  1.00  0.00     0.000 C 
BRANCH  10  11
ATOM     11  C   UNL     1     -14.354 -12.048  18.327  1.00  0.00    -0.000 C 
BRANCH  11  12
ATOM     12  C   UNL     1     -15.069 -11.447  19.550  1.00  0.00    -0.000 C 
BRANCH  12  13
ATOM     13  C   UNL     1     -14.993 -12.361  20.783  1.00  0.00    -0.003 C 
ATOM     14  C   UNL     1     -15.125 -11.593  22.097  1.00  0.00     0.004 C 
ENDBRANCH  12  13
ENDBRANCH  11  12
ENDBRANCH  10  11
ENDBRANCH   9  10
ENDBRANCH   1   9
TORSDOF 9
ENDMDL
MODEL 7
REMARK VINA RESULT:    -3.619      3.465      5.848
REMARK INTER + INTRA:          -6.732
REMARK INTER:                  -5.803
REMARK INTRA:                  -0.929
REMARK UNBOUND:                -1.209
REMARK SMILES CCCCCCCCCC=CC(=O)[O-]
REMARK SMILES IDX 7 1 8 2 9 3 10 4 11 5 12 6 13 7 14 8 6 9 5 10 4 11 3 12 2 13
REMARK SMILES IDX 1 14
REMARK H PARENT
REMARK Flexibility Score: inf
ROOT
ATOM      1  C   UNL     1     -14.528 -14.732  19.003  1.00  0.00     0.000 C 
ENDROOT
BRANCH   1   2
ATOM      2  C   UNL     1     -13.451 -15.700  19.507  1.00  0.00     0.004 C 
BRANCH   2   3
ATOM      3  C   UNL     1     -14.024 -17.110  19.695  1.00  0.00     0.027 C 
BRANCH   3   4
ATOM      4  C   UNL     1     -14.339 -17.381  21.138  1.00  0.00    -0.025 C 
ATOM      5  C   UNL     1     -13.936 -16.554  22.109  1.00  0.00     0.020 C 
BRANCH   5   6
ATOM      6  C   UNL     1     -14.221 -16.807  23.530  1.00  0.00     0.064 C 
ATOM      7  O   UNL     1     -14.240 -17.979  23.991  1.00  0.00    -0.545 OA
ATOM      8  O   UNL     1     -14.473 -15.736  24.377  1.00  0.00    -0.545 OA
ENDBRANCH   5   6
ENDBRANCH   3   4
ENDBRANCH   2   3
ENDBRANCH   1   2
BRANCH   1   9
ATOM      9  C   UNL     1     -14.921 -13.728  20.094  1.00  0.00     0.000 C 
BRANCH   9  10
ATOM     10  C   UNL     1     -14.307 -12.347  19.817  1.00  0.00     0.000 C 
BRANCH  10  11
ATOM     11  C   UNL     1     -14.037 -12.108  18.323  1.00  0.00    -0.000 C 
BRANCH  11  12
ATOM     12  C   UNL     1     -12.625 -11.556  18.060  1.00  0.00    -0.000 C 
BRANCH  12  13
ATOM     13  C   UNL     1     -11.570 -12.668  17.952  1.00  0.00    -0.003 C 
ATOM     14  C   UNL     1     -10.869 -12.950  19.280  1.00  0.00     0.004 C 
ENDBRANCH  12  13
ENDBRANCH  11  12
ENDBRANCH  10  11
ENDBRANCH   9  10
ENDBRANCH   1   9
TORSDOF 9
ENDMDL
MODEL 8
REMARK VINA RESULT:    -3.338     21.088     24.272
REMARK INTER + INTRA:          -6.303
REMARK INTER:                  -5.804
REMARK INTRA:                  -0.499
REMARK UNBOUND:                -1.209
REMARK SMILES CCCCCCCCCC=CC(=O)[O-]
REMARK SMILES IDX 7 1 8 2 9 3 10 4 11 5 12 6 13 7 14 8 6 9 5 10 4 11 3 12 2 13
REMARK SMILES IDX 1 14
REMARK H PARENT
REMARK Flexibility Score: inf
ROOT
ATOM      1  C   UNL     1       4.351  -1.677   8.239  1.00  0.00     0.000 C 
ENDROOT
BRANCH   1   2
ATOM      2  C   UNL     1       4.762  -2.326   9.566  1.00  0.00     0.004 C 
BRANCH   2   3
ATOM      3  C   UNL     1       4.538  -3.842   9.530  1.00  0.00     0.027 C 
BRANCH   3   4
ATOM      4  C   UNL     1       4.766  -4.458  10.880  1.00  0.00    -0.025 C 
ATOM      5  C   UNL     1       3.877  -4.322  11.870  1.00  0.00     0.020 C 
BRANCH   5   6
ATOM      6  C   UNL     1       4.086  -4.904  13.205  1.00  0.00     0.064 C 
ATOM      7  O   UNL     1       5.125  -4.649  13.871  1.00  0.00    -0.545 OA
ATOM      8  O   UNL     1       3.124  -5.750  13.739  1.00  0.00    -0.545 OA
ENDBRANCH   5   6
ENDBRANCH   3   4
ENDBRANCH   2   3
ENDBRANCH   1   2
BRANCH   1   9
ATOM      9  C   UNL     1       5.123  -0.373   8.001  1.00  0.00     0.000 C 
BRANCH   9  10
ATOM     10  C   UNL     1       4.427   0.812   8.688  1.00  0.00     0.000 C 
BRANCH  10  11
ATOM     11  C   UNL     1       5.063   1.167  10.041  1.00  0.00    -0.000 C 
BRANCH  11  12
ATOM     12  C   UNL     1       4.017   1.344  11.156  1.00  0.00    -0.000 C 
BRANCH  12  13
ATOM     13  C   UNL     1       4.656   1.424  12.553  1.00  0.00    -0.003 C 
ATOM     14  C   UNL     1       4.740   0.064  13.243  1.00  0.00     0.004 C 
ENDBRANCH  12  13
ENDBRANCH  11  12
ENDBRANCH  10  11
ENDBRANCH   9  10
ENDBRANCH   1   9
TORSDOF 9
ENDMDL
MODEL 9
REMARK VINA RESULT:    -2.976     11.517     14.424
REMARK INTER + INTRA:          -5.751
REMARK INTER:                  -4.848
REMARK INTRA:                  -0.903
REMARK UNBOUND:                -1.209
REMARK SMILES CCCCCCCCCC=CC(=O)[O-]
REMARK SMILES IDX 7 1 8 2 9 3 10 4 11 5 12 6 13 7 14 8 6 9 5 10 4 11 3 12 2 13
REMARK SMILES IDX 1 14
REMARK H PARENT
REMARK Flexibility Score: inf
ROOT
ATOM      1  C   UNL     1     -12.743 -13.991   4.982  1.00  0.00     0.000 C 
ENDROOT
BRANCH   1   2
ATOM      2  C   UNL     1     -13.303 -14.487   6.321  1.00  0.00     0.004 C 
BRANCH   2   3
ATOM      3  C   UNL     1     -14.558 -13.700   6.717  1.00  0.00     0.027 C 
BRANCH   3   4
ATOM      4  C   UNL     1     -14.992 -14.037   8.114  1.00  0.00    -0.025 C 
ATOM      5  C   UNL     1     -14.179 -14.673   8.965  1.00  0.00     0.020 C 
BRANCH   5   6
ATOM      6  C   UNL     1     -14.588 -15.026  10.334  1.00  0.00     0.064 C 
ATOM      7  O   UNL     1     -14.667 -16.230  10.699  1.00  0.00    -0.545 OA
ATOM      8  O   UNL     1     -14.891 -14.018  11.237  1.00  0.00    -0.545 OA
ENDBRANCH   5   6
ENDBRANCH   3   4
ENDBRANCH   2   3
ENDBRANCH   1   2
BRANCH   1   9
ATOM      9  C   UNL     1     -12.454 -12.485   5.030  1.00  0.00     0.000 C 
BRANCH   9  10
ATOM     10  C   UNL     1     -10.946 -12.211   4.924  1.00  0.00     0.000 C 
BRANCH  10  11
ATOM     11  C   UNL     1     -10.237 -12.267   6.287  1.00  0.00    -0.000 C 
BRANCH  11  12
ATOM     12  C   UNL     1      -9.088 -13.291   6.312  1.00  0.00    -0.000 C 
BRANCH  12  13
ATOM     13  C   UNL     1      -9.009 -14.117   5.018  1.00  0.00    -0.003 C 
ATOM     14  C   UNL     1      -9.013 -15.623   5.278  1.00  0.00     0.004 C 
ENDBRANCH  12  13
ENDBRANCH  11  12
ENDBRANCH  10  11
ENDBRANCH   9  10
ENDBRANCH   1   9
TORSDOF 9
ENDMDL
