MODEL 1
REMARK VINA RESULT:    -1.237      0.000      0.000
REMARK INTER + INTRA:          -1.516
REMARK INTER:                  -2.177
REMARK INTRA:                   0.661
REMARK UNBOUND:                 0.661
REMARK SMILES CCCCCCCCCCCCCCC(=O)[O-]
REMARK SMILES IDX 9 1 10 2 11 3 12 4 13 5 14 6 15 7 16 8 17 9 8 10 7 11 6 12
REMARK SMILES IDX 5 13 4 14 3 15 2 16 1 17
REMARK H PARENT
REMARK Flexibility Score: inf
ROOT
ATOM      1  C   UNL     1      53.103 147.709  -0.332  1.00  0.00     0.000 C 
ENDROOT
BRANCH   1   2
ATOM      2  C   UNL     1      52.131 147.312  -1.449  1.00  0.00     0.000 C 
BRANCH   2   3
ATOM      3  C   UNL     1      52.393 148.125  -2.723  1.00  0.00     0.000 C 
BRANCH   3   4
ATOM      4  C   UNL     1      53.883 148.098  -3.095  1.00  0.00     0.000 C 
BRANCH   4   5
ATOM      5  C   UNL     1      54.163 147.259  -4.352  1.00  0.00     0.006 C 
BRANCH   5   6
ATOM      6  C   UNL     1      53.938 148.046  -5.650  1.00  0.00     0.053 C 
BRANCH   6   7
ATOM      7  C   UNL     1      52.535 147.859  -6.135  1.00  0.00     0.041 C 
ATOM      8  O   UNL     1      52.318 147.437  -7.302  1.00  0.00    -0.550 OA
ATOM      9  O   UNL     1      51.466 148.105  -5.282  1.00  0.00    -0.550 OA
ENDBRANCH   6   7
ENDBRANCH   5   6
ENDBRANCH   4   5
ENDBRANCH   3   4
ENDBRANCH   2   3
ENDBRANCH   1   2
BRANCH   1  10
ATOM     10  C   UNL     1      52.672 147.105   1.013  1.00  0.00     0.000 C 
BRANCH  10  11
ATOM     11  C   UNL     1      51.374 147.724   1.562  1.00  0.00    -0.000 C 
BRANCH  11  12
ATOM     12  C   UNL     1      50.272 147.954   0.511  1.00  0.00    -0.000 C 
BRANCH  12  13
ATOM     13  C   UNL     1      48.906 147.400   0.947  1.00  0.00    -0.000 C 
BRANCH  13  14
ATOM     14  C   UNL     1      47.729 148.125   0.275  1.00  0.00    -0.000 C 
BRANCH  14  15
ATOM     15  C   UNL     1      47.018 147.249  -0.772  1.00  0.00    -0.000 C 
BRANCH  15  16
ATOM     16  C   UNL     1      47.155 147.808  -2.197  1.00  0.00    -0.003 C 
ATOM     17  C   UNL     1      48.608 147.881  -2.668  1.00  0.00     0.004 C 
ENDBRANCH  15  16
ENDBRANCH  14  15
ENDBRANCH  13  14
ENDBRANCH  12  13
ENDBRANCH  11  12
ENDBRANCH  10  11
ENDBRANCH   1  10
TORSDOF 13
ENDMDL
MODEL 2
REMARK VINA RESULT:     1.713      1.643      3.051
REMARK INTER + INTRA:           3.675
REMARK INTER:                   3.942
REMARK INTRA:                  -0.267
REMARK UNBOUND:                 0.661
REMARK SMILES CCCCCCCCCCCCCCC(=O)[O-]
REMARK SMILES IDX 9 1 10 2 11 3 12 4 13 5 14 6 15 7 16 8 17 9 8 10 7 11 6 12
REMARK SMILES IDX 5 13 4 14 3 15 2 16 1 17
REMARK H PARENT
REMARK Flexibility Score: inf
ROOT
ATOM      1  C   UNL     1      54.493 146.120  -1.996  1.00  0.00     0.000 C 
ENDROOT
BRANCH   1   2
ATOM      2  C   UNL     1      55.403 147.249  -2.492  1.00  0.00     0.000 C 
BRANCH   2   3
ATOM      3  C   UNL     1      54.702 148.093  -3.563  1.00  0.00     0.000 C 
BRANCH   3   4
ATOM      4  C   UNL     1      54.897 147.482  -4.958  1.00  0.00     0.000 C 
BRANCH   4   5
ATOM      5  C   UNL     1      53.983 148.121  -6.017  1.00  0.00     0.006 C 
BRANCH   5   6
ATOM      6  C   UNL     1      52.495 147.875  -5.739  1.00  0.00     0.053 C 
BRANCH   6   7
ATOM      7  C   UNL     1      51.771 147.566  -7.012  1.00  0.00     0.041 C 
ATOM      8  O   UNL     1      52.368 147.652  -8.117  1.00  0.00    -0.550 OA
ATOM      9  O   UNL     1      50.450 147.138  -6.973  1.00  0.00    -0.550 OA
ENDBRANCH   6   7
ENDBRANCH   5   6
ENDBRANCH   4   5
ENDBRANCH   3   4
ENDBRANCH   2   3
ENDBRANCH   1   2
BRANCH   1  10
ATOM     10  C   UNL     1      53.670 146.569  -0.780  1.00  0.00     0.000 C 
BRANCH  10  11
ATOM     11  C   UNL     1      54.388 147.629   0.074  1.00  0.00    -0.000 C 
BRANCH  11  12
ATOM     12  C   UNL     1      54.197 147.473   1.594  1.00  0.00    -0.000 C 
BRANCH  12  13
ATOM     13  C   UNL     1      52.900 148.125   2.103  1.00  0.00    -0.000 C 
BRANCH  13  14
ATOM     14  C   UNL     1      51.658 147.662   1.326  1.00  0.00    -0.000 C 
BRANCH  14  15
ATOM     15  C   UNL     1      50.345 148.079   2.010  1.00  0.00    -0.000 C 
BRANCH  15  16
ATOM     16  C   UNL     1      49.166 147.175   1.621  1.00  0.00    -0.003 C 
ATOM     17  C   UNL     1      48.331 147.747   0.476  1.00  0.00     0.004 C 
ENDBRANCH  15  16
ENDBRANCH  14  15
ENDBRANCH  13  14
ENDBRANCH  12  13
ENDBRANCH  11  12
ENDBRANCH  10  11
ENDBRANCH   1  10
TORSDOF 13
ENDMDL
