MODEL 1
REMARK VINA RESULT:    -4.370      0.000      0.000
REMARK INTER + INTRA:          -6.206
REMARK INTER:                  -5.647
REMARK INTRA:                  -0.559
REMARK UNBOUND:                -0.559
REMARK SMILES C=CC(=O)CCCCC
REMARK SMILES IDX 6 1 7 2 8 3 9 4 5 5 3 6 4 7 2 8 1 9
REMARK H PARENT
REMARK Flexibility Score: inf
ROOT
ATOM      1  C   UNL     1      27.264  19.512  26.561  1.00  0.00     0.008 C 
ENDROOT
BRANCH   1   2
ATOM      2  C   UNL     1      27.627  18.204  27.280  1.00  0.00     0.000 C 
BRANCH   2   3
ATOM      3  C   UNL     1      29.077  18.192  27.786  1.00  0.00    -0.003 C 
ATOM      4  C   UNL     1      29.219  17.530  29.157  1.00  0.00     0.004 C 
ENDBRANCH   2   3
ENDBRANCH   1   2
BRANCH   1   5
ATOM      5  C   UNL     1      27.864  20.721  27.287  1.00  0.00     0.080 C 
BRANCH   5   6
ATOM      6  C   UNL     1      26.821  21.405  28.121  1.00  0.00     0.155 C 
ATOM      7  O   UNL     1      26.071  22.267  27.588  1.00  0.00    -0.295 OA
BRANCH   6   8
ATOM      8  C   UNL     1      26.710  21.100  29.560  1.00  0.00     0.039 C 
ATOM      9  C   UNL     1      27.758  20.735  30.297  1.00  0.00     0.012 C 
ENDBRANCH   6   8
ENDBRANCH   5   6
ENDBRANCH   1   5
TORSDOF 5
ENDMDL
MODEL 2
REMARK VINA RESULT:    -4.359     12.551     13.542
REMARK INTER + INTRA:          -6.193
REMARK INTER:                  -5.622
REMARK INTRA:                  -0.571
REMARK UNBOUND:                -0.559
REMARK SMILES C=CC(=O)CCCCC
REMARK SMILES IDX 6 1 7 2 8 3 9 4 5 5 3 6 4 7 2 8 1 9
REMARK H PARENT
REMARK Flexibility Score: inf
ROOT
ATOM      1  C   UNL     1      34.478  19.001  16.484  1.00  0.00     0.008 C 
ENDROOT
BRANCH   1   2
ATOM      2  C   UNL     1      35.373  20.177  16.067  1.00  0.00     0.000 C 
BRANCH   2   3
ATOM      3  C   UNL     1      34.864  21.525  16.600  1.00  0.00    -0.003 C 
ATOM      4  C   UNL     1      34.499  21.474  18.083  1.00  0.00     0.004 C 
ENDBRANCH   2   3
ENDBRANCH   1   2
BRANCH   1   5
ATOM      5  C   UNL     1      33.525  18.607  15.349  1.00  0.00     0.080 C 
BRANCH   5   6
ATOM      6  C   UNL     1      32.123  18.469  15.863  1.00  0.00     0.155 C 
ATOM      7  O   UNL     1      31.482  17.408  15.631  1.00  0.00    -0.295 OA
BRANCH   6   8
ATOM      8  C   UNL     1      31.490  19.585  16.592  1.00  0.00     0.039 C 
ATOM      9  C   UNL     1      31.222  20.755  16.015  1.00  0.00     0.012 C 
ENDBRANCH   6   8
ENDBRANCH   5   6
ENDBRANCH   1   5
TORSDOF 5
ENDMDL
MODEL 3
REMARK VINA RESULT:    -4.327      2.127      4.089
REMARK INTER + INTRA:          -6.150
REMARK INTER:                  -5.802
REMARK INTRA:                  -0.348
REMARK UNBOUND:                -0.559
REMARK SMILES C=CC(=O)CCCCC
REMARK SMILES IDX 6 1 7 2 8 3 9 4 5 5 3 6 4 7 2 8 1 9
REMARK H PARENT
REMARK Flexibility Score: inf
ROOT
ATOM      1  C   UNL     1      27.668  20.050  26.571  1.00  0.00     0.008 C 
ENDROOT
BRANCH   1   2
ATOM      2  C   UNL     1      27.888  20.959  27.789  1.00  0.00     0.000 C 
BRANCH   2   3
ATOM      3  C   UNL     1      26.575  21.543  28.334  1.00  0.00    -0.003 C 
ATOM      4  C   UNL     1      25.676  22.103  27.233  1.00  0.00     0.004 C 
ENDBRANCH   2   3
ENDBRANCH   1   2
BRANCH   1   5
ATOM      5  C   UNL     1      27.829  18.574  26.951  1.00  0.00     0.080 C 
BRANCH   5   6
ATOM      6  C   UNL     1      29.267  18.259  27.241  1.00  0.00     0.155 C 
ATOM      7  O   UNL     1      30.156  18.623  26.423  1.00  0.00    -0.295 OA
BRANCH   6   8
ATOM      8  C   UNL     1      29.627  17.491  28.448  1.00  0.00     0.039 C 
ATOM      9  C   UNL     1      28.963  17.613  29.597  1.00  0.00     0.012 C 
ENDBRANCH   6   8
ENDBRANCH   5   6
ENDBRANCH   1   5
TORSDOF 5
ENDMDL
MODEL 4
REMARK VINA RESULT:    -4.317     12.511     13.690
REMARK INTER + INTRA:          -6.137
REMARK INTER:                  -5.545
REMARK INTRA:                  -0.593
REMARK UNBOUND:                -0.559
REMARK SMILES C=CC(=O)CCCCC
REMARK SMILES IDX 6 1 7 2 8 3 9 4 5 5 3 6 4 7 2 8 1 9
REMARK H PARENT
REMARK Flexibility Score: inf
ROOT
ATOM      1  C   UNL     1      32.955  18.786  15.622  1.00  0.00     0.008 C 
ENDROOT
BRANCH   1   2
ATOM      2  C   UNL     1      31.726  18.735  16.541  1.00  0.00     0.000 C 
BRANCH   2   3
ATOM      3  C   UNL     1      31.259  20.131  16.981  1.00  0.00    -0.003 C 
ATOM      4  C   UNL     1      31.220  21.132  15.827  1.00  0.00     0.004 C 
ENDBRANCH   2   3
ENDBRANCH   1   2
BRANCH   1   5
ATOM      5  C   UNL     1      34.252  18.781  16.439  1.00  0.00     0.080 C 
BRANCH   5   6
ATOM      6  C   UNL     1      35.145  19.909  16.015  1.00  0.00     0.155 C 
ATOM      7  O   UNL     1      36.118  19.672  15.248  1.00  0.00    -0.295 OA
BRANCH   6   8
ATOM      8  C   UNL     1      34.910  21.272  16.531  1.00  0.00     0.039 C 
ATOM      9  C   UNL     1      34.703  21.522  17.822  1.00  0.00     0.012 C 
ENDBRANCH   6   8
ENDBRANCH   5   6
ENDBRANCH   1   5
TORSDOF 5
ENDMDL
MODEL 5
REMARK VINA RESULT:    -4.287     12.123     13.211
REMARK INTER + INTRA:          -6.099
REMARK INTER:                  -5.478
REMARK INTRA:                  -0.621
REMARK UNBOUND:                -0.559
REMARK SMILES C=CC(=O)CCCCC
REMARK SMILES IDX 6 1 7 2 8 3 9 4 5 5 3 6 4 7 2 8 1 9
REMARK H PARENT
REMARK Flexibility Score: inf
ROOT
ATOM      1  C   UNL     1      35.364  20.831  16.740  1.00  0.00     0.008 C 
ENDROOT
BRANCH   1   2
ATOM      2  C   UNL     1      35.180  19.927  15.511  1.00  0.00     0.000 C 
BRANCH   2   3
ATOM      3  C   UNL     1      35.056  18.442  15.884  1.00  0.00    -0.003 C 
ATOM      4  C   UNL     1      33.657  17.884  15.629  1.00  0.00     0.004 C 
ENDBRANCH   2   3
ENDBRANCH   1   2
BRANCH   1   5
ATOM      5  C   UNL     1      34.118  21.690  16.980  1.00  0.00     0.080 C 
BRANCH   5   6
ATOM      6  C   UNL     1      33.074  20.908  17.720  1.00  0.00     0.155 C 
ATOM      7  O   UNL     1      33.385  20.325  18.794  1.00  0.00    -0.295 OA
BRANCH   6   8
ATOM      8  C   UNL     1      31.710  20.789  17.168  1.00  0.00     0.039 C 
ATOM      9  C   UNL     1      31.431  21.047  15.892  1.00  0.00     0.012 C 
ENDBRANCH   6   8
ENDBRANCH   5   6
ENDBRANCH   1   5
TORSDOF 5
ENDMDL
MODEL 6
REMARK VINA RESULT:    -4.193     11.977     13.269
REMARK INTER + INTRA:          -5.977
REMARK INTER:                  -5.398
REMARK INTRA:                  -0.579
REMARK UNBOUND:                -0.559
REMARK SMILES C=CC(=O)CCCCC
REMARK SMILES IDX 6 1 7 2 8 3 9 4 5 5 3 6 4 7 2 8 1 9
REMARK H PARENT
REMARK Flexibility Score: inf
ROOT
ATOM      1  C   UNL     1      33.466  19.618  17.873  1.00  0.00     0.008 C 
ENDROOT
BRANCH   1   2
ATOM      2  C   UNL     1      33.786  21.120  17.844  1.00  0.00     0.000 C 
BRANCH   2   3
ATOM      3  C   UNL     1      34.851  21.477  16.795  1.00  0.00    -0.003 C 
ATOM      4  C   UNL     1      35.421  20.247  16.090  1.00  0.00     0.004 C 
ENDBRANCH   2   3
ENDBRANCH   1   2
BRANCH   1   5
ATOM      5  C   UNL     1      31.994  19.364  17.534  1.00  0.00     0.080 C 
BRANCH   5   6
ATOM      6  C   UNL     1      31.848  18.947  16.100  1.00  0.00     0.155 C 
ATOM      7  O   UNL     1      32.023  17.738  15.788  1.00  0.00    -0.295 OA
BRANCH   6   8
ATOM      8  C   UNL     1      31.547  19.954  15.065  1.00  0.00     0.039 C 
ATOM      9  C   UNL     1      30.940  21.107  15.343  1.00  0.00     0.012 C 
ENDBRANCH   6   8
ENDBRANCH   5   6
ENDBRANCH   1   5
TORSDOF 5
ENDMDL
MODEL 7
REMARK VINA RESULT:    -4.178     11.988     13.321
REMARK INTER + INTRA:          -5.959
REMARK INTER:                  -5.377
REMARK INTRA:                  -0.582
REMARK UNBOUND:                -0.559
REMARK SMILES C=CC(=O)CCCCC
REMARK SMILES IDX 6 1 7 2 8 3 9 4 5 5 3 6 4 7 2 8 1 9
REMARK H PARENT
REMARK Flexibility Score: inf
ROOT
ATOM      1  C   UNL     1      31.783  19.623  17.773  1.00  0.00     0.008 C 
ENDROOT
BRANCH   1   2
ATOM      2  C   UNL     1      33.097  20.154  18.366  1.00  0.00     0.000 C 
BRANCH   2   3
ATOM      3  C   UNL     1      33.568  21.450  17.689  1.00  0.00    -0.003 C 
ATOM      4  C   UNL     1      35.077  21.661  17.803  1.00  0.00     0.004 C 
ENDBRANCH   2   3
ENDBRANCH   1   2
BRANCH   1   5
ATOM      5  C   UNL     1      31.797  19.712  16.243  1.00  0.00     0.080 C 
BRANCH   5   6
ATOM      6  C   UNL     1      32.487  18.519  15.652  1.00  0.00     0.155 C 
ATOM      7  O   UNL     1      31.950  17.382  15.752  1.00  0.00    -0.295 OA
BRANCH   6   8
ATOM      8  C   UNL     1      33.801  18.674  15.000  1.00  0.00     0.039 C 
ATOM      9  C   UNL     1      34.946  18.416  15.629  1.00  0.00     0.012 C 
ENDBRANCH   6   8
ENDBRANCH   5   6
ENDBRANCH   1   5
TORSDOF 5
ENDMDL
MODEL 8
REMARK VINA RESULT:    -4.119      1.557      2.378
REMARK INTER + INTRA:          -5.882
REMARK INTER:                  -5.507
REMARK INTRA:                  -0.375
REMARK UNBOUND:                -0.559
REMARK SMILES C=CC(=O)CCCCC
REMARK SMILES IDX 6 1 7 2 8 3 9 4 5 5 3 6 4 7 2 8 1 9
REMARK H PARENT
REMARK Flexibility Score: inf
ROOT
ATOM      1  C   UNL     1      26.882  18.666  28.235  1.00  0.00     0.008 C 
ENDROOT
BRANCH   1   2
ATOM      2  C   UNL     1      28.068  18.082  29.017  1.00  0.00     0.000 C 
BRANCH   2   3
ATOM      3  C   UNL     1      29.294  17.827  28.127  1.00  0.00    -0.003 C 
ATOM      4  C   UNL     1      29.316  18.714  26.883  1.00  0.00     0.004 C 
ENDBRANCH   2   3
ENDBRANCH   1   2
BRANCH   1   5
ATOM      5  C   UNL     1      26.050  19.602  29.118  1.00  0.00     0.080 C 
BRANCH   5   6
ATOM      6  C   UNL     1      26.665  20.969  29.163  1.00  0.00     0.155 C 
ATOM      7  O   UNL     1      27.147  21.395  30.248  1.00  0.00    -0.295 OA
BRANCH   6   8
ATOM      8  C   UNL     1      26.664  21.820  27.958  1.00  0.00     0.039 C 
ATOM      9  C   UNL     1      25.559  22.061  27.254  1.00  0.00     0.012 C 
ENDBRANCH   6   8
ENDBRANCH   5   6
ENDBRANCH   1   5
TORSDOF 5
ENDMDL
