MODEL 1
REMARK VINA RESULT:    60.348      0.000      0.000
REMARK INTER + INTRA:          84.652
REMARK INTER:                  85.044
REMARK INTRA:                  -0.392
REMARK UNBOUND:                -0.392
REMARK SMILES COc1c(O[C@H]2O[C@H](C(=O)[O-])[C@H](O)[C@H](O)[C@@H]2O)cc(O)c2c(=O)cc(-c3ccccc3)oc12
REMARK SMILES IDX 5 1 6 2 8 3 12 4 7 5 14 6 16 7 9 8 10 9 11 10 13 11 15 13
REMARK SMILES IDX 17 15 4 17 3 18 18 19 33 20 19 21 21 22 32 23 22 24 25 25
REMARK SMILES IDX 24 26 23 27 2 28 1 29 20 30 26 32 27 33 31 34 28 35 30 36
REMARK SMILES IDX 29 37
REMARK H PARENT 13 12 15 14 17 16 20 31
REMARK Flexibility Score: inf
ROOT
ATOM      1  O   UNL     1      15.616  49.664  58.712  1.00  0.00    -0.458 OA
ENDROOT
BRANCH   1   2
ATOM      2  C   UNL     1      16.373  50.309  59.741  1.00  0.00     0.339 C 
ATOM      3  C   UNL     1      15.101  52.279  59.626  1.00  0.00     0.199 C 
ATOM      4  C   UNL     1      14.494  52.090  61.030  1.00  0.00     0.180 C 
ATOM      5  O   UNL     1      16.403  51.719  59.558  1.00  0.00    -0.328 OA
ATOM      6  C   UNL     1      14.439  50.588  61.356  1.00  0.00     0.181 C 
ATOM      7  C   UNL     1      15.813  49.930  61.130  1.00  0.00     0.214 C 
BRANCH   3   8
ATOM      8  C   UNL     1      15.163  53.738  59.287  1.00  0.00     0.073 C 
ATOM      9  O   UNL     1      15.512  54.584  60.152  1.00  0.00    -0.547 OA
ATOM     10  O   UNL     1      14.761  54.171  58.031  1.00  0.00    -0.547 OA
ENDBRANCH   3   8
BRANCH   4  11
ATOM     11  O   UNL     1      15.275  52.774  61.982  1.00  0.00    -0.387 OA
ATOM     12  H   UNL     1      15.858  52.098  62.417  1.00  0.00     0.211 HD
ENDBRANCH   4  11
BRANCH   6  13
ATOM     13  O   UNL     1      14.009  50.402  62.680  1.00  0.00    -0.387 OA
ATOM     14  H   UNL     1      14.381  51.153  63.211  1.00  0.00     0.211 HD
ENDBRANCH   6  13
BRANCH   7  15
ATOM     15  O   UNL     1      16.708  50.341  62.132  1.00  0.00    -0.384 OA
ATOM     16  H   UNL     1      16.600  49.711  62.889  1.00  0.00     0.211 HD
ENDBRANCH   7  15
ENDBRANCH   1   2
BRANCH   1  17
ATOM     17  C   UNL     1      15.791  48.344  58.269  1.00  0.00     0.172 A 
ATOM     18  C   UNL     1      17.028  47.954  57.703  1.00  0.00     0.205 A 
ATOM     19  C   UNL     1      14.751  47.399  58.364  1.00  0.00     0.097 A 
ATOM     20  C   UNL     1      17.198  46.639  57.246  1.00  0.00     0.188 A 
ATOM     21  C   UNL     1      14.920  46.085  57.912  1.00  0.00     0.134 A 
ATOM     22  C   UNL     1      16.154  45.692  57.354  1.00  0.00     0.111 A 
ATOM     23  O   UNL     1      18.372  46.288  56.726  1.00  0.00    -0.452 OA
ATOM     24  C   UNL     1      16.406  44.382  56.900  1.00  0.00     0.197 A 
ATOM     25  C   UNL     1      18.647  45.056  56.301  1.00  0.00     0.138 A 
ATOM     26  C   UNL     1      17.658  44.065  56.372  1.00  0.00     0.100 A 
ATOM     27  O   UNL     1      15.525  43.486  56.961  1.00  0.00    -0.289 OA
BRANCH  18  28
ATOM     28  O   UNL     1      18.128  48.823  57.573  1.00  0.00    -0.490 OA
ATOM     29  C   UNL     1      18.972  49.258  58.636  1.00  0.00     0.278 C 
ENDBRANCH  18  28
BRANCH  21  30
ATOM     30  O   UNL     1      13.863  45.179  58.026  1.00  0.00    -0.507 OA
ATOM     31  H   UNL     1      13.041  45.387  58.580  1.00  0.00     0.293 HD
ENDBRANCH  21  30
BRANCH  25  32
ATOM     32  C   UNL     1      19.998  44.778  55.754  1.00  0.00     0.017 A 
ATOM     33  C   UNL     1      20.332  45.231  54.465  1.00  0.00     0.012 A 
ATOM     34  C   UNL     1      20.980  44.109  56.512  1.00  0.00     0.012 A 
ATOM     35  C   UNL     1      21.604  44.997  53.936  1.00  0.00     0.001 A 
ATOM     36  C   UNL     1      22.253  43.881  55.979  1.00  0.00     0.001 A 
ATOM     37  C   UNL     1      22.563  44.321  54.690  1.00  0.00     0.000 A 
ENDBRANCH  25  32
ENDBRANCH   1  17
TORSDOF 9
ENDMDL
MODEL 2
REMARK VINA RESULT:    60.509      1.244      2.148
REMARK INTER + INTRA:          84.878
REMARK INTER:                  85.270
REMARK INTRA:                  -0.392
REMARK UNBOUND:                -0.392
REMARK SMILES COc1c(O[C@H]2O[C@H](C(=O)[O-])[C@H](O)[C@H](O)[C@@H]2O)cc(O)c2c(=O)cc(-c3ccccc3)oc12
REMARK SMILES IDX 5 1 6 2 8 3 12 4 7 5 14 6 16 7 9 8 10 9 11 10 13 11 15 13
REMARK SMILES IDX 17 15 4 17 3 18 18 19 33 20 19 21 21 22 32 23 22 24 25 25
REMARK SMILES IDX 24 26 23 27 2 28 1 29 20 30 26 32 27 33 31 34 28 35 30 36
REMARK SMILES IDX 29 37
REMARK H PARENT 13 12 15 14 17 16 20 31
REMARK Flexibility Score: inf
ROOT
ATOM      1  O   UNL     1      15.979  49.020  59.871  1.00  0.00    -0.458 OA
ENDROOT
BRANCH   1   2
ATOM      2  C   UNL     1      15.741  50.386  59.518  1.00  0.00     0.339 C 
ATOM      3  C   UNL     1      15.096  50.974  61.697  1.00  0.00     0.199 C 
ATOM      4  C   UNL     1      16.323  51.879  61.925  1.00  0.00     0.180 C 
ATOM      5  O   UNL     1      14.724  50.962  60.328  1.00  0.00    -0.328 OA
ATOM      6  C   UNL     1      17.492  51.367  61.066  1.00  0.00     0.181 C 
ATOM      7  C   UNL     1      17.055  51.193  59.599  1.00  0.00     0.214 C 
BRANCH   3   8
ATOM      8  C   UNL     1      13.944  51.455  62.528  1.00  0.00     0.073 C 
ATOM      9  O   UNL     1      13.113  50.638  63.007  1.00  0.00    -0.547 OA
ATOM     10  O   UNL     1      13.747  52.816  62.710  1.00  0.00    -0.547 OA
ENDBRANCH   3   8
BRANCH   4  11
ATOM     11  O   UNL     1      16.004  53.208  61.585  1.00  0.00    -0.387 OA
ATOM     12  H   UNL     1      15.090  53.195  61.199  1.00  0.00     0.211 HD
ENDBRANCH   4  11
BRANCH   6  13
ATOM     13  O   UNL     1      18.578  52.252  61.161  1.00  0.00    -0.387 OA
ATOM     14  H   UNL     1      18.493  52.718  62.033  1.00  0.00     0.211 HD
ENDBRANCH   6  13
BRANCH   7  15
ATOM     15  O   UNL     1      16.878  52.453  59.003  1.00  0.00    -0.384 OA
ATOM     16  H   UNL     1      17.319  52.415  58.117  1.00  0.00     0.211 HD
ENDBRANCH   7  15
ENDBRANCH   1   2
BRANCH   1  17
ATOM     17  C   UNL     1      16.033  47.939  58.977  1.00  0.00     0.172 A 
ATOM     18  C   UNL     1      17.276  47.550  58.423  1.00  0.00     0.205 A 
ATOM     19  C   UNL     1      14.868  47.238  58.608  1.00  0.00     0.097 A 
ATOM     20  C   UNL     1      17.328  46.480  57.518  1.00  0.00     0.188 A 
ATOM     21  C   UNL     1      14.919  46.167  57.709  1.00  0.00     0.134 A 
ATOM     22  C   UNL     1      16.157  45.774  57.160  1.00  0.00     0.111 A 
ATOM     23  O   UNL     1      18.507  46.122  57.016  1.00  0.00    -0.452 OA
ATOM     24  C   UNL     1      16.290  44.692  56.268  1.00  0.00     0.197 A 
ATOM     25  C   UNL     1      18.669  45.097  56.182  1.00  0.00     0.138 A 
ATOM     26  C   UNL     1      17.551  44.353  55.778  1.00  0.00     0.100 A 
ATOM     27  O   UNL     1      15.291  44.018  55.901  1.00  0.00    -0.289 OA
BRANCH  18  28
ATOM     28  O   UNL     1      18.495  48.182  58.737  1.00  0.00    -0.490 OA
ATOM     29  C   UNL     1      18.946  49.426  58.207  1.00  0.00     0.278 C 
ENDBRANCH  18  28
BRANCH  21  30
ATOM     30  O   UNL     1      13.740  45.499  57.370  1.00  0.00    -0.507 OA
ATOM     31  H   UNL     1      13.601  45.096  56.451  1.00  0.00     0.293 HD
ENDBRANCH  21  30
BRANCH  25  32
ATOM     32  C   UNL     1      20.036  44.782  55.698  1.00  0.00     0.017 A 
ATOM     33  C   UNL     1      20.435  45.208  54.419  1.00  0.00     0.012 A 
ATOM     34  C   UNL     1      20.970  44.105  56.508  1.00  0.00     0.012 A 
ATOM     35  C   UNL     1      21.724  44.939  53.949  1.00  0.00     0.001 A 
ATOM     36  C   UNL     1      22.259  43.842  56.035  1.00  0.00     0.001 A 
ATOM     37  C   UNL     1      22.634  44.255  54.754  1.00  0.00     0.000 A 
ENDBRANCH  25  32
ENDBRANCH   1  17
TORSDOF 9
ENDMDL
MODEL 3
REMARK VINA RESULT:    60.605      1.315      2.123
REMARK INTER + INTRA:          85.014
REMARK INTER:                  85.293
REMARK INTRA:                  -0.279
REMARK UNBOUND:                -0.392
REMARK SMILES COc1c(O[C@H]2O[C@H](C(=O)[O-])[C@H](O)[C@H](O)[C@@H]2O)cc(O)c2c(=O)cc(-c3ccccc3)oc12
REMARK SMILES IDX 5 1 6 2 8 3 12 4 7 5 14 6 16 7 9 8 10 9 11 10 13 11 15 13
REMARK SMILES IDX 17 15 4 17 3 18 18 19 33 20 19 21 21 22 32 23 22 24 25 25
REMARK SMILES IDX 24 26 23 27 2 28 1 29 20 30 26 32 27 33 31 34 28 35 30 36
REMARK SMILES IDX 29 37
REMARK H PARENT 13 12 15 14 17 16 20 31
REMARK Flexibility Score: inf
ROOT
ATOM      1  O   UNL     1      16.671  49.746  59.500  1.00  0.00    -0.458 OA
ENDROOT
BRANCH   1   2
ATOM      2  C   UNL     1      15.612  50.326  60.268  1.00  0.00     0.339 C 
ATOM      3  C   UNL     1      16.908  52.178  60.903  1.00  0.00     0.199 C 
ATOM      4  C   UNL     1      16.056  53.179  60.097  1.00  0.00     0.180 C 
ATOM      5  O   UNL     1      16.117  51.090  61.356  1.00  0.00    -0.328 OA
ATOM      6  C   UNL     1      15.425  52.450  58.898  1.00  0.00     0.181 C 
ATOM      7  C   UNL     1      14.697  51.173  59.358  1.00  0.00     0.214 C 
BRANCH   3   8
ATOM      8  C   UNL     1      17.534  52.868  62.077  1.00  0.00     0.073 C 
ATOM      9  O   UNL     1      16.876  53.696  62.762  1.00  0.00    -0.547 OA
ATOM     10  O   UNL     1      18.873  52.651  62.370  1.00  0.00    -0.547 OA
ENDBRANCH   3   8
BRANCH   4  11
ATOM     11  O   UNL     1      15.057  53.726  60.924  1.00  0.00    -0.387 OA
ATOM     12  H   UNL     1      15.206  53.364  61.836  1.00  0.00     0.211 HD
ENDBRANCH   4  11
BRANCH   6  13
ATOM     13  O   UNL     1      14.544  53.312  58.225  1.00  0.00    -0.387 OA
ATOM     14  H   UNL     1      13.642  53.160  58.611  1.00  0.00     0.211 HD
ENDBRANCH   6  13
BRANCH   7  15
ATOM     15  O   UNL     1      13.523  51.517  60.050  1.00  0.00    -0.384 OA
ATOM     16  H   UNL     1      13.327  50.770  60.670  1.00  0.00     0.211 HD
ENDBRANCH   7  15
ENDBRANCH   1   2
BRANCH   1  17
ATOM     17  C   UNL     1      16.605  48.536  58.792  1.00  0.00     0.172 A 
ATOM     18  C   UNL     1      17.776  48.007  58.198  1.00  0.00     0.205 A 
ATOM     19  C   UNL     1      15.388  47.842  58.647  1.00  0.00     0.097 A 
ATOM     20  C   UNL     1      17.707  46.807  57.477  1.00  0.00     0.188 A 
ATOM     21  C   UNL     1      15.318  46.641  57.932  1.00  0.00     0.134 A 
ATOM     22  C   UNL     1      16.484  46.108  57.344  1.00  0.00     0.111 A 
ATOM     23  O   UNL     1      18.820  46.319  56.936  1.00  0.00    -0.452 OA
ATOM     24  C   UNL     1      16.496  44.894  56.630  1.00  0.00     0.197 A 
ATOM     25  C   UNL     1      18.868  45.169  56.267  1.00  0.00     0.138 A 
ATOM     26  C   UNL     1      17.694  44.424  56.090  1.00  0.00     0.100 A 
ATOM     27  O   UNL     1      15.446  44.219  56.469  1.00  0.00    -0.289 OA
BRANCH  18  28
ATOM     28  O   UNL     1      19.039  48.623  58.295  1.00  0.00    -0.490 OA
ATOM     29  C   UNL     1      19.277  49.974  58.682  1.00  0.00     0.278 C 
ENDBRANCH  18  28
BRANCH  21  30
ATOM     30  O   UNL     1      14.091  45.984  57.813  1.00  0.00    -0.507 OA
ATOM     31  H   UNL     1      13.273  46.286  58.328  1.00  0.00     0.293 HD
ENDBRANCH  21  30
BRANCH  25  32
ATOM     32  C   UNL     1      20.172  44.717  55.719  1.00  0.00     0.017 A 
ATOM     33  C   UNL     1      20.535  45.075  54.409  1.00  0.00     0.012 A 
ATOM     34  C   UNL     1      21.084  43.977  56.497  1.00  0.00     0.012 A 
ATOM     35  C   UNL     1      21.765  44.677  53.878  1.00  0.00     0.001 A 
ATOM     36  C   UNL     1      22.316  43.585  55.963  1.00  0.00     0.001 A 
ATOM     37  C   UNL     1      22.654  43.931  54.652  1.00  0.00     0.000 A 
ENDBRANCH  25  32
ENDBRANCH   1  17
TORSDOF 9
ENDMDL
MODEL 4
REMARK VINA RESULT:    60.786      2.049      3.850
REMARK INTER + INTRA:          85.268
REMARK INTER:                  85.532
REMARK INTRA:                  -0.264
REMARK UNBOUND:                -0.392
REMARK SMILES COc1c(O[C@H]2O[C@H](C(=O)[O-])[C@H](O)[C@H](O)[C@@H]2O)cc(O)c2c(=O)cc(-c3ccccc3)oc12
REMARK SMILES IDX 5 1 6 2 8 3 12 4 7 5 14 6 16 7 9 8 10 9 11 10 13 11 15 13
REMARK SMILES IDX 17 15 4 17 3 18 18 19 33 20 19 21 21 22 32 23 22 24 25 25
REMARK SMILES IDX 24 26 23 27 2 28 1 29 20 30 26 32 27 33 31 34 28 35 30 36
REMARK SMILES IDX 29 37
REMARK H PARENT 13 12 15 14 17 16 20 31
REMARK Flexibility Score: inf
ROOT
ATOM      1  O   UNL     1      15.713  49.663  58.602  1.00  0.00    -0.458 OA
ENDROOT
BRANCH   1   2
ATOM      2  C   UNL     1      16.463  50.432  59.547  1.00  0.00     0.339 C 
ATOM      3  C   UNL     1      15.053  52.297  59.348  1.00  0.00     0.199 C 
ATOM      4  C   UNL     1      14.518  52.175  60.788  1.00  0.00     0.180 C 
ATOM      5  O   UNL     1      16.387  51.823  59.262  1.00  0.00    -0.328 OA
ATOM      6  C   UNL     1      14.581  50.701  61.224  1.00  0.00     0.181 C 
ATOM      7  C   UNL     1      15.988  50.122  60.983  1.00  0.00     0.214 C 
BRANCH   3   8
ATOM      8  C   UNL     1      14.998  53.728  58.902  1.00  0.00     0.073 C 
ATOM      9  O   UNL     1      14.646  54.022  57.728  1.00  0.00    -0.547 OA
ATOM     10  O   UNL     1      15.409  54.735  59.764  1.00  0.00    -0.547 OA
ENDBRANCH   3   8
BRANCH   4  11
ATOM     11  O   UNL     1      15.286  52.979  61.652  1.00  0.00    -0.387 OA
ATOM     12  H   UNL     1      14.992  52.772  62.577  1.00  0.00     0.211 HD
ENDBRANCH   4  11
BRANCH   6  13
ATOM     13  O   UNL     1      14.219  50.586  62.576  1.00  0.00    -0.387 OA
ATOM     14  H   UNL     1      13.533  51.281  62.749  1.00  0.00     0.211 HD
ENDBRANCH   6  13
BRANCH   7  15
ATOM     15  O   UNL     1      16.892  50.666  61.912  1.00  0.00    -0.384 OA
ATOM     16  H   UNL     1      16.422  50.698  62.784  1.00  0.00     0.211 HD
ENDBRANCH   7  15
ENDBRANCH   1   2
BRANCH   1  17
ATOM     17  C   UNL     1      16.188  48.554  57.885  1.00  0.00     0.172 A 
ATOM     18  C   UNL     1      15.950  47.248  58.376  1.00  0.00     0.205 A 
ATOM     19  C   UNL     1      16.911  48.715  56.687  1.00  0.00     0.097 A 
ATOM     20  C   UNL     1      16.437  46.140  57.668  1.00  0.00     0.188 A 
ATOM     21  C   UNL     1      17.394  47.611  55.976  1.00  0.00     0.134 A 
ATOM     22  C   UNL     1      17.154  46.308  56.460  1.00  0.00     0.111 A 
ATOM     23  O   UNL     1      16.194  44.920  58.139  1.00  0.00    -0.452 OA
ATOM     24  C   UNL     1      17.588  45.149  55.788  1.00  0.00     0.197 A 
ATOM     25  C   UNL     1      16.579  43.804  57.522  1.00  0.00     0.138 A 
ATOM     26  C   UNL     1      17.298  43.893  56.322  1.00  0.00     0.100 A 
ATOM     27  O   UNL     1      18.233  45.220  54.709  1.00  0.00    -0.289 OA
BRANCH  18  28
ATOM     28  O   UNL     1      15.230  46.984  59.557  1.00  0.00    -0.490 OA
ATOM     29  C   UNL     1      15.678  47.262  60.882  1.00  0.00     0.278 C 
ENDBRANCH  18  28
BRANCH  21  30
ATOM     30  O   UNL     1      18.107  47.815  54.792  1.00  0.00    -0.507 OA
ATOM     31  H   UNL     1      18.958  48.364  54.771  1.00  0.00     0.293 HD
ENDBRANCH  21  30
BRANCH  25  32
ATOM     32  C   UNL     1      16.238  42.497  58.136  1.00  0.00     0.017 A 
ATOM     33  C   UNL     1      17.233  41.766  58.809  1.00  0.00     0.012 A 
ATOM     34  C   UNL     1      14.925  41.986  58.106  1.00  0.00     0.012 A 
ATOM     35  C   UNL     1      16.931  40.541  59.411  1.00  0.00     0.001 A 
ATOM     36  C   UNL     1      14.627  40.762  58.714  1.00  0.00     0.001 A 
ATOM     37  C   UNL     1      15.631  40.038  59.362  1.00  0.00     0.000 A 
ENDBRANCH  25  32
ENDBRANCH   1  17
TORSDOF 9
ENDMDL
