MODEL 1
REMARK VINA RESULT:    -2.541      0.000      0.000
REMARK INTER + INTRA:          -3.389
REMARK INTER:                  -2.987
REMARK INTRA:                  -0.402
REMARK UNBOUND:                -0.402
REMARK SMILES [NH3+][C@H](CO)C(=O)[O-]
REMARK SMILES IDX 3 1 2 2 1 3 5 7 6 8 7 9 4 10
REMARK H PARENT 1 4 1 5 1 6 4 11
REMARK Flexibility Score: inf
ROOT
ATOM      1  C   UNL     1      13.178  -0.221  -9.497  1.00  0.00     0.227 C 
ENDROOT
BRANCH   1   2
ATOM      2  C   UNL     1      14.397  -1.155  -9.539  1.00  0.00     0.253 C 
BRANCH   2   3
ATOM      3  N   UNL     1      15.525  -0.520 -10.233  1.00  0.00    -0.348 N 
ATOM      4  H   UNL     1      15.465  -0.682 -11.265  1.00  0.00     0.345 HD
ATOM      5  H   UNL     1      16.429  -0.909  -9.877  1.00  0.00     0.345 HD
ATOM      6  H   UNL     1      15.520   0.509 -10.046  1.00  0.00     0.345 HD
ENDBRANCH   2   3
BRANCH   2   7
ATOM      7  C   UNL     1      14.796  -1.542  -8.141  1.00  0.00     0.102 C 
ATOM      8  O   UNL     1      15.532  -0.779  -7.460  1.00  0.00    -0.544 OA
ATOM      9  O   UNL     1      14.368  -2.747  -7.596  1.00  0.00    -0.544 OA
ENDBRANCH   2   7
ENDBRANCH   1   2
BRANCH   1  10
ATOM     10  O   UNL     1      12.631  -0.204  -8.208  1.00  0.00    -0.390 OA
ATOM     11  H   UNL     1      11.698  -0.529  -8.300  1.00  0.00     0.210 HD
ENDBRANCH   1  10
TORSDOF 4
ENDMDL
MODEL 2
REMARK VINA RESULT:    -2.383      1.577      2.150
REMARK INTER + INTRA:          -3.203
REMARK INTER:                  -2.975
REMARK INTRA:                  -0.229
REMARK UNBOUND:                -0.402
REMARK SMILES [NH3+][C@H](CO)C(=O)[O-]
REMARK SMILES IDX 3 1 2 2 1 3 5 7 6 8 7 9 4 10
REMARK H PARENT 1 4 1 5 1 6 4 11
REMARK Flexibility Score: inf
ROOT
ATOM      1  C   UNL     1      14.287  -1.972  -8.144  1.00  0.00     0.227 C 
ENDROOT
BRANCH   1   2
ATOM      2  C   UNL     1      15.610  -1.860  -8.917  1.00  0.00     0.253 C 
BRANCH   2   3
ATOM      3  N   UNL     1      15.419  -1.149 -10.189  1.00  0.00    -0.348 N 
ATOM      4  H   UNL     1      16.014  -0.288 -10.225  1.00  0.00     0.345 HD
ATOM      5  H   UNL     1      14.415  -0.877 -10.299  1.00  0.00     0.345 HD
ATOM      6  H   UNL     1      15.675  -1.776 -10.985  1.00  0.00     0.345 HD
ENDBRANCH   2   3
BRANCH   2   7
ATOM      7  C   UNL     1      16.638  -1.154  -8.075  1.00  0.00     0.102 C 
ATOM      8  O   UNL     1      17.651  -1.779  -7.660  1.00  0.00    -0.544 OA
ATOM      9  O   UNL     1      16.473   0.183  -7.738  1.00  0.00    -0.544 OA
ENDBRANCH   2   7
ENDBRANCH   1   2
BRANCH   1  10
ATOM     10  O   UNL     1      13.672  -0.716  -8.060  1.00  0.00    -0.390 OA
ATOM     11  H   UNL     1      13.607  -0.505  -7.092  1.00  0.00     0.210 HD
ENDBRANCH   1  10
TORSDOF 4
ENDMDL
MODEL 3
REMARK VINA RESULT:    -2.381      2.401      3.325
REMARK INTER + INTRA:          -3.201
REMARK INTER:                  -2.818
REMARK INTRA:                  -0.382
REMARK UNBOUND:                -0.402
REMARK SMILES [NH3+][C@H](CO)C(=O)[O-]
REMARK SMILES IDX 3 1 2 2 1 3 5 7 6 8 7 9 4 10
REMARK H PARENT 1 4 1 5 1 6 4 11
REMARK Flexibility Score: inf
ROOT
ATOM      1  C   UNL     1      15.869  -1.522  -8.372  1.00  0.00     0.227 C 
ENDROOT
BRANCH   1   2
ATOM      2  C   UNL     1      17.366  -1.230  -8.188  1.00  0.00     0.253 C 
BRANCH   2   3
ATOM      3  N   UNL     1      17.989  -0.844  -9.461  1.00  0.00    -0.348 N 
ATOM      4  H   UNL     1      17.285  -0.410 -10.102  1.00  0.00     0.345 HD
ATOM      5  H   UNL     1      18.403  -1.685  -9.926  1.00  0.00     0.345 HD
ATOM      6  H   UNL     1      18.760  -0.159  -9.284  1.00  0.00     0.345 HD
ENDBRANCH   2   3
BRANCH   2   7
ATOM      7  C   UNL     1      17.555  -0.142  -7.165  1.00  0.00     0.102 C 
ATOM      8  O   UNL     1      18.015  -0.420  -6.025  1.00  0.00    -0.544 OA
ATOM      9  O   UNL     1      17.212   1.171  -7.465  1.00  0.00    -0.544 OA
ENDBRANCH   2   7
ENDBRANCH   1   2
BRANCH   1  10
ATOM     10  O   UNL     1      15.131  -0.904  -7.355  1.00  0.00    -0.390 OA
ATOM     11  H   UNL     1      15.793  -0.579  -6.691  1.00  0.00     0.210 HD
ENDBRANCH   1  10
TORSDOF 4
ENDMDL
MODEL 4
REMARK VINA RESULT:    -2.335      1.815      2.987
REMARK INTER + INTRA:          -3.147
REMARK INTER:                  -2.763
REMARK INTRA:                  -0.384
REMARK UNBOUND:                -0.402
REMARK SMILES [NH3+][C@H](CO)C(=O)[O-]
REMARK SMILES IDX 3 1 2 2 1 3 5 7 6 8 7 9 4 10
REMARK H PARENT 1 4 1 5 1 6 4 11
REMARK Flexibility Score: inf
ROOT
ATOM      1  C   UNL     1      16.492  -2.464 -10.031  1.00  0.00     0.227 C 
ENDROOT
BRANCH   1   2
ATOM      2  C   UNL     1      15.091  -1.921  -9.710  1.00  0.00     0.253 C 
BRANCH   2   3
ATOM      3  N   UNL     1      14.049  -2.764 -10.311  1.00  0.00    -0.348 N 
ATOM      4  H   UNL     1      13.971  -3.676  -9.803  1.00  0.00     0.345 HD
ATOM      5  H   UNL     1      14.273  -2.948 -11.315  1.00  0.00     0.345 HD
ATOM      6  H   UNL     1      13.128  -2.269 -10.269  1.00  0.00     0.345 HD
ENDBRANCH   2   3
BRANCH   2   7
ATOM      7  C   UNL     1      14.901  -1.840  -8.220  1.00  0.00     0.102 C 
ATOM      8  O   UNL     1      14.344  -2.786  -7.601  1.00  0.00    -0.544 OA
ATOM      9  O   UNL     1      15.325  -0.718  -7.518  1.00  0.00    -0.544 OA
ENDBRANCH   2   7
ENDBRANCH   1   2
BRANCH   1  10
ATOM     10  O   UNL     1      17.276  -2.485  -8.870  1.00  0.00    -0.390 OA
ATOM     11  H   UNL     1      16.641  -2.483  -8.108  1.00  0.00     0.210 HD
ENDBRANCH   1  10
TORSDOF 4
ENDMDL
MODEL 5
REMARK VINA RESULT:    -2.300      2.200      2.848
REMARK INTER + INTRA:          -3.106
REMARK INTER:                  -2.692
REMARK INTRA:                  -0.414
REMARK UNBOUND:                -0.402
REMARK SMILES [NH3+][C@H](CO)C(=O)[O-]
REMARK SMILES IDX 3 1 2 2 1 3 5 7 6 8 7 9 4 10
REMARK H PARENT 1 4 1 5 1 6 4 11
REMARK Flexibility Score: inf
ROOT
ATOM      1  C   UNL     1      16.976   1.181  -9.054  1.00  0.00     0.227 C 
ENDROOT
BRANCH   1   2
ATOM      2  C   UNL     1      16.456  -0.221  -9.405  1.00  0.00     0.253 C 
BRANCH   2   3
ATOM      3  N   UNL     1      17.421  -0.949 -10.239  1.00  0.00    -0.348 N 
ATOM      4  H   UNL     1      17.668  -0.393 -11.091  1.00  0.00     0.345 HD
ATOM      5  H   UNL     1      17.018  -1.868 -10.533  1.00  0.00     0.345 HD
ATOM      6  H   UNL     1      18.291  -1.137  -9.689  1.00  0.00     0.345 HD
ENDBRANCH   2   3
BRANCH   2   7
ATOM      7  C   UNL     1      16.170  -0.993  -8.145  1.00  0.00     0.102 C 
ATOM      8  O   UNL     1      17.058  -1.730  -7.640  1.00  0.00    -0.544 OA
ATOM      9  O   UNL     1      14.922  -0.910  -7.538  1.00  0.00    -0.544 OA
ENDBRANCH   2   7
ENDBRANCH   1   2
BRANCH   1  10
ATOM     10  O   UNL     1      17.044   1.334  -7.663  1.00  0.00    -0.390 OA
ATOM     11  H   UNL     1      17.236   2.293  -7.500  1.00  0.00     0.210 HD
ENDBRANCH   1  10
TORSDOF 4
ENDMDL
MODEL 6
REMARK VINA RESULT:    -2.293     10.036     10.363
REMARK INTER + INTRA:          -3.097
REMARK INTER:                  -2.702
REMARK INTRA:                  -0.395
REMARK UNBOUND:                -0.402
REMARK SMILES [NH3+][C@H](CO)C(=O)[O-]
REMARK SMILES IDX 3 1 2 2 1 3 5 7 6 8 7 9 4 10
REMARK H PARENT 1 4 1 5 1 6 4 11
REMARK Flexibility Score: inf
ROOT
ATOM      1  C   UNL     1      10.910   1.176   0.171  1.00  0.00     0.227 C 
ENDROOT
BRANCH   1   2
ATOM      2  C   UNL     1      10.909  -0.358   0.093  1.00  0.00     0.253 C 
BRANCH   2   3
ATOM      3  N   UNL     1      12.143  -0.916   0.660  1.00  0.00    -0.348 N 
ATOM      4  H   UNL     1      12.392  -1.818   0.191  1.00  0.00     0.345 HD
ATOM      5  H   UNL     1      12.022  -1.085   1.685  1.00  0.00     0.345 HD
ATOM      6  H   UNL     1      12.928  -0.237   0.534  1.00  0.00     0.345 HD
ENDBRANCH   2   3
BRANCH   2   7
ATOM      7  C   UNL     1       9.709  -0.908   0.815  1.00  0.00     0.102 C 
ATOM      8  O   UNL     1       9.765  -1.133   2.054  1.00  0.00    -0.544 OA
ATOM      9  O   UNL     1       8.537  -1.183   0.121  1.00  0.00    -0.544 OA
ENDBRANCH   2   7
ENDBRANCH   1   2
BRANCH   1  10
ATOM     10  O   UNL     1       9.643   1.639   0.548  1.00  0.00    -0.390 OA
ATOM     11  H   UNL     1       9.365   2.285  -0.152  1.00  0.00     0.210 HD
ENDBRANCH   1  10
TORSDOF 4
ENDMDL
MODEL 7
REMARK VINA RESULT:    -2.265      9.097      9.547
REMARK INTER + INTRA:          -3.064
REMARK INTER:                  -2.743
REMARK INTRA:                  -0.321
REMARK UNBOUND:                -0.402
REMARK SMILES [NH3+][C@H](CO)C(=O)[O-]
REMARK SMILES IDX 3 1 2 2 1 3 5 7 6 8 7 9 4 10
REMARK H PARENT 1 4 1 5 1 6 4 11
REMARK Flexibility Score: inf
ROOT
ATOM      1  C   UNL     1      10.611   1.323   0.945  1.00  0.00     0.227 C 
ENDROOT
BRANCH   1   2
ATOM      2  C   UNL     1      11.898   1.189   0.116  1.00  0.00     0.253 C 
BRANCH   2   3
ATOM      3  N   UNL     1      11.932  -0.093  -0.602  1.00  0.00    -0.348 N 
ATOM      4  H   UNL     1      12.846  -0.217  -1.095  1.00  0.00     0.345 HD
ATOM      5  H   UNL     1      11.156  -0.131  -1.302  1.00  0.00     0.345 HD
ATOM      6  H   UNL     1      11.797  -0.879   0.075  1.00  0.00     0.345 HD
ENDBRANCH   2   3
BRANCH   2   7
ATOM      7  C   UNL     1      12.004   2.333  -0.856  1.00  0.00     0.102 C 
ATOM      8  O   UNL     1      12.014   2.110  -2.096  1.00  0.00    -0.544 OA
ATOM      9  O   UNL     1      12.107   3.639  -0.394  1.00  0.00    -0.544 OA
ENDBRANCH   2   7
ENDBRANCH   1   2
BRANCH   1  10
ATOM     10  O   UNL     1       9.690   2.136   0.272  1.00  0.00    -0.390 OA
ATOM     11  H   UNL     1       9.112   1.524  -0.253  1.00  0.00     0.210 HD
ENDBRANCH   1  10
TORSDOF 4
ENDMDL
MODEL 8
REMARK VINA RESULT:    -2.239      5.849      6.732
REMARK INTER + INTRA:          -3.033
REMARK INTER:                  -2.620
REMARK INTRA:                  -0.413
REMARK UNBOUND:                -0.402
REMARK SMILES [NH3+][C@H](CO)C(=O)[O-]
REMARK SMILES IDX 3 1 2 2 1 3 5 7 6 8 7 9 4 10
REMARK H PARENT 1 4 1 5 1 6 4 11
REMARK Flexibility Score: inf
ROOT
ATOM      1  C   UNL     1      10.185   2.203  -7.166  1.00  0.00     0.227 C 
ENDROOT
BRANCH   1   2
ATOM      2  C   UNL     1      10.093   3.729  -7.011  1.00  0.00     0.253 C 
BRANCH   2   3
ATOM      3  N   UNL     1       8.815   4.122  -6.404  1.00  0.00    -0.348 N 
ATOM      4  H   UNL     1       8.464   5.015  -6.823  1.00  0.00     0.345 HD
ATOM      5  H   UNL     1       8.933   4.250  -5.373  1.00  0.00     0.345 HD
ATOM      6  H   UNL     1       8.105   3.369  -6.558  1.00  0.00     0.345 HD
ENDBRANCH   2   3
BRANCH   2   7
ATOM      7  C   UNL     1      11.242   4.230  -6.177  1.00  0.00     0.102 C 
ATOM      8  O   UNL     1      12.345   4.504  -6.720  1.00  0.00    -0.544 OA
ATOM      9  O   UNL     1      11.098   4.381  -4.803  1.00  0.00    -0.544 OA
ENDBRANCH   2   7
ENDBRANCH   1   2
BRANCH   1  10
ATOM     10  O   UNL     1      11.180   1.694  -6.323  1.00  0.00    -0.390 OA
ATOM     11  H   UNL     1      11.892   1.340  -6.917  1.00  0.00     0.210 HD
ENDBRANCH   1  10
TORSDOF 4
ENDMDL
MODEL 9
REMARK VINA RESULT:    -2.182      9.834     10.286
REMARK INTER + INTRA:          -2.967
REMARK INTER:                  -2.741
REMARK INTRA:                  -0.226
REMARK UNBOUND:                -0.402
REMARK SMILES [NH3+][C@H](CO)C(=O)[O-]
REMARK SMILES IDX 3 1 2 2 1 3 5 7 6 8 7 9 4 10
REMARK H PARENT 1 4 1 5 1 6 4 11
REMARK Flexibility Score: inf
ROOT
ATOM      1  C   UNL     1      10.181  -0.327   1.375  1.00  0.00     0.227 C 
ENDROOT
BRANCH   1   2
ATOM      2  C   UNL     1      11.219   0.533   0.637  1.00  0.00     0.253 C 
BRANCH   2   3
ATOM      3  N   UNL     1      11.715  -0.153  -0.563  1.00  0.00    -0.348 N 
ATOM      4  H   UNL     1      11.474  -1.171  -0.535  1.00  0.00     0.345 HD
ATOM      5  H   UNL     1      12.753  -0.048  -0.632  1.00  0.00     0.345 HD
ATOM      6  H   UNL     1      11.288   0.276  -1.417  1.00  0.00     0.345 HD
ENDBRANCH   2   3
BRANCH   2   7
ATOM      7  C   UNL     1      10.614   1.861   0.266  1.00  0.00     0.102 C 
ATOM      8  O   UNL     1       9.372   2.042   0.375  1.00  0.00    -0.544 OA
ATOM      9  O   UNL     1      11.417   2.889  -0.212  1.00  0.00    -0.544 OA
ENDBRANCH   2   7
ENDBRANCH   1   2
BRANCH   1  10
ATOM     10  O   UNL     1       9.292  -0.900   0.456  1.00  0.00    -0.390 OA
ATOM     11  H   UNL     1       8.785  -1.591   0.957  1.00  0.00     0.210 HD
ENDBRANCH   1  10
TORSDOF 4
ENDMDL
