MODEL 1
REMARK VINA RESULT:    -6.167      0.000      0.000
REMARK INTER + INTRA:          -7.425
REMARK INTER:                  -7.249
REMARK INTRA:                  -0.175
REMARK UNBOUND:                -0.175
REMARK SMILES Oc1ccc(-c2[o+]c3cc(O)cc(O)c3cc2O)cc1.[Cl-]
REMARK SMILES IDX 6 1 7 2 8 3 9 4 10 5 12 6 13 7 15 8 16 9 17 10 5 11 4 12
REMARK SMILES IDX 3 13 2 14 19 15 20 16 1 17 18 19 11 21 14 23
REMARK H PARENT 1 18 18 20 11 22 14 24
REMARK Flexibility Score: inf
ROOT
ATOM      1  C   UNL     1      47.784 108.857  53.632  1.00  0.00     0.401 A 
ATOM      2  O   UNL     1      47.188 107.751  53.195  1.00  0.00    -0.202 OA
ATOM      3  C   UNL     1      47.850 106.652  52.851  1.00  0.00     0.368 A 
ATOM      4  C   UNL     1      47.134 105.537  52.405  1.00  0.00     0.162 A 
ATOM      5  C   UNL     1      47.806 104.366  52.041  1.00  0.00     0.128 A 
ATOM      6  C   UNL     1      49.199 104.310  52.123  1.00  0.00     0.093 A 
ATOM      7  C   UNL     1      49.940 105.412  52.568  1.00  0.00     0.136 A 
ATOM      8  C   UNL     1      49.262 106.605  52.936  1.00  0.00     0.125 A 
ATOM      9  C   UNL     1      49.923 107.762  53.379  1.00  0.00     0.078 A 
ATOM     10  C   UNL     1      49.187 108.901  53.721  1.00  0.00     0.223 A 
ENDROOT
BRANCH   1  11
ATOM     11  C   UNL     1      46.934 110.014  53.994  1.00  0.00     0.084 A 
ATOM     12  C   UNL     1      46.906 110.462  55.325  1.00  0.00     0.022 A 
ATOM     13  C   UNL     1      46.127 111.565  55.685  1.00  0.00     0.047 A 
ATOM     14  C   UNL     1      45.378 112.245  54.716  1.00  0.00     0.115 A 
ATOM     15  C   UNL     1      46.194 110.713  53.023  1.00  0.00     0.022 A 
ATOM     16  C   UNL     1      45.417 111.818  53.386  1.00  0.00     0.047 A 
BRANCH  14  17
ATOM     17  O   UNL     1      44.598 113.345  55.063  1.00  0.00    -0.508 OA
ATOM     18  H   UNL     1      45.018 114.227  55.335  1.00  0.00     0.293 HD
ENDBRANCH  14  17
ENDBRANCH   1  11
BRANCH  10  19
ATOM     19  O   UNL     1      49.846 110.066  54.113  1.00  0.00    -0.500 OA
ATOM     20  H   UNL     1      49.690 110.950  53.643  1.00  0.00     0.294 HD
ENDBRANCH  10  19
BRANCH   5  21
ATOM     21  O   UNL     1      47.098 103.252  51.595  1.00  0.00    -0.507 OA
ATOM     22  H   UNL     1      47.276 102.327  51.969  1.00  0.00     0.293 HD
ENDBRANCH   5  21
BRANCH   7  23
ATOM     23  O   UNL     1      51.329 105.274  52.624  1.00  0.00    -0.507 OA
ATOM     24  H   UNL     1      51.851 105.089  53.468  1.00  0.00     0.293 HD
ENDBRANCH   7  23
TORSDOF 5
ENDMDL
MODEL 2
REMARK VINA RESULT:    -5.711      2.849      6.690
REMARK INTER + INTRA:          -6.888
REMARK INTER:                  -6.777
REMARK INTRA:                  -0.111
REMARK UNBOUND:                -0.175
REMARK SMILES Oc1ccc(-c2[o+]c3cc(O)cc(O)c3cc2O)cc1.[Cl-]
REMARK SMILES IDX 6 1 7 2 8 3 9 4 10 5 12 6 13 7 15 8 16 9 17 10 5 11 4 12
REMARK SMILES IDX 3 13 2 14 19 15 20 16 1 17 18 19 11 21 14 23
REMARK H PARENT 1 18 18 20 11 22 14 24
REMARK Flexibility Score: inf
ROOT
ATOM      1  C   UNL     1      48.938 108.339  54.217  1.00  0.00     0.401 A 
ATOM      2  O   UNL     1      49.538 109.302  53.522  1.00  0.00    -0.202 OA
ATOM      3  C   UNL     1      49.978 110.430  54.067  1.00  0.00     0.368 A 
ATOM      4  C   UNL     1      50.600 111.382  53.254  1.00  0.00     0.162 A 
ATOM      5  C   UNL     1      51.076 112.577  53.803  1.00  0.00     0.128 A 
ATOM      6  C   UNL     1      50.931 112.820  55.170  1.00  0.00     0.093 A 
ATOM      7  C   UNL     1      50.313 111.882  56.007  1.00  0.00     0.136 A 
ATOM      8  C   UNL     1      49.825 110.669  55.454  1.00  0.00     0.125 A 
ATOM      9  C   UNL     1      49.181 109.678  56.214  1.00  0.00     0.078 A 
ATOM     10  C   UNL     1      48.723 108.510  55.597  1.00  0.00     0.223 A 
ENDROOT
BRANCH   1  11
ATOM     11  C   UNL     1      48.501 107.123  53.495  1.00  0.00     0.084 A 
ATOM     12  C   UNL     1      49.460 106.306  52.873  1.00  0.00     0.022 A 
ATOM     13  C   UNL     1      49.072 105.142  52.203  1.00  0.00     0.047 A 
ATOM     14  C   UNL     1      47.722 104.771  52.161  1.00  0.00     0.115 A 
ATOM     15  C   UNL     1      47.149 106.734  53.465  1.00  0.00     0.022 A 
ATOM     16  C   UNL     1      46.764 105.567  52.796  1.00  0.00     0.047 A 
BRANCH  14  17
ATOM     17  O   UNL     1      47.323 103.613  51.497  1.00  0.00    -0.508 OA
ATOM     18  H   UNL     1      47.891 103.200  50.766  1.00  0.00     0.293 HD
ENDBRANCH  14  17
ENDBRANCH   1  11
BRANCH  10  19
ATOM     19  O   UNL     1      48.040 107.549  56.341  1.00  0.00    -0.500 OA
ATOM     20  H   UNL     1      48.528 106.884  56.930  1.00  0.00     0.294 HD
ENDBRANCH  10  19
BRANCH   5  21
ATOM     21  O   UNL     1      51.695 113.530  52.998  1.00  0.00    -0.507 OA
ATOM     22  H   UNL     1      52.563 113.975  53.275  1.00  0.00     0.293 HD
ENDBRANCH   5  21
BRANCH   7  23
ATOM     23  O   UNL     1      50.209 112.199  57.365  1.00  0.00    -0.507 OA
ATOM     24  H   UNL     1      50.799 111.815  58.087  1.00  0.00     0.293 HD
ENDBRANCH   7  23
TORSDOF 5
ENDMDL
MODEL 3
REMARK VINA RESULT:    -5.543      2.319      3.544
REMARK INTER + INTRA:          -6.691
REMARK INTER:                  -6.472
REMARK INTRA:                  -0.219
REMARK UNBOUND:                -0.175
REMARK SMILES Oc1ccc(-c2[o+]c3cc(O)cc(O)c3cc2O)cc1.[Cl-]
REMARK SMILES IDX 6 1 7 2 8 3 9 4 10 5 12 6 13 7 15 8 16 9 17 10 5 11 4 12
REMARK SMILES IDX 3 13 2 14 19 15 20 16 1 17 18 19 11 21 14 23
REMARK H PARENT 1 18 18 20 11 22 14 24
REMARK Flexibility Score: inf
ROOT
ATOM      1  C   UNL     1      47.367 107.992  55.281  1.00  0.00     0.401 A 
ATOM      2  O   UNL     1      48.440 107.755  54.532  1.00  0.00    -0.202 OA
ATOM      3  C   UNL     1      48.473 106.840  53.570  1.00  0.00     0.368 A 
ATOM      4  C   UNL     1      49.648 106.667  52.834  1.00  0.00     0.162 A 
ATOM      5  C   UNL     1      49.708 105.713  51.813  1.00  0.00     0.128 A 
ATOM      6  C   UNL     1      48.588 104.930  51.527  1.00  0.00     0.093 A 
ATOM      7  C   UNL     1      47.398 105.084  52.249  1.00  0.00     0.136 A 
ATOM      8  C   UNL     1      47.332 106.049  53.289  1.00  0.00     0.125 A 
ATOM      9  C   UNL     1      46.187 106.263  54.073  1.00  0.00     0.078 A 
ATOM     10  C   UNL     1      46.200 107.231  55.082  1.00  0.00     0.223 A 
ENDROOT
BRANCH   1  11
ATOM     11  C   UNL     1      47.453 109.047  56.316  1.00  0.00     0.084 A 
ATOM     12  C   UNL     1      47.519 108.682  57.671  1.00  0.00     0.022 A 
ATOM     13  C   UNL     1      47.622 109.661  58.664  1.00  0.00     0.047 A 
ATOM     14  C   UNL     1      47.677 111.016  58.314  1.00  0.00     0.115 A 
ATOM     15  C   UNL     1      47.527 110.409  55.971  1.00  0.00     0.022 A 
ATOM     16  C   UNL     1      47.632 111.386  56.967  1.00  0.00     0.047 A 
BRANCH  14  17
ATOM     17  O   UNL     1      47.779 112.000  59.295  1.00  0.00    -0.508 OA
ATOM     18  H   UNL     1      47.713 112.985  59.064  1.00  0.00     0.293 HD
ENDBRANCH  14  17
ENDBRANCH   1  11
BRANCH  10  19
ATOM     19  O   UNL     1      45.080 107.409  55.894  1.00  0.00    -0.500 OA
ATOM     20  H   UNL     1      44.141 107.417  55.512  1.00  0.00     0.294 HD
ENDBRANCH  10  19
BRANCH   5  21
ATOM     21  O   UNL     1      50.877 105.535  51.076  1.00  0.00    -0.507 OA
ATOM     22  H   UNL     1      51.623 106.220  51.094  1.00  0.00     0.293 HD
ENDBRANCH   5  21
BRANCH   7  23
ATOM     23  O   UNL     1      46.321 104.264  51.900  1.00  0.00    -0.507 OA
ATOM     24  H   UNL     1      45.952 104.175  50.965  1.00  0.00     0.293 HD
ENDBRANCH   7  23
TORSDOF 5
ENDMDL
MODEL 4
REMARK VINA RESULT:    -5.518      2.540      6.597
REMARK INTER + INTRA:          -6.661
REMARK INTER:                  -6.838
REMARK INTRA:                   0.176
REMARK UNBOUND:                -0.175
REMARK SMILES Oc1ccc(-c2[o+]c3cc(O)cc(O)c3cc2O)cc1.[Cl-]
REMARK SMILES IDX 6 1 7 2 8 3 9 4 10 5 12 6 13 7 15 8 16 9 17 10 5 11 4 12
REMARK SMILES IDX 3 13 2 14 19 15 20 16 1 17 18 19 11 21 14 23
REMARK H PARENT 1 18 18 20 11 22 14 24
REMARK Flexibility Score: inf
ROOT
ATOM      1  C   UNL     1      49.358 108.209  53.654  1.00  0.00     0.401 A 
ATOM      2  O   UNL     1      50.636 108.179  54.021  1.00  0.00    -0.202 OA
ATOM      3  C   UNL     1      51.276 109.228  54.527  1.00  0.00     0.368 A 
ATOM      4  C   UNL     1      52.620 109.097  54.887  1.00  0.00     0.162 A 
ATOM      5  C   UNL     1      53.315 110.184  55.426  1.00  0.00     0.128 A 
ATOM      6  C   UNL     1      52.664 111.406  55.606  1.00  0.00     0.093 A 
ATOM      7  C   UNL     1      51.317 111.563  55.254  1.00  0.00     0.136 A 
ATOM      8  C   UNL     1      50.607 110.463  54.704  1.00  0.00     0.125 A 
ATOM      9  C   UNL     1      49.261 110.533  54.311  1.00  0.00     0.078 A 
ATOM     10  C   UNL     1      48.629 109.408  53.773  1.00  0.00     0.223 A 
ENDROOT
BRANCH   1  11
ATOM     11  C   UNL     1      48.756 106.971  53.112  1.00  0.00     0.084 A 
ATOM     12  C   UNL     1      49.563 106.058  52.411  1.00  0.00     0.022 A 
ATOM     13  C   UNL     1      49.019 104.872  51.909  1.00  0.00     0.047 A 
ATOM     14  C   UNL     1      47.666 104.576  52.114  1.00  0.00     0.115 A 
ATOM     15  C   UNL     1      47.401 106.657  53.330  1.00  0.00     0.022 A 
ATOM     16  C   UNL     1      46.861 105.468  52.828  1.00  0.00     0.047 A 
BRANCH  14  17
ATOM     17  O   UNL     1      47.113 103.397  51.618  1.00  0.00    -0.508 OA
ATOM     18  H   UNL     1      46.166 103.368  51.257  1.00  0.00     0.293 HD
ENDBRANCH  14  17
ENDBRANCH   1  11
BRANCH  10  19
ATOM     19  O   UNL     1      47.307 109.490  53.336  1.00  0.00    -0.500 OA
ATOM     20  H   UNL     1      46.530 109.476  53.985  1.00  0.00     0.294 HD
ENDBRANCH  10  19
BRANCH   5  21
ATOM     21  O   UNL     1      54.656 110.060  55.785  1.00  0.00    -0.507 OA
ATOM     22  H   UNL     1      55.039 109.178  56.102  1.00  0.00     0.293 HD
ENDBRANCH   5  21
BRANCH   7  23
ATOM     23  O   UNL     1      50.738 112.817  55.468  1.00  0.00    -0.507 OA
ATOM     24  H   UNL     1      50.921 113.401  56.271  1.00  0.00     0.293 HD
ENDBRANCH   7  23
TORSDOF 5
ENDMDL
MODEL 5
REMARK VINA RESULT:    -5.482      2.644      4.779
REMARK INTER + INTRA:          -6.618
REMARK INTER:                  -6.297
REMARK INTRA:                  -0.322
REMARK UNBOUND:                -0.175
REMARK SMILES Oc1ccc(-c2[o+]c3cc(O)cc(O)c3cc2O)cc1.[Cl-]
REMARK SMILES IDX 6 1 7 2 8 3 9 4 10 5 12 6 13 7 15 8 16 9 17 10 5 11 4 12
REMARK SMILES IDX 3 13 2 14 19 15 20 16 1 17 18 19 11 21 14 23
REMARK H PARENT 1 18 18 20 11 22 14 24
REMARK Flexibility Score: inf
ROOT
ATOM      1  C   UNL     1      50.046 108.756  53.955  1.00  0.00     0.401 A 
ATOM      2  O   UNL     1      50.040 107.675  53.180  1.00  0.00    -0.202 OA
ATOM      3  C   UNL     1      48.992 106.868  53.059  1.00  0.00     0.368 A 
ATOM      4  C   UNL     1      49.081 105.758  52.215  1.00  0.00     0.162 A 
ATOM      5  C   UNL     1      47.991 104.894  52.067  1.00  0.00     0.128 A 
ATOM      6  C   UNL     1      46.807 105.143  52.764  1.00  0.00     0.093 A 
ATOM      7  C   UNL     1      46.692 106.250  53.615  1.00  0.00     0.136 A 
ATOM      8  C   UNL     1      47.797 107.128  53.772  1.00  0.00     0.125 A 
ATOM      9  C   UNL     1      47.776 108.253  54.613  1.00  0.00     0.078 A 
ATOM     10  C   UNL     1      48.906 109.069  54.718  1.00  0.00     0.223 A 
ENDROOT
BRANCH   1  11
ATOM     11  C   UNL     1      51.274 109.581  53.997  1.00  0.00     0.084 A 
ATOM     12  C   UNL     1      52.337 109.198  54.833  1.00  0.00     0.022 A 
ATOM     13  C   UNL     1      53.514 109.951  54.873  1.00  0.00     0.047 A 
ATOM     14  C   UNL     1      53.650 111.088  54.066  1.00  0.00     0.115 A 
ATOM     15  C   UNL     1      51.426 110.714  53.176  1.00  0.00     0.022 A 
ATOM     16  C   UNL     1      52.606 111.464  53.217  1.00  0.00     0.047 A 
BRANCH  14  17
ATOM     17  O   UNL     1      54.818 111.846  54.097  1.00  0.00    -0.508 OA
ATOM     18  H   UNL     1      54.948 112.589  54.775  1.00  0.00     0.293 HD
ENDBRANCH  14  17
ENDBRANCH   1  11
BRANCH  10  19
ATOM     19  O   UNL     1      48.902 110.157  55.590  1.00  0.00    -0.500 OA
ATOM     20  H   UNL     1      49.751 110.484  56.038  1.00  0.00     0.294 HD
ENDBRANCH  10  19
BRANCH   5  21
ATOM     21  O   UNL     1      48.074 103.785  51.228  1.00  0.00    -0.507 OA
ATOM     22  H   UNL     1      48.068 103.882  50.220  1.00  0.00     0.293 HD
ENDBRANCH   5  21
BRANCH   7  23
ATOM     23  O   UNL     1      45.473 106.431  54.275  1.00  0.00    -0.507 OA
ATOM     24  H   UNL     1      44.568 106.348  53.836  1.00  0.00     0.293 HD
ENDBRANCH   7  23
TORSDOF 5
ENDMDL
MODEL 6
REMARK VINA RESULT:    -5.220      2.648      3.701
REMARK INTER + INTRA:          -6.311
REMARK INTER:                  -6.076
REMARK INTRA:                  -0.235
REMARK UNBOUND:                -0.175
REMARK SMILES Oc1ccc(-c2[o+]c3cc(O)cc(O)c3cc2O)cc1.[Cl-]
REMARK SMILES IDX 6 1 7 2 8 3 9 4 10 5 12 6 13 7 15 8 16 9 17 10 5 11 4 12
REMARK SMILES IDX 3 13 2 14 19 15 20 16 1 17 18 19 11 21 14 23
REMARK H PARENT 1 18 18 20 11 22 14 24
REMARK Flexibility Score: inf
ROOT
ATOM      1  C   UNL     1      48.891 109.452  54.477  1.00  0.00     0.401 A 
ATOM      2  O   UNL     1      49.562 108.550  53.768  1.00  0.00    -0.202 OA
ATOM      3  C   UNL     1      49.024 107.417  53.329  1.00  0.00     0.368 A 
ATOM      4  C   UNL     1      49.811 106.532  52.588  1.00  0.00     0.162 A 
ATOM      5  C   UNL     1      49.268 105.335  52.110  1.00  0.00     0.128 A 
ATOM      6  C   UNL     1      47.933 105.023  52.375  1.00  0.00     0.093 A 
ATOM      7  C   UNL     1      47.123 105.893  53.115  1.00  0.00     0.136 A 
ATOM      8  C   UNL     1      47.670 107.109  53.605  1.00  0.00     0.125 A 
ATOM      9  C   UNL     1      46.937 108.034  54.366  1.00  0.00     0.078 A 
ATOM     10  C   UNL     1      47.547 109.209  54.816  1.00  0.00     0.223 A 
ENDROOT
BRANCH   1  11
ATOM     11  C   UNL     1      49.601 110.680  54.900  1.00  0.00     0.084 A 
ATOM     12  C   UNL     1      49.997 110.823  56.240  1.00  0.00     0.022 A 
ATOM     13  C   UNL     1      50.687 111.965  56.657  1.00  0.00     0.047 A 
ATOM     14  C   UNL     1      51.003 112.972  55.736  1.00  0.00     0.115 A 
ATOM     15  C   UNL     1      49.938 111.687  53.977  1.00  0.00     0.022 A 
ATOM     16  C   UNL     1      50.631 112.828  54.397  1.00  0.00     0.047 A 
BRANCH  14  17
ATOM     17  O   UNL     1      51.690 114.115  56.140  1.00  0.00    -0.508 OA
ATOM     18  H   UNL     1      52.700 114.123  56.223  1.00  0.00     0.293 HD
ENDBRANCH  14  17
ENDBRANCH   1  11
BRANCH  10  19
ATOM     19  O   UNL     1      46.834 110.104  55.614  1.00  0.00    -0.500 OA
ATOM     20  H   UNL     1      47.289 110.877  56.085  1.00  0.00     0.294 HD
ENDBRANCH  10  19
BRANCH   5  21
ATOM     21  O   UNL     1      50.047 104.447  51.371  1.00  0.00    -0.507 OA
ATOM     22  H   UNL     1      50.732 103.848  51.816  1.00  0.00     0.293 HD
ENDBRANCH   5  21
BRANCH   7  23
ATOM     23  O   UNL     1      45.797 105.510  53.335  1.00  0.00    -0.507 OA
ATOM     24  H   UNL     1      45.182 105.146  52.622  1.00  0.00     0.293 HD
ENDBRANCH   7  23
TORSDOF 5
ENDMDL
MODEL 7
REMARK VINA RESULT:    -5.137      3.368      4.885
REMARK INTER + INTRA:          -6.214
REMARK INTER:                  -5.918
REMARK INTRA:                  -0.295
REMARK UNBOUND:                -0.175
REMARK SMILES Oc1ccc(-c2[o+]c3cc(O)cc(O)c3cc2O)cc1.[Cl-]
REMARK SMILES IDX 6 1 7 2 8 3 9 4 10 5 12 6 13 7 15 8 16 9 17 10 5 11 4 12
REMARK SMILES IDX 3 13 2 14 19 15 20 16 1 17 18 19 11 21 14 23
REMARK H PARENT 1 18 18 20 11 22 14 24
REMARK Flexibility Score: inf
ROOT
ATOM      1  C   UNL     1      46.896 111.351  53.681  1.00  0.00     0.401 A 
ATOM      2  O   UNL     1      48.009 110.685  53.383  1.00  0.00    -0.202 OA
ATOM      3  C   UNL     1      48.791 110.124  54.299  1.00  0.00     0.368 A 
ATOM      4  C   UNL     1      49.939 109.442  53.887  1.00  0.00     0.162 A 
ATOM      5  C   UNL     1      50.778 108.839  54.830  1.00  0.00     0.128 A 
ATOM      6  C   UNL     1      50.467 108.919  56.189  1.00  0.00     0.093 A 
ATOM      7  C   UNL     1      49.322 109.596  56.627  1.00  0.00     0.136 A 
ATOM      8  C   UNL     1      48.469 110.212  55.674  1.00  0.00     0.125 A 
ATOM      9  C   UNL     1      47.308 110.922  56.023  1.00  0.00     0.078 A 
ATOM     10  C   UNL     1      46.519 111.506  55.027  1.00  0.00     0.223 A 
ENDROOT
BRANCH   1  11
ATOM     11  C   UNL     1      46.104 111.922  52.569  1.00  0.00     0.084 A 
ATOM     12  C   UNL     1      46.560 113.081  51.919  1.00  0.00     0.022 A 
ATOM     13  C   UNL     1      45.838 113.626  50.853  1.00  0.00     0.047 A 
ATOM     14  C   UNL     1      44.659 113.010  50.413  1.00  0.00     0.115 A 
ATOM     15  C   UNL     1      44.929 111.299  52.109  1.00  0.00     0.022 A 
ATOM     16  C   UNL     1      44.210 111.846  51.041  1.00  0.00     0.047 A 
BRANCH  14  17
ATOM     17  O   UNL     1      43.931 113.544  49.352  1.00  0.00    -0.508 OA
ATOM     18  H   UNL     1      43.649 112.973  48.563  1.00  0.00     0.293 HD
ENDBRANCH  14  17
ENDBRANCH   1  11
BRANCH  10  19
ATOM     19  O   UNL     1      45.395 112.254  55.376  1.00  0.00    -0.500 OA
ATOM     20  H   UNL     1      45.473 113.200  55.731  1.00  0.00     0.294 HD
ENDBRANCH  10  19
BRANCH   5  21
ATOM     21  O   UNL     1      51.925 108.158  54.426  1.00  0.00    -0.507 OA
ATOM     22  H   UNL     1      51.948 107.624  53.566  1.00  0.00     0.293 HD
ENDBRANCH   5  21
BRANCH   7  23
ATOM     23  O   UNL     1      49.080 109.628  58.003  1.00  0.00    -0.507 OA
ATOM     24  H   UNL     1      48.613 110.382  58.483  1.00  0.00     0.293 HD
ENDBRANCH   7  23
TORSDOF 5
ENDMDL
MODEL 8
REMARK VINA RESULT:    -5.126     13.188     14.937
REMARK INTER + INTRA:          -6.201
REMARK INTER:                  -5.931
REMARK INTRA:                  -0.270
REMARK UNBOUND:                -0.175
REMARK SMILES Oc1ccc(-c2[o+]c3cc(O)cc(O)c3cc2O)cc1.[Cl-]
REMARK SMILES IDX 6 1 7 2 8 3 9 4 10 5 12 6 13 7 15 8 16 9 17 10 5 11 4 12
REMARK SMILES IDX 3 13 2 14 19 15 20 16 1 17 18 19 11 21 14 23
REMARK H PARENT 1 18 18 20 11 22 14 24
REMARK Flexibility Score: inf
ROOT
ATOM      1  C   UNL     1      56.787  97.276  55.911  1.00  0.00     0.401 A 
ATOM      2  O   UNL     1      57.026  98.281  55.074  1.00  0.00    -0.202 OA
ATOM      3  C   UNL     1      58.210  98.498  54.511  1.00  0.00     0.368 A 
ATOM      4  C   UNL     1      58.362  99.580  53.640  1.00  0.00     0.162 A 
ATOM      5  C   UNL     1      59.597  99.829  53.032  1.00  0.00     0.128 A 
ATOM      6  C   UNL     1      60.682  98.992  53.296  1.00  0.00     0.093 A 
ATOM      7  C   UNL     1      60.556  97.900  54.164  1.00  0.00     0.136 A 
ATOM      8  C   UNL     1      59.306  97.645  54.786  1.00  0.00     0.125 A 
ATOM      9  C   UNL     1      59.090  96.583  55.680  1.00  0.00     0.078 A 
ATOM     10  C   UNL     1      57.830  96.398  56.257  1.00  0.00     0.223 A 
ENDROOT
BRANCH   1  11
ATOM     11  C   UNL     1      55.421  97.135  56.464  1.00  0.00     0.084 A 
ATOM     12  C   UNL     1      54.957  98.068  57.406  1.00  0.00     0.022 A 
ATOM     13  C   UNL     1      53.663  97.966  57.926  1.00  0.00     0.047 A 
ATOM     14  C   UNL     1      52.812  96.939  57.499  1.00  0.00     0.115 A 
ATOM     15  C   UNL     1      54.553  96.118  56.026  1.00  0.00     0.022 A 
ATOM     16  C   UNL     1      53.259  96.020  56.547  1.00  0.00     0.047 A 
BRANCH  14  17
ATOM     17  O   UNL     1      51.520  96.827  58.010  1.00  0.00    -0.508 OA
ATOM     18  H   UNL     1      51.192  95.967  58.433  1.00  0.00     0.293 HD
ENDBRANCH  14  17
ENDBRANCH   1  11
BRANCH  10  19
ATOM     19  O   UNL     1      57.630  95.374  57.182  1.00  0.00    -0.500 OA
ATOM     20  H   UNL     1      58.368  95.065  57.804  1.00  0.00     0.294 HD
ENDBRANCH  10  19
BRANCH   5  21
ATOM     21  O   UNL     1      59.755 100.907  52.164  1.00  0.00    -0.507 OA
ATOM     22  H   UNL     1      58.982 101.520  51.935  1.00  0.00     0.293 HD
ENDBRANCH   5  21
BRANCH   7  23
ATOM     23  O   UNL     1      61.689  97.108  54.373  1.00  0.00    -0.507 OA
ATOM     24  H   UNL     1      61.702  96.102  54.303  1.00  0.00     0.293 HD
ENDBRANCH   7  23
TORSDOF 5
ENDMDL
MODEL 9
REMARK VINA RESULT:    -4.875      3.204      6.752
REMARK INTER + INTRA:          -5.906
REMARK INTER:                  -5.655
REMARK INTRA:                  -0.251
REMARK UNBOUND:                -0.175
REMARK SMILES Oc1ccc(-c2[o+]c3cc(O)cc(O)c3cc2O)cc1.[Cl-]
REMARK SMILES IDX 6 1 7 2 8 3 9 4 10 5 12 6 13 7 15 8 16 9 17 10 5 11 4 12
REMARK SMILES IDX 3 13 2 14 19 15 20 16 1 17 18 19 11 21 14 23
REMARK H PARENT 1 18 18 20 11 22 14 24
REMARK Flexibility Score: inf
ROOT
ATOM      1  C   UNL     1      49.417 109.109  54.448  1.00  0.00     0.401 A 
ATOM      2  O   UNL     1      50.334 108.894  55.386  1.00  0.00    -0.202 OA
ATOM      3  C   UNL     1      50.948 109.871  56.045  1.00  0.00     0.368 A 
ATOM      4  C   UNL     1      51.897 109.545  57.018  1.00  0.00     0.162 A 
ATOM      5  C   UNL     1      52.555 110.553  57.728  1.00  0.00     0.128 A 
ATOM      6  C   UNL     1      52.264 111.893  57.465  1.00  0.00     0.093 A 
ATOM      7  C   UNL     1      51.317 112.247  56.495  1.00  0.00     0.136 A 
ATOM      8  C   UNL     1      50.647 111.227  55.769  1.00  0.00     0.125 A 
ATOM      9  C   UNL     1      49.694 111.488  54.771  1.00  0.00     0.078 A 
ATOM     10  C   UNL     1      49.080 110.429  54.096  1.00  0.00     0.223 A 
ENDROOT
BRANCH   1  11
ATOM     11  C   UNL     1      48.797 107.935  53.793  1.00  0.00     0.084 A 
ATOM     12  C   UNL     1      49.575 107.120  52.954  1.00  0.00     0.022 A 
ATOM     13  C   UNL     1      49.015 105.995  52.342  1.00  0.00     0.047 A 
ATOM     14  C   UNL     1      47.675 105.661  52.573  1.00  0.00     0.115 A 
ATOM     15  C   UNL     1      47.456 107.583  54.035  1.00  0.00     0.022 A 
ATOM     16  C   UNL     1      46.900 106.455  53.422  1.00  0.00     0.047 A 
BRANCH  14  17
ATOM     17  O   UNL     1      47.106 104.542  51.968  1.00  0.00    -0.508 OA
ATOM     18  H   UNL     1      47.330 103.603  52.277  1.00  0.00     0.293 HD
ENDBRANCH  14  17
ENDBRANCH   1  11
BRANCH  10  19
ATOM     19  O   UNL     1      48.171 110.689  53.070  1.00  0.00    -0.500 OA
ATOM     20  H   UNL     1      47.769 109.944  52.513  1.00  0.00     0.294 HD
ENDBRANCH  10  19
BRANCH   5  21
ATOM     21  O   UNL     1      53.502 110.235  58.699  1.00  0.00    -0.507 OA
ATOM     22  H   UNL     1      53.836 110.927  59.360  1.00  0.00     0.293 HD
ENDBRANCH   5  21
BRANCH   7  23
ATOM     23  O   UNL     1      51.079 113.609  56.293  1.00  0.00    -0.507 OA
ATOM     24  H   UNL     1      51.432 114.345  56.887  1.00  0.00     0.293 HD
ENDBRANCH   7  23
TORSDOF 5
ENDMDL
