MODEL 1
REMARK VINA RESULT:    -4.768      0.000      0.000
REMARK INTER + INTRA:          -8.542
REMARK INTER:                  -7.138
REMARK INTRA:                  -1.405
REMARK UNBOUND:                -1.405
REMARK SMILES COC(=O)C1=CO[C@@H](O[C@@H]2O[C@@H](CO)[C@H](O)[C@H](O)[C@H]2O)[C@@H]2C(CO)=CC[C@@H]12
REMARK SMILES IDX 9 1 8 2 5 3 6 4 27 5 7 6 21 7 26 8 22 9 25 10 3 11 4 12 2 13
REMARK SMILES IDX 1 14 23 15 24 16 10 18 19 19 11 20 17 21 12 22 15 23 20 24
REMARK SMILES IDX 18 26 13 28 14 29 16 31
REMARK H PARENT 24 17 20 25 18 27 14 30 16 32
REMARK Flexibility Score: inf
ROOT
ATOM      1  O   UNL     1       4.214  13.309  75.101  1.00  0.00    -0.310 OA
ENDROOT
BRANCH   1   2
ATOM      2  C   UNL     1       3.467  14.504  75.047  1.00  0.00     0.316 C 
ATOM      3  C   UNL     1       2.029  16.852  75.975  1.00  0.00     0.076 C 
ATOM      4  C   UNL     1       3.367  16.914  75.868  1.00  0.00     0.202 C 
ATOM      5  C   UNL     1       1.363  15.626  75.464  1.00  0.00     0.047 C 
ATOM      6  O   UNL     1       4.133  15.749  75.475  1.00  0.00    -0.471 OA
ATOM      7  C   UNL     1       2.148  14.400  75.851  1.00  0.00     0.094 C 
ATOM      8  C   UNL     1      -0.061  15.298  75.814  1.00  0.00     0.037 C 
ATOM      9  C   UNL     1       1.135  13.314  75.607  1.00  0.00    -0.039 C 
ATOM     10  C   UNL     1      -0.091  13.839  75.525  1.00  0.00    -0.024 C 
BRANCH   3  11
ATOM     11  C   UNL     1       1.165  18.036  76.113  1.00  0.00     0.337 C 
ATOM     12  O   UNL     1       0.821  18.676  75.063  1.00  0.00    -0.246 OA
BRANCH  11  13
ATOM     13  O   UNL     1       1.332  18.726  77.298  1.00  0.00    -0.466 OA
ATOM     14  C   UNL     1       1.466  20.138  77.358  1.00  0.00     0.282 C 
ENDBRANCH  11  13
ENDBRANCH   3  11
BRANCH   9  15
ATOM     15  C   UNL     1       1.270  12.027  76.400  1.00  0.00     0.187 C 
BRANCH  15  16
ATOM     16  O   UNL     1       2.349  11.204  75.973  1.00  0.00    -0.392 OA
ATOM     17  H   UNL     1       2.709  10.696  76.763  1.00  0.00     0.211 HD
ENDBRANCH  15  16
ENDBRANCH   9  15
ENDBRANCH   1   2
BRANCH   1  18
ATOM     18  C   UNL     1       5.265  13.163  74.142  1.00  0.00     0.286 C 
ATOM     19  C   UNL     1       6.807  13.462  74.579  1.00  0.00     0.202 C 
ATOM     20  O   UNL     1       5.202  11.835  73.628  1.00  0.00    -0.341 OA
ATOM     21  C   UNL     1       7.651  12.324  75.288  1.00  0.00     0.179 C 
ATOM     22  C   UNL     1       5.563  10.923  74.659  1.00  0.00     0.178 C 
ATOM     23  C   UNL     1       7.136  10.929  74.829  1.00  0.00     0.177 C 
BRANCH  19  24
ATOM     24  O   UNL     1       7.463  13.919  73.402  1.00  0.00    -0.385 OA
ATOM     25  H   UNL     1       7.274  13.275  72.638  1.00  0.00     0.211 HD
ENDBRANCH  19  24
BRANCH  21  26
ATOM     26  O   UNL     1       7.461  12.393  76.673  1.00  0.00    -0.387 OA
ATOM     27  H   UNL     1       7.036  11.541  76.964  1.00  0.00     0.211 HD
ENDBRANCH  21  26
BRANCH  22  28
ATOM     28  C   UNL     1       4.971   9.528  74.379  1.00  0.00     0.191 C 
BRANCH  28  29
ATOM     29  O   UNL     1       4.506   8.907  75.553  1.00  0.00    -0.394 OA
ATOM     30  H   UNL     1       3.495   8.833  75.507  1.00  0.00     0.210 HD
ENDBRANCH  28  29
ENDBRANCH  22  28
BRANCH  23  31
ATOM     31  O   UNL     1       7.540   9.869  75.690  1.00  0.00    -0.387 OA
ATOM     32  H   UNL     1       7.455   9.021  75.184  1.00  0.00     0.211 HD
ENDBRANCH  23  31
ENDBRANCH   1  18
TORSDOF 11
ENDMDL
MODEL 2
REMARK VINA RESULT:    -4.484     12.745     14.730
REMARK INTER + INTRA:          -8.117
REMARK INTER:                  -6.549
REMARK INTRA:                  -1.568
REMARK UNBOUND:                -1.405
REMARK SMILES COC(=O)C1=CO[C@@H](O[C@@H]2O[C@@H](CO)[C@H](O)[C@H](O)[C@H]2O)[C@@H]2C(CO)=CC[C@@H]12
REMARK SMILES IDX 9 1 8 2 5 3 6 4 27 5 7 6 21 7 26 8 22 9 25 10 3 11 4 12 2 13
REMARK SMILES IDX 1 14 23 15 24 16 10 18 19 19 11 20 17 21 12 22 15 23 20 24
REMARK SMILES IDX 18 26 13 28 14 29 16 31
REMARK H PARENT 24 17 20 25 18 27 14 30 16 32
REMARK Flexibility Score: inf
ROOT
ATOM      1  O   UNL     1       9.003  11.396  62.340  1.00  0.00    -0.310 OA
ENDROOT
BRANCH   1   2
ATOM      2  C   UNL     1       8.038  12.282  62.862  1.00  0.00     0.316 C 
ATOM      3  C   UNL     1       6.151  14.489  62.962  1.00  0.00     0.076 C 
ATOM      4  C   UNL     1       5.747  13.317  62.442  1.00  0.00     0.202 C 
ATOM      5  C   UNL     1       7.497  14.526  63.589  1.00  0.00     0.047 C 
ATOM      6  O   UNL     1       6.671  12.210  62.309  1.00  0.00    -0.471 OA
ATOM      7  C   UNL     1       8.488  13.759  62.755  1.00  0.00     0.094 C 
ATOM      8  C   UNL     1       8.184  15.825  63.907  1.00  0.00     0.037 C 
ATOM      9  C   UNL     1       9.792  14.250  63.322  1.00  0.00    -0.039 C 
ATOM     10  C   UNL     1       9.597  15.373  64.019  1.00  0.00    -0.024 C 
BRANCH   3  11
ATOM     11  C   UNL     1       5.229  15.563  63.368  1.00  0.00     0.337 C 
ATOM     12  O   UNL     1       4.387  15.336  64.300  1.00  0.00    -0.246 OA
BRANCH  11  13
ATOM     13  O   UNL     1       4.890  16.435  62.351  1.00  0.00    -0.466 OA
ATOM     14  C   UNL     1       5.389  17.762  62.273  1.00  0.00     0.282 C 
ENDBRANCH  11  13
ENDBRANCH   3  11
BRANCH   9  15
ATOM     15  C   UNL     1      11.017  14.214  62.425  1.00  0.00     0.187 C 
BRANCH  15  16
ATOM     16  O   UNL     1      11.217  12.958  61.785  1.00  0.00    -0.392 OA
ATOM     17  H   UNL     1      10.334  12.618  61.444  1.00  0.00     0.211 HD
ENDBRANCH  15  16
ENDBRANCH   9  15
ENDBRANCH   1   2
BRANCH   1  18
ATOM     18  C   UNL     1       8.554  10.467  61.349  1.00  0.00     0.286 C 
ATOM     19  C   UNL     1       9.036  10.640  59.800  1.00  0.00     0.202 C 
ATOM     20  O   UNL     1       8.922   9.159  61.781  1.00  0.00    -0.341 OA
ATOM     21  C   UNL     1      10.433  10.047  59.348  1.00  0.00     0.179 C 
ATOM     22  C   UNL     1      10.339   9.039  61.734  1.00  0.00     0.178 C 
ATOM     23  C   UNL     1      10.791   8.819  60.234  1.00  0.00     0.177 C 
BRANCH  19  24
ATOM     24  O   UNL     1       7.981  10.113  59.004  1.00  0.00    -0.385 OA
ATOM     25  H   UNL     1       7.122  10.098  59.549  1.00  0.00     0.211 HD
ENDBRANCH  19  24
BRANCH  21  26
ATOM     26  O   UNL     1      11.436  11.002  59.551  1.00  0.00    -0.387 OA
ATOM     27  H   UNL     1      12.256  10.685  59.084  1.00  0.00     0.211 HD
ENDBRANCH  21  26
BRANCH  22  28
ATOM     28  C   UNL     1      10.821   7.938  62.699  1.00  0.00     0.191 C 
BRANCH  28  29
ATOM     29  O   UNL     1      10.787   6.664  62.105  1.00  0.00    -0.394 OA
ATOM     30  H   UNL     1      11.138   5.983  62.769  1.00  0.00     0.210 HD
ENDBRANCH  28  29
ENDBRANCH  22  28
BRANCH  23  31
ATOM     31  O   UNL     1      12.171   8.471  60.183  1.00  0.00    -0.387 OA
ATOM     32  H   UNL     1      12.434   8.150  61.083  1.00  0.00     0.211 HD
ENDBRANCH  23  31
ENDBRANCH   1  18
TORSDOF 11
ENDMDL
MODEL 3
REMARK VINA RESULT:    -4.383      1.426      2.159
REMARK INTER + INTRA:          -7.965
REMARK INTER:                  -6.622
REMARK INTRA:                  -1.343
REMARK UNBOUND:                -1.405
REMARK SMILES COC(=O)C1=CO[C@@H](O[C@@H]2O[C@@H](CO)[C@H](O)[C@H](O)[C@H]2O)[C@@H]2C(CO)=CC[C@@H]12
REMARK SMILES IDX 9 1 8 2 5 3 6 4 27 5 7 6 21 7 26 8 22 9 25 10 3 11 4 12 2 13
REMARK SMILES IDX 1 14 23 15 24 16 10 18 19 19 11 20 17 21 12 22 15 23 20 24
REMARK SMILES IDX 18 26 13 28 14 29 16 31
REMARK H PARENT 24 17 20 25 18 27 14 30 16 32
REMARK Flexibility Score: inf
ROOT
ATOM      1  O   UNL     1       3.864  13.487  75.233  1.00  0.00    -0.310 OA
ENDROOT
BRANCH   1   2
ATOM      2  C   UNL     1       3.242  14.751  75.157  1.00  0.00     0.316 C 
ATOM      3  C   UNL     1       2.027  17.237  76.044  1.00  0.00     0.076 C 
ATOM      4  C   UNL     1       3.367  17.163  75.970  1.00  0.00     0.202 C 
ATOM      5  C   UNL     1       1.254  16.082  75.519  1.00  0.00     0.047 C 
ATOM      6  O   UNL     1       4.020  15.925  75.599  1.00  0.00    -0.471 OA
ATOM      7  C   UNL     1       1.901  14.785  75.928  1.00  0.00     0.094 C 
ATOM      8  C   UNL     1      -0.204  15.901  75.835  1.00  0.00     0.037 C 
ATOM      9  C   UNL     1       0.789  13.806  75.662  1.00  0.00    -0.039 C 
ATOM     10  C   UNL     1      -0.375  14.452  75.548  1.00  0.00    -0.024 C 
BRANCH   3  11
ATOM     11  C   UNL     1       1.284  18.502  76.157  1.00  0.00     0.337 C 
ATOM     12  O   UNL     1       1.191  19.258  75.132  1.00  0.00    -0.246 OA
BRANCH  11  13
ATOM     13  O   UNL     1       1.324  19.074  77.415  1.00  0.00    -0.466 OA
ATOM     14  C   UNL     1       1.591  20.452  77.629  1.00  0.00     0.282 C 
ENDBRANCH  11  13
ENDBRANCH   3  11
BRANCH   9  15
ATOM     15  C   UNL     1       0.773  12.515  76.462  1.00  0.00     0.187 C 
BRANCH  15  16
ATOM     16  O   UNL     1       0.418  12.695  77.828  1.00  0.00    -0.392 OA
ATOM     17  H   UNL     1       0.016  11.842  78.179  1.00  0.00     0.211 HD
ENDBRANCH  15  16
ENDBRANCH   9  15
ENDBRANCH   1   2
BRANCH   1  18
ATOM     18  C   UNL     1       4.444  12.982  74.028  1.00  0.00     0.286 C 
ATOM     19  C   UNL     1       5.050  14.019  72.924  1.00  0.00     0.202 C 
ATOM     20  O   UNL     1       5.480  12.072  74.392  1.00  0.00    -0.341 OA
ATOM     21  C   UNL     1       6.525  14.567  73.097  1.00  0.00     0.179 C 
ATOM     22  C   UNL     1       6.543  12.801  74.994  1.00  0.00     0.178 C 
ATOM     23  C   UNL     1       7.385  13.520  73.864  1.00  0.00     0.177 C 
BRANCH  19  24
ATOM     24  O   UNL     1       4.891  13.381  71.663  1.00  0.00    -0.385 OA
ATOM     25  H   UNL     1       4.949  14.076  70.922  1.00  0.00     0.211 HD
ENDBRANCH  19  24
BRANCH  21  26
ATOM     26  O   UNL     1       6.507  15.729  73.877  1.00  0.00    -0.387 OA
ATOM     27  H   UNL     1       6.852  16.476  73.316  1.00  0.00     0.211 HD
ENDBRANCH  21  26
BRANCH  22  28
ATOM     28  C   UNL     1       7.380  11.883  75.907  1.00  0.00     0.191 C 
BRANCH  28  29
ATOM     29  O   UNL     1       8.176  10.989  75.168  1.00  0.00    -0.394 OA
ATOM     30  H   UNL     1       7.928  10.040  75.424  1.00  0.00     0.210 HD
ENDBRANCH  28  29
ENDBRANCH  22  28
BRANCH  23  31
ATOM     31  O   UNL     1       8.579  14.067  74.414  1.00  0.00    -0.387 OA
ATOM     32  H   UNL     1       8.626  13.791  75.365  1.00  0.00     0.211 HD
ENDBRANCH  23  31
ENDBRANCH   1  18
TORSDOF 11
ENDMDL
MODEL 4
REMARK VINA RESULT:    -4.279      2.349      7.328
REMARK INTER + INTRA:          -7.810
REMARK INTER:                  -6.361
REMARK INTRA:                  -1.449
REMARK UNBOUND:                -1.405
REMARK SMILES COC(=O)C1=CO[C@@H](O[C@@H]2O[C@@H](CO)[C@H](O)[C@H](O)[C@H]2O)[C@@H]2C(CO)=CC[C@@H]12
REMARK SMILES IDX 9 1 8 2 5 3 6 4 27 5 7 6 21 7 26 8 22 9 25 10 3 11 4 12 2 13
REMARK SMILES IDX 1 14 23 15 24 16 10 18 19 19 11 20 17 21 12 22 15 23 20 24
REMARK SMILES IDX 18 26 13 28 14 29 16 31
REMARK H PARENT 24 17 20 25 18 27 14 30 16 32
REMARK Flexibility Score: inf
ROOT
ATOM      1  O   UNL     1       1.139  14.896  76.028  1.00  0.00    -0.310 OA
ENDROOT
BRANCH   1   2
ATOM      2  C   UNL     1       2.488  14.484  76.036  1.00  0.00     0.316 C 
ATOM      3  C   UNL     1       5.051  13.562  75.025  1.00  0.00     0.076 C 
ATOM      4  C   UNL     1       4.770  14.875  74.970  1.00  0.00     0.202 C 
ATOM      5  C   UNL     1       4.085  12.689  75.740  1.00  0.00     0.047 C 
ATOM      6  O   UNL     1       3.480  15.373  75.400  1.00  0.00    -0.471 OA
ATOM      7  C   UNL     1       2.671  13.083  75.404  1.00  0.00     0.094 C 
ATOM      8  C   UNL     1       4.114  11.194  75.593  1.00  0.00     0.037 C 
ATOM      9  C   UNL     1       1.909  11.875  75.879  1.00  0.00    -0.039 C 
ATOM     10  C   UNL     1       2.740  10.842  76.043  1.00  0.00    -0.024 C 
BRANCH   3  11
ATOM     11  C   UNL     1       6.405  13.009  74.857  1.00  0.00     0.337 C 
ATOM     12  O   UNL     1       7.084  12.709  75.896  1.00  0.00    -0.246 OA
BRANCH  11  13
ATOM     13  O   UNL     1       7.064  13.454  73.727  1.00  0.00    -0.466 OA
ATOM     14  C   UNL     1       8.447  13.779  73.716  1.00  0.00     0.282 C 
ENDBRANCH  11  13
ENDBRANCH   3  11
BRANCH   9  15
ATOM     15  C   UNL     1       0.573  11.574  75.223  1.00  0.00     0.187 C 
BRANCH  15  16
ATOM     16  O   UNL     1      -0.531  12.199  75.865  1.00  0.00    -0.392 OA
ATOM     17  H   UNL     1      -0.650  13.125  75.488  1.00  0.00     0.211 HD
ENDBRANCH  15  16
ENDBRANCH   9  15
ENDBRANCH   1   2
BRANCH   1  18
ATOM     18  C   UNL     1       0.682  15.580  74.859  1.00  0.00     0.286 C 
ATOM     19  C   UNL     1      -0.596  14.999  74.029  1.00  0.00     0.202 C 
ATOM     20  O   UNL     1       0.392  16.926  75.229  1.00  0.00    -0.341 OA
ATOM     21  C   UNL     1      -2.063  15.366  74.499  1.00  0.00     0.179 C 
ATOM     22  C   UNL     1      -0.744  16.934  76.086  1.00  0.00     0.178 C 
ATOM     23  C   UNL     1      -2.052  16.747  75.215  1.00  0.00     0.177 C 
BRANCH  19  24
ATOM     24  O   UNL     1      -0.388  15.383  72.675  1.00  0.00    -0.385 OA
ATOM     25  H   UNL     1       0.611  15.437  72.489  1.00  0.00     0.211 HD
ENDBRANCH  19  24
BRANCH  21  26
ATOM     26  O   UNL     1      -2.505  14.424  75.436  1.00  0.00    -0.387 OA
ATOM     27  H   UNL     1      -2.662  13.567  74.954  1.00  0.00     0.211 HD
ENDBRANCH  21  26
BRANCH  22  28
ATOM     28  C   UNL     1      -0.752  18.204  76.961  1.00  0.00     0.191 C 
BRANCH  28  29
ATOM     29  O   UNL     1      -1.712  18.131  77.986  1.00  0.00    -0.394 OA
ATOM     30  H   UNL     1      -2.437  18.818  77.807  1.00  0.00     0.210 HD
ENDBRANCH  28  29
ENDBRANCH  22  28
BRANCH  23  31
ATOM     31  O   UNL     1      -3.209  16.977  76.013  1.00  0.00    -0.387 OA
ATOM     32  H   UNL     1      -2.912  17.393  76.862  1.00  0.00     0.211 HD
ENDBRANCH  23  31
ENDBRANCH   1  18
TORSDOF 11
ENDMDL
MODEL 5
REMARK VINA RESULT:    -4.254      1.811      3.496
REMARK INTER + INTRA:          -7.773
REMARK INTER:                  -6.236
REMARK INTRA:                  -1.537
REMARK UNBOUND:                -1.405
REMARK SMILES COC(=O)C1=CO[C@@H](O[C@@H]2O[C@@H](CO)[C@H](O)[C@H](O)[C@H]2O)[C@@H]2C(CO)=CC[C@@H]12
REMARK SMILES IDX 9 1 8 2 5 3 6 4 27 5 7 6 21 7 26 8 22 9 25 10 3 11 4 12 2 13
REMARK SMILES IDX 1 14 23 15 24 16 10 18 19 19 11 20 17 21 12 22 15 23 20 24
REMARK SMILES IDX 18 26 13 28 14 29 16 31
REMARK H PARENT 24 17 20 25 18 27 14 30 16 32
REMARK Flexibility Score: inf
ROOT
ATOM      1  O   UNL     1       4.157  14.046  75.985  1.00  0.00    -0.310 OA
ENDROOT
BRANCH   1   2
ATOM      2  C   UNL     1       2.969  14.770  76.216  1.00  0.00     0.316 C 
ATOM      3  C   UNL     1       0.455  16.115  75.653  1.00  0.00     0.076 C 
ATOM      4  C   UNL     1       0.451  14.782  75.823  1.00  0.00     0.202 C 
ATOM      5  C   UNL     1       1.731  16.829  75.915  1.00  0.00     0.047 C 
ATOM      6  O   UNL     1       1.688  14.060  76.038  1.00  0.00    -0.471 OA
ATOM      7  C   UNL     1       2.894  16.054  75.354  1.00  0.00     0.094 C 
ATOM      8  C   UNL     1       1.953  18.242  75.456  1.00  0.00     0.037 C 
ATOM      9  C   UNL     1       3.976  17.099  75.363  1.00  0.00    -0.039 C 
ATOM     10  C   UNL     1       3.438  18.316  75.486  1.00  0.00    -0.024 C 
BRANCH   3  11
ATOM     11  C   UNL     1      -0.759  16.946  75.688  1.00  0.00     0.337 C 
ATOM     12  O   UNL     1      -1.145  17.522  74.616  1.00  0.00    -0.246 OA
BRANCH  11  13
ATOM     13  O   UNL     1      -0.992  17.560  76.904  1.00  0.00    -0.466 OA
ATOM     14  C   UNL     1      -1.621  18.827  77.023  1.00  0.00     0.282 C 
ENDBRANCH  11  13
ENDBRANCH   3  11
BRANCH   9  15
ATOM     15  C   UNL     1       5.111  16.957  74.364  1.00  0.00     0.187 C 
BRANCH  15  16
ATOM     16  O   UNL     1       5.984  15.869  74.645  1.00  0.00    -0.392 OA
ATOM     17  H   UNL     1       6.056  15.285  73.829  1.00  0.00     0.211 HD
ENDBRANCH  15  16
ENDBRANCH   9  15
ENDBRANCH   1   2
BRANCH   1  18
ATOM     18  C   UNL     1       4.015  12.740  75.421  1.00  0.00     0.286 C 
ATOM     19  C   UNL     1       3.997  12.556  73.800  1.00  0.00     0.202 C 
ATOM     20  O   UNL     1       5.061  11.925  75.945  1.00  0.00    -0.341 OA
ATOM     21  C   UNL     1       5.367  12.464  73.011  1.00  0.00     0.179 C 
ATOM     22  C   UNL     1       6.305  12.379  75.426  1.00  0.00     0.178 C 
ATOM     23  C   UNL     1       6.465  11.865  73.937  1.00  0.00     0.177 C 
BRANCH  19  24
ATOM     24  O   UNL     1       3.190  11.412  73.548  1.00  0.00    -0.385 OA
ATOM     25  H   UNL     1       2.392  11.681  72.977  1.00  0.00     0.211 HD
ENDBRANCH  19  24
BRANCH  21  26
ATOM     26  O   UNL     1       5.791  13.749  72.654  1.00  0.00    -0.387 OA
ATOM     27  H   UNL     1       5.011  14.226  72.259  1.00  0.00     0.211 HD
ENDBRANCH  21  26
BRANCH  22  28
ATOM     28  C   UNL     1       7.463  11.967  76.356  1.00  0.00     0.191 C 
BRANCH  28  29
ATOM     29  O   UNL     1       7.842  10.626  76.164  1.00  0.00    -0.394 OA
ATOM     30  H   UNL     1       8.854  10.576  76.112  1.00  0.00     0.210 HD
ENDBRANCH  28  29
ENDBRANCH  22  28
BRANCH  23  31
ATOM     31  O   UNL     1       7.789  12.111  73.473  1.00  0.00    -0.387 OA
ATOM     32  H   UNL     1       7.729  12.375  72.520  1.00  0.00     0.211 HD
ENDBRANCH  23  31
ENDBRANCH   1  18
TORSDOF 11
ENDMDL
MODEL 6
REMARK VINA RESULT:    -4.224     11.960     14.429
REMARK INTER + INTRA:          -7.728
REMARK INTER:                  -6.395
REMARK INTRA:                  -1.333
REMARK UNBOUND:                -1.405
REMARK SMILES COC(=O)C1=CO[C@@H](O[C@@H]2O[C@@H](CO)[C@H](O)[C@H](O)[C@H]2O)[C@@H]2C(CO)=CC[C@@H]12
REMARK SMILES IDX 9 1 8 2 5 3 6 4 27 5 7 6 21 7 26 8 22 9 25 10 3 11 4 12 2 13
REMARK SMILES IDX 1 14 23 15 24 16 10 18 19 19 11 20 17 21 12 22 15 23 20 24
REMARK SMILES IDX 18 26 13 28 14 29 16 31
REMARK H PARENT 24 17 20 25 18 27 14 30 16 32
REMARK Flexibility Score: inf
ROOT
ATOM      1  O   UNL     1       9.479   8.689  62.857  1.00  0.00    -0.310 OA
ENDROOT
BRANCH   1   2
ATOM      2  C   UNL     1       9.462  10.099  62.882  1.00  0.00     0.316 C 
ATOM      3  C   UNL     1       8.483  12.809  62.509  1.00  0.00     0.076 C 
ATOM      4  C   UNL     1       8.107  12.132  63.607  1.00  0.00     0.202 C 
ATOM      5  C   UNL     1       9.500  12.172  61.633  1.00  0.00     0.047 C 
ATOM      6  O   UNL     1       8.514  10.756  63.803  1.00  0.00    -0.471 OA
ATOM      7  C   UNL     1       9.214  10.701  61.478  1.00  0.00     0.094 C 
ATOM      8  C   UNL     1       9.758  12.664  60.237  1.00  0.00     0.037 C 
ATOM      9  C   UNL     1      10.070  10.360  60.289  1.00  0.00    -0.039 C 
ATOM     10  C   UNL     1      10.421  11.474  59.639  1.00  0.00    -0.024 C 
BRANCH   3  11
ATOM     11  C   UNL     1       8.335  14.266  62.357  1.00  0.00     0.337 C 
ATOM     12  O   UNL     1       9.264  15.030  62.787  1.00  0.00    -0.246 OA
BRANCH  11  13
ATOM     13  O   UNL     1       7.027  14.710  62.389  1.00  0.00    -0.466 OA
ATOM     14  C   UNL     1       6.597  15.787  63.209  1.00  0.00     0.282 C 
ENDBRANCH  11  13
ENDBRANCH   3  11
BRANCH   9  15
ATOM     15  C   UNL     1       9.656   9.177  59.431  1.00  0.00     0.187 C 
BRANCH  15  16
ATOM     16  O   UNL     1      10.071   7.921  59.955  1.00  0.00    -0.392 OA
ATOM     17  H   UNL     1      10.706   8.076  60.720  1.00  0.00     0.211 HD
ENDBRANCH  15  16
ENDBRANCH   9  15
ENDBRANCH   1   2
BRANCH   1  18
ATOM     18  C   UNL     1      10.156   8.034  63.933  1.00  0.00     0.286 C 
ATOM     19  C   UNL     1      10.134   8.695  65.424  1.00  0.00     0.202 C 
ATOM     20  O   UNL     1       9.638   6.710  64.031  1.00  0.00    -0.341 OA
ATOM     21  C   UNL     1       8.901   8.422  66.379  1.00  0.00     0.179 C 
ATOM     22  C   UNL     1       8.288   6.774  64.475  1.00  0.00     0.178 C 
ATOM     23  C   UNL     1       8.268   7.042  66.035  1.00  0.00     0.177 C 
BRANCH  19  24
ATOM     24  O   UNL     1      11.351   8.297  66.043  1.00  0.00    -0.385 OA
ATOM     25  H   UNL     1      12.136   8.589  65.465  1.00  0.00     0.211 HD
ENDBRANCH  19  24
BRANCH  21  26
ATOM     26  O   UNL     1       7.913   9.390  66.160  1.00  0.00    -0.387 OA
ATOM     27  H   UNL     1       8.286  10.066  65.532  1.00  0.00     0.211 HD
ENDBRANCH  21  26
BRANCH  22  28
ATOM     28  C   UNL     1       7.518   5.508  64.050  1.00  0.00     0.191 C 
BRANCH  28  29
ATOM     29  O   UNL     1       6.222   5.808  63.592  1.00  0.00    -0.394 OA
ATOM     30  H   UNL     1       5.744   4.941  63.371  1.00  0.00     0.210 HD
ENDBRANCH  28  29
ENDBRANCH  22  28
BRANCH  23  31
ATOM     31  O   UNL     1       6.946   6.887  66.542  1.00  0.00    -0.387 OA
ATOM     32  H   UNL     1       6.689   7.738  66.979  1.00  0.00     0.211 HD
ENDBRANCH  23  31
ENDBRANCH   1  18
TORSDOF 11
ENDMDL
MODEL 7
REMARK VINA RESULT:    -4.222      2.100      3.372
REMARK INTER + INTRA:          -7.725
REMARK INTER:                  -6.139
REMARK INTRA:                  -1.586
REMARK UNBOUND:                -1.405
REMARK SMILES COC(=O)C1=CO[C@@H](O[C@@H]2O[C@@H](CO)[C@H](O)[C@H](O)[C@H]2O)[C@@H]2C(CO)=CC[C@@H]12
REMARK SMILES IDX 9 1 8 2 5 3 6 4 27 5 7 6 21 7 26 8 22 9 25 10 3 11 4 12 2 13
REMARK SMILES IDX 1 14 23 15 24 16 10 18 19 19 11 20 17 21 12 22 15 23 20 24
REMARK SMILES IDX 18 26 13 28 14 29 16 31
REMARK H PARENT 24 17 20 25 18 27 14 30 16 32
REMARK Flexibility Score: inf
ROOT
ATOM      1  O   UNL     1       2.037  14.998  75.867  1.00  0.00    -0.310 OA
ENDROOT
BRANCH   1   2
ATOM      2  C   UNL     1       1.790  16.374  75.680  1.00  0.00     0.316 C 
ATOM      3  C   UNL     1       0.872  19.071  76.253  1.00  0.00     0.076 C 
ATOM      4  C   UNL     1       2.067  18.680  76.730  1.00  0.00     0.202 C 
ATOM      5  C   UNL     1       0.170  18.138  75.334  1.00  0.00     0.047 C 
ATOM      6  O   UNL     1       2.536  17.325  76.528  1.00  0.00    -0.471 OA
ATOM      7  C   UNL     1       0.290  16.721  75.830  1.00  0.00     0.094 C 
ATOM      8  C   UNL     1      -1.285  18.308  75.000  1.00  0.00     0.037 C 
ATOM      9  C   UNL     1      -0.783  16.037  75.025  1.00  0.00    -0.039 C 
ATOM     10  C   UNL     1      -1.621  16.943  74.513  1.00  0.00    -0.024 C 
BRANCH   3  11
ATOM     11  C   UNL     1       0.439  20.476  76.188  1.00  0.00     0.337 C 
ATOM     12  O   UNL     1       1.124  21.303  75.496  1.00  0.00    -0.246 OA
BRANCH  11  13
ATOM     13  O   UNL     1      -0.212  20.923  77.321  1.00  0.00    -0.466 OA
ATOM     14  C   UNL     1      -1.598  21.229  77.346  1.00  0.00     0.282 C 
ENDBRANCH  11  13
ENDBRANCH   3  11
BRANCH   9  15
ATOM     15  C   UNL     1      -1.411  14.781  75.601  1.00  0.00     0.187 C 
BRANCH  15  16
ATOM     16  O   UNL     1      -0.658  14.202  76.660  1.00  0.00    -0.392 OA
ATOM     17  H   UNL     1      -1.290  13.853  77.361  1.00  0.00     0.211 HD
ENDBRANCH  15  16
ENDBRANCH   9  15
ENDBRANCH   1   2
BRANCH   1  18
ATOM     18  C   UNL     1       2.333  14.232  74.696  1.00  0.00     0.286 C 
ATOM     19  C   UNL     1       3.880  13.854  74.347  1.00  0.00     0.202 C 
ATOM     20  O   UNL     1       1.588  13.019  74.771  1.00  0.00    -0.341 OA
ATOM     21  C   UNL     1       4.545  12.587  75.026  1.00  0.00     0.179 C 
ATOM     22  C   UNL     1       2.108  12.223  75.830  1.00  0.00     0.178 C 
ATOM     23  C   UNL     1       3.448  11.532  75.350  1.00  0.00     0.177 C 
BRANCH  19  24
ATOM     24  O   UNL     1       3.946  13.761  72.928  1.00  0.00    -0.385 OA
ATOM     25  H   UNL     1       3.982  14.696  72.530  1.00  0.00     0.211 HD
ENDBRANCH  19  24
BRANCH  21  26
ATOM     26  O   UNL     1       5.127  12.958  76.243  1.00  0.00    -0.387 OA
ATOM     27  H   UNL     1       5.624  13.808  76.095  1.00  0.00     0.211 HD
ENDBRANCH  21  26
BRANCH  22  28
ATOM     28  C   UNL     1       1.041  11.233  76.337  1.00  0.00     0.191 C 
BRANCH  28  29
ATOM     29  O   UNL     1       0.477  11.644  77.558  1.00  0.00    -0.394 OA
ATOM     30  H   UNL     1       1.102  12.311  77.999  1.00  0.00     0.210 HD
ENDBRANCH  28  29
ENDBRANCH  22  28
BRANCH  23  31
ATOM     31  O   UNL     1       3.866  10.559  76.303  1.00  0.00    -0.387 OA
ATOM     32  H   UNL     1       3.902  11.001  77.189  1.00  0.00     0.211 HD
ENDBRANCH  23  31
ENDBRANCH   1  18
TORSDOF 11
ENDMDL
MODEL 8
REMARK VINA RESULT:    -4.192     14.334     16.365
REMARK INTER + INTRA:          -7.680
REMARK INTER:                  -6.151
REMARK INTRA:                  -1.529
REMARK UNBOUND:                -1.405
REMARK SMILES COC(=O)C1=CO[C@@H](O[C@@H]2O[C@@H](CO)[C@H](O)[C@H](O)[C@H]2O)[C@@H]2C(CO)=CC[C@@H]12
REMARK SMILES IDX 9 1 8 2 5 3 6 4 27 5 7 6 21 7 26 8 22 9 25 10 3 11 4 12 2 13
REMARK SMILES IDX 1 14 23 15 24 16 10 18 19 19 11 20 17 21 12 22 15 23 20 24
REMARK SMILES IDX 18 26 13 28 14 29 16 31
REMARK H PARENT 24 17 20 25 18 27 14 30 16 32
REMARK Flexibility Score: inf
ROOT
ATOM      1  O   UNL     1      -0.690  13.232  61.769  1.00  0.00    -0.310 OA
ENDROOT
BRANCH   1   2
ATOM      2  C   UNL     1      -1.116  12.039  62.390  1.00  0.00     0.316 C 
ATOM      3  C   UNL     1      -1.034   9.297  63.345  1.00  0.00     0.076 C 
ATOM      4  C   UNL     1      -0.473  10.260  64.097  1.00  0.00     0.202 C 
ATOM      5  C   UNL     1      -1.792   9.728  62.143  1.00  0.00     0.047 C 
ATOM      6  O   UNL     1      -0.430  11.630  63.631  1.00  0.00    -0.471 OA
ATOM      7  C   UNL     1      -1.058  10.830  61.425  1.00  0.00     0.094 C 
ATOM      8  C   UNL     1      -2.180   8.757  61.064  1.00  0.00     0.037 C 
ATOM      9  C   UNL     1      -1.754  10.826  60.091  1.00  0.00    -0.039 C 
ATOM     10  C   UNL     1      -2.432   9.685  59.929  1.00  0.00    -0.024 C 
BRANCH   3  11
ATOM     11  C   UNL     1      -1.349   7.949  63.847  1.00  0.00     0.337 C 
ATOM     12  O   UNL     1      -2.296   7.810  64.693  1.00  0.00    -0.246 OA
BRANCH  11  13
ATOM     13  O   UNL     1      -0.264   7.096  63.903  1.00  0.00    -0.466 OA
ATOM     14  C   UNL     1       0.308   6.496  62.751  1.00  0.00     0.282 C 
ENDBRANCH  11  13
ENDBRANCH   3  11
BRANCH   9  15
ATOM     15  C   UNL     1      -0.983  11.333  58.885  1.00  0.00     0.187 C 
BRANCH  15  16
ATOM     16  O   UNL     1      -0.671  12.720  58.951  1.00  0.00    -0.392 OA
ATOM     17  H   UNL     1       0.202  12.838  59.439  1.00  0.00     0.211 HD
ENDBRANCH  15  16
ENDBRANCH   9  15
ENDBRANCH   1   2
BRANCH   1  18
ATOM     18  C   UNL     1      -1.263  14.449  62.253  1.00  0.00     0.286 C 
ATOM     19  C   UNL     1      -0.883  15.864  61.535  1.00  0.00     0.202 C 
ATOM     20  O   UNL     1      -2.681  14.305  62.220  1.00  0.00    -0.341 OA
ATOM     21  C   UNL     1      -1.670  16.315  60.237  1.00  0.00     0.179 C 
ATOM     22  C   UNL     1      -3.108  14.252  60.863  1.00  0.00     0.178 C 
ATOM     23  C   UNL     1      -3.106  15.715  60.260  1.00  0.00     0.177 C 
BRANCH  19  24
ATOM     24  O   UNL     1      -0.977  16.854  62.553  1.00  0.00    -0.385 OA
ATOM     25  H   UNL     1      -0.419  16.568  63.354  1.00  0.00     0.211 HD
ENDBRANCH  19  24
BRANCH  21  26
ATOM     26  O   UNL     1      -1.033  15.803  59.100  1.00  0.00    -0.387 OA
ATOM     27  H   UNL     1      -1.477  14.944  58.865  1.00  0.00     0.211 HD
ENDBRANCH  21  26
BRANCH  22  28
ATOM     28  C   UNL     1      -4.467  13.533  60.752  1.00  0.00     0.191 C 
BRANCH  28  29
ATOM     29  O   UNL     1      -4.523  12.384  61.562  1.00  0.00    -0.394 OA
ATOM     30  H   UNL     1      -4.472  12.665  62.535  1.00  0.00     0.210 HD
ENDBRANCH  28  29
ENDBRANCH  22  28
BRANCH  23  31
ATOM     31  O   UNL     1      -3.740  15.720  58.985  1.00  0.00    -0.387 OA
ATOM     32  H   UNL     1      -3.619  16.623  58.593  1.00  0.00     0.211 HD
ENDBRANCH  23  31
ENDBRANCH   1  18
TORSDOF 11
ENDMDL
MODEL 9
REMARK VINA RESULT:    -4.153     15.379     16.549
REMARK INTER + INTRA:          -7.622
REMARK INTER:                  -6.198
REMARK INTRA:                  -1.424
REMARK UNBOUND:                -1.405
REMARK SMILES COC(=O)C1=CO[C@@H](O[C@@H]2O[C@@H](CO)[C@H](O)[C@H](O)[C@H]2O)[C@@H]2C(CO)=CC[C@@H]12
REMARK SMILES IDX 9 1 8 2 5 3 6 4 27 5 7 6 21 7 26 8 22 9 25 10 3 11 4 12 2 13
REMARK SMILES IDX 1 14 23 15 24 16 10 18 19 19 11 20 17 21 12 22 15 23 20 24
REMARK SMILES IDX 18 26 13 28 14 29 16 31
REMARK H PARENT 24 17 20 25 18 27 14 30 16 32
REMARK Flexibility Score: inf
ROOT
ATOM      1  O   UNL     1      -2.682  13.347  61.660  1.00  0.00    -0.310 OA
ENDROOT
BRANCH   1   2
ATOM      2  C   UNL     1      -3.652  14.350  61.454  1.00  0.00     0.316 C 
ATOM      3  C   UNL     1      -5.497  16.093  60.039  1.00  0.00     0.076 C 
ATOM      4  C   UNL     1      -5.900  14.853  60.362  1.00  0.00     0.202 C 
ATOM      5  C   UNL     1      -4.181  16.539  60.564  1.00  0.00     0.047 C 
ATOM      6  O   UNL     1      -4.993  13.925  61.007  1.00  0.00    -0.471 OA
ATOM      7  C   UNL     1      -3.168  15.429  60.455  1.00  0.00     0.094 C 
ATOM      8  C   UNL     1      -3.483  17.752  60.018  1.00  0.00     0.037 C 
ATOM      9  C   UNL     1      -1.881  16.187  60.644  1.00  0.00    -0.039 C 
ATOM     10  C   UNL     1      -2.086  17.495  60.460  1.00  0.00    -0.024 C 
BRANCH   3  11
ATOM     11  C   UNL     1      -6.414  17.168  59.626  1.00  0.00     0.337 C 
ATOM     12  O   UNL     1      -6.429  17.532  58.402  1.00  0.00    -0.246 OA
BRANCH  11  13
ATOM     13  O   UNL     1      -6.674  18.102  60.610  1.00  0.00    -0.466 OA
ATOM     14  C   UNL     1      -6.939  19.469  60.328  1.00  0.00     0.282 C 
ENDBRANCH  11  13
ENDBRANCH   3  11
BRANCH   9  15
ATOM     15  C   UNL     1      -0.618  15.606  60.034  1.00  0.00     0.187 C 
BRANCH  15  16
ATOM     16  O   UNL     1      -0.700  14.208  59.779  1.00  0.00    -0.392 OA
ATOM     17  H   UNL     1      -1.561  13.854  60.159  1.00  0.00     0.211 HD
ENDBRANCH  15  16
ENDBRANCH   9  15
ENDBRANCH   1   2
BRANCH   1  18
ATOM     18  C   UNL     1      -3.131  11.992  61.581  1.00  0.00     0.286 C 
ATOM     19  C   UNL     1      -3.018  11.183  60.169  1.00  0.00     0.202 C 
ATOM     20  O   UNL     1      -2.434  11.244  62.574  1.00  0.00    -0.341 OA
ATOM     21  C   UNL     1      -1.653  10.480  59.782  1.00  0.00     0.179 C 
ATOM     22  C   UNL     1      -1.060  11.163  62.211  1.00  0.00     0.178 C 
ATOM     23  C   UNL     1      -0.888  10.074  61.076  1.00  0.00     0.177 C 
BRANCH  19  24
ATOM     24  O   UNL     1      -4.088  10.246  60.171  1.00  0.00    -0.385 OA
ATOM     25  H   UNL     1      -4.435  10.131  61.121  1.00  0.00     0.211 HD
ENDBRANCH  19  24
BRANCH  21  26
ATOM     26  O   UNL     1      -0.837  11.384  59.093  1.00  0.00    -0.387 OA
ATOM     27  H   UNL     1      -1.247  11.542  58.199  1.00  0.00     0.211 HD
ENDBRANCH  21  26
BRANCH  22  28
ATOM     28  C   UNL     1      -0.185  10.911  63.455  1.00  0.00     0.191 C 
BRANCH  28  29
ATOM     29  O   UNL     1       1.132  11.368  63.274  1.00  0.00    -0.394 OA
ATOM     30  H   UNL     1       1.760  10.781  63.814  1.00  0.00     0.210 HD
ENDBRANCH  28  29
ENDBRANCH  22  28
BRANCH  23  31
ATOM     31  O   UNL     1       0.494   9.811  60.854  1.00  0.00    -0.387 OA
ATOM     32  H   UNL     1       0.984  10.666  60.960  1.00  0.00     0.211 HD
ENDBRANCH  23  31
ENDBRANCH   1  18
TORSDOF 11
ENDMDL
