MODEL 1
REMARK VINA RESULT:    -5.792      0.000      0.000
REMARK INTER + INTRA:         -12.647
REMARK INTER:                 -10.194
REMARK INTRA:                  -2.453
REMARK UNBOUND:                -2.453
REMARK SMILES CCCCCCC=CCCCCCCCC(=O)[O-]
REMARK SMILES IDX 10 1 11 2 12 3 13 4 14 5 15 6 16 7 17 8 18 9 9 10 8 11 7 12
REMARK SMILES IDX 6 13 5 14 4 15 3 16 2 17 1 18
REMARK H PARENT
REMARK Flexibility Score: inf
ROOT
ATOM      1  C   UNL     1     -44.383 -39.778 108.642  1.00  0.00     0.004 C 
ENDROOT
BRANCH   1   2
ATOM      2  C   UNL     1     -43.010 -39.091 108.646  1.00  0.00     0.000 C 
BRANCH   2   3
ATOM      3  C   UNL     1     -41.854 -40.079 108.862  1.00  0.00     0.000 C 
BRANCH   3   4
ATOM      4  C   UNL     1     -40.804 -40.015 107.739  1.00  0.00     0.000 C 
BRANCH   4   5
ATOM      5  C   UNL     1     -41.004 -41.114 106.682  1.00  0.00     0.006 C 
BRANCH   5   6
ATOM      6  C   UNL     1     -39.679 -41.720 106.203  1.00  0.00     0.053 C 
BRANCH   6   7
ATOM      7  C   UNL     1     -39.096 -40.895 105.100  1.00  0.00     0.041 C 
ATOM      8  O   UNL     1     -37.854 -40.689 105.053  1.00  0.00    -0.550 OA
ATOM      9  O   UNL     1     -39.927 -40.312 104.153  1.00  0.00    -0.550 OA
ENDBRANCH   6   7
ENDBRANCH   5   6
ENDBRANCH   4   5
ENDBRANCH   3   4
ENDBRANCH   2   3
ENDBRANCH   1   2
BRANCH   1  10
ATOM     10  C   UNL     1     -45.120 -39.528 107.321  1.00  0.00     0.027 C 
BRANCH  10  11
ATOM     11  C   UNL     1     -44.681 -40.513 106.269  1.00  0.00    -0.031 C 
ATOM     12  C   UNL     1     -44.215 -40.174 105.052  1.00  0.00    -0.031 C 
BRANCH  12  13
ATOM     13  C   UNL     1     -43.978 -38.759 104.590  1.00  0.00     0.027 C 
BRANCH  13  14
ATOM     14  C   UNL     1     -42.590 -38.272 105.023  1.00  0.00     0.004 C 
BRANCH  14  15
ATOM     15  C   UNL     1     -42.686 -36.942 105.779  1.00  0.00     0.000 C 
BRANCH  15  16
ATOM     16  C   UNL     1     -44.141 -36.473 105.890  1.00  0.00    -0.000 C 
BRANCH  16  17
ATOM     17  C   UNL     1     -44.325 -35.527 107.081  1.00  0.00    -0.003 C 
ATOM     18  C   UNL     1     -43.024 -35.363 107.861  1.00  0.00     0.004 C 
ENDBRANCH  16  17
ENDBRANCH  15  16
ENDBRANCH  14  15
ENDBRANCH  13  14
ENDBRANCH  12  13
ENDBRANCH  10  11
ENDBRANCH   1  10
TORSDOF 13
ENDMDL
MODEL 2
REMARK VINA RESULT:    -5.788      2.296      3.660
REMARK INTER + INTRA:         -12.639
REMARK INTER:                 -10.352
REMARK INTRA:                  -2.287
REMARK UNBOUND:                -2.453
REMARK SMILES CCCCCCC=CCCCCCCCC(=O)[O-]
REMARK SMILES IDX 10 1 11 2 12 3 13 4 14 5 15 6 16 7 17 8 18 9 9 10 8 11 7 12
REMARK SMILES IDX 6 13 5 14 4 15 3 16 2 17 1 18
REMARK H PARENT
REMARK Flexibility Score: inf
ROOT
ATOM      1  C   UNL     1     -41.125 -39.250 107.519  1.00  0.00     0.004 C 
ENDROOT
BRANCH   1   2
ATOM      2  C   UNL     1     -41.143 -39.809 106.088  1.00  0.00     0.000 C 
BRANCH   2   3
ATOM      3  C   UNL     1     -41.908 -41.138 105.981  1.00  0.00     0.000 C 
BRANCH   3   4
ATOM      4  C   UNL     1     -41.872 -41.728 104.561  1.00  0.00     0.000 C 
BRANCH   4   5
ATOM      5  C   UNL     1     -41.475 -40.687 103.500  1.00  0.00     0.006 C 
BRANCH   5   6
ATOM      6  C   UNL     1     -42.166 -40.927 102.152  1.00  0.00     0.053 C 
BRANCH   6   7
ATOM      7  C   UNL     1     -43.637 -40.683 102.268  1.00  0.00     0.041 C 
ATOM      8  O   UNL     1     -44.063 -39.600 102.749  1.00  0.00    -0.550 OA
ATOM      9  O   UNL     1     -44.538 -41.671 101.893  1.00  0.00    -0.550 OA
ENDBRANCH   6   7
ENDBRANCH   5   6
ENDBRANCH   4   5
ENDBRANCH   3   4
ENDBRANCH   2   3
ENDBRANCH   1   2
BRANCH   1  10
ATOM     10  C   UNL     1     -42.116 -40.002 108.414  1.00  0.00     0.027 C 
BRANCH  10  11
ATOM     11  C   UNL     1     -43.129 -39.053 109.004  1.00  0.00    -0.031 C 
ATOM     12  C   UNL     1     -44.339 -38.801 108.472  1.00  0.00    -0.031 C 
BRANCH  12  13
ATOM     13  C   UNL     1     -44.901 -39.493 107.257  1.00  0.00     0.027 C 
BRANCH  13  14
ATOM     14  C   UNL     1     -44.696 -38.640 106.001  1.00  0.00     0.004 C 
BRANCH  14  15
ATOM     15  C   UNL     1     -44.463 -37.169 106.368  1.00  0.00     0.000 C 
BRANCH  15  16
ATOM     16  C   UNL     1     -43.181 -36.635 105.719  1.00  0.00    -0.000 C 
BRANCH  16  17
ATOM     17  C   UNL     1     -42.352 -35.827 106.723  1.00  0.00    -0.003 C 
ATOM     18  C   UNL     1     -43.226 -34.847 107.499  1.00  0.00     0.004 C 
ENDBRANCH  16  17
ENDBRANCH  15  16
ENDBRANCH  14  15
ENDBRANCH  13  14
ENDBRANCH  12  13
ENDBRANCH  10  11
ENDBRANCH   1  10
TORSDOF 13
ENDMDL
MODEL 3
REMARK VINA RESULT:    -5.778      2.157      3.189
REMARK INTER + INTRA:         -12.621
REMARK INTER:                 -10.511
REMARK INTRA:                  -2.110
REMARK UNBOUND:                -2.453
REMARK SMILES CCCCCCC=CCCCCCCCC(=O)[O-]
REMARK SMILES IDX 10 1 11 2 12 3 13 4 14 5 15 6 16 7 17 8 18 9 9 10 8 11 7 12
REMARK SMILES IDX 6 13 5 14 4 15 3 16 2 17 1 18
REMARK H PARENT
REMARK Flexibility Score: inf
ROOT
ATOM      1  C   UNL     1     -41.251 -39.542 107.960  1.00  0.00     0.004 C 
ENDROOT
BRANCH   1   2
ATOM      2  C   UNL     1     -41.256 -40.398 106.684  1.00  0.00     0.000 C 
BRANCH   2   3
ATOM      3  C   UNL     1     -40.668 -39.657 105.473  1.00  0.00     0.000 C 
BRANCH   3   4
ATOM      4  C   UNL     1     -40.994 -40.353 104.140  1.00  0.00     0.000 C 
BRANCH   4   5
ATOM      5  C   UNL     1     -41.589 -41.757 104.337  1.00  0.00     0.006 C 
BRANCH   5   6
ATOM      6  C   UNL     1     -40.521 -42.858 104.321  1.00  0.00     0.053 C 
BRANCH   6   7
ATOM      7  C   UNL     1     -40.813 -43.852 103.242  1.00  0.00     0.041 C 
ATOM      8  O   UNL     1     -41.387 -43.486 102.182  1.00  0.00    -0.550 OA
ATOM      9  O   UNL     1     -40.497 -45.191 103.426  1.00  0.00    -0.550 OA
ENDBRANCH   6   7
ENDBRANCH   5   6
ENDBRANCH   4   5
ENDBRANCH   3   4
ENDBRANCH   2   3
ENDBRANCH   1   2
BRANCH   1  10
ATOM     10  C   UNL     1     -42.347 -39.997 108.930  1.00  0.00     0.027 C 
BRANCH  10  11
ATOM     11  C   UNL     1     -43.364 -38.904 109.138  1.00  0.00    -0.031 C 
ATOM     12  C   UNL     1     -44.417 -38.677 108.331  1.00  0.00    -0.031 C 
BRANCH  12  13
ATOM     13  C   UNL     1     -44.789 -39.534 107.148  1.00  0.00     0.027 C 
BRANCH  13  14
ATOM     14  C   UNL     1     -44.513 -38.796 105.834  1.00  0.00     0.004 C 
BRANCH  14  15
ATOM     15  C   UNL     1     -44.366 -37.288 106.071  1.00  0.00     0.000 C 
BRANCH  15  16
ATOM     16  C   UNL     1     -42.984 -36.793 105.627  1.00  0.00    -0.000 C 
BRANCH  16  17
ATOM     17  C   UNL     1     -42.285 -36.029 106.756  1.00  0.00    -0.003 C 
ATOM     18  C   UNL     1     -43.267 -35.138 107.510  1.00  0.00     0.004 C 
ENDBRANCH  16  17
ENDBRANCH  15  16
ENDBRANCH  14  15
ENDBRANCH  13  14
ENDBRANCH  12  13
ENDBRANCH  10  11
ENDBRANCH   1  10
TORSDOF 13
ENDMDL
MODEL 4
REMARK VINA RESULT:    -5.724      1.873      3.042
REMARK INTER + INTRA:         -12.527
REMARK INTER:                 -10.328
REMARK INTRA:                  -2.199
REMARK UNBOUND:                -2.453
REMARK SMILES CCCCCCC=CCCCCCCCC(=O)[O-]
REMARK SMILES IDX 10 1 11 2 12 3 13 4 14 5 15 6 16 7 17 8 18 9 9 10 8 11 7 12
REMARK SMILES IDX 6 13 5 14 4 15 3 16 2 17 1 18
REMARK H PARENT
REMARK Flexibility Score: inf
ROOT
ATOM      1  C   UNL     1     -41.024 -39.312 107.194  1.00  0.00     0.004 C 
ENDROOT
BRANCH   1   2
ATOM      2  C   UNL     1     -40.982 -39.389 105.661  1.00  0.00     0.000 C 
BRANCH   2   3
ATOM      3  C   UNL     1     -41.698 -40.633 105.112  1.00  0.00     0.000 C 
BRANCH   3   4
ATOM      4  C   UNL     1     -41.748 -40.655 103.574  1.00  0.00     0.000 C 
BRANCH   4   5
ATOM      5  C   UNL     1     -40.419 -40.222 102.935  1.00  0.00     0.006 C 
BRANCH   5   6
ATOM      6  C   UNL     1     -39.803 -41.317 102.055  1.00  0.00     0.053 C 
BRANCH   6   7
ATOM      7  C   UNL     1     -38.460 -41.714 102.579  1.00  0.00     0.041 C 
ATOM      8  O   UNL     1     -37.762 -42.559 101.956  1.00  0.00    -0.550 OA
ATOM      9  O   UNL     1     -37.998 -41.191 103.779  1.00  0.00    -0.550 OA
ENDBRANCH   6   7
ENDBRANCH   5   6
ENDBRANCH   4   5
ENDBRANCH   3   4
ENDBRANCH   2   3
ENDBRANCH   1   2
BRANCH   1  10
ATOM     10  C   UNL     1     -42.115 -40.227 107.761  1.00  0.00     0.027 C 
BRANCH  10  11
ATOM     11  C   UNL     1     -43.118 -39.432 108.559  1.00  0.00    -0.031 C 
ATOM     12  C   UNL     1     -44.340 -39.082 108.117  1.00  0.00    -0.031 C 
BRANCH  12  13
ATOM     13  C   UNL     1     -44.926 -39.507 106.795  1.00  0.00     0.027 C 
BRANCH  13  14
ATOM     14  C   UNL     1     -44.675 -38.442 105.722  1.00  0.00     0.004 C 
BRANCH  14  15
ATOM     15  C   UNL     1     -44.361 -37.084 106.359  1.00  0.00     0.000 C 
BRANCH  15  16
ATOM     16  C   UNL     1     -43.114 -36.454 105.727  1.00  0.00    -0.000 C 
BRANCH  16  17
ATOM     17  C   UNL     1     -42.253 -35.757 106.787  1.00  0.00    -0.003 C 
ATOM     18  C   UNL     1     -43.108 -35.241 107.940  1.00  0.00     0.004 C 
ENDBRANCH  16  17
ENDBRANCH  15  16
ENDBRANCH  14  15
ENDBRANCH  13  14
ENDBRANCH  12  13
ENDBRANCH  10  11
ENDBRANCH   1  10
TORSDOF 13
ENDMDL
MODEL 5
REMARK VINA RESULT:    -5.641      3.580      7.144
REMARK INTER + INTRA:         -12.381
REMARK INTER:                 -10.928
REMARK INTRA:                  -1.453
REMARK UNBOUND:                -2.453
REMARK SMILES CCCCCCC=CCCCCCCCC(=O)[O-]
REMARK SMILES IDX 10 1 11 2 12 3 13 4 14 5 15 6 16 7 17 8 18 9 9 10 8 11 7 12
REMARK SMILES IDX 6 13 5 14 4 15 3 16 2 17 1 18
REMARK H PARENT
REMARK Flexibility Score: inf
ROOT
ATOM      1  C   UNL     1     -41.357 -40.930 105.329  1.00  0.00     0.004 C 
ENDROOT
BRANCH   1   2
ATOM      2  C   UNL     1     -42.648 -41.084 104.512  1.00  0.00     0.000 C 
BRANCH   2   3
ATOM      3  C   UNL     1     -43.788 -40.194 105.033  1.00  0.00     0.000 C 
BRANCH   3   4
ATOM      4  C   UNL     1     -43.772 -38.788 104.408  1.00  0.00     0.000 C 
BRANCH   4   5
ATOM      5  C   UNL     1     -43.308 -37.708 105.399  1.00  0.00     0.006 C 
BRANCH   5   6
ATOM      6  C   UNL     1     -44.425 -37.263 106.352  1.00  0.00     0.053 C 
BRANCH   6   7
ATOM      7  C   UNL     1     -43.910 -37.173 107.753  1.00  0.00     0.041 C 
ATOM      8  O   UNL     1     -44.037 -38.150 108.538  1.00  0.00    -0.550 OA
ATOM      9  O   UNL     1     -43.336 -35.994 108.209  1.00  0.00    -0.550 OA
ENDBRANCH   6   7
ENDBRANCH   5   6
ENDBRANCH   4   5
ENDBRANCH   3   4
ENDBRANCH   2   3
ENDBRANCH   1   2
BRANCH   1  10
ATOM     10  C   UNL     1     -40.253 -40.273 104.492  1.00  0.00     0.027 C 
BRANCH  10  11
ATOM     11  C   UNL     1     -40.626 -40.260 103.032  1.00  0.00    -0.031 C 
ATOM     12  C   UNL     1     -39.825 -40.680 102.035  1.00  0.00    -0.031 C 
BRANCH  12  13
ATOM     13  C   UNL     1     -38.470 -41.311 102.234  1.00  0.00     0.027 C 
BRANCH  13  14
ATOM     14  C   UNL     1     -38.516 -42.808 101.911  1.00  0.00     0.004 C 
BRANCH  14  15
ATOM     15  C   UNL     1     -39.151 -43.600 103.060  1.00  0.00     0.000 C 
BRANCH  15  16
ATOM     16  C   UNL     1     -40.384 -44.374 102.581  1.00  0.00    -0.000 C 
BRANCH  16  17
ATOM     17  C   UNL     1     -40.199 -45.882 102.782  1.00  0.00    -0.003 C 
ATOM     18  C   UNL     1     -38.801 -46.202 103.303  1.00  0.00     0.004 C 
ENDBRANCH  16  17
ENDBRANCH  15  16
ENDBRANCH  14  15
ENDBRANCH  13  14
ENDBRANCH  12  13
ENDBRANCH  10  11
ENDBRANCH   1  10
TORSDOF 13
ENDMDL
MODEL 6
REMARK VINA RESULT:    -5.584      2.820      3.804
REMARK INTER + INTRA:         -12.281
REMARK INTER:                 -10.734
REMARK INTRA:                  -1.547
REMARK UNBOUND:                -2.453
REMARK SMILES CCCCCCC=CCCCCCCCC(=O)[O-]
REMARK SMILES IDX 10 1 11 2 12 3 13 4 14 5 15 6 16 7 17 8 18 9 9 10 8 11 7 12
REMARK SMILES IDX 6 13 5 14 4 15 3 16 2 17 1 18
REMARK H PARENT
REMARK Flexibility Score: inf
ROOT
ATOM      1  C   UNL     1     -41.195 -39.637 104.723  1.00  0.00     0.004 C 
ENDROOT
BRANCH   1   2
ATOM      2  C   UNL     1     -40.518 -40.768 105.512  1.00  0.00     0.000 C 
BRANCH   2   3
ATOM      3  C   UNL     1     -39.535 -41.581 104.656  1.00  0.00     0.000 C 
BRANCH   3   4
ATOM      4  C   UNL     1     -39.949 -43.056 104.521  1.00  0.00     0.000 C 
BRANCH   4   5
ATOM      5  C   UNL     1     -40.989 -43.277 103.410  1.00  0.00     0.006 C 
BRANCH   5   6
ATOM      6  C   UNL     1     -40.375 -43.870 102.136  1.00  0.00     0.053 C 
BRANCH   6   7
ATOM      7  C   UNL     1     -39.571 -45.089 102.463  1.00  0.00     0.041 C 
ATOM      8  O   UNL     1     -38.324 -45.090 102.286  1.00  0.00    -0.550 OA
ATOM      9  O   UNL     1     -40.203 -46.239 102.915  1.00  0.00    -0.550 OA
ENDBRANCH   6   7
ENDBRANCH   5   6
ENDBRANCH   4   5
ENDBRANCH   3   4
ENDBRANCH   2   3
ENDBRANCH   1   2
BRANCH   1  10
ATOM     10  C   UNL     1     -42.698 -39.895 104.574  1.00  0.00     0.027 C 
BRANCH  10  11
ATOM     11  C   UNL     1     -43.140 -41.019 105.477  1.00  0.00    -0.031 C 
ATOM     12  C   UNL     1     -44.177 -40.948 106.333  1.00  0.00    -0.031 C 
BRANCH  12  13
ATOM     13  C   UNL     1     -45.107 -39.769 106.455  1.00  0.00     0.027 C 
BRANCH  13  14
ATOM     14  C   UNL     1     -44.831 -38.990 107.745  1.00  0.00     0.004 C 
BRANCH  14  15
ATOM     15  C   UNL     1     -43.900 -37.800 107.480  1.00  0.00     0.000 C 
BRANCH  15  16
ATOM     16  C   UNL     1     -44.413 -36.947 106.314  1.00  0.00    -0.000 C 
BRANCH  16  17
ATOM     17  C   UNL     1     -43.665 -35.612 106.240  1.00  0.00    -0.003 C 
ATOM     18  C   UNL     1     -43.255 -35.131 107.629  1.00  0.00     0.004 C 
ENDBRANCH  16  17
ENDBRANCH  15  16
ENDBRANCH  14  15
ENDBRANCH  13  14
ENDBRANCH  12  13
ENDBRANCH  10  11
ENDBRANCH   1  10
TORSDOF 13
ENDMDL
MODEL 7
REMARK VINA RESULT:    -5.561      1.878      3.037
REMARK INTER + INTRA:         -12.240
REMARK INTER:                 -10.066
REMARK INTRA:                  -2.175
REMARK UNBOUND:                -2.453
REMARK SMILES CCCCCCC=CCCCCCCCC(=O)[O-]
REMARK SMILES IDX 10 1 11 2 12 3 13 4 14 5 15 6 16 7 17 8 18 9 9 10 8 11 7 12
REMARK SMILES IDX 6 13 5 14 4 15 3 16 2 17 1 18
REMARK H PARENT
REMARK Flexibility Score: inf
ROOT
ATOM      1  C   UNL     1     -41.517 -39.328 104.924  1.00  0.00     0.004 C 
ENDROOT
BRANCH   1   2
ATOM      2  C   UNL     1     -41.069 -39.443 106.388  1.00  0.00     0.000 C 
BRANCH   2   3
ATOM      3  C   UNL     1     -40.791 -40.894 106.810  1.00  0.00     0.000 C 
BRANCH   3   4
ATOM      4  C   UNL     1     -39.502 -41.455 106.184  1.00  0.00     0.000 C 
BRANCH   4   5
ATOM      5  C   UNL     1     -39.757 -42.712 105.336  1.00  0.00     0.006 C 
BRANCH   5   6
ATOM      6  C   UNL     1     -39.922 -42.393 103.845  1.00  0.00     0.053 C 
BRANCH   6   7
ATOM      7  C   UNL     1     -40.995 -43.245 103.244  1.00  0.00     0.041 C 
ATOM      8  O   UNL     1     -40.847 -44.494 103.175  1.00  0.00    -0.550 OA
ATOM      9  O   UNL     1     -42.135 -42.657 102.715  1.00  0.00    -0.550 OA
ENDBRANCH   6   7
ENDBRANCH   5   6
ENDBRANCH   4   5
ENDBRANCH   3   4
ENDBRANCH   2   3
ENDBRANCH   1   2
BRANCH   1  10
ATOM     10  C   UNL     1     -43.024 -39.065 104.830  1.00  0.00     0.027 C 
BRANCH  10  11
ATOM     11  C   UNL     1     -43.803 -40.341 105.024  1.00  0.00    -0.031 C 
ATOM     12  C   UNL     1     -44.688 -40.551 106.015  1.00  0.00    -0.031 C 
BRANCH  12  13
ATOM     13  C   UNL     1     -45.103 -39.514 107.028  1.00  0.00     0.027 C 
BRANCH  13  14
ATOM     14  C   UNL     1     -44.313 -39.681 108.331  1.00  0.00     0.004 C 
BRANCH  14  15
ATOM     15  C   UNL     1     -43.648 -38.362 108.742  1.00  0.00     0.000 C 
BRANCH  15  16
ATOM     16  C   UNL     1     -44.062 -37.220 107.808  1.00  0.00    -0.000 C 
BRANCH  16  17
ATOM     17  C   UNL     1     -43.112 -36.025 107.944  1.00  0.00    -0.003 C 
ATOM     18  C   UNL     1     -42.385 -35.746 106.632  1.00  0.00     0.004 C 
ENDBRANCH  16  17
ENDBRANCH  15  16
ENDBRANCH  14  15
ENDBRANCH  13  14
ENDBRANCH  12  13
ENDBRANCH  10  11
ENDBRANCH   1  10
TORSDOF 13
ENDMDL
MODEL 8
REMARK VINA RESULT:    -5.549      2.825      4.005
REMARK INTER + INTRA:         -12.220
REMARK INTER:                 -10.270
REMARK INTRA:                  -1.950
REMARK UNBOUND:                -2.453
REMARK SMILES CCCCCCC=CCCCCCCCC(=O)[O-]
REMARK SMILES IDX 10 1 11 2 12 3 13 4 14 5 15 6 16 7 17 8 18 9 9 10 8 11 7 12
REMARK SMILES IDX 6 13 5 14 4 15 3 16 2 17 1 18
REMARK H PARENT
REMARK Flexibility Score: inf
ROOT
ATOM      1  C   UNL     1     -40.983 -41.552 105.388  1.00  0.00     0.004 C 
ENDROOT
BRANCH   1   2
ATOM      2  C   UNL     1     -40.022 -40.636 104.616  1.00  0.00     0.000 C 
BRANCH   2   3
ATOM      3  C   UNL     1     -40.538 -40.285 103.212  1.00  0.00     0.000 C 
BRANCH   3   4
ATOM      4  C   UNL     1     -41.198 -41.484 102.508  1.00  0.00     0.000 C 
BRANCH   4   5
ATOM      5  C   UNL     1     -40.168 -42.466 101.927  1.00  0.00     0.006 C 
BRANCH   5   6
ATOM      6  C   UNL     1     -40.691 -43.907 101.875  1.00  0.00     0.053 C 
BRANCH   6   7
ATOM      7  C   UNL     1     -39.720 -44.839 102.529  1.00  0.00     0.041 C 
ATOM      8  O   UNL     1     -40.138 -45.837 103.174  1.00  0.00    -0.550 OA
ATOM      9  O   UNL     1     -38.358 -44.578 102.471  1.00  0.00    -0.550 OA
ENDBRANCH   6   7
ENDBRANCH   5   6
ENDBRANCH   4   5
ENDBRANCH   3   4
ENDBRANCH   2   3
ENDBRANCH   1   2
BRANCH   1  10
ATOM     10  C   UNL     1     -41.977 -40.731 106.217  1.00  0.00     0.027 C 
BRANCH  10  11
ATOM     11  C   UNL     1     -43.393 -41.005 105.779  1.00  0.00    -0.031 C 
ATOM     12  C   UNL     1     -44.157 -40.145 105.080  1.00  0.00    -0.031 C 
BRANCH  12  13
ATOM     13  C   UNL     1     -43.683 -38.815 104.552  1.00  0.00     0.027 C 
BRANCH  13  14
ATOM     14  C   UNL     1     -44.338 -37.661 105.318  1.00  0.00     0.004 C 
BRANCH  14  15
ATOM     15  C   UNL     1     -43.282 -36.692 105.861  1.00  0.00     0.000 C 
BRANCH  15  16
ATOM     16  C   UNL     1     -42.725 -37.178 107.204  1.00  0.00    -0.000 C 
BRANCH  16  17
ATOM     17  C   UNL     1     -43.857 -37.580 108.155  1.00  0.00    -0.003 C 
ATOM     18  C   UNL     1     -43.436 -38.740 109.054  1.00  0.00     0.004 C 
ENDBRANCH  16  17
ENDBRANCH  15  16
ENDBRANCH  14  15
ENDBRANCH  13  14
ENDBRANCH  12  13
ENDBRANCH  10  11
ENDBRANCH   1  10
TORSDOF 13
ENDMDL
MODEL 9
REMARK VINA RESULT:    -5.522      2.981      4.254
REMARK INTER + INTRA:         -12.172
REMARK INTER:                 -10.908
REMARK INTRA:                  -1.263
REMARK UNBOUND:                -2.453
REMARK SMILES CCCCCCC=CCCCCCCCC(=O)[O-]
REMARK SMILES IDX 10 1 11 2 12 3 13 4 14 5 15 6 16 7 17 8 18 9 9 10 8 11 7 12
REMARK SMILES IDX 6 13 5 14 4 15 3 16 2 17 1 18
REMARK H PARENT
REMARK Flexibility Score: inf
ROOT
ATOM      1  C   UNL     1     -40.962 -40.061 104.339  1.00  0.00     0.004 C 
ENDROOT
BRANCH   1   2
ATOM      2  C   UNL     1     -41.350 -40.639 102.971  1.00  0.00     0.000 C 
BRANCH   2   3
ATOM      3  C   UNL     1     -40.142 -40.811 102.036  1.00  0.00     0.000 C 
BRANCH   3   4
ATOM      4  C   UNL     1     -39.584 -42.244 102.050  1.00  0.00     0.000 C 
BRANCH   4   5
ATOM      5  C   UNL     1     -40.638 -43.284 102.464  1.00  0.00     0.006 C 
BRANCH   5   6
ATOM      6  C   UNL     1     -40.179 -44.724 102.205  1.00  0.00     0.053 C 
BRANCH   6   7
ATOM      7  C   UNL     1     -39.251 -45.179 103.286  1.00  0.00     0.041 C 
ATOM      8  O   UNL     1     -38.037 -45.397 103.029  1.00  0.00    -0.550 OA
ATOM      9  O   UNL     1     -39.736 -45.412 104.566  1.00  0.00    -0.550 OA
ENDBRANCH   6   7
ENDBRANCH   5   6
ENDBRANCH   4   5
ENDBRANCH   3   4
ENDBRANCH   2   3
ENDBRANCH   1   2
BRANCH   1  10
ATOM     10  C   UNL     1     -41.618 -40.852 105.477  1.00  0.00     0.027 C 
BRANCH  10  11
ATOM     11  C   UNL     1     -43.090 -41.042 105.216  1.00  0.00    -0.031 C 
ATOM     12  C   UNL     1     -44.070 -40.663 106.057  1.00  0.00    -0.031 C 
BRANCH  12  13
ATOM     13  C   UNL     1     -43.849 -39.911 107.345  1.00  0.00     0.027 C 
BRANCH  13  14
ATOM     14  C   UNL     1     -44.513 -38.532 107.289  1.00  0.00     0.004 C 
BRANCH  14  15
ATOM     15  C   UNL     1     -44.378 -37.913 105.893  1.00  0.00     0.000 C 
BRANCH  15  16
ATOM     16  C   UNL     1     -43.178 -36.961 105.825  1.00  0.00    -0.000 C 
BRANCH  16  17
ATOM     17  C   UNL     1     -43.606 -35.516 106.100  1.00  0.00    -0.003 C 
ATOM     18  C   UNL     1     -43.195 -35.076 107.503  1.00  0.00     0.004 C 
ENDBRANCH  16  17
ENDBRANCH  15  16
ENDBRANCH  14  15
ENDBRANCH  13  14
ENDBRANCH  12  13
ENDBRANCH  10  11
ENDBRANCH   1  10
TORSDOF 13
ENDMDL
