MODEL 1
REMARK VINA RESULT:    -2.687      0.000      0.000
REMARK INTER + INTRA:          -3.278
REMARK INTER:                  -3.236
REMARK INTRA:                  -0.042
REMARK UNBOUND:                -0.042
REMARK SMILES CCCCCO
REMARK SMILES IDX 4 1 3 2 2 3 1 4 5 5 6 6
REMARK H PARENT 6 7
REMARK Flexibility Score: inf
ROOT
ATOM      1  C   UNL     1     162.181 178.153 187.760  1.00  0.00     0.028 C 
ENDROOT
BRANCH   1   2
ATOM      2  C   UNL     1     160.925 177.275 187.625  1.00  0.00     0.002 C 
BRANCH   2   3
ATOM      3  C   UNL     1     160.540 176.498 188.896  1.00  0.00    -0.003 C 
ATOM      4  C   UNL     1     161.046 175.056 188.892  1.00  0.00     0.004 C 
ENDBRANCH   2   3
ENDBRANCH   1   2
BRANCH   1   5
ATOM      5  C   UNL     1     163.437 177.494 187.175  1.00  0.00     0.156 C 
BRANCH   5   6
ATOM      6  O   UNL     1     164.261 178.463 186.585  1.00  0.00    -0.396 OA
ATOM      7  H   UNL     1     164.002 178.512 185.628  1.00  0.00     0.210 HD
ENDBRANCH   5   6
ENDBRANCH   1   5
TORSDOF 4
ENDMDL
MODEL 2
REMARK VINA RESULT:    -2.669     15.221     16.255
REMARK INTER + INTRA:          -3.256
REMARK INTER:                  -3.198
REMARK INTRA:                  -0.059
REMARK UNBOUND:                -0.042
REMARK SMILES CCCCCO
REMARK SMILES IDX 4 1 3 2 2 3 1 4 5 5 6 6
REMARK H PARENT 6 7
REMARK Flexibility Score: inf
ROOT
ATOM      1  C   UNL     1     178.929 174.058 187.462  1.00  0.00     0.028 C 
ENDROOT
BRANCH   1   2
ATOM      2  C   UNL     1     178.698 174.235 188.973  1.00  0.00     0.002 C 
BRANCH   2   3
ATOM      3  C   UNL     1     177.380 174.937 189.347  1.00  0.00    -0.003 C 
ATOM      4  C   UNL     1     176.438 174.048 190.158  1.00  0.00     0.004 C 
ENDBRANCH   2   3
ENDBRANCH   1   2
BRANCH   1   5
ATOM      5  C   UNL     1     177.973 174.900 186.608  1.00  0.00     0.156 C 
BRANCH   5   6
ATOM      6  O   UNL     1     178.699 175.678 185.695  1.00  0.00    -0.396 OA
ATOM      7  H   UNL     1     179.616 175.298 185.664  1.00  0.00     0.210 HD
ENDBRANCH   5   6
ENDBRANCH   1   5
TORSDOF 4
ENDMDL
MODEL 3
REMARK VINA RESULT:    -2.656     20.006     20.744
REMARK INTER + INTRA:          -3.241
REMARK INTER:                  -3.177
REMARK INTRA:                  -0.064
REMARK UNBOUND:                -0.042
REMARK SMILES CCCCCO
REMARK SMILES IDX 4 1 3 2 2 3 1 4 5 5 6 6
REMARK H PARENT 6 7
REMARK Flexibility Score: inf
ROOT
ATOM      1  C   UNL     1     176.661 161.950 187.370  1.00  0.00     0.028 C 
ENDROOT
BRANCH   1   2
ATOM      2  C   UNL     1     176.809 162.159 188.888  1.00  0.00     0.002 C 
BRANCH   2   3
ATOM      3  C   UNL     1     177.152 163.598 189.311  1.00  0.00    -0.003 C 
ATOM      4  C   UNL     1     176.041 164.264 190.121  1.00  0.00     0.004 C 
ENDBRANCH   2   3
ENDBRANCH   1   2
BRANCH   1   5
ATOM      5  C   UNL     1     177.210 163.123 186.548  1.00  0.00     0.156 C 
BRANCH   5   6
ATOM      6  O   UNL     1     178.235 162.681 185.700  1.00  0.00    -0.396 OA
ATOM      7  H   UNL     1     178.630 163.492 185.285  1.00  0.00     0.210 HD
ENDBRANCH   5   6
ENDBRANCH   1   5
TORSDOF 4
ENDMDL
MODEL 4
REMARK VINA RESULT:    -2.632     14.591     15.762
REMARK INTER + INTRA:          -3.212
REMARK INTER:                  -3.158
REMARK INTRA:                  -0.054
REMARK UNBOUND:                -0.042
REMARK SMILES CCCCCO
REMARK SMILES IDX 4 1 3 2 2 3 1 4 5 5 6 6
REMARK H PARENT 6 7
REMARK Flexibility Score: inf
ROOT
ATOM      1  C   UNL     1     176.445 175.785 188.555  1.00  0.00     0.028 C 
ENDROOT
BRANCH   1   2
ATOM      2  C   UNL     1     177.269 174.904 189.512  1.00  0.00     0.002 C 
BRANCH   2   3
ATOM      3  C   UNL     1     178.168 173.865 188.820  1.00  0.00    -0.003 C 
ATOM      4  C   UNL     1     179.659 174.130 189.030  1.00  0.00     0.004 C 
ENDBRANCH   2   3
ENDBRANCH   1   2
BRANCH   1   5
ATOM      5  C   UNL     1     176.759 175.518 187.078  1.00  0.00     0.156 C 
BRANCH   5   6
ATOM      6  O   UNL     1     176.718 176.717 186.352  1.00  0.00    -0.396 OA
ATOM      7  H   UNL     1     175.885 177.184 186.622  1.00  0.00     0.210 HD
ENDBRANCH   5   6
ENDBRANCH   1   5
TORSDOF 4
ENDMDL
MODEL 5
REMARK VINA RESULT:    -2.629     19.936     20.402
REMARK INTER + INTRA:          -3.208
REMARK INTER:                  -3.155
REMARK INTRA:                  -0.053
REMARK UNBOUND:                -0.042
REMARK SMILES CCCCCO
REMARK SMILES IDX 4 1 3 2 2 3 1 4 5 5 6 6
REMARK H PARENT 6 7
REMARK Flexibility Score: inf
ROOT
ATOM      1  C   UNL     1     177.568 164.983 188.510  1.00  0.00     0.028 C 
ENDROOT
BRANCH   1   2
ATOM      2  C   UNL     1     177.181 163.862 189.492  1.00  0.00     0.002 C 
BRANCH   2   3
ATOM      3  C   UNL     1     176.360 162.717 188.874  1.00  0.00    -0.003 C 
ATOM      4  C   UNL     1     177.043 161.356 189.000  1.00  0.00     0.004 C 
ENDBRANCH   2   3
ENDBRANCH   1   2
BRANCH   1   5
ATOM      5  C   UNL     1     177.497 164.542 187.042  1.00  0.00     0.156 C 
BRANCH   5   6
ATOM      6  O   UNL     1     178.654 164.948 186.361  1.00  0.00    -0.396 OA
ATOM      7  H   UNL     1     179.360 165.074 187.048  1.00  0.00     0.210 HD
ENDBRANCH   5   6
ENDBRANCH   1   5
TORSDOF 4
ENDMDL
MODEL 6
REMARK VINA RESULT:    -2.619      5.594      6.012
REMARK INTER + INTRA:          -3.197
REMARK INTER:                  -3.150
REMARK INTRA:                  -0.046
REMARK UNBOUND:                -0.042
REMARK SMILES CCCCCO
REMARK SMILES IDX 4 1 3 2 2 3 1 4 5 5 6 6
REMARK H PARENT 6 7
REMARK Flexibility Score: inf
ROOT
ATOM      1  C   UNL     1     168.027 180.072 187.513  1.00  0.00     0.028 C 
ENDROOT
BRANCH   1   2
ATOM      2  C   UNL     1     168.258 179.425 188.890  1.00  0.00     0.002 C 
BRANCH   2   3
ATOM      3  C   UNL     1     166.994 178.856 189.557  1.00  0.00    -0.003 C 
ATOM      4  C   UNL     1     167.232 177.508 190.237  1.00  0.00     0.004 C 
ENDBRANCH   2   3
ENDBRANCH   1   2
BRANCH   1   5
ATOM      5  C   UNL     1     167.057 179.274 186.633  1.00  0.00     0.156 C 
BRANCH   5   6
ATOM      6  O   UNL     1     166.503 180.105 185.648  1.00  0.00    -0.396 OA
ATOM      7  H   UNL     1     165.517 180.020 185.726  1.00  0.00     0.210 HD
ENDBRANCH   5   6
ENDBRANCH   1   5
TORSDOF 4
ENDMDL
MODEL 7
REMARK VINA RESULT:    -2.576     13.879     14.481
REMARK INTER + INTRA:          -3.145
REMARK INTER:                  -3.103
REMARK INTRA:                  -0.041
REMARK UNBOUND:                -0.042
REMARK SMILES CCCCCO
REMARK SMILES IDX 4 1 3 2 2 3 1 4 5 5 6 6
REMARK H PARENT 6 7
REMARK Flexibility Score: inf
ROOT
ATOM      1  C   UNL     1     176.621 175.320 188.121  1.00  0.00     0.028 C 
ENDROOT
BRANCH   1   2
ATOM      2  C   UNL     1     177.092 175.216 189.583  1.00  0.00     0.002 C 
BRANCH   2   3
ATOM      3  C   UNL     1     176.403 174.114 190.406  1.00  0.00    -0.003 C 
ATOM      4  C   UNL     1     175.266 173.426 189.651  1.00  0.00     0.004 C 
ENDBRANCH   2   3
ENDBRANCH   1   2
BRANCH   1   5
ATOM      5  C   UNL     1     175.951 176.663 187.803  1.00  0.00     0.156 C 
BRANCH   5   6
ATOM      6  O   UNL     1     176.409 177.151 186.571  1.00  0.00    -0.396 OA
ATOM      7  H   UNL     1     176.013 178.055 186.458  1.00  0.00     0.210 HD
ENDBRANCH   5   6
ENDBRANCH   1   5
TORSDOF 4
ENDMDL
MODEL 8
REMARK VINA RESULT:    -2.559     16.635     17.610
REMARK INTER + INTRA:          -3.125
REMARK INTER:                  -3.115
REMARK INTRA:                  -0.009
REMARK UNBOUND:                -0.042
REMARK SMILES CCCCCO
REMARK SMILES IDX 4 1 3 2 2 3 1 4 5 5 6 6
REMARK H PARENT 6 7
REMARK Flexibility Score: inf
ROOT
ATOM      1  C   UNL     1     178.665 174.305 187.185  1.00  0.00     0.028 C 
ENDROOT
BRANCH   1   2
ATOM      2  C   UNL     1     179.425 172.969 187.114  1.00  0.00     0.002 C 
BRANCH   2   3
ATOM      3  C   UNL     1     179.893 172.418 188.472  1.00  0.00    -0.003 C 
ATOM      4  C   UNL     1     179.797 170.895 188.565  1.00  0.00     0.004 C 
ENDBRANCH   2   3
ENDBRANCH   1   2
BRANCH   1   5
ATOM      5  C   UNL     1     178.203 174.805 185.811  1.00  0.00     0.156 C 
BRANCH   5   6
ATOM      6  O   UNL     1     179.000 175.881 185.395  1.00  0.00    -0.396 OA
ATOM      7  H   UNL     1     178.381 176.624 185.172  1.00  0.00     0.210 HD
ENDBRANCH   5   6
ENDBRANCH   1   5
TORSDOF 4
ENDMDL
