MODEL 1
REMARK VINA RESULT:    -7.396      0.000      0.000
REMARK INTER + INTRA:         -12.259
REMARK INTER:                 -10.855
REMARK INTRA:                  -1.403
REMARK UNBOUND:                -1.403
REMARK SMILES O=c1c(O[C@@H]2O[C@H](CO)[C@@H](O)[C@@H](O)[C@H]2O)c(-c2ccc(O)c(O)c2)oc2cc(O)cc(O)c12
REMARK SMILES IDX 4 1 3 2 16 3 25 4 2 5 26 6 1 7 33 8 27 9 31 10 28 11 30 12
REMARK SMILES IDX 17 13 18 14 19 15 20 16 24 17 22 18 21 19 23 21 32 23 29 25
REMARK SMILES IDX 5 27 14 28 6 29 12 30 7 31 10 32 15 33 13 35 8 37 9 38 11 40
REMARK H PARENT 21 20 23 22 32 24 29 26 15 34 13 36 9 39 11 41
REMARK Flexibility Score: inf
ROOT
ATOM      1  O   UNL     1      -4.288   6.184  13.519  1.00  0.00    -0.454 OA
ENDROOT
BRANCH   1   2
ATOM      2  C   UNL     1      -5.337   6.874  12.836  1.00  0.00     0.214 A 
ATOM      3  C   UNL     1      -5.507   8.273  12.936  1.00  0.00     0.180 A 
ATOM      4  O   UNL     1      -6.735   8.686  13.380  1.00  0.00    -0.452 OA
ATOM      5  C   UNL     1      -6.472   6.170  12.497  1.00  0.00     0.239 A 
ATOM      6  C   UNL     1      -7.763   7.782  13.600  1.00  0.00     0.146 A 
ATOM      7  O   UNL     1      -6.829   6.168  11.296  1.00  0.00    -0.285 OA
ATOM      8  C   UNL     1      -7.452   6.409  13.436  1.00  0.00     0.111 A 
ATOM      9  C   UNL     1      -9.073   8.142  13.863  1.00  0.00     0.094 A 
ATOM     10  C   UNL     1      -8.447   5.440  13.627  1.00  0.00     0.134 A 
ATOM     11  C   UNL     1     -10.002   7.183  13.376  1.00  0.00     0.123 A 
ATOM     12  C   UNL     1      -9.764   5.860  13.837  1.00  0.00     0.093 A 
BRANCH   3  13
ATOM     13  C   UNL     1      -4.695   9.175  12.023  1.00  0.00     0.025 A 
ATOM     14  C   UNL     1      -4.435   8.765  10.622  1.00  0.00     0.016 A 
ATOM     15  C   UNL     1      -3.338   9.251   9.893  1.00  0.00     0.051 A 
ATOM     16  C   UNL     1      -2.502  10.120  10.608  1.00  0.00     0.157 A 
ATOM     17  C   UNL     1      -3.775  10.046  12.662  1.00  0.00     0.062 A 
ATOM     18  C   UNL     1      -2.536  10.189  12.010  1.00  0.00     0.158 A 
BRANCH  16  19
ATOM     19  O   UNL     1      -1.770  11.053   9.886  1.00  0.00    -0.504 OA
ATOM     20  H   UNL     1      -0.824  10.805   9.640  1.00  0.00     0.293 HD
ENDBRANCH  16  19
BRANCH  18  21
ATOM     21  O   UNL     1      -1.371   9.853  12.746  1.00  0.00    -0.504 OA
ATOM     22  H   UNL     1      -0.458   9.987  12.318  1.00  0.00     0.293 HD
ENDBRANCH  18  21
ENDBRANCH   3  13
BRANCH  10  23
ATOM     23  O   UNL     1      -8.096   4.121  13.356  1.00  0.00    -0.507 OA
ATOM     24  H   UNL     1      -8.035   3.722  12.421  1.00  0.00     0.293 HD
ENDBRANCH  10  23
BRANCH  11  25
ATOM     25  O   UNL     1     -10.125   7.148  11.988  1.00  0.00    -0.508 OA
ATOM     26  H   UNL     1     -10.594   6.365  11.537  1.00  0.00     0.293 HD
ENDBRANCH  11  25
ENDBRANCH   1   2
BRANCH   1  27
ATOM     27  C   UNL     1      -4.435   5.450  14.704  1.00  0.00     0.339 C 
ATOM     28  C   UNL     1      -3.275   4.606  15.296  1.00  0.00     0.214 C 
ATOM     29  O   UNL     1      -4.849   6.336  15.766  1.00  0.00    -0.332 OA
ATOM     30  C   UNL     1      -3.667   4.022  16.711  1.00  0.00     0.180 C 
ATOM     31  C   UNL     1      -5.779   5.632  16.581  1.00  0.00     0.179 C 
ATOM     32  C   UNL     1      -5.199   4.263  17.107  1.00  0.00     0.177 C 
BRANCH  28  33
ATOM     33  O   UNL     1      -2.882   3.625  14.372  1.00  0.00    -0.384 OA
ATOM     34  H   UNL     1      -3.655   2.986  14.233  1.00  0.00     0.211 HD
ENDBRANCH  28  33
BRANCH  30  35
ATOM     35  O   UNL     1      -3.353   2.662  16.794  1.00  0.00    -0.387 OA
ATOM     36  H   UNL     1      -2.777   2.425  16.019  1.00  0.00     0.211 HD
ENDBRANCH  30  35
BRANCH  31  37
ATOM     37  C   UNL     1      -6.298   6.590  17.669  1.00  0.00     0.191 C 
BRANCH  37  38
ATOM     38  O   UNL     1      -6.361   5.871  18.882  1.00  0.00    -0.394 OA
ATOM     39  H   UNL     1      -5.780   5.052  18.756  1.00  0.00     0.210 HD
ENDBRANCH  37  38
ENDBRANCH  31  37
BRANCH  32  40
ATOM     40  O   UNL     1      -5.991   3.193  16.623  1.00  0.00    -0.387 OA
ATOM     41  H   UNL     1      -6.908   3.545  16.481  1.00  0.00     0.211 HD
ENDBRANCH  32  40
ENDBRANCH   1  27
TORSDOF 12
ENDMDL
MODEL 2
REMARK VINA RESULT:    -7.283      1.574      1.992
REMARK INTER + INTRA:         -12.092
REMARK INTER:                 -10.462
REMARK INTRA:                  -1.631
REMARK UNBOUND:                -1.403
REMARK SMILES O=c1c(O[C@@H]2O[C@H](CO)[C@@H](O)[C@@H](O)[C@H]2O)c(-c2ccc(O)c(O)c2)oc2cc(O)cc(O)c12
REMARK SMILES IDX 4 1 3 2 16 3 25 4 2 5 26 6 1 7 33 8 27 9 31 10 28 11 30 12
REMARK SMILES IDX 17 13 18 14 19 15 20 16 24 17 22 18 21 19 23 21 32 23 29 25
REMARK SMILES IDX 5 27 14 28 6 29 12 30 7 31 10 32 15 33 13 35 8 37 9 38 11 40
REMARK H PARENT 21 20 23 22 32 24 29 26 15 34 13 36 9 39 11 41
REMARK Flexibility Score: inf
ROOT
ATOM      1  O   UNL     1      -4.403   5.160  13.325  1.00  0.00    -0.454 OA
ENDROOT
BRANCH   1   2
ATOM      2  C   UNL     1      -5.307   6.265  13.244  1.00  0.00     0.214 A 
ATOM      3  C   UNL     1      -5.041   7.502  13.875  1.00  0.00     0.180 A 
ATOM      4  O   UNL     1      -5.999   7.931  14.753  1.00  0.00    -0.452 OA
ATOM      5  C   UNL     1      -6.638   6.007  13.001  1.00  0.00     0.239 A 
ATOM      6  C   UNL     1      -7.193   7.243  14.911  1.00  0.00     0.146 A 
ATOM      7  O   UNL     1      -7.180   6.572  12.024  1.00  0.00    -0.285 OA
ATOM      8  C   UNL     1      -7.329   6.029  14.193  1.00  0.00     0.111 A 
ATOM      9  C   UNL     1      -8.276   7.717  15.631  1.00  0.00     0.094 A 
ATOM     10  C   UNL     1      -8.516   5.288  14.293  1.00  0.00     0.134 A 
ATOM     11  C   UNL     1      -9.513   7.253  15.109  1.00  0.00     0.123 A 
ATOM     12  C   UNL     1      -9.596   5.839  14.988  1.00  0.00     0.093 A 
BRANCH   3  13
ATOM     13  C   UNL     1      -4.170   8.517  13.156  1.00  0.00     0.025 A 
ATOM     14  C   UNL     1      -3.901   8.362  11.707  1.00  0.00     0.016 A 
ATOM     15  C   UNL     1      -2.767   8.921  11.093  1.00  0.00     0.051 A 
ATOM     16  C   UNL     1      -1.907   9.600  11.968  1.00  0.00     0.157 A 
ATOM     17  C   UNL     1      -3.224   9.208  13.957  1.00  0.00     0.062 A 
ATOM     18  C   UNL     1      -1.968   9.410  13.358  1.00  0.00     0.158 A 
BRANCH  16  19
ATOM     19  O   UNL     1      -1.120  10.615  11.441  1.00  0.00    -0.504 OA
ATOM     20  H   UNL     1      -0.822  10.515  10.482  1.00  0.00     0.293 HD
ENDBRANCH  16  19
BRANCH  18  21
ATOM     21  O   UNL     1      -0.834   8.886  14.032  1.00  0.00    -0.504 OA
ATOM     22  H   UNL     1      -0.683   9.127  15.009  1.00  0.00     0.293 HD
ENDBRANCH  18  21
ENDBRANCH   3  13
BRANCH  10  23
ATOM     23  O   UNL     1      -8.617   4.157  13.488  1.00  0.00    -0.507 OA
ATOM     24  H   UNL     1      -8.304   4.111  12.520  1.00  0.00     0.293 HD
ENDBRANCH  10  23
BRANCH  11  25
ATOM     25  O   UNL     1      -9.877   7.819  13.888  1.00  0.00    -0.508 OA
ATOM     26  H   UNL     1     -10.571   7.361  13.301  1.00  0.00     0.293 HD
ENDBRANCH  11  25
ENDBRANCH   1   2
BRANCH   1  27
ATOM     27  C   UNL     1      -3.760   4.720  14.491  1.00  0.00     0.339 C 
ATOM     28  C   UNL     1      -2.841   5.652  15.323  1.00  0.00     0.214 C 
ATOM     29  O   UNL     1      -4.746   4.219  15.419  1.00  0.00    -0.332 OA
ATOM     30  C   UNL     1      -2.386   4.948  16.662  1.00  0.00     0.180 C 
ATOM     31  C   UNL     1      -4.190   3.085  16.073  1.00  0.00     0.179 C 
ATOM     32  C   UNL     1      -2.803   3.405  16.753  1.00  0.00     0.177 C 
BRANCH  28  33
ATOM     33  O   UNL     1      -1.771   6.097  14.529  1.00  0.00    -0.384 OA
ATOM     34  H   UNL     1      -1.075   5.363  14.487  1.00  0.00     0.211 HD
ENDBRANCH  28  33
BRANCH  30  35
ATOM     35  O   UNL     1      -1.008   5.089  16.857  1.00  0.00    -0.387 OA
ATOM     36  H   UNL     1      -0.545   4.361  16.364  1.00  0.00     0.211 HD
ENDBRANCH  30  35
BRANCH  31  37
ATOM     37  C   UNL     1      -5.258   2.486  17.004  1.00  0.00     0.191 C 
BRANCH  37  38
ATOM     38  O   UNL     1      -5.657   3.494  17.908  1.00  0.00    -0.394 OA
ATOM     39  H   UNL     1      -4.805   3.899  18.274  1.00  0.00     0.210 HD
ENDBRANCH  37  38
ENDBRANCH  31  37
BRANCH  32  40
ATOM     40  O   UNL     1      -1.791   2.602  16.173  1.00  0.00    -0.387 OA
ATOM     41  H   UNL     1      -2.182   1.704  16.013  1.00  0.00     0.211 HD
ENDBRANCH  32  40
ENDBRANCH   1  27
TORSDOF 12
ENDMDL
MODEL 3
REMARK VINA RESULT:    -6.774      2.337      6.250
REMARK INTER + INTRA:         -11.345
REMARK INTER:                 -10.123
REMARK INTRA:                  -1.222
REMARK UNBOUND:                -1.403
REMARK SMILES O=c1c(O[C@@H]2O[C@H](CO)[C@@H](O)[C@@H](O)[C@H]2O)c(-c2ccc(O)c(O)c2)oc2cc(O)cc(O)c12
REMARK SMILES IDX 4 1 3 2 16 3 25 4 2 5 26 6 1 7 33 8 27 9 31 10 28 11 30 12
REMARK SMILES IDX 17 13 18 14 19 15 20 16 24 17 22 18 21 19 23 21 32 23 29 25
REMARK SMILES IDX 5 27 14 28 6 29 12 30 7 31 10 32 15 33 13 35 8 37 9 38 11 40
REMARK H PARENT 21 20 23 22 32 24 29 26 15 34 13 36 9 39 11 41
REMARK Flexibility Score: inf
ROOT
ATOM      1  O   UNL     1      -5.957   5.804  12.612  1.00  0.00    -0.454 OA
ENDROOT
BRANCH   1   2
ATOM      2  C   UNL     1      -5.012   6.473  13.449  1.00  0.00     0.214 A 
ATOM      3  C   UNL     1      -4.805   6.099  14.797  1.00  0.00     0.180 A 
ATOM      4  O   UNL     1      -4.984   7.096  15.717  1.00  0.00    -0.452 OA
ATOM      5  C   UNL     1      -4.668   7.771  13.143  1.00  0.00     0.239 A 
ATOM      6  C   UNL     1      -5.238   8.402  15.325  1.00  0.00     0.146 A 
ATOM      7  O   UNL     1      -3.455   8.039  12.985  1.00  0.00    -0.285 OA
ATOM      8  C   UNL     1      -5.396   8.632  13.936  1.00  0.00     0.111 A 
ATOM      9  C   UNL     1      -5.240   9.487  16.185  1.00  0.00     0.094 A 
ATOM     10  C   UNL     1      -5.639   9.931  13.467  1.00  0.00     0.134 A 
ATOM     11  C   UNL     1      -4.832  10.685  15.540  1.00  0.00     0.123 A 
ATOM     12  C   UNL     1      -5.577  10.996  14.370  1.00  0.00     0.093 A 
BRANCH   3  13
ATOM     13  C   UNL     1      -3.850   4.957  15.100  1.00  0.00     0.025 A 
ATOM     14  C   UNL     1      -4.321   3.794  15.890  1.00  0.00     0.016 A 
ATOM     15  C   UNL     1      -3.437   2.977  16.615  1.00  0.00     0.051 A 
ATOM     16  C   UNL     1      -2.094   3.374  16.554  1.00  0.00     0.157 A 
ATOM     17  C   UNL     1      -2.470   5.285  15.120  1.00  0.00     0.062 A 
ATOM     18  C   UNL     1      -1.724   4.664  16.139  1.00  0.00     0.158 A 
BRANCH  16  19
ATOM     19  O   UNL     1      -1.123   2.398  16.729  1.00  0.00    -0.504 OA
ATOM     20  H   UNL     1      -1.428   1.436  16.705  1.00  0.00     0.293 HD
ENDBRANCH  16  19
BRANCH  18  21
ATOM     21  O   UNL     1      -1.032   5.508  17.045  1.00  0.00    -0.504 OA
ATOM     22  H   UNL     1      -0.350   5.100  17.681  1.00  0.00     0.293 HD
ENDBRANCH  18  21
ENDBRANCH   3  13
BRANCH  10  23
ATOM     23  O   UNL     1      -5.689  10.097  12.085  1.00  0.00    -0.507 OA
ATOM     24  H   UNL     1      -5.240  10.860  11.581  1.00  0.00     0.293 HD
ENDBRANCH  10  23
BRANCH  11  25
ATOM     25  O   UNL     1      -3.476  10.740  15.223  1.00  0.00    -0.508 OA
ATOM     26  H   UNL     1      -2.885  11.460  15.634  1.00  0.00     0.293 HD
ENDBRANCH  11  25
ENDBRANCH   1   2
BRANCH   1  27
ATOM     27  C   UNL     1      -7.256   6.251  12.333  1.00  0.00     0.339 C 
ATOM     28  C   UNL     1      -7.888   6.111  10.923  1.00  0.00     0.214 C 
ATOM     29  O   UNL     1      -8.184   5.615  13.238  1.00  0.00    -0.332 OA
ATOM     30  C   UNL     1      -9.408   6.546  10.940  1.00  0.00     0.180 C 
ATOM     31  C   UNL     1      -9.176   6.573  13.589  1.00  0.00     0.179 C 
ATOM     32  C   UNL     1      -9.876   7.202  12.323  1.00  0.00     0.177 C 
BRANCH  28  33
ATOM     33  O   UNL     1      -7.113   6.810   9.984  1.00  0.00    -0.384 OA
ATOM     34  H   UNL     1      -6.890   7.721  10.364  1.00  0.00     0.211 HD
ENDBRANCH  28  33
BRANCH  30  35
ATOM     35  O   UNL     1      -9.692   7.406   9.875  1.00  0.00    -0.387 OA
ATOM     36  H   UNL     1      -9.166   7.112   9.084  1.00  0.00     0.211 HD
ENDBRANCH  30  35
BRANCH  31  37
ATOM     37  C   UNL     1     -10.125   5.938  14.621  1.00  0.00     0.191 C 
BRANCH  37  38
ATOM     38  O   UNL     1      -9.989   6.654  15.829  1.00  0.00    -0.394 OA
ATOM     39  H   UNL     1     -10.288   6.026  16.565  1.00  0.00     0.210 HD
ENDBRANCH  37  38
ENDBRANCH  31  37
BRANCH  32  40
ATOM     40  O   UNL     1      -9.641   8.598  12.292  1.00  0.00    -0.387 OA
ATOM     41  H   UNL     1      -8.660   8.731  12.228  1.00  0.00     0.211 HD
ENDBRANCH  32  40
ENDBRANCH   1  27
TORSDOF 12
ENDMDL
MODEL 4
REMARK VINA RESULT:    -6.643      1.882      6.400
REMARK INTER + INTRA:         -11.154
REMARK INTER:                  -9.768
REMARK INTRA:                  -1.386
REMARK UNBOUND:                -1.403
REMARK SMILES O=c1c(O[C@@H]2O[C@H](CO)[C@@H](O)[C@@H](O)[C@H]2O)c(-c2ccc(O)c(O)c2)oc2cc(O)cc(O)c12
REMARK SMILES IDX 4 1 3 2 16 3 25 4 2 5 26 6 1 7 33 8 27 9 31 10 28 11 30 12
REMARK SMILES IDX 17 13 18 14 19 15 20 16 24 17 22 18 21 19 23 21 32 23 29 25
REMARK SMILES IDX 5 27 14 28 6 29 12 30 7 31 10 32 15 33 13 35 8 37 9 38 11 40
REMARK H PARENT 21 20 23 22 32 24 29 26 15 34 13 36 9 39 11 41
REMARK Flexibility Score: inf
ROOT
ATOM      1  O   UNL     1      -2.925   6.844  14.280  1.00  0.00    -0.454 OA
ENDROOT
BRANCH   1   2
ATOM      2  C   UNL     1      -3.938   6.187  15.045  1.00  0.00     0.214 A 
ATOM      3  C   UNL     1      -4.298   4.839  14.815  1.00  0.00     0.180 A 
ATOM      4  O   UNL     1      -5.620   4.624  14.535  1.00  0.00    -0.452 OA
ATOM      5  C   UNL     1      -4.910   6.957  15.644  1.00  0.00     0.239 A 
ATOM      6  C   UNL     1      -6.547   5.654  14.593  1.00  0.00     0.146 A 
ATOM      7  O   UNL     1      -5.079   6.838  16.879  1.00  0.00    -0.285 OA
ATOM      8  C   UNL     1      -6.043   6.951  14.859  1.00  0.00     0.111 A 
ATOM      9  C   UNL     1      -7.917   5.475  14.510  1.00  0.00     0.094 A 
ATOM     10  C   UNL     1      -6.924   8.038  14.946  1.00  0.00     0.134 A 
ATOM     11  C   UNL     1      -8.632   6.454  15.250  1.00  0.00     0.123 A 
ATOM     12  C   UNL     1      -8.300   7.794  14.911  1.00  0.00     0.093 A 
BRANCH   3  13
ATOM     13  C   UNL     1      -3.478   3.742  15.472  1.00  0.00     0.025 A 
ATOM     14  C   UNL     1      -4.013   3.035  16.660  1.00  0.00     0.016 A 
ATOM     15  C   UNL     1      -3.175   2.398  17.590  1.00  0.00     0.051 A 
ATOM     16  C   UNL     1      -1.805   2.520  17.318  1.00  0.00     0.157 A 
ATOM     17  C   UNL     1      -2.072   3.823  15.299  1.00  0.00     0.062 A 
ATOM     18  C   UNL     1      -1.311   3.495  16.436  1.00  0.00     0.158 A 
BRANCH  16  19
ATOM     19  O   UNL     1      -0.961   1.526  17.794  1.00  0.00    -0.504 OA
ATOM     20  H   UNL     1      -0.819   1.482  18.793  1.00  0.00     0.293 HD
ENDBRANCH  16  19
BRANCH  18  21
ATOM     21  O   UNL     1      -0.419   4.482  16.928  1.00  0.00    -0.504 OA
ATOM     22  H   UNL     1      -0.462   4.745  17.910  1.00  0.00     0.293 HD
ENDBRANCH  18  21
ENDBRANCH   3  13
BRANCH  10  23
ATOM     23  O   UNL     1      -6.371   9.264  15.304  1.00  0.00    -0.507 OA
ATOM     24  H   UNL     1      -6.730   9.862  16.046  1.00  0.00     0.293 HD
ENDBRANCH  10  23
BRANCH  11  25
ATOM     25  O   UNL     1      -8.539   6.318  16.635  1.00  0.00    -0.508 OA
ATOM     26  H   UNL     1      -7.793   6.787  17.144  1.00  0.00     0.293 HD
ENDBRANCH  11  25
ENDBRANCH   1   2
BRANCH   1  27
ATOM     27  C   UNL     1      -3.128   7.947  13.439  1.00  0.00     0.339 C 
ATOM     28  C   UNL     1      -1.944   8.750  12.838  1.00  0.00     0.214 C 
ATOM     29  O   UNL     1      -3.934   7.543  12.311  1.00  0.00    -0.332 OA
ATOM     30  C   UNL     1      -2.460   9.828  11.804  1.00  0.00     0.180 C 
ATOM     31  C   UNL     1      -4.818   8.615  12.003  1.00  0.00     0.179 C 
ATOM     32  C   UNL     1      -4.053   9.974  11.766  1.00  0.00     0.177 C 
BRANCH  28  33
ATOM     33  O   UNL     1      -1.164   9.291  13.873  1.00  0.00    -0.384 OA
ATOM     34  H   UNL     1      -0.305   9.649  13.475  1.00  0.00     0.211 HD
ENDBRANCH  28  33
BRANCH  30  35
ATOM     35  O   UNL     1      -1.865  11.071  12.041  1.00  0.00    -0.387 OA
ATOM     36  H   UNL     1      -1.216  10.972  12.787  1.00  0.00     0.211 HD
ENDBRANCH  30  35
BRANCH  31  37
ATOM     37  C   UNL     1      -5.744   8.170  10.858  1.00  0.00     0.191 C 
BRANCH  37  38
ATOM     38  O   UNL     1      -6.999   7.847  11.418  1.00  0.00    -0.394 OA
ATOM     39  H   UNL     1      -6.913   8.007  12.414  1.00  0.00     0.210 HD
ENDBRANCH  37  38
ENDBRANCH  31  37
BRANCH  32  40
ATOM     40  O   UNL     1      -4.468  10.928  12.726  1.00  0.00    -0.387 OA
ATOM     41  H   UNL     1      -4.174  10.600  13.615  1.00  0.00     0.211 HD
ENDBRANCH  32  40
ENDBRANCH   1  27
TORSDOF 12
ENDMDL
MODEL 5
REMARK VINA RESULT:    -6.560      1.785      6.465
REMARK INTER + INTRA:         -11.032
REMARK INTER:                  -9.630
REMARK INTRA:                  -1.402
REMARK UNBOUND:                -1.403
REMARK SMILES O=c1c(O[C@@H]2O[C@H](CO)[C@@H](O)[C@@H](O)[C@H]2O)c(-c2ccc(O)c(O)c2)oc2cc(O)cc(O)c12
REMARK SMILES IDX 4 1 3 2 16 3 25 4 2 5 26 6 1 7 33 8 27 9 31 10 28 11 30 12
REMARK SMILES IDX 17 13 18 14 19 15 20 16 24 17 22 18 21 19 23 21 32 23 29 25
REMARK SMILES IDX 5 27 14 28 6 29 12 30 7 31 10 32 15 33 13 35 8 37 9 38 11 40
REMARK H PARENT 21 20 23 22 32 24 29 26 15 34 13 36 9 39 11 41
REMARK Flexibility Score: inf
ROOT
ATOM      1  O   UNL     1      -3.897   7.365  13.802  1.00  0.00    -0.454 OA
ENDROOT
BRANCH   1   2
ATOM      2  C   UNL     1      -4.951   6.948  14.673  1.00  0.00     0.214 A 
ATOM      3  C   UNL     1      -5.267   5.585  14.872  1.00  0.00     0.180 A 
ATOM      4  O   UNL     1      -6.561   5.236  14.595  1.00  0.00    -0.452 OA
ATOM      5  C   UNL     1      -5.978   7.830  14.928  1.00  0.00     0.239 A 
ATOM      6  C   UNL     1      -7.509   6.190  14.257  1.00  0.00     0.146 A 
ATOM      7  O   UNL     1      -6.234   8.108  16.122  1.00  0.00    -0.285 OA
ATOM      8  C   UNL     1      -7.050   7.524  14.118  1.00  0.00     0.111 A 
ATOM      9  C   UNL     1      -8.866   5.938  14.152  1.00  0.00     0.094 A 
ATOM     10  C   UNL     1      -7.956   8.543  13.793  1.00  0.00     0.134 A 
ATOM     11  C   UNL     1      -9.651   7.073  14.487  1.00  0.00     0.123 A 
ATOM     12  C   UNL     1      -9.321   8.244  13.752  1.00  0.00     0.093 A 
BRANCH   3  13
ATOM     13  C   UNL     1      -4.477   4.793  15.899  1.00  0.00     0.025 A 
ATOM     14  C   UNL     1      -3.121   4.297  15.563  1.00  0.00     0.016 A 
ATOM     15  C   UNL     1      -2.548   3.192  16.214  1.00  0.00     0.051 A 
ATOM     16  C   UNL     1      -3.374   2.587  17.172  1.00  0.00     0.157 A 
ATOM     17  C   UNL     1      -5.239   4.097  16.873  1.00  0.00     0.062 A 
ATOM     18  C   UNL     1      -4.760   2.815  17.201  1.00  0.00     0.158 A 
BRANCH  16  19
ATOM     19  O   UNL     1      -2.763   1.904  18.214  1.00  0.00    -0.504 OA
ATOM     20  H   UNL     1      -3.339   1.274  18.751  1.00  0.00     0.293 HD
ENDBRANCH  16  19
BRANCH  18  21
ATOM     21  O   UNL     1      -5.643   1.722  17.010  1.00  0.00    -0.504 OA
ATOM     22  H   UNL     1      -6.267   1.722  16.206  1.00  0.00     0.293 HD
ENDBRANCH  18  21
ENDBRANCH   3  13
BRANCH  10  23
ATOM     23  O   UNL     1      -7.454   9.841  13.767  1.00  0.00    -0.507 OA
ATOM     24  H   UNL     1      -6.476  10.077  13.607  1.00  0.00     0.293 HD
ENDBRANCH  10  23
BRANCH  11  25
ATOM     25  O   UNL     1      -9.657   7.395  15.844  1.00  0.00    -0.508 OA
ATOM     26  H   UNL     1      -9.064   8.145  16.192  1.00  0.00     0.293 HD
ENDBRANCH  11  25
ENDBRANCH   1   2
BRANCH   1  27
ATOM     27  C   UNL     1      -4.068   7.905  12.519  1.00  0.00     0.339 C 
ATOM     28  C   UNL     1      -2.873   8.444  11.689  1.00  0.00     0.214 C 
ATOM     29  O   UNL     1      -4.719   6.931  11.675  1.00  0.00    -0.332 OA
ATOM     30  C   UNL     1      -3.332   8.838  10.229  1.00  0.00     0.180 C 
ATOM     31  C   UNL     1      -5.624   7.628  10.826  1.00  0.00     0.179 C 
ATOM     32  C   UNL     1      -4.917   8.781  10.014  1.00  0.00     0.177 C 
BRANCH  28  33
ATOM     33  O   UNL     1      -2.245   9.490  12.384  1.00  0.00    -0.384 OA
ATOM     34  H   UNL     1      -1.773   9.103  13.191  1.00  0.00     0.211 HD
ENDBRANCH  28  33
BRANCH  30  35
ATOM     35  O   UNL     1      -2.840  10.098   9.875  1.00  0.00    -0.387 OA
ATOM     36  H   UNL     1      -1.946  10.216  10.296  1.00  0.00     0.211 HD
ENDBRANCH  30  35
BRANCH  31  37
ATOM     37  C   UNL     1      -6.389   6.597   9.978  1.00  0.00     0.191 C 
BRANCH  37  38
ATOM     38  O   UNL     1      -6.922   5.628  10.855  1.00  0.00    -0.394 OA
ATOM     39  H   UNL     1      -7.903   5.852  10.963  1.00  0.00     0.210 HD
ENDBRANCH  37  38
ENDBRANCH  31  37
BRANCH  32  40
ATOM     40  O   UNL     1      -5.490  10.029  10.360  1.00  0.00    -0.387 OA
ATOM     41  H   UNL     1      -4.760  10.602  10.711  1.00  0.00     0.211 HD
ENDBRANCH  32  40
ENDBRANCH   1  27
TORSDOF 12
ENDMDL
MODEL 6
REMARK VINA RESULT:    -6.404      1.920      6.236
REMARK INTER + INTRA:         -10.803
REMARK INTER:                  -9.519
REMARK INTRA:                  -1.284
REMARK UNBOUND:                -1.403
REMARK SMILES O=c1c(O[C@@H]2O[C@H](CO)[C@@H](O)[C@@H](O)[C@H]2O)c(-c2ccc(O)c(O)c2)oc2cc(O)cc(O)c12
REMARK SMILES IDX 4 1 3 2 16 3 25 4 2 5 26 6 1 7 33 8 27 9 31 10 28 11 30 12
REMARK SMILES IDX 17 13 18 14 19 15 20 16 24 17 22 18 21 19 23 21 32 23 29 25
REMARK SMILES IDX 5 27 14 28 6 29 12 30 7 31 10 32 15 33 13 35 8 37 9 38 11 40
REMARK H PARENT 21 20 23 22 32 24 29 26 15 34 13 36 9 39 11 41
REMARK Flexibility Score: inf
ROOT
ATOM      1  O   UNL     1      -5.504   7.311  15.098  1.00  0.00    -0.454 OA
ENDROOT
BRANCH   1   2
ATOM      2  C   UNL     1      -4.449   7.172  14.144  1.00  0.00     0.214 A 
ATOM      3  C   UNL     1      -3.099   7.018  14.532  1.00  0.00     0.180 A 
ATOM      4  O   UNL     1      -2.232   7.949  14.026  1.00  0.00    -0.452 OA
ATOM      5  C   UNL     1      -4.639   7.683  12.878  1.00  0.00     0.239 A 
ATOM      6  C   UNL     1      -2.650   8.899  13.106  1.00  0.00     0.146 A 
ATOM      7  O   UNL     1      -4.492   6.912  11.902  1.00  0.00    -0.285 OA
ATOM      8  C   UNL     1      -4.032   8.918  12.792  1.00  0.00     0.111 A 
ATOM      9  C   UNL     1      -1.797   9.741  12.414  1.00  0.00     0.094 A 
ATOM     10  C   UNL     1      -4.522   9.841  11.858  1.00  0.00     0.134 A 
ATOM     11  C   UNL     1      -2.302  10.080  11.130  1.00  0.00     0.123 A 
ATOM     12  C   UNL     1      -3.612  10.630  11.149  1.00  0.00     0.093 A 
BRANCH   3  13
ATOM     13  C   UNL     1      -2.593   5.629  14.881  1.00  0.00     0.025 A 
ATOM     14  C   UNL     1      -3.540   4.604  15.380  1.00  0.00     0.016 A 
ATOM     15  C   UNL     1      -3.120   3.517  16.164  1.00  0.00     0.051 A 
ATOM     16  C   UNL     1      -1.749   3.507  16.458  1.00  0.00     0.157 A 
ATOM     17  C   UNL     1      -1.227   5.537  15.253  1.00  0.00     0.062 A 
ATOM     18  C   UNL     1      -0.956   4.657  16.317  1.00  0.00     0.158 A 
BRANCH  16  19
ATOM     19  O   UNL     1      -1.151   2.280  16.711  1.00  0.00    -0.504 OA
ATOM     20  H   UNL     1      -0.319   2.283  17.281  1.00  0.00     0.293 HD
ENDBRANCH  16  19
BRANCH  18  21
ATOM     21  O   UNL     1      -0.316   5.199  17.461  1.00  0.00    -0.504 OA
ATOM     22  H   UNL     1       0.624   5.580  17.371  1.00  0.00     0.293 HD
ENDBRANCH  18  21
ENDBRANCH   3  13
BRANCH  10  23
ATOM     23  O   UNL     1      -5.871   9.740  11.528  1.00  0.00    -0.507 OA
ATOM     24  H   UNL     1      -6.245   9.871  10.590  1.00  0.00     0.293 HD
ENDBRANCH  10  23
BRANCH  11  25
ATOM     25  O   UNL     1      -2.278   9.038  10.204  1.00  0.00    -0.508 OA
ATOM     26  H   UNL     1      -2.893   8.236  10.324  1.00  0.00     0.293 HD
ENDBRANCH  11  25
ENDBRANCH   1   2
BRANCH   1  27
ATOM     27  C   UNL     1      -6.849   6.982  14.877  1.00  0.00     0.339 C 
ATOM     28  C   UNL     1      -7.946   7.256  15.940  1.00  0.00     0.214 C 
ATOM     29  O   UNL     1      -7.306   7.632  13.672  1.00  0.00    -0.332 OA
ATOM     30  C   UNL     1      -9.382   6.939  15.362  1.00  0.00     0.180 C 
ATOM     31  C   UNL     1      -8.181   6.734  12.999  1.00  0.00     0.179 C 
ATOM     32  C   UNL     1      -9.359   6.239  13.923  1.00  0.00     0.177 C 
BRANCH  28  33
ATOM     33  O   UNL     1      -7.648   6.557  17.121  1.00  0.00    -0.384 OA
ATOM     34  H   UNL     1      -8.312   5.801  17.224  1.00  0.00     0.211 HD
ENDBRANCH  28  33
BRANCH  30  35
ATOM     35  O   UNL     1     -10.124   6.169  16.264  1.00  0.00    -0.387 OA
ATOM     36  H   UNL     1     -11.080   6.204  15.994  1.00  0.00     0.211 HD
ENDBRANCH  30  35
BRANCH  31  37
ATOM     37  C   UNL     1      -8.611   7.377  11.668  1.00  0.00     0.191 C 
BRANCH  37  38
ATOM     38  O   UNL     1      -7.458   7.521  10.867  1.00  0.00    -0.394 OA
ATOM     39  H   UNL     1      -7.396   6.680  10.307  1.00  0.00     0.210 HD
ENDBRANCH  37  38
ENDBRANCH  31  37
BRANCH  32  40
ATOM     40  O   UNL     1      -9.286   4.833  14.078  1.00  0.00    -0.387 OA
ATOM     41  H   UNL     1      -8.338   4.571  13.942  1.00  0.00     0.211 HD
ENDBRANCH  32  40
ENDBRANCH   1  27
TORSDOF 12
ENDMDL
MODEL 7
REMARK VINA RESULT:    -6.383      1.839      6.141
REMARK INTER + INTRA:         -10.772
REMARK INTER:                  -9.299
REMARK INTRA:                  -1.473
REMARK UNBOUND:                -1.403
REMARK SMILES O=c1c(O[C@@H]2O[C@H](CO)[C@@H](O)[C@@H](O)[C@H]2O)c(-c2ccc(O)c(O)c2)oc2cc(O)cc(O)c12
REMARK SMILES IDX 4 1 3 2 16 3 25 4 2 5 26 6 1 7 33 8 27 9 31 10 28 11 30 12
REMARK SMILES IDX 17 13 18 14 19 15 20 16 24 17 22 18 21 19 23 21 32 23 29 25
REMARK SMILES IDX 5 27 14 28 6 29 12 30 7 31 10 32 15 33 13 35 8 37 9 38 11 40
REMARK H PARENT 21 20 23 22 32 24 29 26 15 34 13 36 9 39 11 41
REMARK Flexibility Score: inf
ROOT
ATOM      1  O   UNL     1      -4.979   9.033  15.144  1.00  0.00    -0.454 OA
ENDROOT
BRANCH   1   2
ATOM      2  C   UNL     1      -5.597   7.744  15.154  1.00  0.00     0.214 A 
ATOM      3  C   UNL     1      -4.960   6.600  14.621  1.00  0.00     0.180 A 
ATOM      4  O   UNL     1      -5.656   5.943  13.643  1.00  0.00    -0.452 OA
ATOM      5  C   UNL     1      -6.972   7.677  15.205  1.00  0.00     0.239 A 
ATOM      6  C   UNL     1      -6.945   6.321  13.296  1.00  0.00     0.146 A 
ATOM      7  O   UNL     1      -7.497   7.009  16.126  1.00  0.00    -0.285 OA
ATOM      8  C   UNL     1      -7.464   7.475  13.934  1.00  0.00     0.111 A 
ATOM      9  C   UNL     1      -7.773   5.591  12.461  1.00  0.00     0.094 A 
ATOM     10  C   UNL     1      -8.766   7.907  13.643  1.00  0.00     0.134 A 
ATOM     11  C   UNL     1      -9.145   5.750  12.791  1.00  0.00     0.123 A 
ATOM     12  C   UNL     1      -9.577   7.104  12.835  1.00  0.00     0.093 A 
BRANCH   3  13
ATOM     13  C   UNL     1      -3.983   5.833  15.495  1.00  0.00     0.025 A 
ATOM     14  C   UNL     1      -2.593   5.616  15.029  1.00  0.00     0.016 A 
ATOM     15  C   UNL     1      -1.806   4.551  15.500  1.00  0.00     0.051 A 
ATOM     16  C   UNL     1      -2.454   3.705  16.410  1.00  0.00     0.157 A 
ATOM     17  C   UNL     1      -4.553   4.906  16.405  1.00  0.00     0.062 A 
ATOM     18  C   UNL     1      -3.853   3.693  16.538  1.00  0.00     0.158 A 
BRANCH  16  19
ATOM     19  O   UNL     1      -1.670   3.013  17.322  1.00  0.00    -0.504 OA
ATOM     20  H   UNL     1      -0.896   2.481  16.952  1.00  0.00     0.293 HD
ENDBRANCH  16  19
BRANCH  18  21
ATOM     21  O   UNL     1      -4.562   2.498  16.249  1.00  0.00    -0.504 OA
ATOM     22  H   UNL     1      -5.523   2.559  15.921  1.00  0.00     0.293 HD
ENDBRANCH  18  21
ENDBRANCH   3  13
BRANCH  10  23
ATOM     23  O   UNL     1      -9.244   8.990  14.376  1.00  0.00    -0.507 OA
ATOM     24  H   UNL     1      -9.998   8.935  15.057  1.00  0.00     0.293 HD
ENDBRANCH  10  23
BRANCH  11  25
ATOM     25  O   UNL     1      -9.532   5.128  13.977  1.00  0.00    -0.508 OA
ATOM     26  H   UNL     1     -10.018   4.234  13.948  1.00  0.00     0.293 HD
ENDBRANCH  11  25
ENDBRANCH   1   2
BRANCH   1  27
ATOM     27  C   UNL     1      -4.193   9.549  14.104  1.00  0.00     0.339 C 
ATOM     28  C   UNL     1      -4.742  10.604  13.108  1.00  0.00     0.214 C 
ATOM     29  O   UNL     1      -2.991  10.127  14.656  1.00  0.00    -0.332 OA
ATOM     30  C   UNL     1      -3.598  11.125  12.150  1.00  0.00     0.180 C 
ATOM     31  C   UNL     1      -1.921   9.838  13.763  1.00  0.00     0.179 C 
ATOM     32  C   UNL     1      -2.222  10.320  12.291  1.00  0.00     0.177 C 
BRANCH  28  33
ATOM     33  O   UNL     1      -5.853  10.082  12.426  1.00  0.00    -0.384 OA
ATOM     34  H   UNL     1      -6.093   9.190  12.839  1.00  0.00     0.211 HD
ENDBRANCH  28  33
BRANCH  30  35
ATOM     35  O   UNL     1      -4.024  11.125  10.818  1.00  0.00    -0.387 OA
ATOM     36  H   UNL     1      -3.429  10.522  10.298  1.00  0.00     0.211 HD
ENDBRANCH  30  35
BRANCH  31  37
ATOM     37  C   UNL     1      -0.615  10.372  14.378  1.00  0.00     0.191 C 
BRANCH  37  38
ATOM     38  O   UNL     1       0.176   9.261  14.741  1.00  0.00    -0.394 OA
ATOM     39  H   UNL     1      -0.333   8.440  14.439  1.00  0.00     0.210 HD
ENDBRANCH  37  38
ENDBRANCH  31  37
BRANCH  32  40
ATOM     40  O   UNL     1      -2.229   9.206  11.417  1.00  0.00    -0.387 OA
ATOM     41  H   UNL     1      -3.079   8.718  11.568  1.00  0.00     0.211 HD
ENDBRANCH  32  40
ENDBRANCH   1  27
TORSDOF 12
ENDMDL
MODEL 8
REMARK VINA RESULT:    -6.179      1.889      2.907
REMARK INTER + INTRA:         -10.472
REMARK INTER:                  -9.024
REMARK INTRA:                  -1.448
REMARK UNBOUND:                -1.403
REMARK SMILES O=c1c(O[C@@H]2O[C@H](CO)[C@@H](O)[C@@H](O)[C@H]2O)c(-c2ccc(O)c(O)c2)oc2cc(O)cc(O)c12
REMARK SMILES IDX 4 1 3 2 16 3 25 4 2 5 26 6 1 7 33 8 27 9 31 10 28 11 30 12
REMARK SMILES IDX 17 13 18 14 19 15 20 16 24 17 22 18 21 19 23 21 32 23 29 25
REMARK SMILES IDX 5 27 14 28 6 29 12 30 7 31 10 32 15 33 13 35 8 37 9 38 11 40
REMARK H PARENT 21 20 23 22 32 24 29 26 15 34 13 36 9 39 11 41
REMARK Flexibility Score: inf
ROOT
ATOM      1  O   UNL     1      -5.317   5.346  13.072  1.00  0.00    -0.454 OA
ENDROOT
BRANCH   1   2
ATOM      2  C   UNL     1      -5.657   6.659  12.619  1.00  0.00     0.214 A 
ATOM      3  C   UNL     1      -5.677   7.773  13.489  1.00  0.00     0.180 A 
ATOM      4  O   UNL     1      -6.864   8.452  13.547  1.00  0.00    -0.452 OA
ATOM      5  C   UNL     1      -6.443   6.781  11.495  1.00  0.00     0.239 A 
ATOM      6  C   UNL     1      -7.924   8.123  12.715  1.00  0.00     0.146 A 
ATOM      7  O   UNL     1      -6.012   7.474  10.545  1.00  0.00    -0.285 OA
ATOM      8  C   UNL     1      -7.750   6.994  11.876  1.00  0.00     0.111 A 
ATOM      9  C   UNL     1      -9.076   8.879  12.585  1.00  0.00     0.094 A 
ATOM     10  C   UNL     1      -8.775   6.613  10.998  1.00  0.00     0.134 A 
ATOM     11  C   UNL     1      -9.642   8.777  11.286  1.00  0.00     0.123 A 
ATOM     12  C   UNL     1      -9.893   7.443  10.867  1.00  0.00     0.093 A 
BRANCH   3  13
ATOM     13  C   UNL     1      -4.376   8.506  13.768  1.00  0.00     0.025 A 
ATOM     14  C   UNL     1      -4.409   9.873  14.338  1.00  0.00     0.016 A 
ATOM     15  C   UNL     1      -3.348  10.778  14.170  1.00  0.00     0.051 A 
ATOM     16  C   UNL     1      -2.285  10.292  13.396  1.00  0.00     0.157 A 
ATOM     17  C   UNL     1      -3.259   8.118  12.984  1.00  0.00     0.062 A 
ATOM     18  C   UNL     1      -2.433   9.174  12.559  1.00  0.00     0.158 A 
BRANCH  16  19
ATOM     19  O   UNL     1      -1.023  10.825  13.622  1.00  0.00    -0.504 OA
ATOM     20  H   UNL     1      -0.567  10.575  14.487  1.00  0.00     0.293 HD
ENDBRANCH  16  19
BRANCH  18  21
ATOM     21  O   UNL     1      -2.242   9.329  11.161  1.00  0.00    -0.504 OA
ATOM     22  H   UNL     1      -2.560   8.594  10.533  1.00  0.00     0.293 HD
ENDBRANCH  18  21
ENDBRANCH   3  13
BRANCH  10  23
ATOM     23  O   UNL     1      -8.499   5.555  10.137  1.00  0.00    -0.507 OA
ATOM     24  H   UNL     1      -7.570   5.323   9.789  1.00  0.00     0.293 HD
ENDBRANCH  10  23
BRANCH  11  25
ATOM     25  O   UNL     1      -8.917   9.422  10.285  1.00  0.00    -0.508 OA
ATOM     26  H   UNL     1      -8.003   9.070  10.011  1.00  0.00     0.293 HD
ENDBRANCH  11  25
ENDBRANCH   1   2
BRANCH   1  27
ATOM     27  C   UNL     1      -4.947   5.009  14.382  1.00  0.00     0.339 C 
ATOM     28  C   UNL     1      -5.841   4.116  15.282  1.00  0.00     0.214 C 
ATOM     29  O   UNL     1      -3.654   4.368  14.362  1.00  0.00    -0.332 OA
ATOM     30  C   UNL     1      -5.106   3.766  16.637  1.00  0.00     0.180 C 
ATOM     31  C   UNL     1      -2.934   4.807  15.509  1.00  0.00     0.179 C 
ATOM     32  C   UNL     1      -3.731   4.557  16.848  1.00  0.00     0.177 C 
BRANCH  28  33
ATOM     33  O   UNL     1      -7.093   4.724  15.462  1.00  0.00    -0.384 OA
ATOM     34  H   UNL     1      -6.994   5.472  16.137  1.00  0.00     0.211 HD
ENDBRANCH  28  33
BRANCH  30  35
ATOM     35  O   UNL     1      -5.954   3.969  17.731  1.00  0.00    -0.387 OA
ATOM     36  H   UNL     1      -5.902   3.171  18.321  1.00  0.00     0.211 HD
ENDBRANCH  30  35
BRANCH  31  37
ATOM     37  C   UNL     1      -1.521   4.200  15.460  1.00  0.00     0.191 C 
BRANCH  37  38
ATOM     38  O   UNL     1      -0.607   5.206  15.840  1.00  0.00    -0.394 OA
ATOM     39  H   UNL     1      -0.072   4.826  16.611  1.00  0.00     0.210 HD
ENDBRANCH  37  38
ENDBRANCH  31  37
BRANCH  32  40
ATOM     40  O   UNL     1      -3.985   5.794  17.489  1.00  0.00    -0.387 OA
ATOM     41  H   UNL     1      -4.750   5.655  18.106  1.00  0.00     0.211 HD
ENDBRANCH  32  40
ENDBRANCH   1  27
TORSDOF 12
ENDMDL
MODEL 9
REMARK VINA RESULT:    -6.015      1.659      2.187
REMARK INTER + INTRA:         -10.231
REMARK INTER:                  -9.747
REMARK INTRA:                  -0.484
REMARK UNBOUND:                -1.403
REMARK SMILES O=c1c(O[C@@H]2O[C@H](CO)[C@@H](O)[C@@H](O)[C@H]2O)c(-c2ccc(O)c(O)c2)oc2cc(O)cc(O)c12
REMARK SMILES IDX 4 1 3 2 16 3 25 4 2 5 26 6 1 7 33 8 27 9 31 10 28 11 30 12
REMARK SMILES IDX 17 13 18 14 19 15 20 16 24 17 22 18 21 19 23 21 32 23 29 25
REMARK SMILES IDX 5 27 14 28 6 29 12 30 7 31 10 32 15 33 13 35 8 37 9 38 11 40
REMARK H PARENT 21 20 23 22 32 24 29 26 15 34 13 36 9 39 11 41
REMARK Flexibility Score: inf
ROOT
ATOM      1  O   UNL     1      -5.153   5.929  13.203  1.00  0.00    -0.454 OA
ENDROOT
BRANCH   1   2
ATOM      2  C   UNL     1      -5.469   7.299  12.942  1.00  0.00     0.214 A 
ATOM      3  C   UNL     1      -5.330   8.304  13.926  1.00  0.00     0.180 A 
ATOM      4  O   UNL     1      -6.465   9.020  14.198  1.00  0.00    -0.452 OA
ATOM      5  C   UNL     1      -6.369   7.583  11.938  1.00  0.00     0.239 A 
ATOM      6  C   UNL     1      -7.628   8.835  13.465  1.00  0.00     0.146 A 
ATOM      7  O   UNL     1      -6.009   8.364  11.027  1.00  0.00    -0.285 OA
ATOM      8  C   UNL     1      -7.611   7.805  12.492  1.00  0.00     0.111 A 
ATOM      9  C   UNL     1      -8.744   9.649  13.556  1.00  0.00     0.094 A 
ATOM     10  C   UNL     1      -8.747   7.572  11.704  1.00  0.00     0.134 A 
ATOM     11  C   UNL     1      -9.457   9.722  12.329  1.00  0.00     0.123 A 
ATOM     12  C   UNL     1      -9.825   8.457  11.798  1.00  0.00     0.093 A 
BRANCH   3  13
ATOM     13  C   UNL     1      -3.968   8.944  14.130  1.00  0.00     0.025 A 
ATOM     14  C   UNL     1      -3.867  10.262  14.800  1.00  0.00     0.016 A 
ATOM     15  C   UNL     1      -2.775  11.122  14.596  1.00  0.00     0.051 A 
ATOM     16  C   UNL     1      -1.820  10.645  13.688  1.00  0.00     0.157 A 
ATOM     17  C   UNL     1      -2.955   8.563  13.213  1.00  0.00     0.062 A 
ATOM     18  C   UNL     1      -2.111   9.606  12.789  1.00  0.00     0.158 A 
BRANCH  16  19
ATOM     19  O   UNL     1      -0.514  11.093  13.828  1.00  0.00    -0.504 OA
ATOM     20  H   UNL     1      -0.345  12.075  13.670  1.00  0.00     0.293 HD
ENDBRANCH  16  19
BRANCH  18  21
ATOM     21  O   UNL     1      -2.043   9.860  11.394  1.00  0.00    -0.504 OA
ATOM     22  H   UNL     1      -1.532   9.215  10.796  1.00  0.00     0.293 HD
ENDBRANCH  18  21
ENDBRANCH   3  13
BRANCH  10  23
ATOM     23  O   UNL     1      -8.628   6.610  10.704  1.00  0.00    -0.507 OA
ATOM     24  H   UNL     1      -9.339   6.419  10.001  1.00  0.00     0.293 HD
ENDBRANCH  10  23
BRANCH  11  25
ATOM     25  O   UNL     1      -8.814  10.448  11.328  1.00  0.00    -0.508 OA
ATOM     26  H   UNL     1      -8.862  11.465  11.325  1.00  0.00     0.293 HD
ENDBRANCH  11  25
ENDBRANCH   1   2
BRANCH   1  27
ATOM     27  C   UNL     1      -5.030   5.352  14.475  1.00  0.00     0.339 C 
ATOM     28  C   UNL     1      -3.712   4.687  14.951  1.00  0.00     0.214 C 
ATOM     29  O   UNL     1      -5.352   6.338  15.479  1.00  0.00    -0.332 OA
ATOM     30  C   UNL     1      -3.807   4.271  16.473  1.00  0.00     0.180 C 
ATOM     31  C   UNL     1      -6.061   5.681  16.523  1.00  0.00     0.179 C 
ATOM     32  C   UNL     1      -5.270   4.443  17.099  1.00  0.00     0.177 C 
BRANCH  28  33
ATOM     33  O   UNL     1      -3.380   3.624  14.096  1.00  0.00    -0.384 OA
ATOM     34  H   UNL     1      -2.423   3.351  14.278  1.00  0.00     0.211 HD
ENDBRANCH  28  33
BRANCH  30  35
ATOM     35  O   UNL     1      -3.351   2.962  16.661  1.00  0.00    -0.387 OA
ATOM     36  H   UNL     1      -2.855   2.923  17.522  1.00  0.00     0.211 HD
ENDBRANCH  30  35
BRANCH  31  37
ATOM     37  C   UNL     1      -6.487   6.733  17.562  1.00  0.00     0.191 C 
BRANCH  37  38
ATOM     38  O   UNL     1      -6.443   6.125  18.835  1.00  0.00    -0.394 OA
ATOM     39  H   UNL     1      -6.259   5.142  18.673  1.00  0.00     0.210 HD
ENDBRANCH  37  38
ENDBRANCH  31  37
BRANCH  32  40
ATOM     40  O   UNL     1      -6.020   3.260  16.892  1.00  0.00    -0.387 OA
ATOM     41  H   UNL     1      -5.789   2.632  17.625  1.00  0.00     0.211 HD
ENDBRANCH  32  40
ENDBRANCH   1  27
TORSDOF 12
ENDMDL
