MODEL 1
REMARK VINA RESULT:    -3.475      0.000      0.000
REMARK INTER + INTRA:          -4.306
REMARK INTER:                  -4.186
REMARK INTRA:                  -0.120
REMARK UNBOUND:                -0.120
REMARK SMILES CC[C@H](C)[C@@H]([NH3+])C(=O)[O-]
REMARK SMILES IDX 3 1 4 2 5 3 6 4 7 8 8 9 9 10 2 11 1 12
REMARK H PARENT 6 5 6 6 6 7
REMARK Flexibility Score: inf
ROOT
ATOM      1  C   UNL     1      18.490  31.197  44.025  1.00  0.00     0.050 C 
ATOM      2  C   UNL     1      17.406  31.532  45.066  1.00  0.00     0.014 C 
ENDROOT
BRANCH   1   3
ATOM      3  C   UNL     1      18.030  30.117  42.994  1.00  0.00     0.230 C 
BRANCH   3   4
ATOM      4  N   UNL     1      16.625  29.716  43.166  1.00  0.00    -0.350 N 
ATOM      5  H   UNL     1      15.990  30.526  42.982  1.00  0.00     0.345 HD
ATOM      6  H   UNL     1      16.466  29.416  44.156  1.00  0.00     0.345 HD
ATOM      7  H   UNL     1      16.372  28.924  42.534  1.00  0.00     0.345 HD
ENDBRANCH   3   4
BRANCH   3   8
ATOM      8  C   UNL     1      18.294  30.570  41.578  1.00  0.00     0.099 C 
ATOM      9  O   UNL     1      19.044  29.905  40.814  1.00  0.00    -0.544 OA
ATOM     10  O   UNL     1      17.666  31.711  41.093  1.00  0.00    -0.544 OA
ENDBRANCH   3   8
ENDBRANCH   1   3
BRANCH   1  11
ATOM     11  C   UNL     1      19.809  30.843  44.756  1.00  0.00     0.006 C 
ATOM     12  C   UNL     1      20.054  29.338  44.877  1.00  0.00     0.004 C 
ENDBRANCH   1  11
TORSDOF 4
ENDMDL
MODEL 2
REMARK VINA RESULT:    -3.434     21.811     23.003
REMARK INTER + INTRA:          -4.257
REMARK INTER:                  -4.132
REMARK INTRA:                  -0.125
REMARK UNBOUND:                -0.120
REMARK SMILES CC[C@H](C)[C@@H]([NH3+])C(=O)[O-]
REMARK SMILES IDX 3 1 4 2 5 3 6 4 7 8 8 9 9 10 2 11 1 12
REMARK H PARENT 6 5 6 6 6 7
REMARK Flexibility Score: inf
ROOT
ATOM      1  C   UNL     1      17.155  45.323  25.826  1.00  0.00     0.050 C 
ATOM      2  C   UNL     1      16.523  44.257  24.912  1.00  0.00     0.014 C 
ENDROOT
BRANCH   1   3
ATOM      3  C   UNL     1      16.091  46.222  26.537  1.00  0.00     0.230 C 
BRANCH   3   4
ATOM      4  N   UNL     1      14.740  46.071  25.974  1.00  0.00    -0.350 N 
ATOM      5  H   UNL     1      14.769  46.143  24.932  1.00  0.00     0.345 HD
ATOM      6  H   UNL     1      14.128  46.845  26.322  1.00  0.00     0.345 HD
ATOM      7  H   UNL     1      14.311  45.159  26.248  1.00  0.00     0.345 HD
ENDBRANCH   3   4
BRANCH   3   8
ATOM      8  C   UNL     1      16.086  45.981  28.028  1.00  0.00     0.099 C 
ATOM      9  O   UNL     1      15.524  44.965  28.517  1.00  0.00    -0.544 OA
ATOM     10  O   UNL     1      16.750  46.865  28.869  1.00  0.00    -0.544 OA
ENDBRANCH   3   8
ENDBRANCH   1   3
BRANCH   1  11
ATOM     11  C   UNL     1      18.213  46.122  25.026  1.00  0.00     0.006 C 
ATOM     12  C   UNL     1      17.873  47.605  24.875  1.00  0.00     0.004 C 
ENDBRANCH   1  11
TORSDOF 4
ENDMDL
MODEL 3
REMARK VINA RESULT:    -3.429      2.338      3.259
REMARK INTER + INTRA:          -4.250
REMARK INTER:                  -4.155
REMARK INTRA:                  -0.095
REMARK UNBOUND:                -0.120
REMARK SMILES CC[C@H](C)[C@@H]([NH3+])C(=O)[O-]
REMARK SMILES IDX 3 1 4 2 5 3 6 4 7 8 8 9 9 10 2 11 1 12
REMARK H PARENT 6 5 6 6 6 7
REMARK Flexibility Score: inf
ROOT
ATOM      1  C   UNL     1      18.951  31.477  43.574  1.00  0.00     0.050 C 
ATOM      2  C   UNL     1      18.098  30.298  43.068  1.00  0.00     0.014 C 
ENDROOT
BRANCH   1   3
ATOM      3  C   UNL     1      20.419  31.061  43.918  1.00  0.00     0.230 C 
BRANCH   3   4
ATOM      4  N   UNL     1      20.499  29.801  44.674  1.00  0.00    -0.350 N 
ATOM      5  H   UNL     1      21.147  29.132  44.201  1.00  0.00     0.345 HD
ATOM      6  H   UNL     1      19.555  29.350  44.703  1.00  0.00     0.345 HD
ATOM      7  H   UNL     1      20.820  29.963  45.655  1.00  0.00     0.345 HD
ENDBRANCH   3   4
BRANCH   3   8
ATOM      8  C   UNL     1      21.271  31.000  42.673  1.00  0.00     0.099 C 
ATOM      9  O   UNL     1      21.212  31.910  41.803  1.00  0.00    -0.544 OA
ATOM     10  O   UNL     1      22.168  29.953  42.504  1.00  0.00    -0.544 OA
ENDBRANCH   3   8
ENDBRANCH   1   3
BRANCH   1  11
ATOM     11  C   UNL     1      18.212  32.181  44.738  1.00  0.00     0.006 C 
ATOM     12  C   UNL     1      16.897  31.503  45.125  1.00  0.00     0.004 C 
ENDBRANCH   1  11
TORSDOF 4
ENDMDL
MODEL 4
REMARK VINA RESULT:    -3.407     21.864     22.862
REMARK INTER + INTRA:          -4.224
REMARK INTER:                  -4.130
REMARK INTRA:                  -0.094
REMARK UNBOUND:                -0.120
REMARK SMILES CC[C@H](C)[C@@H]([NH3+])C(=O)[O-]
REMARK SMILES IDX 3 1 4 2 5 3 6 4 7 8 8 9 9 10 2 11 1 12
REMARK H PARENT 6 5 6 6 6 7
REMARK Flexibility Score: inf
ROOT
ATOM      1  C   UNL     1      16.872  45.981  25.493  1.00  0.00     0.050 C 
ATOM      2  C   UNL     1      18.302  46.298  25.019  1.00  0.00     0.014 C 
ENDROOT
BRANCH   1   3
ATOM      3  C   UNL     1      16.698  46.127  27.040  1.00  0.00     0.230 C 
BRANCH   3   4
ATOM      4  N   UNL     1      17.202  47.409  27.558  1.00  0.00    -0.350 N 
ATOM      5  H   UNL     1      17.543  48.010  26.775  1.00  0.00     0.345 HD
ATOM      6  H   UNL     1      18.015  47.234  28.193  1.00  0.00     0.345 HD
ATOM      7  H   UNL     1      16.466  47.920  28.095  1.00  0.00     0.345 HD
ENDBRANCH   3   4
BRANCH   3   8
ATOM      8  C   UNL     1      15.261  45.906  27.448  1.00  0.00     0.099 C 
ATOM      9  O   UNL     1      14.345  46.664  27.029  1.00  0.00    -0.544 OA
ATOM     10  O   UNL     1      14.934  44.825  28.258  1.00  0.00    -0.544 OA
ENDBRANCH   3   8
ENDBRANCH   1   3
BRANCH   1  11
ATOM     11  C   UNL     1      16.446  44.597  24.945  1.00  0.00     0.006 C 
ATOM     12  C   UNL     1      17.073  43.423  25.698  1.00  0.00     0.004 C 
ENDBRANCH   1  11
TORSDOF 4
ENDMDL
MODEL 5
REMARK VINA RESULT:    -3.366      1.786      2.153
REMARK INTER + INTRA:          -4.175
REMARK INTER:                  -4.082
REMARK INTRA:                  -0.092
REMARK UNBOUND:                -0.120
REMARK SMILES CC[C@H](C)[C@@H]([NH3+])C(=O)[O-]
REMARK SMILES IDX 3 1 4 2 5 3 6 4 7 8 8 9 9 10 2 11 1 12
REMARK H PARENT 6 5 6 6 6 7
REMARK Flexibility Score: inf
ROOT
ATOM      1  C   UNL     1      18.799  31.877  44.494  1.00  0.00     0.050 C 
ATOM      2  C   UNL     1      17.645  31.074  45.125  1.00  0.00     0.014 C 
ENDROOT
BRANCH   1   3
ATOM      3  C   UNL     1      18.472  32.376  43.048  1.00  0.00     0.230 C 
BRANCH   3   4
ATOM      4  N   UNL     1      19.672  32.748  42.282  1.00  0.00    -0.350 N 
ATOM      5  H   UNL     1      20.251  31.902  42.077  1.00  0.00     0.345 HD
ATOM      6  H   UNL     1      20.263  33.398  42.852  1.00  0.00     0.345 HD
ATOM      7  H   UNL     1      19.422  33.225  41.387  1.00  0.00     0.345 HD
ENDBRANCH   3   4
BRANCH   3   8
ATOM      8  C   UNL     1      17.645  31.360  42.298  1.00  0.00     0.099 C 
ATOM      9  O   UNL     1      16.416  31.552  42.091  1.00  0.00    -0.544 OA
ATOM     10  O   UNL     1      18.252  30.220  41.787  1.00  0.00    -0.544 OA
ENDBRANCH   3   8
ENDBRANCH   1   3
BRANCH   1  11
ATOM     11  C   UNL     1      20.107  31.055  44.591  1.00  0.00     0.006 C 
ATOM     12  C   UNL     1      19.874  29.567  44.857  1.00  0.00     0.004 C 
ENDBRANCH   1  11
TORSDOF 4
ENDMDL
MODEL 6
REMARK VINA RESULT:    -3.349      1.913      2.413
REMARK INTER + INTRA:          -4.154
REMARK INTER:                  -4.069
REMARK INTRA:                  -0.085
REMARK UNBOUND:                -0.120
REMARK SMILES CC[C@H](C)[C@@H]([NH3+])C(=O)[O-]
REMARK SMILES IDX 3 1 4 2 5 3 6 4 7 8 8 9 9 10 2 11 1 12
REMARK H PARENT 6 5 6 6 6 7
REMARK Flexibility Score: inf
ROOT
ATOM      1  C   UNL     1      20.244  31.408  43.299  1.00  0.00     0.050 C 
ATOM      2  C   UNL     1      19.740  32.640  42.524  1.00  0.00     0.014 C 
ENDROOT
BRANCH   1   3
ATOM      3  C   UNL     1      20.166  30.090  42.461  1.00  0.00     0.230 C 
BRANCH   3   4
ATOM      4  N   UNL     1      20.226  28.875  43.289  1.00  0.00    -0.350 N 
ATOM      5  H   UNL     1      20.285  28.025  42.685  1.00  0.00     0.345 HD
ATOM      6  H   UNL     1      19.349  28.795  43.855  1.00  0.00     0.345 HD
ATOM      7  H   UNL     1      21.041  28.897  43.941  1.00  0.00     0.345 HD
ENDBRANCH   3   4
BRANCH   3   8
ATOM      8  C   UNL     1      18.944  30.082  41.575  1.00  0.00     0.099 C 
ATOM      9  O   UNL     1      19.051  30.179  40.323  1.00  0.00    -0.544 OA
ATOM     10  O   UNL     1      17.685  29.918  42.140  1.00  0.00    -0.544 OA
ENDBRANCH   3   8
ENDBRANCH   1   3
BRANCH   1  11
ATOM     11  C   UNL     1      19.513  31.326  44.661  1.00  0.00     0.006 C 
ATOM     12  C   UNL     1      18.264  32.205  44.737  1.00  0.00     0.004 C 
ENDBRANCH   1  11
TORSDOF 4
ENDMDL
MODEL 7
REMARK VINA RESULT:    -2.990     22.459     23.027
REMARK INTER + INTRA:          -3.722
REMARK INTER:                  -3.647
REMARK INTRA:                  -0.075
REMARK UNBOUND:                -0.120
REMARK SMILES CC[C@H](C)[C@@H]([NH3+])C(=O)[O-]
REMARK SMILES IDX 3 1 4 2 5 3 6 4 7 8 8 9 9 10 2 11 1 12
REMARK H PARENT 6 5 6 6 6 7
REMARK Flexibility Score: inf
ROOT
ATOM      1  C   UNL     1      17.266  45.580  26.356  1.00  0.00     0.050 C 
ATOM      2  C   UNL     1      16.016  46.025  27.138  1.00  0.00     0.014 C 
ENDROOT
BRANCH   1   3
ATOM      3  C   UNL     1      18.380  46.676  26.313  1.00  0.00     0.230 C 
BRANCH   3   4
ATOM      4  N   UNL     1      17.893  48.008  26.709  1.00  0.00    -0.350 N 
ATOM      5  H   UNL     1      17.340  47.946  27.594  1.00  0.00     0.345 HD
ATOM      6  H   UNL     1      17.255  48.380  25.969  1.00  0.00     0.345 HD
ATOM      7  H   UNL     1      18.682  48.681  26.837  1.00  0.00     0.345 HD
ENDBRANCH   3   4
BRANCH   3   8
ATOM      8  C   UNL     1      19.575  46.269  27.141  1.00  0.00     0.099 C 
ATOM      9  O   UNL     1      19.759  45.064  27.462  1.00  0.00    -0.544 OA
ATOM     10  O   UNL     1      20.510  47.224  27.517  1.00  0.00    -0.544 OA
ENDBRANCH   3   8
ENDBRANCH   1   3
BRANCH   1  11
ATOM     11  C   UNL     1      16.840  45.067  24.958  1.00  0.00     0.006 C 
ATOM     12  C   UNL     1      15.363  44.679  24.875  1.00  0.00     0.004 C 
ENDBRANCH   1  11
TORSDOF 4
ENDMDL
MODEL 8
REMARK VINA RESULT:    -2.786      2.285      3.061
REMARK INTER + INTRA:          -3.476
REMARK INTER:                  -3.334
REMARK INTRA:                  -0.141
REMARK UNBOUND:                -0.120
REMARK SMILES CC[C@H](C)[C@@H]([NH3+])C(=O)[O-]
REMARK SMILES IDX 3 1 4 2 5 3 6 4 7 8 8 9 9 10 2 11 1 12
REMARK H PARENT 6 5 6 6 6 7
REMARK Flexibility Score: inf
ROOT
ATOM      1  C   UNL     1      18.714  31.721  43.155  1.00  0.00     0.050 C 
ATOM      2  C   UNL     1      17.782  32.269  42.057  1.00  0.00     0.014 C 
ENDROOT
BRANCH   1   3
ATOM      3  C   UNL     1      18.860  30.165  43.107  1.00  0.00     0.230 C 
BRANCH   3   4
ATOM      4  N   UNL     1      18.805  29.622  41.741  1.00  0.00    -0.350 N 
ATOM      5  H   UNL     1      19.158  28.639  41.725  1.00  0.00     0.345 HD
ATOM      6  H   UNL     1      19.427  30.186  41.116  1.00  0.00     0.345 HD
ATOM      7  H   UNL     1      17.834  29.651  41.357  1.00  0.00     0.345 HD
ENDBRANCH   3   4
BRANCH   3   8
ATOM      8  C   UNL     1      20.115  29.717  43.818  1.00  0.00     0.099 C 
ATOM      9  O   UNL     1      21.243  29.822  43.267  1.00  0.00    -0.544 OA
ATOM     10  O   UNL     1      20.032  29.224  45.114  1.00  0.00    -0.544 OA
ENDBRANCH   3   8
ENDBRANCH   1   3
BRANCH   1  11
ATOM     11  C   UNL     1      18.257  32.264  44.532  1.00  0.00     0.006 C 
ATOM     12  C   UNL     1      17.071  31.502  45.125  1.00  0.00     0.004 C 
ENDBRANCH   1  11
TORSDOF 4
ENDMDL
