MODEL 1
REMARK VINA RESULT:    -3.904      0.000      0.000
REMARK INTER + INTRA:          -9.749
REMARK INTER:                  -7.328
REMARK INTRA:                  -2.422
REMARK UNBOUND:                -2.422
REMARK SMILES CCCCCCCCC=CCCCCCCCC(=O)[O-]
REMARK SMILES IDX 10 1 9 2 11 3 12 4 13 5 14 6 15 7 16 8 17 9 18 10 19 11
REMARK SMILES IDX 20 12 8 13 7 14 6 15 5 16 4 17 3 18 2 19 1 20
REMARK H PARENT
REMARK Flexibility Score: inf
ROOT
ATOM      1  C   UNL     1     146.495 139.260 146.858  1.00  0.00    -0.031 C 
ATOM      2  C   UNL     1     147.301 140.174 146.288  1.00  0.00    -0.031 C 
ENDROOT
BRANCH   1   3
ATOM      3  C   UNL     1     146.864 137.811 147.048  1.00  0.00     0.027 C 
BRANCH   3   4
ATOM      4  C   UNL     1     145.748 136.897 146.519  1.00  0.00     0.004 C 
BRANCH   4   5
ATOM      5  C   UNL     1     144.349 137.500 146.726  1.00  0.00     0.000 C 
BRANCH   5   6
ATOM      6  C   UNL     1     143.285 136.814 145.854  1.00  0.00     0.000 C 
BRANCH   6   7
ATOM      7  C   UNL     1     142.064 136.414 146.691  1.00  0.00     0.000 C 
BRANCH   7   8
ATOM      8  C   UNL     1     142.339 136.594 148.188  1.00  0.00     0.006 C 
BRANCH   8   9
ATOM      9  C   UNL     1     142.119 135.285 148.950  1.00  0.00     0.053 C 
BRANCH   9  10
ATOM     10  C   UNL     1     140.824 135.328 149.699  1.00  0.00     0.041 C 
ATOM     11  O   UNL     1     139.734 135.422 149.077  1.00  0.00    -0.550 OA
ATOM     12  O   UNL     1     140.818 135.216 151.083  1.00  0.00    -0.550 OA
ENDBRANCH   9  10
ENDBRANCH   8   9
ENDBRANCH   7   8
ENDBRANCH   6   7
ENDBRANCH   5   6
ENDBRANCH   4   5
ENDBRANCH   3   4
ENDBRANCH   1   3
BRANCH   2  13
ATOM     13  C   UNL     1     148.655 139.840 145.705  1.00  0.00     0.027 C 
BRANCH  13  14
ATOM     14  C   UNL     1     148.654 139.883 144.171  1.00  0.00     0.004 C 
BRANCH  14  15
ATOM     15  C   UNL     1     148.046 138.609 143.558  1.00  0.00     0.000 C 
BRANCH  15  16
ATOM     16  C   UNL     1     146.926 138.916 142.551  1.00  0.00     0.000 C 
BRANCH  16  17
ATOM     17  C   UNL     1     145.555 138.405 143.018  1.00  0.00    -0.000 C 
BRANCH  17  18
ATOM     18  C   UNL     1     144.715 139.548 143.608  1.00  0.00    -0.000 C 
BRANCH  18  19
ATOM     19  C   UNL     1     143.221 139.418 143.273  1.00  0.00    -0.003 C 
ATOM     20  C   UNL     1     142.916 138.207 142.392  1.00  0.00     0.004 C 
ENDBRANCH  18  19
ENDBRANCH  17  18
ENDBRANCH  16  17
ENDBRANCH  15  16
ENDBRANCH  14  15
ENDBRANCH  13  14
ENDBRANCH   2  13
TORSDOF 15
ENDMDL
MODEL 2
REMARK VINA RESULT:    -3.823      4.405      7.720
REMARK INTER + INTRA:          -9.597
REMARK INTER:                  -6.813
REMARK INTRA:                  -2.785
REMARK UNBOUND:                -2.422
REMARK SMILES CCCCCCCCC=CCCCCCCCC(=O)[O-]
REMARK SMILES IDX 10 1 9 2 11 3 12 4 13 5 14 6 15 7 16 8 17 9 18 10 19 11
REMARK SMILES IDX 20 12 8 13 7 14 6 15 5 16 4 17 3 18 2 19 1 20
REMARK H PARENT
REMARK Flexibility Score: inf
ROOT
ATOM      1  C   UNL     1     142.470 137.376 147.861  1.00  0.00    -0.031 C 
ATOM      2  C   UNL     1     141.932 136.592 148.813  1.00  0.00    -0.031 C 
ENDROOT
BRANCH   1   3
ATOM      3  C   UNL     1     143.290 136.860 146.706  1.00  0.00     0.027 C 
BRANCH   3   4
ATOM      4  C   UNL     1     142.429 136.751 145.440  1.00  0.00     0.004 C 
BRANCH   4   5
ATOM      5  C   UNL     1     142.384 135.320 144.881  1.00  0.00     0.000 C 
BRANCH   5   6
ATOM      6  C   UNL     1     141.163 134.535 145.385  1.00  0.00     0.000 C 
BRANCH   6   7
ATOM      7  C   UNL     1     140.015 135.481 145.756  1.00  0.00     0.000 C 
BRANCH   7   8
ATOM      8  C   UNL     1     138.966 135.538 144.639  1.00  0.00     0.006 C 
BRANCH   8   9
ATOM      9  C   UNL     1     137.716 136.295 145.096  1.00  0.00     0.053 C 
BRANCH   9  10
ATOM     10  C   UNL     1     137.506 137.513 144.252  1.00  0.00     0.041 C 
ATOM     11  O   UNL     1     136.626 138.357 144.567  1.00  0.00    -0.550 OA
ATOM     12  O   UNL     1     138.314 137.741 143.147  1.00  0.00    -0.550 OA
ENDBRANCH   9  10
ENDBRANCH   8   9
ENDBRANCH   7   8
ENDBRANCH   6   7
ENDBRANCH   5   6
ENDBRANCH   4   5
ENDBRANCH   3   4
ENDBRANCH   1   3
BRANCH   2  13
ATOM     13  C   UNL     1     142.145 135.098 148.877  1.00  0.00     0.027 C 
BRANCH  13  14
ATOM     14  C   UNL     1     140.866 134.345 149.269  1.00  0.00     0.004 C 
BRANCH  14  15
ATOM     15  C   UNL     1     140.018 135.136 150.281  1.00  0.00     0.000 C 
BRANCH  15  16
ATOM     16  C   UNL     1     138.522 134.799 150.188  1.00  0.00     0.000 C 
BRANCH  16  17
ATOM     17  C   UNL     1     137.923 135.142 148.815  1.00  0.00    -0.000 C 
BRANCH  17  18
ATOM     18  C   UNL     1     136.831 134.135 148.427  1.00  0.00    -0.000 C 
BRANCH  18  19
ATOM     19  C   UNL     1     137.222 133.278 147.213  1.00  0.00    -0.003 C 
ATOM     20  C   UNL     1     138.313 132.258 147.536  1.00  0.00     0.004 C 
ENDBRANCH  18  19
ENDBRANCH  17  18
ENDBRANCH  16  17
ENDBRANCH  15  16
ENDBRANCH  14  15
ENDBRANCH  13  14
ENDBRANCH   2  13
TORSDOF 15
ENDMDL
MODEL 3
REMARK VINA RESULT:    -3.793      4.440      9.390
REMARK INTER + INTRA:          -9.541
REMARK INTER:                  -6.846
REMARK INTRA:                  -2.695
REMARK UNBOUND:                -2.422
REMARK SMILES CCCCCCCCC=CCCCCCCCC(=O)[O-]
REMARK SMILES IDX 10 1 9 2 11 3 12 4 13 5 14 6 15 7 16 8 17 9 18 10 19 11
REMARK SMILES IDX 20 12 8 13 7 14 6 15 5 16 4 17 3 18 2 19 1 20
REMARK H PARENT
REMARK Flexibility Score: inf
ROOT
ATOM      1  C   UNL     1     136.749 133.263 150.285  1.00  0.00    -0.031 C 
ATOM      2  C   UNL     1     136.386 131.970 150.354  1.00  0.00    -0.031 C 
ENDROOT
BRANCH   1   3
ATOM      3  C   UNL     1     136.710 134.085 149.022  1.00  0.00     0.027 C 
BRANCH   3   4
ATOM      4  C   UNL     1     137.852 135.112 149.013  1.00  0.00     0.004 C 
BRANCH   4   5
ATOM      5  C   UNL     1     138.943 134.787 150.046  1.00  0.00     0.000 C 
BRANCH   5   6
ATOM      6  C   UNL     1     140.261 135.520 149.753  1.00  0.00     0.000 C 
BRANCH   6   7
ATOM      7  C   UNL     1     141.453 134.556 149.817  1.00  0.00     0.000 C 
BRANCH   7   8
ATOM      8  C   UNL     1     142.556 134.981 148.841  1.00  0.00     0.006 C 
BRANCH   8   9
ATOM      9  C   UNL     1     142.290 136.383 148.286  1.00  0.00     0.053 C 
BRANCH   9  10
ATOM     10  C   UNL     1     143.179 136.658 147.114  1.00  0.00     0.041 C 
ATOM     11  O   UNL     1     144.312 136.115 147.036  1.00  0.00    -0.550 OA
ATOM     12  O   UNL     1     142.736 137.475 146.083  1.00  0.00    -0.550 OA
ENDBRANCH   9  10
ENDBRANCH   8   9
ENDBRANCH   7   8
ENDBRANCH   6   7
ENDBRANCH   5   6
ENDBRANCH   4   5
ENDBRANCH   3   4
ENDBRANCH   1   3
BRANCH   2  13
ATOM     13  C   UNL     1     135.958 131.162 149.151  1.00  0.00     0.027 C 
BRANCH  13  14
ATOM     14  C   UNL     1     137.028 130.150 148.719  1.00  0.00     0.004 C 
BRANCH  14  15
ATOM     15  C   UNL     1     137.696 130.548 147.391  1.00  0.00     0.000 C 
BRANCH  15  16
ATOM     16  C   UNL     1     138.846 131.548 147.585  1.00  0.00     0.000 C 
BRANCH  16  17
ATOM     17  C   UNL     1     138.938 132.573 146.445  1.00  0.00    -0.000 C 
BRANCH  17  18
ATOM     18  C   UNL     1     140.218 133.413 146.564  1.00  0.00    -0.000 C 
BRANCH  18  19
ATOM     19  C   UNL     1     140.195 134.658 145.662  1.00  0.00    -0.003 C 
ATOM     20  C   UNL     1     138.819 135.321 145.605  1.00  0.00     0.004 C 
ENDBRANCH  18  19
ENDBRANCH  17  18
ENDBRANCH  16  17
ENDBRANCH  15  16
ENDBRANCH  14  15
ENDBRANCH  13  14
ENDBRANCH   2  13
TORSDOF 15
ENDMDL
MODEL 4
REMARK VINA RESULT:    -3.776      3.523      7.426
REMARK INTER + INTRA:          -9.508
REMARK INTER:                  -6.892
REMARK INTRA:                  -2.616
REMARK UNBOUND:                -2.422
REMARK SMILES CCCCCCCCC=CCCCCCCCC(=O)[O-]
REMARK SMILES IDX 10 1 9 2 11 3 12 4 13 5 14 6 15 7 16 8 17 9 18 10 19 11
REMARK SMILES IDX 20 12 8 13 7 14 6 15 5 16 4 17 3 18 2 19 1 20
REMARK H PARENT
REMARK Flexibility Score: inf
ROOT
ATOM      1  C   UNL     1     140.172 135.198 150.375  1.00  0.00    -0.031 C 
ATOM      2  C   UNL     1     138.956 134.766 149.995  1.00  0.00    -0.031 C 
ENDROOT
BRANCH   1   3
ATOM      3  C   UNL     1     141.381 135.220 149.474  1.00  0.00     0.027 C 
BRANCH   3   4
ATOM      4  C   UNL     1     141.692 136.654 149.025  1.00  0.00     0.004 C 
BRANCH   4   5
ATOM      5  C   UNL     1     142.558 136.698 147.756  1.00  0.00     0.000 C 
BRANCH   5   6
ATOM      6  C   UNL     1     143.362 135.403 147.554  1.00  0.00     0.000 C 
BRANCH   6   7
ATOM      7  C   UNL     1     144.707 135.690 146.877  1.00  0.00     0.000 C 
BRANCH   7   8
ATOM      8  C   UNL     1     144.956 137.199 146.766  1.00  0.00     0.006 C 
BRANCH   8   9
ATOM      9  C   UNL     1     145.548 137.560 145.401  1.00  0.00     0.053 C 
BRANCH   9  10
ATOM     10  C   UNL     1     146.719 138.478 145.566  1.00  0.00     0.041 C 
ATOM     11  O   UNL     1     146.608 139.531 146.246  1.00  0.00    -0.550 OA
ATOM     12  O   UNL     1     147.946 138.144 145.010  1.00  0.00    -0.550 OA
ENDBRANCH   9  10
ENDBRANCH   8   9
ENDBRANCH   7   8
ENDBRANCH   6   7
ENDBRANCH   5   6
ENDBRANCH   4   5
ENDBRANCH   3   4
ENDBRANCH   1   3
BRANCH   2  13
ATOM     13  C   UNL     1     138.671 134.184 148.630  1.00  0.00     0.027 C 
BRANCH  13  14
ATOM     14  C   UNL     1     137.896 135.159 147.733  1.00  0.00     0.004 C 
BRANCH  14  15
ATOM     15  C   UNL     1     138.435 135.167 146.291  1.00  0.00     0.000 C 
BRANCH  15  16
ATOM     16  C   UNL     1     139.857 134.595 146.189  1.00  0.00     0.000 C 
BRANCH  16  17
ATOM     17  C   UNL     1     140.527 134.913 144.844  1.00  0.00    -0.000 C 
BRANCH  17  18
ATOM     18  C   UNL     1     140.779 136.421 144.699  1.00  0.00    -0.000 C 
BRANCH  18  19
ATOM     19  C   UNL     1     142.112 136.734 144.001  1.00  0.00    -0.003 C 
ATOM     20  C   UNL     1     142.906 135.476 143.652  1.00  0.00     0.004 C 
ENDBRANCH  18  19
ENDBRANCH  17  18
ENDBRANCH  16  17
ENDBRANCH  15  16
ENDBRANCH  14  15
ENDBRANCH  13  14
ENDBRANCH   2  13
TORSDOF 15
ENDMDL
MODEL 5
REMARK VINA RESULT:    -3.751      4.121      9.296
REMARK INTER + INTRA:          -9.463
REMARK INTER:                  -7.009
REMARK INTRA:                  -2.453
REMARK UNBOUND:                -2.422
REMARK SMILES CCCCCCCCC=CCCCCCCCC(=O)[O-]
REMARK SMILES IDX 10 1 9 2 11 3 12 4 13 5 14 6 15 7 16 8 17 9 18 10 19 11
REMARK SMILES IDX 20 12 8 13 7 14 6 15 5 16 4 17 3 18 2 19 1 20
REMARK H PARENT
REMARK Flexibility Score: inf
ROOT
ATOM      1  C   UNL     1     138.585 135.205 148.728  1.00  0.00    -0.031 C 
ATOM      2  C   UNL     1     137.466 134.826 148.084  1.00  0.00    -0.031 C 
ENDROOT
BRANCH   1   3
ATOM      3  C   UNL     1     138.920 134.810 150.143  1.00  0.00     0.027 C 
BRANCH   3   4
ATOM      4  C   UNL     1     140.397 135.098 150.448  1.00  0.00     0.004 C 
BRANCH   4   5
ATOM      5  C   UNL     1     141.035 136.046 149.419  1.00  0.00     0.000 C 
BRANCH   5   6
ATOM      6  C   UNL     1     142.243 135.412 148.713  1.00  0.00     0.000 C 
BRANCH   6   7
ATOM      7  C   UNL     1     142.156 135.606 147.194  1.00  0.00     0.000 C 
BRANCH   7   8
ATOM      8  C   UNL     1     143.281 134.850 146.478  1.00  0.00     0.006 C 
BRANCH   8   9
ATOM      9  C   UNL     1     144.121 135.799 145.619  1.00  0.00     0.053 C 
BRANCH   9  10
ATOM     10  C   UNL     1     144.963 136.682 146.486  1.00  0.00     0.041 C 
ATOM     11  O   UNL     1     146.040 136.250 146.974  1.00  0.00    -0.550 OA
ATOM     12  O   UNL     1     144.582 137.997 146.715  1.00  0.00    -0.550 OA
ENDBRANCH   9  10
ENDBRANCH   8   9
ENDBRANCH   7   8
ENDBRANCH   6   7
ENDBRANCH   5   6
ENDBRANCH   4   5
ENDBRANCH   3   4
ENDBRANCH   1   3
BRANCH   2  13
ATOM     13  C   UNL     1     136.371 134.010 148.731  1.00  0.00     0.027 C 
BRANCH  13  14
ATOM     14  C   UNL     1     135.806 132.942 147.785  1.00  0.00     0.004 C 
BRANCH  14  15
ATOM     15  C   UNL     1     135.924 131.526 148.377  1.00  0.00     0.000 C 
BRANCH  15  16
ATOM     16  C   UNL     1     137.290 131.272 149.032  1.00  0.00     0.000 C 
BRANCH  16  17
ATOM     17  C   UNL     1     138.334 130.746 148.035  1.00  0.00    -0.000 C 
BRANCH  17  18
ATOM     18  C   UNL     1     139.569 131.659 148.002  1.00  0.00    -0.000 C 
BRANCH  18  19
ATOM     19  C   UNL     1     139.716 132.406 146.666  1.00  0.00    -0.003 C 
ATOM     20  C   UNL     1     138.727 131.922 145.606  1.00  0.00     0.004 C 
ENDBRANCH  18  19
ENDBRANCH  17  18
ENDBRANCH  16  17
ENDBRANCH  15  16
ENDBRANCH  14  15
ENDBRANCH  13  14
ENDBRANCH   2  13
TORSDOF 15
ENDMDL
MODEL 6
REMARK VINA RESULT:    -3.744      3.941      8.636
REMARK INTER + INTRA:          -9.448
REMARK INTER:                  -6.553
REMARK INTRA:                  -2.895
REMARK UNBOUND:                -2.422
REMARK SMILES CCCCCCCCC=CCCCCCCCC(=O)[O-]
REMARK SMILES IDX 10 1 9 2 11 3 12 4 13 5 14 6 15 7 16 8 17 9 18 10 19 11
REMARK SMILES IDX 20 12 8 13 7 14 6 15 5 16 4 17 3 18 2 19 1 20
REMARK H PARENT
REMARK Flexibility Score: inf
ROOT
ATOM      1  C   UNL     1     137.885 135.136 149.056  1.00  0.00    -0.031 C 
ATOM      2  C   UNL     1     136.929 134.379 148.488  1.00  0.00    -0.031 C 
ENDROOT
BRANCH   1   3
ATOM      3  C   UNL     1     138.579 134.790 150.349  1.00  0.00     0.027 C 
BRANCH   3   4
ATOM      4  C   UNL     1     140.088 135.049 150.235  1.00  0.00     0.004 C 
BRANCH   4   5
ATOM      5  C   UNL     1     140.453 135.851 148.975  1.00  0.00     0.000 C 
BRANCH   5   6
ATOM      6  C   UNL     1     141.968 136.076 148.847  1.00  0.00     0.000 C 
BRANCH   6   7
ATOM      7  C   UNL     1     142.705 134.751 148.622  1.00  0.00     0.000 C 
BRANCH   7   8
ATOM      8  C   UNL     1     143.855 134.923 147.623  1.00  0.00     0.006 C 
BRANCH   8   9
ATOM      9  C   UNL     1     143.916 136.360 147.098  1.00  0.00     0.053 C 
BRANCH   9  10
ATOM     10  C   UNL     1     144.562 136.395 145.748  1.00  0.00     0.041 C 
ATOM     11  O   UNL     1     145.517 137.183 145.522  1.00  0.00    -0.550 OA
ATOM     12  O   UNL     1     144.140 135.523 144.753  1.00  0.00    -0.550 OA
ENDBRANCH   9  10
ENDBRANCH   8   9
ENDBRANCH   7   8
ENDBRANCH   6   7
ENDBRANCH   5   6
ENDBRANCH   4   5
ENDBRANCH   3   4
ENDBRANCH   1   3
BRANCH   2  13
ATOM     13  C   UNL     1     136.387 133.116 149.116  1.00  0.00     0.027 C 
BRANCH  13  14
ATOM     14  C   UNL     1     136.718 131.867 148.287  1.00  0.00     0.004 C 
BRANCH  14  15
ATOM     15  C   UNL     1     137.466 132.217 146.989  1.00  0.00     0.000 C 
BRANCH  15  16
ATOM     16  C   UNL     1     138.895 131.653 146.962  1.00  0.00     0.000 C 
BRANCH  16  17
ATOM     17  C   UNL     1     139.966 132.755 146.980  1.00  0.00    -0.000 C 
BRANCH  17  18
ATOM     18  C   UNL     1     139.602 133.890 146.012  1.00  0.00    -0.000 C 
BRANCH  18  19
ATOM     19  C   UNL     1     140.840 134.567 145.403  1.00  0.00    -0.003 C 
ATOM     20  C   UNL     1     140.657 136.073 145.213  1.00  0.00     0.004 C 
ENDBRANCH  18  19
ENDBRANCH  17  18
ENDBRANCH  16  17
ENDBRANCH  15  16
ENDBRANCH  14  15
ENDBRANCH  13  14
ENDBRANCH   2  13
TORSDOF 15
ENDMDL
MODEL 7
REMARK VINA RESULT:    -3.736     11.317     14.925
REMARK INTER + INTRA:          -9.434
REMARK INTER:                  -7.490
REMARK INTRA:                  -1.944
REMARK UNBOUND:                -2.422
REMARK SMILES CCCCCCCCC=CCCCCCCCC(=O)[O-]
REMARK SMILES IDX 10 1 9 2 11 3 12 4 13 5 14 6 15 7 16 8 17 9 18 10 19 11
REMARK SMILES IDX 20 12 8 13 7 14 6 15 5 16 4 17 3 18 2 19 1 20
REMARK H PARENT
REMARK Flexibility Score: inf
ROOT
ATOM      1  C   UNL     1     131.307 140.843 138.735  1.00  0.00    -0.031 C 
ATOM      2  C   UNL     1     130.094 140.304 138.957  1.00  0.00    -0.031 C 
ENDROOT
BRANCH   1   3
ATOM      3  C   UNL     1     132.144 140.561 137.513  1.00  0.00     0.027 C 
BRANCH   3   4
ATOM      4  C   UNL     1     133.342 139.671 137.875  1.00  0.00     0.004 C 
BRANCH   4   5
ATOM      5  C   UNL     1     134.688 140.332 137.538  1.00  0.00     0.000 C 
BRANCH   5   6
ATOM      6  C   UNL     1     135.659 140.317 138.729  1.00  0.00     0.000 C 
BRANCH   6   7
ATOM      7  C   UNL     1     134.980 140.840 140.000  1.00  0.00     0.000 C 
BRANCH   7   8
ATOM      8  C   UNL     1     135.874 140.630 141.228  1.00  0.00     0.006 C 
BRANCH   8   9
ATOM      9  C   UNL     1     136.438 141.961 141.731  1.00  0.00     0.053 C 
BRANCH   9  10
ATOM     10  C   UNL     1     137.580 141.723 142.670  1.00  0.00     0.041 C 
ATOM     11  O   UNL     1     137.890 140.550 143.005  1.00  0.00    -0.550 OA
ATOM     12  O   UNL     1     138.331 142.794 143.135  1.00  0.00    -0.550 OA
ENDBRANCH   9  10
ENDBRANCH   8   9
ENDBRANCH   7   8
ENDBRANCH   6   7
ENDBRANCH   5   6
ENDBRANCH   4   5
ENDBRANCH   3   4
ENDBRANCH   1   3
BRANCH   2  13
ATOM     13  C   UNL     1     129.452 139.294 138.035  1.00  0.00     0.027 C 
BRANCH  13  14
ATOM     14  C   UNL     1     129.077 137.997 138.765  1.00  0.00     0.004 C 
BRANCH  14  15
ATOM     15  C   UNL     1     130.028 136.840 138.412  1.00  0.00     0.000 C 
BRANCH  15  16
ATOM     16  C   UNL     1     130.641 136.987 137.010  1.00  0.00     0.000 C 
BRANCH  16  17
ATOM     17  C   UNL     1     132.043 136.368 136.909  1.00  0.00    -0.000 C 
BRANCH  17  18
ATOM     18  C   UNL     1     132.651 136.610 135.520  1.00  0.00    -0.000 C 
BRANCH  18  19
ATOM     19  C   UNL     1     132.198 137.942 134.901  1.00  0.00    -0.003 C 
ATOM     20  C   UNL     1     133.174 138.468 133.849  1.00  0.00     0.004 C 
ENDBRANCH  18  19
ENDBRANCH  17  18
ENDBRANCH  16  17
ENDBRANCH  15  16
ENDBRANCH  14  15
ENDBRANCH  13  14
ENDBRANCH   2  13
TORSDOF 15
ENDMDL
MODEL 8
REMARK VINA RESULT:    -3.733      4.214      8.954
REMARK INTER + INTRA:          -9.427
REMARK INTER:                  -6.793
REMARK INTRA:                  -2.634
REMARK UNBOUND:                -2.422
REMARK SMILES CCCCCCCCC=CCCCCCCCC(=O)[O-]
REMARK SMILES IDX 10 1 9 2 11 3 12 4 13 5 14 6 15 7 16 8 17 9 18 10 19 11
REMARK SMILES IDX 20 12 8 13 7 14 6 15 5 16 4 17 3 18 2 19 1 20
REMARK H PARENT
REMARK Flexibility Score: inf
ROOT
ATOM      1  C   UNL     1     137.817 135.164 148.835  1.00  0.00    -0.031 C 
ATOM      2  C   UNL     1     137.861 135.268 147.495  1.00  0.00    -0.031 C 
ENDROOT
BRANCH   1   3
ATOM      3  C   UNL     1     138.770 134.325 149.649  1.00  0.00     0.027 C 
BRANCH   3   4
ATOM      4  C   UNL     1     139.833 135.210 150.314  1.00  0.00     0.004 C 
BRANCH   4   5
ATOM      5  C   UNL     1     141.259 134.677 150.100  1.00  0.00     0.000 C 
BRANCH   5   6
ATOM      6  C   UNL     1     141.865 135.149 148.770  1.00  0.00     0.000 C 
BRANCH   6   7
ATOM      7  C   UNL     1     141.902 136.680 148.695  1.00  0.00     0.000 C 
BRANCH   7   8
ATOM      8  C   UNL     1     142.770 137.153 147.523  1.00  0.00     0.006 C 
BRANCH   8   9
ATOM      9  C   UNL     1     143.505 135.977 146.873  1.00  0.00     0.053 C 
BRANCH   9  10
ATOM     10  C   UNL     1     144.768 136.446 146.221  1.00  0.00     0.041 C 
ATOM     11  O   UNL     1     144.777 136.745 144.998  1.00  0.00    -0.550 OA
ATOM     12  O   UNL     1     145.923 136.601 146.976  1.00  0.00    -0.550 OA
ENDBRANCH   9  10
ENDBRANCH   8   9
ENDBRANCH   7   8
ENDBRANCH   6   7
ENDBRANCH   5   6
ENDBRANCH   4   5
ENDBRANCH   3   4
ENDBRANCH   1   3
BRANCH   2  13
ATOM     13  C   UNL     1     138.836 134.499 146.633  1.00  0.00     0.027 C 
BRANCH  13  14
ATOM     14  C   UNL     1     138.125 133.596 145.616  1.00  0.00     0.004 C 
BRANCH  14  15
ATOM     15  C   UNL     1     138.472 132.110 145.823  1.00  0.00     0.000 C 
BRANCH  15  16
ATOM     16  C   UNL     1     139.352 131.877 147.061  1.00  0.00     0.000 C 
BRANCH  16  17
ATOM     17  C   UNL     1     138.690 130.948 148.089  1.00  0.00    -0.000 C 
BRANCH  17  18
ATOM     18  C   UNL     1     137.204 130.737 147.762  1.00  0.00    -0.000 C 
BRANCH  18  19
ATOM     19  C   UNL     1     136.275 131.522 148.702  1.00  0.00    -0.003 C 
ATOM     20  C   UNL     1     135.372 132.503 147.956  1.00  0.00     0.004 C 
ENDBRANCH  18  19
ENDBRANCH  17  18
ENDBRANCH  16  17
ENDBRANCH  15  16
ENDBRANCH  14  15
ENDBRANCH  13  14
ENDBRANCH   2  13
TORSDOF 15
ENDMDL
MODEL 9
REMARK VINA RESULT:    -3.649      5.211      9.720
REMARK INTER + INTRA:          -9.271
REMARK INTER:                  -6.494
REMARK INTRA:                  -2.777
REMARK UNBOUND:                -2.422
REMARK SMILES CCCCCCCCC=CCCCCCCCC(=O)[O-]
REMARK SMILES IDX 10 1 9 2 11 3 12 4 13 5 14 6 15 7 16 8 17 9 18 10 19 11
REMARK SMILES IDX 20 12 8 13 7 14 6 15 5 16 4 17 3 18 2 19 1 20
REMARK H PARENT
REMARK Flexibility Score: inf
ROOT
ATOM      1  C   UNL     1     135.702 131.813 149.159  1.00  0.00    -0.031 C 
ATOM      2  C   UNL     1     136.106 130.564 148.868  1.00  0.00    -0.031 C 
ENDROOT
BRANCH   1   3
ATOM      3  C   UNL     1     136.621 132.907 149.641  1.00  0.00     0.027 C 
BRANCH   3   4
ATOM      4  C   UNL     1     136.754 134.006 148.577  1.00  0.00     0.004 C 
BRANCH   4   5
ATOM      5  C   UNL     1     137.927 134.958 148.861  1.00  0.00     0.000 C 
BRANCH   5   6
ATOM      6  C   UNL     1     138.497 134.776 150.276  1.00  0.00     0.000 C 
BRANCH   6   7
ATOM      7  C   UNL     1     139.976 135.177 150.329  1.00  0.00     0.000 C 
BRANCH   7   8
ATOM      8  C   UNL     1     140.723 134.687 149.082  1.00  0.00     0.006 C 
BRANCH   8   9
ATOM      9  C   UNL     1     142.050 135.431 148.909  1.00  0.00     0.053 C 
BRANCH   9  10
ATOM     10  C   UNL     1     142.013 136.287 147.681  1.00  0.00     0.041 C 
ATOM     11  O   UNL     1     141.314 135.946 146.692  1.00  0.00    -0.550 OA
ATOM     12  O   UNL     1     142.712 137.486 147.649  1.00  0.00    -0.550 OA
ENDBRANCH   9  10
ENDBRANCH   8   9
ENDBRANCH   7   8
ENDBRANCH   6   7
ENDBRANCH   5   6
ENDBRANCH   4   5
ENDBRANCH   3   4
ENDBRANCH   1   3
BRANCH   2  13
ATOM     13  C   UNL     1     137.527 130.085 149.053  1.00  0.00     0.027 C 
BRANCH  13  14
ATOM     14  C   UNL     1     138.361 130.229 147.773  1.00  0.00     0.004 C 
BRANCH  14  15
ATOM     15  C   UNL     1     139.438 131.321 147.905  1.00  0.00     0.000 C 
BRANCH  15  16
ATOM     16  C   UNL     1     139.418 132.313 146.732  1.00  0.00     0.000 C 
BRANCH  16  17
ATOM     17  C   UNL     1     138.482 131.870 145.598  1.00  0.00    -0.000 C 
BRANCH  17  18
ATOM     18  C   UNL     1     137.712 133.068 145.023  1.00  0.00    -0.000 C 
BRANCH  18  19
ATOM     19  C   UNL     1     136.311 132.683 144.519  1.00  0.00    -0.003 C 
ATOM     20  C   UNL     1     135.589 131.719 145.460  1.00  0.00     0.004 C 
ENDBRANCH  18  19
ENDBRANCH  17  18
ENDBRANCH  16  17
ENDBRANCH  15  16
ENDBRANCH  14  15
ENDBRANCH  13  14
ENDBRANCH   2  13
TORSDOF 15
ENDMDL
