MODEL 1
REMARK VINA RESULT:     1.871      0.000      0.000
REMARK INTER + INTRA:           4.190
REMARK INTER:                   2.636
REMARK INTRA:                   1.553
REMARK UNBOUND:                 1.553
REMARK SMILES CC1=CCCC(C)=CCC(C)(C)C=CC1
REMARK SMILES IDX 2 1 3 2 1 3 4 4 5 5 6 6 7 7 8 8 15 10 14 11 13 12 10 13
REMARK SMILES IDX 11 14 12 15 9 16
REMARK H PARENT
REMARK Flexibility Score: 60.00
ROOT
ATOM      1  C   UNL     1     154.084 135.674 162.298  1.00  0.00    -0.074 C 
ATOM      2  C   UNL     1     154.940 136.539 162.900  1.00  0.00    -0.027 C 
ATOM      3  C   UNL     1     154.594 134.930 161.087  1.00  0.00     0.039 C 
ENDROOT
BRANCH   2   4
ATOM      4  C   UNL     1     154.664 137.359 164.140  1.00  0.00     0.032 C 
BRANCH   4   5
ATOM      5  C   UNL     1     153.636 138.487 163.911  1.00  0.00     0.034 C 
BRANCH   5   6
ATOM      6  C   UNL     1     153.709 139.147 162.542  1.00  0.00    -0.077 C 
ATOM      7  C   UNL     1     154.830 140.117 162.262  1.00  0.00     0.039 C 
ATOM      8  C   UNL     1     152.806 138.924 161.562  1.00  0.00    -0.027 CG0
ATOM      9  G   UNL     1     151.629 137.978 161.665  1.00  0.00     0.000 G0
ENDBRANCH   5   6
ENDBRANCH   4   5
ENDBRANCH   2   4
BRANCH   1  10
ATOM     10  C   UNL     1     152.675 135.369 162.789  1.00  0.00     0.057 C 
BRANCH  10  11
ATOM     11  C   UNL     1     151.796 134.895 161.656  1.00  0.00    -0.026 C 
ATOM     12  C   UNL     1     151.256 135.632 160.657  1.00  0.00    -0.024 C 
BRANCH  12  13
ATOM     13  C   UNL     1     151.403 137.136 160.377  1.00  0.00    -0.014 C 
ATOM     14  C   UNL     1     150.173 137.643 159.593  1.00  0.00     0.016 C 
ATOM     15  C   UNL     1     152.637 137.326 159.461  1.00  0.00     0.016 C 
BRANCH  13  16
ATOM     16  C   UNL     1     151.618 137.991 161.665  1.00  0.00     0.038 CG0
ATOM     17  G   UNL     1     152.808 138.922 161.562  1.00  0.00     0.000 G0
ENDBRANCH  13  16
ENDBRANCH  12  13
ENDBRANCH  10  11
ENDBRANCH   1  10
TORSDOF 0
ENDMDL
MODEL 2
REMARK VINA RESULT:     1.922      1.452      4.144
REMARK INTER + INTRA:           4.262
REMARK INTER:                   2.198
REMARK INTRA:                   2.065
REMARK UNBOUND:                 1.553
REMARK SMILES CC1=CCCC(C)=CCC(C)(C)C=CC1
REMARK SMILES IDX 2 1 3 2 1 3 4 4 5 5 6 6 7 7 8 8 15 10 14 11 13 12 10 13
REMARK SMILES IDX 11 14 12 15 9 16
REMARK H PARENT
REMARK Flexibility Score: 60.00
ROOT
ATOM      1  C   UNL     1     151.527 136.836 160.370  1.00  0.00    -0.074 C 
ATOM      2  C   UNL     1     151.805 135.555 160.722  1.00  0.00    -0.027 C 
ATOM      3  C   UNL     1     151.362 137.126 158.897  1.00  0.00     0.039 C 
ENDROOT
BRANCH   2   4
ATOM      4  C   UNL     1     151.973 135.026 162.128  1.00  0.00     0.032 C 
BRANCH   4   5
ATOM      5  C   UNL     1     153.449 134.875 162.553  1.00  0.00     0.034 C 
BRANCH   5   6
ATOM      6  C   UNL     1     154.443 135.627 161.679  1.00  0.00    -0.077 C 
ATOM      7  C   UNL     1     154.719 135.114 160.288  1.00  0.00     0.039 C 
ATOM      8  C   UNL     1     155.110 136.727 162.092  1.00  0.00    -0.027 CG0
ATOM      9  G   UNL     1     154.949 137.382 163.447  1.00  0.00     0.000 G0
ENDBRANCH   5   6
ENDBRANCH   4   5
ENDBRANCH   2   4
BRANCH   1  10
ATOM     10  C   UNL     1     151.322 137.979 161.355  1.00  0.00     0.057 C 
BRANCH  10  11
ATOM     11  C   UNL     1     152.472 138.957 161.299  1.00  0.00    -0.026 C 
ATOM     12  C   UNL     1     153.468 139.123 162.200  1.00  0.00    -0.024 C 
BRANCH  12  13
ATOM     13  C   UNL     1     153.726 138.357 163.507  1.00  0.00    -0.014 C 
ATOM     14  C   UNL     1     152.454 137.585 163.921  1.00  0.00     0.016 C 
ATOM     15  C   UNL     1     154.006 139.401 164.617  1.00  0.00     0.016 C 
BRANCH  13  16
ATOM     16  C   UNL     1     154.950 137.390 163.431  1.00  0.00     0.038 CG0
ATOM     17  G   UNL     1     155.096 136.732 162.076  1.00  0.00     0.000 G0
ENDBRANCH  13  16
ENDBRANCH  12  13
ENDBRANCH  10  11
ENDBRANCH   1  10
TORSDOF 0
ENDMDL
MODEL 3
REMARK VINA RESULT:     1.927      1.490      3.466
REMARK INTER + INTRA:           4.269
REMARK INTER:                   2.698
REMARK INTRA:                   1.571
REMARK UNBOUND:                 1.553
REMARK SMILES CC1=CCCC(C)=CCC(C)(C)C=CC1
REMARK SMILES IDX 2 1 3 2 1 3 4 4 5 5 6 6 7 7 8 8 15 10 14 11 13 12 10 13
REMARK SMILES IDX 11 14 12 15 9 16
REMARK H PARENT
REMARK Flexibility Score: 60.00
ROOT
ATOM      1  C   UNL     1     153.714 138.241 162.822  1.00  0.00    -0.074 C 
ATOM      2  C   UNL     1     154.615 137.227 162.872  1.00  0.00    -0.027 C 
ATOM      3  C   UNL     1     153.388 138.938 164.121  1.00  0.00     0.039 C 
ENDROOT
BRANCH   2   4
ATOM      4  C   UNL     1     155.120 136.416 161.701  1.00  0.00     0.032 C 
BRANCH   4   5
ATOM      5  C   UNL     1     154.289 135.143 161.433  1.00  0.00     0.034 C 
BRANCH   5   6
ATOM      6  C   UNL     1     152.978 135.066 162.201  1.00  0.00    -0.077 C 
ATOM      7  C   UNL     1     153.022 134.925 163.702  1.00  0.00     0.039 C 
ATOM      8  C   UNL     1     151.766 135.100 161.605  1.00  0.00    -0.027 CG0
ATOM      9  G   UNL     1     151.535 135.250 160.116  1.00  0.00     0.000 G0
ENDBRANCH   5   6
ENDBRANCH   4   5
ENDBRANCH   2   4
BRANCH   1  10
ATOM     10  C   UNL     1     153.056 138.751 161.547  1.00  0.00     0.057 C 
BRANCH  10  11
ATOM     11  C   UNL     1     151.567 138.498 161.565  1.00  0.00    -0.026 C 
ATOM     12  C   UNL     1     150.854 137.667 160.769  1.00  0.00    -0.024 C 
BRANCH  12  13
ATOM     13  C   UNL     1     151.351 136.737 159.651  1.00  0.00    -0.014 C 
ATOM     14  C   UNL     1     152.672 137.282 159.067  1.00  0.00     0.016 C 
ATOM     15  C   UNL     1     150.302 136.769 158.512  1.00  0.00     0.016 C 
BRANCH  13  16
ATOM     16  C   UNL     1     151.528 135.254 160.108  1.00  0.00     0.038 CG0
ATOM     17  G   UNL     1     151.752 135.120 161.599  1.00  0.00     0.000 G0
ENDBRANCH  13  16
ENDBRANCH  12  13
ENDBRANCH  10  11
ENDBRANCH   1  10
TORSDOF 0
ENDMDL
MODEL 4
REMARK VINA RESULT:     3.048      1.021      3.691
REMARK INTER + INTRA:           5.849
REMARK INTER:                   4.005
REMARK INTRA:                   1.844
REMARK UNBOUND:                 1.553
REMARK SMILES CC1=CCCC(C)=CCC(C)(C)C=CC1
REMARK SMILES IDX 2 1 3 2 1 3 4 4 5 5 6 6 7 7 8 8 15 10 14 11 13 12 10 13
REMARK SMILES IDX 11 14 12 15 9 16
REMARK H PARENT
REMARK Flexibility Score: 60.00
ROOT
ATOM      1  C   UNL     1     153.618 134.953 161.564  1.00  0.00    -0.074 C 
ATOM      2  C   UNL     1     152.526 134.876 160.761  1.00  0.00    -0.027 C 
ATOM      3  C   UNL     1     154.971 134.906 160.894  1.00  0.00     0.039 C 
ENDROOT
BRANCH   2   4
ATOM      4  C   UNL     1     151.081 134.941 161.202  1.00  0.00     0.032 C 
BRANCH   4   5
ATOM      5  C   UNL     1     150.549 136.382 161.344  1.00  0.00     0.034 C 
BRANCH   5   6
ATOM      6  C   UNL     1     151.480 137.461 160.812  1.00  0.00    -0.077 C 
ATOM      7  C   UNL     1     151.414 137.821 159.349  1.00  0.00     0.039 C 
ATOM      8  C   UNL     1     152.384 138.107 161.581  1.00  0.00    -0.027 CG0
ATOM      9  G   UNL     1     152.578 137.882 163.066  1.00  0.00     0.000 G0
ENDBRANCH   5   6
ENDBRANCH   4   5
ENDBRANCH   2   4
BRANCH   1  10
ATOM     10  C   UNL     1     153.570 135.134 163.075  1.00  0.00     0.057 C 
BRANCH  10  11
ATOM     11  C   UNL     1     154.805 135.844 163.577  1.00  0.00    -0.026 C 
ATOM     12  C   UNL     1     154.975 137.170 163.788  1.00  0.00    -0.024 C 
BRANCH  12  13
ATOM     13  C   UNL     1     153.966 138.315 163.606  1.00  0.00    -0.014 C 
ATOM     14  C   UNL     1     154.573 139.404 162.695  1.00  0.00     0.016 C 
ATOM     15  C   UNL     1     153.731 138.960 164.994  1.00  0.00     0.016 C 
BRANCH  13  16
ATOM     16  C   UNL     1     152.586 137.846 163.049  1.00  0.00     0.038 CG0
ATOM     17  G   UNL     1     152.418 138.136 161.572  1.00  0.00     0.000 G0
ENDBRANCH  13  16
ENDBRANCH  12  13
ENDBRANCH  10  11
ENDBRANCH   1  10
TORSDOF 0
ENDMDL
MODEL 5
REMARK VINA RESULT:     3.534      1.113      3.749
REMARK INTER + INTRA:           6.533
REMARK INTER:                   5.386
REMARK INTRA:                   1.148
REMARK UNBOUND:                 1.553
REMARK SMILES CC1=CCCC(C)=CCC(C)(C)C=CC1
REMARK SMILES IDX 2 1 3 2 1 3 4 4 5 5 6 6 7 7 8 8 15 10 14 11 13 12 10 13
REMARK SMILES IDX 11 14 12 15 9 16
REMARK H PARENT
REMARK Flexibility Score: 60.00
ROOT
ATOM      1  C   UNL     1     153.515 135.877 163.289  1.00  0.00    -0.074 C 
ATOM      2  C   UNL     1     152.908 135.060 162.391  1.00  0.00    -0.027 C 
ATOM      3  C   UNL     1     154.915 135.508 163.720  1.00  0.00     0.039 C 
ENDROOT
BRANCH   2   4
ATOM      4  C   UNL     1     151.533 135.249 161.791  1.00  0.00     0.032 C 
BRANCH   4   5
ATOM      5  C   UNL     1     151.565 135.686 160.312  1.00  0.00     0.034 C 
BRANCH   5   6
ATOM      6  C   UNL     1     151.016 137.081 160.048  1.00  0.00    -0.077 C 
ATOM      7  C   UNL     1     149.616 137.219 159.505  1.00  0.00     0.039 C 
ATOM      8  C   UNL     1     151.727 138.210 160.259  1.00  0.00    -0.027 CG0
ATOM      9  G   UNL     1     153.136 138.258 160.810  1.00  0.00     0.000 G0
ENDBRANCH   5   6
ENDBRANCH   4   5
ENDBRANCH   2   4
BRANCH   1  10
ATOM     10  C   UNL     1     152.904 137.156 163.846  1.00  0.00     0.057 C 
BRANCH  10  11
ATOM     11  C   UNL     1     153.927 138.267 163.901  1.00  0.00    -0.026 C 
ATOM     12  C   UNL     1     154.127 139.258 163.001  1.00  0.00    -0.024 C 
BRANCH  12  13
ATOM     13  C   UNL     1     153.367 139.549 161.698  1.00  0.00    -0.014 C 
ATOM     14  C   UNL     1     154.114 140.632 160.889  1.00  0.00     0.016 C 
ATOM     15  C   UNL     1     151.986 140.138 162.080  1.00  0.00     0.016 C 
BRANCH  13  16
ATOM     16  C   UNL     1     153.127 138.281 160.820  1.00  0.00     0.038 CG0
ATOM     17  G   UNL     1     151.726 138.216 160.250  1.00  0.00     0.000 G0
ENDBRANCH  13  16
ENDBRANCH  12  13
ENDBRANCH  10  11
ENDBRANCH   1  10
TORSDOF 0
ENDMDL
MODEL 6
REMARK VINA RESULT:     4.370      1.416      3.622
REMARK INTER + INTRA:           7.712
REMARK INTER:                   6.034
REMARK INTRA:                   1.677
REMARK UNBOUND:                 1.553
REMARK SMILES CC1=CCCC(C)=CCC(C)(C)C=CC1
REMARK SMILES IDX 2 1 3 2 1 3 4 4 5 5 6 6 7 7 8 8 15 10 14 11 13 12 10 13
REMARK SMILES IDX 11 14 12 15 9 16
REMARK H PARENT
REMARK Flexibility Score: 60.00
ROOT
ATOM      1  C   UNL     1     150.881 137.527 159.996  1.00  0.00    -0.074 C 
ATOM      2  C   UNL     1     150.794 138.668 160.726  1.00  0.00    -0.027 C 
ATOM      3  C   UNL     1     149.815 137.293 158.953  1.00  0.00     0.039 C 
ENDROOT
BRANCH   2   4
ATOM      4  C   UNL     1     151.761 139.129 161.792  1.00  0.00     0.032 C 
BRANCH   4   5
ATOM      5  C   UNL     1     153.168 139.451 161.245  1.00  0.00     0.034 C 
BRANCH   5   6
ATOM      6  C   UNL     1     154.301 139.234 162.236  1.00  0.00    -0.077 C 
ATOM      7  C   UNL     1     154.910 140.434 162.918  1.00  0.00     0.039 C 
ATOM      8  C   UNL     1     154.810 138.016 162.528  1.00  0.00    -0.027 CG0
ATOM      9  G   UNL     1     154.315 136.708 161.948  1.00  0.00     0.000 G0
ENDBRANCH   5   6
ENDBRANCH   4   5
ENDBRANCH   2   4
BRANCH   1  10
ATOM     10  C   UNL     1     152.002 136.504 160.123  1.00  0.00     0.057 C 
BRANCH  10  11
ATOM     11  C   UNL     1     151.652 135.437 161.134  1.00  0.00    -0.026 C 
ATOM     12  C   UNL     1     152.262 135.177 162.314  1.00  0.00    -0.024 C 
BRANCH  12  13
ATOM     13  C   UNL     1     153.452 135.897 162.967  1.00  0.00    -0.014 C 
ATOM     14  C   UNL     1     154.327 134.876 163.725  1.00  0.00     0.016 C 
ATOM     15  C   UNL     1     152.885 136.883 164.019  1.00  0.00     0.016 C 
BRANCH  13  16
ATOM     16  C   UNL     1     154.318 136.712 161.955  1.00  0.00     0.038 CG0
ATOM     17  G   UNL     1     154.807 138.027 162.525  1.00  0.00     0.000 G0
ENDBRANCH  13  16
ENDBRANCH  12  13
ENDBRANCH  10  11
ENDBRANCH   1  10
TORSDOF 0
ENDMDL
MODEL 7
REMARK VINA RESULT:     4.390     20.407     21.954
REMARK INTER + INTRA:           7.740
REMARK INTER:                   6.509
REMARK INTRA:                   1.231
REMARK UNBOUND:                 1.553
REMARK SMILES CC1=CCCC(C)=CCC(C)(C)C=CC1
REMARK SMILES IDX 2 1 3 2 1 3 4 4 5 5 6 6 7 7 8 8 15 10 14 11 13 12 10 13
REMARK SMILES IDX 11 14 12 15 9 16
REMARK H PARENT
REMARK Flexibility Score: 60.00
ROOT
ATOM      1  C   UNL     1     136.586 153.938 162.910  1.00  0.00    -0.074 C 
ATOM      2  C   UNL     1     135.825 152.843 163.162  1.00  0.00    -0.027 C 
ATOM      3  C   UNL     1     135.906 155.112 162.246  1.00  0.00     0.039 C 
ENDROOT
BRANCH   2   4
ATOM      4  C   UNL     1     136.277 151.574 163.848  1.00  0.00     0.032 C 
BRANCH   4   5
ATOM      5  C   UNL     1     137.506 150.922 163.180  1.00  0.00     0.034 C 
BRANCH   5   6
ATOM      6  C   UNL     1     137.389 150.736 161.675  1.00  0.00    -0.077 C 
ATOM      7  C   UNL     1     136.335 149.799 161.139  1.00  0.00     0.039 C 
ATOM      8  C   UNL     1     138.196 151.355 160.785  1.00  0.00    -0.027 CG0
ATOM      9  G   UNL     1     139.294 152.333 161.145  1.00  0.00     0.000 G0
ENDBRANCH   5   6
ENDBRANCH   4   5
ENDBRANCH   2   4
BRANCH   1  10
ATOM     10  C   UNL     1     138.052 154.080 163.295  1.00  0.00     0.057 C 
BRANCH  10  11
ATOM     11  C   UNL     1     138.746 155.101 162.425  1.00  0.00    -0.026 C 
ATOM     12  C   UNL     1     139.261 154.926 161.185  1.00  0.00    -0.024 C 
BRANCH  12  13
ATOM     13  C   UNL     1     139.264 153.664 160.309  1.00  0.00    -0.014 C 
ATOM     14  C   UNL     1     140.443 153.722 159.314  1.00  0.00     0.016 C 
ATOM     15  C   UNL     1     137.960 153.668 159.473  1.00  0.00     0.016 C 
BRANCH  13  16
ATOM     16  C   UNL     1     139.310 152.336 161.130  1.00  0.00     0.038 CG0
ATOM     17  G   UNL     1     138.190 151.383 160.772  1.00  0.00     0.000 G0
ENDBRANCH  13  16
ENDBRANCH  12  13
ENDBRANCH  10  11
ENDBRANCH   1  10
TORSDOF 0
ENDMDL
MODEL 8
REMARK VINA RESULT:     4.680     20.741     22.332
REMARK INTER + INTRA:           8.148
REMARK INTER:                   6.434
REMARK INTRA:                   1.715
REMARK UNBOUND:                 1.553
REMARK SMILES CC1=CCCC(C)=CCC(C)(C)C=CC1
REMARK SMILES IDX 2 1 3 2 1 3 4 4 5 5 6 6 7 7 8 8 15 10 14 11 13 12 10 13
REMARK SMILES IDX 11 14 12 15 9 16
REMARK H PARENT
REMARK Flexibility Score: 60.00
ROOT
ATOM      1  C   UNL     1     136.774 151.549 162.859  1.00  0.00    -0.074 C 
ATOM      2  C   UNL     1     136.847 152.360 163.946  1.00  0.00    -0.027 C 
ATOM      3  C   UNL     1     135.466 150.834 162.619  1.00  0.00     0.039 C 
ENDROOT
BRANCH   2   4
ATOM      4  C   UNL     1     138.033 153.200 164.362  1.00  0.00     0.032 C 
BRANCH   4   5
ATOM      5  C   UNL     1     138.017 154.622 163.762  1.00  0.00     0.034 C 
BRANCH   5   6
ATOM      6  C   UNL     1     136.972 154.843 162.678  1.00  0.00    -0.077 C 
ATOM      7  C   UNL     1     135.513 154.808 163.058  1.00  0.00     0.039 C 
ATOM      8  C   UNL     1     137.283 155.054 161.380  1.00  0.00    -0.027 CG0
ATOM      9  G   UNL     1     138.690 155.133 160.827  1.00  0.00     0.000 G0
ENDBRANCH   5   6
ENDBRANCH   4   5
ENDBRANCH   2   4
BRANCH   1  10
ATOM     10  C   UNL     1     137.896 151.356 161.848  1.00  0.00     0.057 C 
BRANCH  10  11
ATOM     11  C   UNL     1     137.481 151.838 160.478  1.00  0.00    -0.026 C 
ATOM     12  C   UNL     1     137.999 152.865 159.765  1.00  0.00    -0.024 C 
BRANCH  12  13
ATOM     13  C   UNL     1     139.157 153.807 160.128  1.00  0.00    -0.014 C 
ATOM     14  C   UNL     1     139.983 154.130 158.863  1.00  0.00     0.016 C 
ATOM     15  C   UNL     1     140.093 153.049 161.102  1.00  0.00     0.016 C 
BRANCH  13  16
ATOM     16  C   UNL     1     138.693 155.125 160.825  1.00  0.00     0.038 CG0
ATOM     17  G   UNL     1     137.284 155.036 161.372  1.00  0.00     0.000 G0
ENDBRANCH  13  16
ENDBRANCH  12  13
ENDBRANCH  10  11
ENDBRANCH   1  10
TORSDOF 0
ENDMDL
