MODEL 1
REMARK VINA RESULT:    -4.415      0.000      0.000
REMARK INTER + INTRA:          -8.120
REMARK INTER:                  -6.737
REMARK INTRA:                  -1.383
REMARK UNBOUND:                -1.383
REMARK SMILES CC(=O)CCC=C(C)CCC=C(C)CCC=C(C)C
REMARK SMILES IDX 10 1 11 2 12 3 13 4 14 5 15 6 16 7 18 8 17 9 19 10 9 11 7 12
REMARK SMILES IDX 6 13 8 14 5 15 4 16 2 17 3 18 1 19
REMARK H PARENT
REMARK Flexibility Score: inf
ROOT
ATOM      1  C   UNL     1      13.407  16.997  24.925  1.00  0.00     0.032 C 
ENDROOT
BRANCH   1   2
ATOM      2  C   UNL     1      12.512  15.793  24.756  1.00  0.00    -0.028 C 
ATOM      3  C   UNL     1      11.901  15.134  25.766  1.00  0.00    -0.077 C 
ATOM      4  C   UNL     1      11.069  13.924  25.429  1.00  0.00     0.039 C 
BRANCH   3   5
ATOM      5  C   UNL     1      11.965  15.594  27.210  1.00  0.00     0.034 C 
BRANCH   5   6
ATOM      6  C   UNL     1      12.590  14.510  28.095  1.00  0.00     0.032 C 
BRANCH   6   7
ATOM      7  C   UNL     1      14.080  14.410  27.871  1.00  0.00    -0.028 C 
ATOM      8  C   UNL     1      16.236  13.211  27.653  1.00  0.00     0.039 C 
ATOM      9  C   UNL     1      14.747  13.237  27.883  1.00  0.00    -0.080 C 
ATOM     10  C   UNL     1      14.040  11.927  28.124  1.00  0.00     0.039 C 
ENDBRANCH   6   7
ENDBRANCH   5   6
ENDBRANCH   3   5
ENDBRANCH   1   2
BRANCH   1  11
ATOM     11  C   UNL     1      14.757  16.615  25.550  1.00  0.00     0.034 C 
BRANCH  11  12
ATOM     12  C   UNL     1      15.422  17.801  26.225  1.00  0.00    -0.077 C 
ATOM     13  C   UNL     1      16.067  18.775  25.542  1.00  0.00    -0.028 C 
ATOM     14  C   UNL     1      15.377  17.898  27.729  1.00  0.00     0.039 C 
BRANCH  13  15
ATOM     15  C   UNL     1      16.151  18.883  24.037  1.00  0.00     0.035 C 
BRANCH  15  16
ATOM     16  C   UNL     1      16.057  20.344  23.584  1.00  0.00     0.079 C 
BRANCH  16  17
ATOM     17  C   UNL     1      15.162  20.495  22.381  1.00  0.00     0.130 C 
ATOM     18  O   UNL     1      14.720  21.598  22.096  1.00  0.00    -0.300 OA
ATOM     19  C   UNL     1      14.809  19.319  21.521  1.00  0.00     0.087 C 
ENDBRANCH  16  17
ENDBRANCH  15  16
ENDBRANCH  13  15
ENDBRANCH  11  12
ENDBRANCH   1  11
TORSDOF 9
ENDMDL
MODEL 2
REMARK VINA RESULT:    -4.032      1.277      2.689
REMARK INTER + INTRA:          -7.537
REMARK INTER:                  -6.691
REMARK INTRA:                  -0.846
REMARK UNBOUND:                -1.383
REMARK SMILES CC(=O)CCC=C(C)CCC=C(C)CCC=C(C)C
REMARK SMILES IDX 10 1 11 2 12 3 13 4 14 5 15 6 16 7 18 8 17 9 19 10 9 11 7 12
REMARK SMILES IDX 6 13 8 14 5 15 4 16 2 17 3 18 1 19
REMARK H PARENT
REMARK Flexibility Score: inf
ROOT
ATOM      1  C   UNL     1      13.976  16.916  25.404  1.00  0.00     0.032 C 
ENDROOT
BRANCH   1   2
ATOM      2  C   UNL     1      14.639  15.662  25.924  1.00  0.00    -0.028 C 
ATOM      3  C   UNL     1      14.417  15.116  27.140  1.00  0.00    -0.077 C 
ATOM      4  C   UNL     1      15.192  13.880  27.519  1.00  0.00     0.039 C 
BRANCH   3   5
ATOM      5  C   UNL     1      13.381  15.651  28.109  1.00  0.00     0.034 C 
BRANCH   5   6
ATOM      6  C   UNL     1      11.969  15.484  27.536  1.00  0.00     0.032 C 
BRANCH   6   7
ATOM      7  C   UNL     1      11.638  14.029  27.307  1.00  0.00    -0.028 C 
ATOM      8  C   UNL     1      10.875  12.091  25.967  1.00  0.00     0.039 C 
ATOM      9  C   UNL     1      11.186  13.556  26.125  1.00  0.00    -0.080 C 
ATOM     10  C   UNL     1      10.979  14.462  24.937  1.00  0.00     0.039 C 
ENDBRANCH   6   7
ENDBRANCH   5   6
ENDBRANCH   3   5
ENDBRANCH   1   2
BRANCH   1  11
ATOM     11  C   UNL     1      14.186  18.103  26.357  1.00  0.00     0.034 C 
BRANCH  11  12
ATOM     12  C   UNL     1      15.640  18.538  26.403  1.00  0.00    -0.077 C 
ATOM     13  C   UNL     1      16.313  18.986  25.318  1.00  0.00    -0.028 C 
ATOM     14  C   UNL     1      16.378  18.456  27.715  1.00  0.00     0.039 C 
BRANCH  13  15
ATOM     15  C   UNL     1      15.720  19.204  23.945  1.00  0.00     0.035 C 
BRANCH  15  16
ATOM     16  C   UNL     1      16.478  20.298  23.185  1.00  0.00     0.079 C 
BRANCH  16  17
ATOM     17  C   UNL     1      15.592  21.478  22.883  1.00  0.00     0.130 C 
ATOM     18  O   UNL     1      15.679  22.486  23.568  1.00  0.00    -0.300 OA
ATOM     19  C   UNL     1      14.608  21.443  21.751  1.00  0.00     0.087 C 
ENDBRANCH  16  17
ENDBRANCH  15  16
ENDBRANCH  13  15
ENDBRANCH  11  12
ENDBRANCH   1  11
TORSDOF 9
ENDMDL
MODEL 3
REMARK VINA RESULT:    -3.645      2.384      7.135
REMARK INTER + INTRA:          -6.945
REMARK INTER:                  -5.990
REMARK INTRA:                  -0.955
REMARK UNBOUND:                -1.383
REMARK SMILES CC(=O)CCC=C(C)CCC=C(C)CCC=C(C)C
REMARK SMILES IDX 10 1 11 2 12 3 13 4 14 5 15 6 16 7 18 8 17 9 19 10 9 11 7 12
REMARK SMILES IDX 6 13 8 14 5 15 4 16 2 17 3 18 1 19
REMARK H PARENT
REMARK Flexibility Score: inf
ROOT
ATOM      1  C   UNL     1      14.572  15.727  27.039  1.00  0.00     0.032 C 
ENDROOT
BRANCH   1   2
ATOM      2  C   UNL     1      15.412  16.818  27.658  1.00  0.00    -0.028 C 
ATOM      3  C   UNL     1      15.737  17.983  27.054  1.00  0.00    -0.077 C 
ATOM      4  C   UNL     1      16.617  18.952  27.798  1.00  0.00     0.039 C 
BRANCH   3   5
ATOM      5  C   UNL     1      15.204  18.383  25.691  1.00  0.00     0.034 C 
BRANCH   5   6
ATOM      6  C   UNL     1      16.355  18.737  24.744  1.00  0.00     0.032 C 
BRANCH   6   7
ATOM      7  C   UNL     1      16.187  20.124  24.172  1.00  0.00    -0.028 C 
ATOM      8  C   UNL     1      15.422  21.776  22.492  1.00  0.00     0.039 C 
ATOM      9  C   UNL     1      15.552  20.365  23.004  1.00  0.00    -0.080 C 
ATOM     10  C   UNL     1      14.958  19.250  22.182  1.00  0.00     0.039 C 
ENDBRANCH   6   7
ENDBRANCH   5   6
ENDBRANCH   3   5
ENDBRANCH   1   2
BRANCH   1  11
ATOM     11  C   UNL     1      13.759  14.968  28.099  1.00  0.00     0.034 C 
BRANCH  11  12
ATOM     12  C   UNL     1      14.079  13.484  28.100  1.00  0.00    -0.077 C 
ATOM     13  C   UNL     1      13.127  12.522  28.095  1.00  0.00    -0.028 C 
ATOM     14  C   UNL     1      15.524  13.055  28.119  1.00  0.00     0.039 C 
BRANCH  13  15
ATOM     15  C   UNL     1      11.638  12.761  28.002  1.00  0.00     0.035 C 
BRANCH  15  16
ATOM     16  C   UNL     1      11.167  12.740  26.544  1.00  0.00     0.079 C 
BRANCH  16  17
ATOM     17  C   UNL     1      10.966  14.132  26.006  1.00  0.00     0.130 C 
ATOM     18  O   UNL     1      10.880  15.071  26.784  1.00  0.00    -0.300 OA
ATOM     19  C   UNL     1      10.875  14.392  24.531  1.00  0.00     0.087 C 
ENDBRANCH  16  17
ENDBRANCH  15  16
ENDBRANCH  13  15
ENDBRANCH  11  12
ENDBRANCH   1  11
TORSDOF 9
ENDMDL
MODEL 4
REMARK VINA RESULT:    -3.024      1.616      3.344
REMARK INTER + INTRA:          -5.998
REMARK INTER:                  -4.821
REMARK INTRA:                  -1.177
REMARK UNBOUND:                -1.383
REMARK SMILES CC(=O)CCC=C(C)CCC=C(C)CCC=C(C)C
REMARK SMILES IDX 10 1 11 2 12 3 13 4 14 5 15 6 16 7 18 8 17 9 19 10 9 11 7 12
REMARK SMILES IDX 6 13 8 14 5 15 4 16 2 17 3 18 1 19
REMARK H PARENT
REMARK Flexibility Score: inf
ROOT
ATOM      1  C   UNL     1      15.749  18.212  25.620  1.00  0.00     0.032 C 
ENDROOT
BRANCH   1   2
ATOM      2  C   UNL     1      14.506  18.230  26.477  1.00  0.00    -0.028 C 
ATOM      3  C   UNL     1      14.171  17.277  27.375  1.00  0.00    -0.077 C 
ATOM      4  C   UNL     1      12.873  17.427  28.125  1.00  0.00     0.039 C 
BRANCH   3   5
ATOM      5  C   UNL     1      15.071  16.102  27.707  1.00  0.00     0.034 C 
BRANCH   5   6
ATOM      6  C   UNL     1      14.781  14.920  26.777  1.00  0.00     0.032 C 
BRANCH   6   7
ATOM      7  C   UNL     1      13.716  14.018  27.351  1.00  0.00    -0.028 C 
ATOM      8  C   UNL     1      11.444  13.039  27.485  1.00  0.00     0.039 C 
ATOM      9  C   UNL     1      12.458  13.963  26.862  1.00  0.00    -0.080 C 
ATOM     10  C   UNL     1      12.027  14.811  25.692  1.00  0.00     0.039 C 
ENDBRANCH   6   7
ENDBRANCH   5   6
ENDBRANCH   3   5
ENDBRANCH   1   2
BRANCH   1  11
ATOM     11  C   UNL     1      15.461  18.715  24.197  1.00  0.00     0.034 C 
BRANCH  11  12
ATOM     12  C   UNL     1      16.516  19.700  23.723  1.00  0.00    -0.077 C 
ATOM     13  C   UNL     1      16.218  20.839  23.057  1.00  0.00    -0.028 C 
ATOM     14  C   UNL     1      17.967  19.393  23.994  1.00  0.00     0.039 C 
BRANCH  13  15
ATOM     15  C   UNL     1      14.825  21.346  22.762  1.00  0.00     0.035 C 
BRANCH  15  16
ATOM     16  C   UNL     1      14.676  21.721  21.284  1.00  0.00     0.079 C 
BRANCH  16  17
ATOM     17  C   UNL     1      14.014  20.621  20.496  1.00  0.00     0.130 C 
ATOM     18  O   UNL     1      14.436  19.478  20.587  1.00  0.00    -0.300 OA
ATOM     19  C   UNL     1      12.838  20.899  19.607  1.00  0.00     0.087 C 
ENDBRANCH  16  17
ENDBRANCH  15  16
ENDBRANCH  13  15
ENDBRANCH  11  12
ENDBRANCH   1  11
TORSDOF 9
ENDMDL
MODEL 5
REMARK VINA RESULT:    -2.976      2.786      6.983
REMARK INTER + INTRA:          -5.925
REMARK INTER:                  -5.583
REMARK INTRA:                  -0.342
REMARK UNBOUND:                -1.383
REMARK SMILES CC(=O)CCC=C(C)CCC=C(C)CCC=C(C)C
REMARK SMILES IDX 10 1 11 2 12 3 13 4 14 5 15 6 16 7 18 8 17 9 19 10 9 11 7 12
REMARK SMILES IDX 6 13 8 14 5 15 4 16 2 17 3 18 1 19
REMARK H PARENT
REMARK Flexibility Score: inf
ROOT
ATOM      1  C   UNL     1      13.354  17.807  26.899  1.00  0.00     0.032 C 
ENDROOT
BRANCH   1   2
ATOM      2  C   UNL     1      14.632  17.954  27.688  1.00  0.00    -0.028 C 
ATOM      3  C   UNL     1      15.777  18.497  27.215  1.00  0.00    -0.077 C 
ATOM      4  C   UNL     1      16.978  18.535  28.124  1.00  0.00     0.039 C 
BRANCH   3   5
ATOM      5  C   UNL     1      15.885  19.124  25.839  1.00  0.00     0.034 C 
BRANCH   5   6
ATOM      6  C   UNL     1      15.732  18.060  24.747  1.00  0.00     0.032 C 
BRANCH   6   7
ATOM      7  C   UNL     1      14.969  18.597  23.560  1.00  0.00    -0.028 C 
ATOM      8  C   UNL     1      14.615  20.090  21.615  1.00  0.00     0.039 C 
ATOM      9  C   UNL     1      15.430  19.603  22.785  1.00  0.00    -0.080 C 
ATOM     10  C   UNL     1      16.757  20.266  23.055  1.00  0.00     0.039 C 
ENDBRANCH   6   7
ENDBRANCH   5   6
ENDBRANCH   3   5
ENDBRANCH   1   2
BRANCH   1  11
ATOM     11  C   UNL     1      12.582  16.541  27.304  1.00  0.00     0.034 C 
BRANCH  11  12
ATOM     12  C   UNL     1      12.677  15.459  26.243  1.00  0.00    -0.077 C 
ATOM     13  C   UNL     1      13.827  14.811  25.947  1.00  0.00    -0.028 C 
ATOM     14  C   UNL     1      11.436  15.094  25.468  1.00  0.00     0.039 C 
BRANCH  13  15
ATOM     15  C   UNL     1      15.145  14.991  26.665  1.00  0.00     0.035 C 
BRANCH  15  16
ATOM     16  C   UNL     1      15.094  14.383  28.071  1.00  0.00     0.079 C 
BRANCH  16  17
ATOM     17  C   UNL     1      14.788  12.909  28.026  1.00  0.00     0.130 C 
ATOM     18  O   UNL     1      13.624  12.536  28.047  1.00  0.00    -0.300 OA
ATOM     19  C   UNL     1      15.883  11.888  27.949  1.00  0.00     0.087 C 
ENDBRANCH  16  17
ENDBRANCH  15  16
ENDBRANCH  13  15
ENDBRANCH  11  12
ENDBRANCH   1  11
TORSDOF 9
ENDMDL
MODEL 6
REMARK VINA RESULT:    -2.953      2.404      7.082
REMARK INTER + INTRA:          -5.890
REMARK INTER:                  -4.920
REMARK INTRA:                  -0.970
REMARK UNBOUND:                -1.383
REMARK SMILES CC(=O)CCC=C(C)CCC=C(C)CCC=C(C)C
REMARK SMILES IDX 10 1 11 2 12 3 13 4 14 5 15 6 16 7 18 8 17 9 19 10 9 11 7 12
REMARK SMILES IDX 6 13 8 14 5 15 4 16 2 17 3 18 1 19
REMARK H PARENT
REMARK Flexibility Score: inf
ROOT
ATOM      1  C   UNL     1      14.155  17.296  27.108  1.00  0.00     0.032 C 
ENDROOT
BRANCH   1   2
ATOM      2  C   UNL     1      15.551  17.820  26.869  1.00  0.00    -0.028 C 
ATOM      3  C   UNL     1      15.990  18.354  25.708  1.00  0.00    -0.077 C 
ATOM      4  C   UNL     1      17.428  18.797  25.624  1.00  0.00     0.039 C 
BRANCH   3   5
ATOM      5  C   UNL     1      15.087  18.584  24.511  1.00  0.00     0.034 C 
BRANCH   5   6
ATOM      6  C   UNL     1      15.839  19.326  23.402  1.00  0.00     0.032 C 
BRANCH   6   7
ATOM      7  C   UNL     1      15.003  19.434  22.149  1.00  0.00    -0.028 C 
ATOM      8  C   UNL     1      13.788  20.650  20.366  1.00  0.00     0.039 C 
ATOM      9  C   UNL     1      14.623  20.617  21.619  1.00  0.00    -0.080 C 
ATOM     10  C   UNL     1      15.015  21.929  22.251  1.00  0.00     0.039 C 
ENDBRANCH   6   7
ENDBRANCH   5   6
ENDBRANCH   3   5
ENDBRANCH   1   2
BRANCH   1  11
ATOM     11  C   UNL     1      14.152  16.134  28.113  1.00  0.00     0.034 C 
BRANCH  11  12
ATOM     12  C   UNL     1      14.139  14.785  27.416  1.00  0.00    -0.077 C 
ATOM     13  C   UNL     1      13.034  14.009  27.328  1.00  0.00    -0.028 C 
ATOM     14  C   UNL     1      15.418  14.275  26.803  1.00  0.00     0.039 C 
BRANCH  13  15
ATOM     15  C   UNL     1      11.654  14.387  27.816  1.00  0.00     0.035 C 
BRANCH  15  16
ATOM     16  C   UNL     1      10.876  15.144  26.734  1.00  0.00     0.079 C 
BRANCH  16  17
ATOM     17  C   UNL     1      11.372  14.803  25.354  1.00  0.00     0.130 C 
ATOM     18  O   UNL     1      11.155  13.692  24.894  1.00  0.00    -0.300 OA
ATOM     19  C   UNL     1      12.122  15.805  24.527  1.00  0.00     0.087 C 
ENDBRANCH  16  17
ENDBRANCH  15  16
ENDBRANCH  13  15
ENDBRANCH  11  12
ENDBRANCH   1  11
TORSDOF 9
ENDMDL
MODEL 7
REMARK VINA RESULT:    -2.464      1.567      3.323
REMARK INTER + INTRA:          -5.143
REMARK INTER:                  -3.927
REMARK INTRA:                  -1.216
REMARK UNBOUND:                -1.383
REMARK SMILES CC(=O)CCC=C(C)CCC=C(C)CCC=C(C)C
REMARK SMILES IDX 10 1 11 2 12 3 13 4 14 5 15 6 16 7 18 8 17 9 19 10 9 11 7 12
REMARK SMILES IDX 6 13 8 14 5 15 4 16 2 17 3 18 1 19
REMARK H PARENT
REMARK Flexibility Score: inf
ROOT
ATOM      1  C   UNL     1      14.963  18.197  25.324  1.00  0.00     0.032 C 
ENDROOT
BRANCH   1   2
ATOM      2  C   UNL     1      15.233  16.731  25.565  1.00  0.00    -0.028 C 
ATOM      3  C   UNL     1      14.970  16.073  26.716  1.00  0.00    -0.077 C 
ATOM      4  C   UNL     1      15.336  14.615  26.805  1.00  0.00     0.039 C 
BRANCH   3   5
ATOM      5  C   UNL     1      14.265  16.720  27.893  1.00  0.00     0.034 C 
BRANCH   5   6
ATOM      6  C   UNL     1      12.759  16.820  27.633  1.00  0.00     0.032 C 
BRANCH   6   7
ATOM      7  C   UNL     1      12.089  15.473  27.758  1.00  0.00    -0.028 C 
ATOM      8  C   UNL     1      10.938  13.456  26.898  1.00  0.00     0.039 C 
ATOM      9  C   UNL     1      11.596  14.797  26.699  1.00  0.00    -0.080 C 
ATOM     10  C   UNL     1      11.682  15.348  25.298  1.00  0.00     0.039 C 
ENDBRANCH   6   7
ENDBRANCH   5   6
ENDBRANCH   3   5
ENDBRANCH   1   2
BRANCH   1  11
ATOM     11  C   UNL     1      15.201  18.581  23.855  1.00  0.00     0.034 C 
BRANCH  11  12
ATOM     12  C   UNL     1      16.303  19.616  23.715  1.00  0.00    -0.077 C 
ATOM     13  C   UNL     1      16.088  20.867  23.247  1.00  0.00    -0.028 C 
ATOM     14  C   UNL     1      17.709  19.233  24.102  1.00  0.00     0.039 C 
BRANCH  13  15
ATOM     15  C   UNL     1      14.742  21.449  22.882  1.00  0.00     0.035 C 
BRANCH  15  16
ATOM     16  C   UNL     1      14.692  21.833  21.399  1.00  0.00     0.079 C 
BRANCH  16  17
ATOM     17  C   UNL     1      14.013  20.772  20.574  1.00  0.00     0.130 C 
ATOM     18  O   UNL     1      13.024  21.063  19.918  1.00  0.00    -0.300 OA
ATOM     19  C   UNL     1      14.530  19.365  20.535  1.00  0.00     0.087 C 
ENDBRANCH  16  17
ENDBRANCH  15  16
ENDBRANCH  13  15
ENDBRANCH  11  12
ENDBRANCH   1  11
TORSDOF 9
ENDMDL
MODEL 8
REMARK VINA RESULT:    -2.458      1.383      4.233
REMARK INTER + INTRA:          -5.134
REMARK INTER:                  -4.577
REMARK INTRA:                  -0.556
REMARK UNBOUND:                -1.383
REMARK SMILES CC(=O)CCC=C(C)CCC=C(C)CCC=C(C)C
REMARK SMILES IDX 10 1 11 2 12 3 13 4 14 5 15 6 16 7 18 8 17 9 19 10 9 11 7 12
REMARK SMILES IDX 6 13 8 14 5 15 4 16 2 17 3 18 1 19
REMARK H PARENT
REMARK Flexibility Score: inf
ROOT
ATOM      1  C   UNL     1      12.281  15.407  28.103  1.00  0.00     0.032 C 
ENDROOT
BRANCH   1   2
ATOM      2  C   UNL     1      12.578  13.926  28.125  1.00  0.00    -0.028 C 
ATOM      3  C   UNL     1      13.807  13.380  27.988  1.00  0.00    -0.077 C 
ATOM      4  C   UNL     1      13.926  11.879  27.995  1.00  0.00     0.039 C 
BRANCH   3   5
ATOM      5  C   UNL     1      15.073  14.210  27.894  1.00  0.00     0.034 C 
BRANCH   5   6
ATOM      6  C   UNL     1      14.735  15.699  27.765  1.00  0.00     0.032 C 
BRANCH   6   7
ATOM      7  C   UNL     1      15.979  16.552  27.818  1.00  0.00    -0.028 C 
ATOM      8  C   UNL     1      17.228  18.690  27.878  1.00  0.00     0.039 C 
ATOM      9  C   UNL     1      15.945  17.902  27.823  1.00  0.00    -0.080 C 
ATOM     10  C   UNL     1      14.643  18.660  27.776  1.00  0.00     0.039 C 
ENDBRANCH   6   7
ENDBRANCH   5   6
ENDBRANCH   3   5
ENDBRANCH   1   2
BRANCH   1  11
ATOM     11  C   UNL     1      11.281  15.766  26.994  1.00  0.00     0.034 C 
BRANCH  11  12
ATOM     12  C   UNL     1      11.654  15.125  25.669  1.00  0.00    -0.077 C 
ATOM     13  C   UNL     1      12.458  15.723  24.758  1.00  0.00    -0.028 C 
ATOM     14  C   UNL     1      11.096  13.764  25.340  1.00  0.00     0.039 C 
BRANCH  13  15
ATOM     15  C   UNL     1      13.163  17.046  24.945  1.00  0.00     0.035 C 
BRANCH  15  16
ATOM     16  C   UNL     1      14.607  16.977  24.435  1.00  0.00     0.079 C 
BRANCH  16  17
ATOM     17  C   UNL     1      15.012  18.253  23.744  1.00  0.00     0.130 C 
ATOM     18  O   UNL     1      14.666  18.446  22.588  1.00  0.00    -0.300 OA
ATOM     19  C   UNL     1      15.828  19.296  24.449  1.00  0.00     0.087 C 
ENDBRANCH  16  17
ENDBRANCH  15  16
ENDBRANCH  13  15
ENDBRANCH  11  12
ENDBRANCH   1  11
TORSDOF 9
ENDMDL
MODEL 9
REMARK VINA RESULT:    -2.238      2.744      7.315
REMARK INTER + INTRA:          -4.798
REMARK INTER:                  -3.896
REMARK INTRA:                  -0.903
REMARK UNBOUND:                -1.383
REMARK SMILES CC(=O)CCC=C(C)CCC=C(C)CCC=C(C)C
REMARK SMILES IDX 10 1 11 2 12 3 13 4 14 5 15 6 16 7 18 8 17 9 19 10 9 11 7 12
REMARK SMILES IDX 6 13 8 14 5 15 4 16 2 17 3 18 1 19
REMARK H PARENT
REMARK Flexibility Score: inf
ROOT
ATOM      1  C   UNL     1      14.506  17.497  24.984  1.00  0.00     0.032 C 
ENDROOT
BRANCH   1   2
ATOM      2  C   UNL     1      15.869  18.108  24.760  1.00  0.00    -0.028 C 
ATOM      3  C   UNL     1      16.099  19.277  24.122  1.00  0.00    -0.077 C 
ATOM      4  C   UNL     1      17.526  19.728  23.949  1.00  0.00     0.039 C 
BRANCH   3   5
ATOM      5  C   UNL     1      14.985  20.183  23.632  1.00  0.00     0.034 C 
BRANCH   5   6
ATOM      6  C   UNL     1      15.536  21.250  22.680  1.00  0.00     0.032 C 
BRANCH   6   7
ATOM      7  C   UNL     1      14.523  21.618  21.623  1.00  0.00    -0.028 C 
ATOM      8  C   UNL     1      13.080  21.185  19.658  1.00  0.00     0.039 C 
ATOM      9  C   UNL     1      14.093  20.749  20.683  1.00  0.00    -0.080 C 
ATOM     10  C   UNL     1      14.603  19.331  20.624  1.00  0.00     0.039 C 
ENDBRANCH   6   7
ENDBRANCH   5   6
ENDBRANCH   3   5
ENDBRANCH   1   2
BRANCH   1  11
ATOM     11  C   UNL     1      13.875  17.991  26.295  1.00  0.00     0.034 C 
BRANCH  11  12
ATOM     12  C   UNL     1      14.425  17.247  27.500  1.00  0.00    -0.077 C 
ATOM     13  C   UNL     1      13.754  16.252  28.125  1.00  0.00    -0.028 C 
ATOM     14  C   UNL     1      15.777  17.641  28.038  1.00  0.00     0.039 C 
BRANCH  13  15
ATOM     15  C   UNL     1      12.427  15.677  27.685  1.00  0.00     0.035 C 
BRANCH  15  16
ATOM     16  C   UNL     1      12.629  14.459  26.777  1.00  0.00     0.079 C 
BRANCH  16  17
ATOM     17  C   UNL     1      11.609  14.418  25.670  1.00  0.00     0.130 C 
ATOM     18  O   UNL     1      10.921  13.419  25.524  1.00  0.00    -0.300 OA
ATOM     19  C   UNL     1      11.414  15.584  24.746  1.00  0.00     0.087 C 
ENDBRANCH  16  17
ENDBRANCH  15  16
ENDBRANCH  13  15
ENDBRANCH  11  12
ENDBRANCH   1  11
TORSDOF 9
ENDMDL
