MODEL 1
REMARK VINA RESULT:    -3.555      0.000      0.000
REMARK INTER + INTRA:          -4.627
REMARK INTER:                  -4.386
REMARK INTRA:                  -0.241
REMARK UNBOUND:                -0.241
REMARK SMILES CCCCCC(=O)[O-]
REMARK SMILES IDX 4 1 5 2 6 3 7 4 8 5 3 6 2 7 1 8
REMARK H PARENT
REMARK Flexibility Score: inf
ROOT
ATOM      1  C   UNL     1     -37.985  18.981 -30.926  1.00  0.00     0.006 C 
ENDROOT
BRANCH   1   2
ATOM      2  C   UNL     1     -38.645  19.864 -29.864  1.00  0.00     0.053 C 
BRANCH   2   3
ATOM      3  C   UNL     1     -39.102  19.037 -28.703  1.00  0.00     0.041 C 
ATOM      4  O   UNL     1     -38.270  18.375 -28.029  1.00  0.00    -0.550 OA
ATOM      5  O   UNL     1     -40.442  19.037 -28.336  1.00  0.00    -0.550 OA
ENDBRANCH   2   3
ENDBRANCH   1   2
BRANCH   1   6
ATOM      6  C   UNL     1     -36.466  19.199 -30.957  1.00  0.00     0.000 C 
BRANCH   6   7
ATOM      7  C   UNL     1     -35.683  17.983 -30.438  1.00  0.00    -0.003 C 
ATOM      8  C   UNL     1     -36.467  16.677 -30.566  1.00  0.00     0.004 C 
ENDBRANCH   6   7
ENDBRANCH   1   6
TORSDOF 4
ENDMDL
MODEL 2
REMARK VINA RESULT:    -3.536      2.603      3.675
REMARK INTER + INTRA:          -4.604
REMARK INTER:                  -4.395
REMARK INTRA:                  -0.209
REMARK UNBOUND:                -0.241
REMARK SMILES CCCCCC(=O)[O-]
REMARK SMILES IDX 4 1 5 2 6 3 7 4 8 5 3 6 2 7 1 8
REMARK H PARENT
REMARK Flexibility Score: inf
ROOT
ATOM      1  C   UNL     1     -36.923  18.524 -30.669  1.00  0.00     0.006 C 
ENDROOT
BRANCH   1   2
ATOM      2  C   UNL     1     -37.941  18.989 -31.714  1.00  0.00     0.053 C 
BRANCH   2   3
ATOM      3  C   UNL     1     -37.944  20.482 -31.817  1.00  0.00     0.041 C 
ATOM      4  O   UNL     1     -38.834  21.156 -31.236  1.00  0.00    -0.550 OA
ATOM      5  O   UNL     1     -36.933  21.131 -32.515  1.00  0.00    -0.550 OA
ENDBRANCH   2   3
ENDBRANCH   1   2
BRANCH   1   6
ATOM      6  C   UNL     1     -37.625  17.867 -29.472  1.00  0.00     0.000 C 
BRANCH   6   7
ATOM      7  C   UNL     1     -38.171  18.895 -28.469  1.00  0.00    -0.003 C 
ATOM      8  C   UNL     1     -39.693  19.022 -28.522  1.00  0.00     0.004 C 
ENDBRANCH   6   7
ENDBRANCH   1   6
TORSDOF 4
ENDMDL
MODEL 3
REMARK VINA RESULT:    -3.530      2.577      3.809
REMARK INTER + INTRA:          -4.596
REMARK INTER:                  -4.481
REMARK INTRA:                  -0.115
REMARK UNBOUND:                -0.241
REMARK SMILES CCCCCC(=O)[O-]
REMARK SMILES IDX 4 1 5 2 6 3 7 4 8 5 3 6 2 7 1 8
REMARK H PARENT
REMARK Flexibility Score: inf
ROOT
ATOM      1  C   UNL     1     -37.526  18.983 -30.730  1.00  0.00     0.006 C 
ENDROOT
BRANCH   1   2
ATOM      2  C   UNL     1     -37.771  17.475 -30.815  1.00  0.00     0.053 C 
BRANCH   2   3
ATOM      3  C   UNL     1     -36.502  16.722 -30.567  1.00  0.00     0.041 C 
ATOM      4  O   UNL     1     -36.539  15.503 -30.255  1.00  0.00    -0.550 OA
ATOM      5  O   UNL     1     -35.276  17.355 -30.730  1.00  0.00    -0.550 OA
ENDBRANCH   2   3
ENDBRANCH   1   2
BRANCH   1   6
ATOM      6  C   UNL     1     -37.695  19.488 -29.290  1.00  0.00     0.000 C 
BRANCH   6   7
ATOM      7  C   UNL     1     -38.676  18.632 -28.475  1.00  0.00    -0.003 C 
ATOM      8  C   UNL     1     -40.101  19.186 -28.493  1.00  0.00     0.004 C 
ENDBRANCH   6   7
ENDBRANCH   1   6
TORSDOF 4
ENDMDL
MODEL 4
REMARK VINA RESULT:    -3.508      2.131      3.509
REMARK INTER + INTRA:          -4.569
REMARK INTER:                  -4.313
REMARK INTRA:                  -0.256
REMARK UNBOUND:                -0.241
REMARK SMILES CCCCCC(=O)[O-]
REMARK SMILES IDX 4 1 5 2 6 3 7 4 8 5 3 6 2 7 1 8
REMARK H PARENT
REMARK Flexibility Score: inf
ROOT
ATOM      1  C   UNL     1     -37.196  19.148 -28.963  1.00  0.00     0.006 C 
ENDROOT
BRANCH   1   2
ATOM      2  C   UNL     1     -36.516  18.574 -30.208  1.00  0.00     0.053 C 
BRANCH   2   3
ATOM      3  C   UNL     1     -37.262  17.378 -30.710  1.00  0.00     0.041 C 
ATOM      4  O   UNL     1     -36.890  16.219 -30.392  1.00  0.00    -0.550 OA
ATOM      5  O   UNL     1     -38.400  17.547 -31.490  1.00  0.00    -0.550 OA
ENDBRANCH   2   3
ENDBRANCH   1   2
BRANCH   1   6
ATOM      6  C   UNL     1     -37.947  20.446 -29.296  1.00  0.00     0.000 C 
BRANCH   6   7
ATOM      7  C   UNL     1     -39.473  20.281 -29.222  1.00  0.00    -0.003 C 
ATOM      8  C   UNL     1     -39.895  19.000 -28.502  1.00  0.00     0.004 C 
ENDBRANCH   6   7
ENDBRANCH   1   6
TORSDOF 4
ENDMDL
MODEL 5
REMARK VINA RESULT:    -3.501      1.379      2.210
REMARK INTER + INTRA:          -4.560
REMARK INTER:                  -4.340
REMARK INTRA:                  -0.221
REMARK UNBOUND:                -0.241
REMARK SMILES CCCCCC(=O)[O-]
REMARK SMILES IDX 4 1 5 2 6 3 7 4 8 5 3 6 2 7 1 8
REMARK H PARENT
REMARK Flexibility Score: inf
ROOT
ATOM      1  C   UNL     1     -37.935  18.228 -30.237  1.00  0.00     0.006 C 
ENDROOT
BRANCH   1   2
ATOM      2  C   UNL     1     -38.273  18.557 -28.781  1.00  0.00     0.053 C 
BRANCH   2   3
ATOM      3  C   UNL     1     -39.454  19.473 -28.710  1.00  0.00     0.041 C 
ATOM      4  O   UNL     1     -40.581  19.030 -28.365  1.00  0.00    -0.550 OA
ATOM      5  O   UNL     1     -39.299  20.828 -28.978  1.00  0.00    -0.550 OA
ENDBRANCH   2   3
ENDBRANCH   1   2
BRANCH   1   6
ATOM      6  C   UNL     1     -36.525  18.718 -30.599  1.00  0.00     0.000 C 
BRANCH   6   7
ATOM      7  C   UNL     1     -36.535  20.093 -31.284  1.00  0.00    -0.003 C 
ATOM      8  C   UNL     1     -37.830  20.363 -32.048  1.00  0.00     0.004 C 
ENDBRANCH   6   7
ENDBRANCH   1   6
TORSDOF 4
ENDMDL
MODEL 6
REMARK VINA RESULT:    -3.473      2.287      2.714
REMARK INTER + INTRA:          -4.526
REMARK INTER:                  -4.256
REMARK INTRA:                  -0.270
REMARK UNBOUND:                -0.241
REMARK SMILES CCCCCC(=O)[O-]
REMARK SMILES IDX 4 1 5 2 6 3 7 4 8 5 3 6 2 7 1 8
REMARK H PARENT
REMARK Flexibility Score: inf
ROOT
ATOM      1  C   UNL     1     -39.295  18.775 -29.100  1.00  0.00     0.006 C 
ENDROOT
BRANCH   1   2
ATOM      2  C   UNL     1     -39.696  20.250 -29.010  1.00  0.00     0.053 C 
BRANCH   2   3
ATOM      3  C   UNL     1     -38.761  21.099 -29.812  1.00  0.00     0.041 C 
ATOM      4  O   UNL     1     -38.724  20.990 -31.066  1.00  0.00    -0.550 OA
ATOM      5  O   UNL     1     -37.966  22.045 -29.179  1.00  0.00    -0.550 OA
ENDBRANCH   2   3
ENDBRANCH   1   2
BRANCH   1   6
ATOM      6  C   UNL     1     -37.967  18.521 -28.372  1.00  0.00     0.000 C 
BRANCH   6   7
ATOM      7  C   UNL     1     -36.930  17.818 -29.262  1.00  0.00    -0.003 C 
ATOM      8  C   UNL     1     -37.453  17.539 -30.671  1.00  0.00     0.004 C 
ENDBRANCH   6   7
ENDBRANCH   1   6
TORSDOF 4
ENDMDL
MODEL 7
REMARK VINA RESULT:    -3.467      2.245      3.518
REMARK INTER + INTRA:          -4.519
REMARK INTER:                  -4.368
REMARK INTRA:                  -0.151
REMARK UNBOUND:                -0.241
REMARK SMILES CCCCCC(=O)[O-]
REMARK SMILES IDX 4 1 5 2 6 3 7 4 8 5 3 6 2 7 1 8
REMARK H PARENT
REMARK Flexibility Score: inf
ROOT
ATOM      1  C   UNL     1     -39.402  21.348 -29.651  1.00  0.00     0.006 C 
ENDROOT
BRANCH   1   2
ATOM      2  C   UNL     1     -38.788  19.959 -29.842  1.00  0.00     0.053 C 
BRANCH   2   3
ATOM      3  C   UNL     1     -39.154  19.062 -28.702  1.00  0.00     0.041 C 
ATOM      4  O   UNL     1     -40.351  18.976 -28.322  1.00  0.00    -0.550 OA
ATOM      5  O   UNL     1     -38.179  18.283 -28.091  1.00  0.00    -0.550 OA
ENDBRANCH   2   3
ENDBRANCH   1   2
BRANCH   1   6
ATOM      6  C   UNL     1     -38.418  22.292 -28.945  1.00  0.00     0.000 C 
BRANCH   6   7
ATOM      7  C   UNL     1     -36.965  22.077 -29.396  1.00  0.00    -0.003 C 
ATOM      8  C   UNL     1     -35.959  22.836 -28.532  1.00  0.00     0.004 C 
ENDBRANCH   6   7
ENDBRANCH   1   6
TORSDOF 4
ENDMDL
MODEL 8
REMARK VINA RESULT:    -3.450      2.240      3.958
REMARK INTER + INTRA:          -4.498
REMARK INTER:                  -4.328
REMARK INTRA:                  -0.170
REMARK UNBOUND:                -0.241
REMARK SMILES CCCCCC(=O)[O-]
REMARK SMILES IDX 4 1 5 2 6 3 7 4 8 5 3 6 2 7 1 8
REMARK H PARENT
REMARK Flexibility Score: inf
ROOT
ATOM      1  C   UNL     1     -38.204  18.645 -28.570  1.00  0.00     0.006 C 
ENDROOT
BRANCH   1   2
ATOM      2  C   UNL     1     -37.287  18.663 -29.795  1.00  0.00     0.053 C 
BRANCH   2   3
ATOM      3  C   UNL     1     -37.565  17.486 -30.676  1.00  0.00     0.041 C 
ATOM      4  O   UNL     1     -38.432  17.566 -31.586  1.00  0.00    -0.550 OA
ATOM      5  O   UNL     1     -36.830  16.317 -30.525  1.00  0.00    -0.550 OA
ENDBRANCH   2   3
ENDBRANCH   1   2
BRANCH   1   6
ATOM      6  C   UNL     1     -39.438  19.532 -28.792  1.00  0.00     0.000 C 
BRANCH   6   7
ATOM      7  C   UNL     1     -39.169  20.681 -29.776  1.00  0.00    -0.003 C 
ATOM      8  C   UNL     1     -38.763  21.977 -29.075  1.00  0.00     0.004 C 
ENDBRANCH   6   7
ENDBRANCH   1   6
TORSDOF 4
ENDMDL
MODEL 9
REMARK VINA RESULT:    -3.262      2.782      3.969
REMARK INTER + INTRA:          -4.266
REMARK INTER:                  -4.112
REMARK INTRA:                  -0.154
REMARK UNBOUND:                -0.241
REMARK SMILES CCCCCC(=O)[O-]
REMARK SMILES IDX 4 1 5 2 6 3 7 4 8 5 3 6 2 7 1 8
REMARK H PARENT
REMARK Flexibility Score: inf
ROOT
ATOM      1  C   UNL     1     -37.959  19.239 -31.448  1.00  0.00     0.006 C 
ENDROOT
BRANCH   1   2
ATOM      2  C   UNL     1     -36.539  19.725 -31.145  1.00  0.00     0.053 C 
BRANCH   2   3
ATOM      3  C   UNL     1     -36.476  21.219 -31.184  1.00  0.00     0.041 C 
ATOM      4  O   UNL     1     -36.960  21.899 -30.241  1.00  0.00    -0.550 OA
ATOM      5  O   UNL     1     -35.838  21.860 -32.239  1.00  0.00    -0.550 OA
ENDBRANCH   2   3
ENDBRANCH   1   2
BRANCH   1   6
ATOM      6  C   UNL     1     -38.426  18.219 -30.399  1.00  0.00     0.000 C 
BRANCH   6   7
ATOM      7  C   UNL     1     -38.553  18.831 -28.995  1.00  0.00    -0.003 C 
ATOM      8  C   UNL     1     -40.005  19.075 -28.586  1.00  0.00     0.004 C 
ENDBRANCH   6   7
ENDBRANCH   1   6
TORSDOF 4
ENDMDL
