MODEL 1
REMARK VINA RESULT:    -1.879      0.000      0.000
REMARK INTER + INTRA:          -3.911
REMARK INTER:                  -3.307
REMARK INTRA:                  -0.605
REMARK UNBOUND:                -0.605
REMARK SMILES CCCCCCCCCCCCCCC(=O)[O-]
REMARK SMILES IDX 9 1 10 2 11 3 12 4 13 5 14 6 15 7 16 8 17 9 8 10 7 11 6 12
REMARK SMILES IDX 5 13 4 14 3 15 2 16 1 17
REMARK H PARENT
REMARK Flexibility Score: inf
ROOT
ATOM      1  C   UNL     1      -8.166  51.576  -4.301  1.00  0.00     0.000 C 
ENDROOT
BRANCH   1   2
ATOM      2  C   UNL     1      -7.934  50.981  -5.701  1.00  0.00     0.000 C 
BRANCH   2   3
ATOM      3  C   UNL     1      -7.378  52.014  -6.695  1.00  0.00     0.000 C 
BRANCH   3   4
ATOM      4  C   UNL     1      -7.298  51.473  -8.130  1.00  0.00     0.000 C 
BRANCH   4   5
ATOM      5  C   UNL     1      -6.143  52.125  -8.899  1.00  0.00     0.006 C 
BRANCH   5   6
ATOM      6  C   UNL     1      -5.060  51.098  -9.241  1.00  0.00     0.053 C 
BRANCH   6   7
ATOM      7  C   UNL     1      -3.808  51.382  -8.473  1.00  0.00     0.041 C 
ATOM      8  O   UNL     1      -3.808  51.325  -7.216  1.00  0.00    -0.550 OA
ATOM      9  O   UNL     1      -2.651  51.758  -9.145  1.00  0.00    -0.550 OA
ENDBRANCH   6   7
ENDBRANCH   5   6
ENDBRANCH   4   5
ENDBRANCH   3   4
ENDBRANCH   2   3
ENDBRANCH   1   2
BRANCH   1  10
ATOM     10  C   UNL     1      -9.095  50.709  -3.436  1.00  0.00     0.000 C 
BRANCH  10  11
ATOM     11  C   UNL     1      -8.616  50.588  -1.981  1.00  0.00    -0.000 C 
BRANCH  11  12
ATOM     12  C   UNL     1      -9.058  51.804  -1.156  1.00  0.00    -0.000 C 
BRANCH  12  13
ATOM     13  C   UNL     1      -8.089  52.125  -0.005  1.00  0.00    -0.000 C 
BRANCH  13  14
ATOM     14  C   UNL     1      -6.614  52.074  -0.440  1.00  0.00    -0.000 C 
BRANCH  14  15
ATOM     15  C   UNL     1      -5.673  51.728   0.733  1.00  0.00    -0.000 C 
BRANCH  15  16
ATOM     16  C   UNL     1      -4.208  52.125   0.485  1.00  0.00    -0.003 C 
ATOM     17  C   UNL     1      -3.329  50.945   0.076  1.00  0.00     0.004 C 
ENDBRANCH  15  16
ENDBRANCH  14  15
ENDBRANCH  13  14
ENDBRANCH  12  13
ENDBRANCH  11  12
ENDBRANCH  10  11
ENDBRANCH   1  10
TORSDOF 13
ENDMDL
MODEL 2
REMARK VINA RESULT:    -1.720      1.767      2.803
REMARK INTER + INTRA:          -3.632
REMARK INTER:                  -3.012
REMARK INTRA:                  -0.620
REMARK UNBOUND:                -0.605
REMARK SMILES CCCCCCCCCCCCCCC(=O)[O-]
REMARK SMILES IDX 9 1 10 2 11 3 12 4 13 5 14 6 15 7 16 8 17 9 8 10 7 11 6 12
REMARK SMILES IDX 5 13 4 14 3 15 2 16 1 17
REMARK H PARENT
REMARK Flexibility Score: inf
ROOT
ATOM      1  C   UNL     1      -8.375  50.035  -2.602  1.00  0.00     0.000 C 
ENDROOT
BRANCH   1   2
ATOM      2  C   UNL     1      -8.664  51.328  -3.386  1.00  0.00     0.000 C 
BRANCH   2   3
ATOM      3  C   UNL     1      -8.539  51.136  -4.906  1.00  0.00     0.000 C 
BRANCH   3   4
ATOM      4  C   UNL     1      -7.419  51.988  -5.522  1.00  0.00     0.000 C 
BRANCH   4   5
ATOM      5  C   UNL     1      -7.604  52.124  -7.038  1.00  0.00     0.006 C 
BRANCH   5   6
ATOM      6  C   UNL     1      -6.319  51.756  -7.784  1.00  0.00     0.053 C 
BRANCH   6   7
ATOM      7  C   UNL     1      -6.613  50.788  -8.887  1.00  0.00     0.041 C 
ATOM      8  O   UNL     1      -5.731  50.517  -9.743  1.00  0.00    -0.550 OA
ATOM      9  O   UNL     1      -7.877  50.223  -8.998  1.00  0.00    -0.550 OA
ENDBRANCH   6   7
ENDBRANCH   5   6
ENDBRANCH   4   5
ENDBRANCH   3   4
ENDBRANCH   2   3
ENDBRANCH   1   2
BRANCH   1  10
ATOM     10  C   UNL     1      -7.615  50.294  -1.292  1.00  0.00     0.000 C 
BRANCH  10  11
ATOM     11  C   UNL     1      -7.962  51.650  -0.659  1.00  0.00    -0.000 C 
BRANCH  11  12
ATOM     12  C   UNL     1      -6.865  52.097   0.317  1.00  0.00    -0.000 C 
BRANCH  12  13
ATOM     13  C   UNL     1      -5.467  52.105  -0.324  1.00  0.00    -0.000 C 
BRANCH  13  14
ATOM     14  C   UNL     1      -4.357  51.721   0.669  1.00  0.00    -0.000 C 
BRANCH  14  15
ATOM     15  C   UNL     1      -3.138  51.088  -0.035  1.00  0.00    -0.000 C 
BRANCH  15  16
ATOM     16  C   UNL     1      -2.002  52.086  -0.315  1.00  0.00    -0.003 C 
ATOM     17  C   UNL     1      -0.951  52.125   0.793  1.00  0.00     0.004 C 
ENDBRANCH  15  16
ENDBRANCH  14  15
ENDBRANCH  13  14
ENDBRANCH  12  13
ENDBRANCH  11  12
ENDBRANCH  10  11
ENDBRANCH   1  10
TORSDOF 13
ENDMDL
MODEL 3
REMARK VINA RESULT:     0.822      5.590      8.113
REMARK INTER + INTRA:           0.842
REMARK INTER:                   1.378
REMARK INTRA:                  -0.536
REMARK UNBOUND:                -0.605
REMARK SMILES CCCCCCCCCCCCCCC(=O)[O-]
REMARK SMILES IDX 9 1 10 2 11 3 12 4 13 5 14 6 15 7 16 8 17 9 8 10 7 11 6 12
REMARK SMILES IDX 5 13 4 14 3 15 2 16 1 17
REMARK H PARENT
REMARK Flexibility Score: inf
ROOT
ATOM      1  C   UNL     1      -7.635  48.355  -2.066  1.00  0.00     0.000 C 
ENDROOT
BRANCH   1   2
ATOM      2  C   UNL     1      -6.827  47.200  -1.449  1.00  0.00     0.000 C 
BRANCH   2   3
ATOM      3  C   UNL     1      -6.867  45.927  -2.310  1.00  0.00     0.000 C 
BRANCH   3   4
ATOM      4  C   UNL     1      -6.517  44.660  -1.515  1.00  0.00     0.000 C 
BRANCH   4   5
ATOM      5  C   UNL     1      -5.656  43.707  -2.351  1.00  0.00     0.006 C 
BRANCH   5   6
ATOM      6  C   UNL     1      -5.216  42.495  -1.526  1.00  0.00     0.053 C 
BRANCH   6   7
ATOM      7  C   UNL     1      -3.932  42.782  -0.815  1.00  0.00     0.041 C 
ATOM      8  O   UNL     1      -2.995  43.373  -1.414  1.00  0.00    -0.550 OA
ATOM      9  O   UNL     1      -3.750  42.354   0.494  1.00  0.00    -0.550 OA
ENDBRANCH   6   7
ENDBRANCH   5   6
ENDBRANCH   4   5
ENDBRANCH   3   4
ENDBRANCH   2   3
ENDBRANCH   1   2
BRANCH   1  10
ATOM     10  C   UNL     1      -8.029  49.421  -1.031  1.00  0.00     0.000 C 
BRANCH  10  11
ATOM     11  C   UNL     1      -9.093  50.397  -1.555  1.00  0.00    -0.000 C 
BRANCH  11  12
ATOM     12  C   UNL     1      -8.485  51.382  -2.564  1.00  0.00    -0.000 C 
BRANCH  12  13
ATOM     13  C   UNL     1      -9.105  51.255  -3.965  1.00  0.00    -0.000 C 
BRANCH  13  14
ATOM     14  C   UNL     1      -8.057  50.967  -5.053  1.00  0.00    -0.000 C 
BRANCH  14  15
ATOM     15  C   UNL     1      -7.935  52.125  -6.066  1.00  0.00    -0.000 C 
BRANCH  15  16
ATOM     16  C   UNL     1      -7.034  51.799  -7.269  1.00  0.00    -0.003 C 
ATOM     17  C   UNL     1      -7.691  50.854  -8.273  1.00  0.00     0.004 C 
ENDBRANCH  15  16
ENDBRANCH  14  15
ENDBRANCH  13  14
ENDBRANCH  12  13
ENDBRANCH  11  12
ENDBRANCH  10  11
ENDBRANCH   1  10
TORSDOF 13
ENDMDL
MODEL 4
REMARK VINA RESULT:     1.009      4.339      5.273
REMARK INTER + INTRA:           1.170
REMARK INTER:                   1.663
REMARK INTRA:                  -0.492
REMARK UNBOUND:                -0.605
REMARK SMILES CCCCCCCCCCCCCCC(=O)[O-]
REMARK SMILES IDX 9 1 10 2 11 3 12 4 13 5 14 6 15 7 16 8 17 9 8 10 7 11 6 12
REMARK SMILES IDX 5 13 4 14 3 15 2 16 1 17
REMARK H PARENT
REMARK Flexibility Score: inf
ROOT
ATOM      1  C   UNL     1      -8.646  50.449  -1.960  1.00  0.00     0.000 C 
ENDROOT
BRANCH   1   2
ATOM      2  C   UNL     1      -8.485  50.198  -3.469  1.00  0.00     0.000 C 
BRANCH   2   3
ATOM      3  C   UNL     1      -8.797  51.446  -4.311  1.00  0.00     0.000 C 
BRANCH   3   4
ATOM      4  C   UNL     1      -7.583  51.941  -5.113  1.00  0.00     0.000 C 
BRANCH   4   5
ATOM      5  C   UNL     1      -7.915  52.038  -6.606  1.00  0.00     0.006 C 
BRANCH   5   6
ATOM      6  C   UNL     1      -6.640  52.125  -7.449  1.00  0.00     0.053 C 
BRANCH   6   7
ATOM      7  C   UNL     1      -6.903  51.664  -8.847  1.00  0.00     0.041 C 
ATOM      8  O   UNL     1      -6.160  52.043  -9.790  1.00  0.00    -0.550 OA
ATOM      9  O   UNL     1      -7.999  50.854  -9.118  1.00  0.00    -0.550 OA
ENDBRANCH   6   7
ENDBRANCH   5   6
ENDBRANCH   4   5
ENDBRANCH   3   4
ENDBRANCH   2   3
ENDBRANCH   1   2
BRANCH   1  10
ATOM     10  C   UNL     1      -8.023  49.334  -1.105  1.00  0.00     0.000 C 
BRANCH  10  11
ATOM     11  C   UNL     1      -7.427  48.197  -1.949  1.00  0.00    -0.000 C 
BRANCH  11  12
ATOM     12  C   UNL     1      -7.328  46.901  -1.132  1.00  0.00    -0.000 C 
BRANCH  12  13
ATOM     13  C   UNL     1      -6.265  45.934  -1.679  1.00  0.00    -0.000 C 
BRANCH  13  14
ATOM     14  C   UNL     1      -6.881  44.695  -2.352  1.00  0.00    -0.000 C 
BRANCH  14  15
ATOM     15  C   UNL     1      -5.835  43.589  -2.604  1.00  0.00    -0.000 C 
BRANCH  15  16
ATOM     16  C   UNL     1      -5.310  42.932  -1.316  1.00  0.00    -0.003 C 
ATOM     17  C   UNL     1      -3.800  43.075  -1.142  1.00  0.00     0.004 C 
ENDBRANCH  15  16
ENDBRANCH  14  15
ENDBRANCH  13  14
ENDBRANCH  12  13
ENDBRANCH  11  12
ENDBRANCH  10  11
ENDBRANCH   1  10
TORSDOF 13
ENDMDL
MODEL 5
REMARK VINA RESULT:     1.038      5.627      7.221
REMARK INTER + INTRA:           1.221
REMARK INTER:                   1.903
REMARK INTRA:                  -0.682
REMARK UNBOUND:                -0.605
REMARK SMILES CCCCCCCCCCCCCCC(=O)[O-]
REMARK SMILES IDX 9 1 10 2 11 3 12 4 13 5 14 6 15 7 16 8 17 9 8 10 7 11 6 12
REMARK SMILES IDX 5 13 4 14 3 15 2 16 1 17
REMARK H PARENT
REMARK Flexibility Score: inf
ROOT
ATOM      1  C   UNL     1      -7.247  48.327  -1.629  1.00  0.00     0.000 C 
ENDROOT
BRANCH   1   2
ATOM      2  C   UNL     1      -7.314  46.856  -1.181  1.00  0.00     0.000 C 
BRANCH   2   3
ATOM      3  C   UNL     1      -6.460  45.932  -2.064  1.00  0.00     0.000 C 
BRANCH   3   4
ATOM      4  C   UNL     1      -6.872  44.456  -1.951  1.00  0.00     0.000 C 
BRANCH   4   5
ATOM      5  C   UNL     1      -5.725  43.532  -2.374  1.00  0.00     0.006 C 
BRANCH   5   6
ATOM      6  C   UNL     1      -5.382  42.535  -1.264  1.00  0.00     0.053 C 
BRANCH   6   7
ATOM      7  C   UNL     1      -3.980  42.743  -0.787  1.00  0.00     0.041 C 
ATOM      8  O   UNL     1      -3.210  43.525  -1.405  1.00  0.00    -0.550 OA
ATOM      9  O   UNL     1      -3.507  42.038   0.312  1.00  0.00    -0.550 OA
ENDBRANCH   6   7
ENDBRANCH   5   6
ENDBRANCH   4   5
ENDBRANCH   3   4
ENDBRANCH   2   3
ENDBRANCH   1   2
BRANCH   1  10
ATOM     10  C   UNL     1      -8.593  49.053  -1.480  1.00  0.00     0.000 C 
BRANCH  10  11
ATOM     11  C   UNL     1      -8.997  49.828  -2.744  1.00  0.00    -0.000 C 
BRANCH  11  12
ATOM     12  C   UNL     1      -9.072  51.335  -2.464  1.00  0.00    -0.000 C 
BRANCH  12  13
ATOM     13  C   UNL     1      -8.513  51.711  -1.082  1.00  0.00    -0.000 C 
BRANCH  13  14
ATOM     14  C   UNL     1      -7.031  52.122  -1.134  1.00  0.00    -0.000 C 
BRANCH  14  15
ATOM     15  C   UNL     1      -6.363  52.069   0.256  1.00  0.00    -0.000 C 
BRANCH  15  16
ATOM     16  C   UNL     1      -5.118  51.167   0.307  1.00  0.00    -0.003 C 
ATOM     17  C   UNL     1      -3.808  51.951   0.321  1.00  0.00     0.004 C 
ENDBRANCH  15  16
ENDBRANCH  14  15
ENDBRANCH  13  14
ENDBRANCH  12  13
ENDBRANCH  11  12
ENDBRANCH  10  11
ENDBRANCH   1  10
TORSDOF 13
ENDMDL
