MODEL 1
REMARK VINA RESULT:    -2.612      0.000      0.000
REMARK INTER + INTRA:          -2.976
REMARK INTER:                  -2.918
REMARK INTRA:                  -0.059
REMARK UNBOUND:                -0.059
REMARK SMILES CCCC(=O)[O-]
REMARK SMILES IDX 3 1 4 2 5 3 6 4 2 5 1 6
REMARK H PARENT
REMARK Flexibility Score: inf
ROOT
ATOM      1  C   UNL     1      29.915 -13.829  31.151  1.00  0.00     0.052 C 
ENDROOT
BRANCH   1   2
ATOM      2  C   UNL     1      29.956 -13.004  32.401  1.00  0.00     0.041 C 
ATOM      3  O   UNL     1      30.987 -13.000  33.125  1.00  0.00    -0.550 OA
ATOM      4  O   UNL     1      28.867 -12.215  32.750  1.00  0.00    -0.550 OA
ENDBRANCH   1   2
BRANCH   1   5
ATOM      5  C   UNL     1      28.549 -14.501  30.960  1.00  0.00     0.003 C 
ATOM      6  C   UNL     1      28.337 -15.671  31.920  1.00  0.00     0.004 C 
ENDBRANCH   1   5
TORSDOF 2
ENDMDL
MODEL 2
REMARK VINA RESULT:    -2.612     19.148     19.573
REMARK INTER + INTRA:          -2.976
REMARK INTER:                  -2.956
REMARK INTRA:                  -0.020
REMARK UNBOUND:                -0.059
REMARK SMILES CCCC(=O)[O-]
REMARK SMILES IDX 3 1 4 2 5 3 6 4 2 5 1 6
REMARK H PARENT
REMARK Flexibility Score: inf
ROOT
ATOM      1  C   UNL     1      15.749  -5.930  20.676  1.00  0.00     0.052 C 
ENDROOT
BRANCH   1   2
ATOM      2  C   UNL     1      16.916  -5.084  20.270  1.00  0.00     0.041 C 
ATOM      3  O   UNL     1      16.940  -3.857  20.554  1.00  0.00    -0.550 OA
ATOM      4  O   UNL     1      17.993  -5.657  19.606  1.00  0.00    -0.550 OA
ENDBRANCH   1   2
BRANCH   1   5
ATOM      5  C   UNL     1      14.611  -5.083  21.262  1.00  0.00     0.003 C 
ATOM      6  C   UNL     1      13.915  -5.775  22.432  1.00  0.00     0.004 C 
ENDBRANCH   1   5
TORSDOF 2
ENDMDL
MODEL 3
REMARK VINA RESULT:    -2.592      7.861      8.610
REMARK INTER + INTRA:          -2.954
REMARK INTER:                  -2.947
REMARK INTRA:                  -0.007
REMARK UNBOUND:                -0.059
REMARK SMILES CCCC(=O)[O-]
REMARK SMILES IDX 3 1 4 2 5 3 6 4 2 5 1 6
REMARK H PARENT
REMARK Flexibility Score: inf
ROOT
ATOM      1  C   UNL     1      23.828 -16.156  26.354  1.00  0.00     0.052 C 
ENDROOT
BRANCH   1   2
ATOM      2  C   UNL     1      22.721 -15.175  26.593  1.00  0.00     0.041 C 
ATOM      3  O   UNL     1      22.230 -14.526  25.631  1.00  0.00    -0.550 OA
ATOM      4  O   UNL     1      22.209 -15.001  27.873  1.00  0.00    -0.550 OA
ENDBRANCH   1   2
BRANCH   1   5
ATOM      5  C   UNL     1      25.203 -15.476  26.382  1.00  0.00     0.003 C 
ATOM      6  C   UNL     1      26.260 -16.270  25.617  1.00  0.00     0.004 C 
ENDBRANCH   1   5
TORSDOF 2
ENDMDL
MODEL 4
REMARK VINA RESULT:    -2.584      7.393      8.192
REMARK INTER + INTRA:          -2.945
REMARK INTER:                  -2.907
REMARK INTRA:                  -0.038
REMARK UNBOUND:                -0.059
REMARK SMILES CCCC(=O)[O-]
REMARK SMILES IDX 3 1 4 2 5 3 6 4 2 5 1 6
REMARK H PARENT
REMARK Flexibility Score: inf
ROOT
ATOM      1  C   UNL     1      22.825 -14.704  26.379  1.00  0.00     0.052 C 
ENDROOT
BRANCH   1   2
ATOM      2  C   UNL     1      24.203 -14.236  26.733  1.00  0.00     0.041 C 
ATOM      3  O   UNL     1      25.209 -14.921  26.408  1.00  0.00    -0.550 OA
ATOM      4  O   UNL     1      24.379 -13.026  27.394  1.00  0.00    -0.550 OA
ENDBRANCH   1   2
BRANCH   1   5
ATOM      5  C   UNL     1      22.580 -16.146  26.844  1.00  0.00     0.003 C 
ATOM      6  C   UNL     1      22.501 -17.128  25.677  1.00  0.00     0.004 C 
ENDBRANCH   1   5
TORSDOF 2
ENDMDL
MODEL 5
REMARK VINA RESULT:    -2.583     19.063     19.868
REMARK INTER + INTRA:          -2.943
REMARK INTER:                  -2.929
REMARK INTRA:                  -0.014
REMARK UNBOUND:                -0.059
REMARK SMILES CCCC(=O)[O-]
REMARK SMILES IDX 3 1 4 2 5 3 6 4 2 5 1 6
REMARK H PARENT
REMARK Flexibility Score: inf
ROOT
ATOM      1  C   UNL     1      17.086  -3.769  20.380  1.00  0.00     0.052 C 
ENDROOT
BRANCH   1   2
ATOM      2  C   UNL     1      17.088  -5.252  20.172  1.00  0.00     0.041 C 
ATOM      3  O   UNL     1      16.115  -5.949  20.565  1.00  0.00    -0.550 OA
ATOM      4  O   UNL     1      18.151  -5.862  19.517  1.00  0.00    -0.550 OA
ENDBRANCH   1   2
BRANCH   1   5
ATOM      5  C   UNL     1      15.696  -3.253  20.774  1.00  0.00     0.003 C 
ATOM      6  C   UNL     1      15.755  -1.899  21.479  1.00  0.00     0.004 C 
ENDBRANCH   1   5
TORSDOF 2
ENDMDL
MODEL 6
REMARK VINA RESULT:    -2.582      2.243      3.233
REMARK INTER + INTRA:          -2.942
REMARK INTER:                  -2.900
REMARK INTRA:                  -0.042
REMARK UNBOUND:                -0.059
REMARK SMILES CCCC(=O)[O-]
REMARK SMILES IDX 3 1 4 2 5 3 6 4 2 5 1 6
REMARK H PARENT
REMARK Flexibility Score: inf
ROOT
ATOM      1  C   UNL     1      28.559 -14.458  31.018  1.00  0.00     0.052 C 
ENDROOT
BRANCH   1   2
ATOM      2  C   UNL     1      28.634 -15.610  31.972  1.00  0.00     0.041 C 
ATOM      3  O   UNL     1      27.614 -16.314  32.197  1.00  0.00    -0.550 OA
ATOM      4  O   UNL     1      29.838 -15.926  32.588  1.00  0.00    -0.550 OA
ENDBRANCH   1   2
BRANCH   1   5
ATOM      5  C   UNL     1      29.609 -13.387  31.339  1.00  0.00     0.003 C 
ATOM      6  C   UNL     1      29.173 -12.468  32.479  1.00  0.00     0.004 C 
ENDBRANCH   1   5
TORSDOF 2
ENDMDL
MODEL 7
REMARK VINA RESULT:    -2.547      7.269      7.942
REMARK INTER + INTRA:          -2.904
REMARK INTER:                  -2.896
REMARK INTRA:                  -0.008
REMARK UNBOUND:                -0.059
REMARK SMILES CCCC(=O)[O-]
REMARK SMILES IDX 3 1 4 2 5 3 6 4 2 5 1 6
REMARK H PARENT
REMARK Flexibility Score: inf
ROOT
ATOM      1  C   UNL     1      25.532 -16.245  26.465  1.00  0.00     0.052 C 
ENDROOT
BRANCH   1   2
ATOM      2  C   UNL     1      24.595 -15.075  26.457  1.00  0.00     0.041 C 
ATOM      3  O   UNL     1      23.350 -15.260  26.421  1.00  0.00    -0.550 OA
ATOM      4  O   UNL     1      25.097 -13.782  26.520  1.00  0.00    -0.550 OA
ENDBRANCH   1   2
BRANCH   1   5
ATOM      5  C   UNL     1      26.544 -16.168  25.315  1.00  0.00     0.003 C 
ATOM      6  C   UNL     1      26.646 -17.482  24.542  1.00  0.00     0.004 C 
ENDBRANCH   1   5
TORSDOF 2
ENDMDL
MODEL 8
REMARK VINA RESULT:    -2.541     24.628     25.126
REMARK INTER + INTRA:          -2.896
REMARK INTER:                  -2.856
REMARK INTRA:                  -0.041
REMARK UNBOUND:                -0.059
REMARK SMILES CCCC(=O)[O-]
REMARK SMILES IDX 3 1 4 2 5 3 6 4 2 5 1 6
REMARK H PARENT
REMARK Flexibility Score: inf
ROOT
ATOM      1  C   UNL     1      16.665  -1.801  15.482  1.00  0.00     0.052 C 
ENDROOT
BRANCH   1   2
ATOM      2  C   UNL     1      15.355  -1.450  14.844  1.00  0.00     0.041 C 
ATOM      3  O   UNL     1      14.302  -2.049  15.187  1.00  0.00    -0.550 OA
ATOM      4  O   UNL     1      15.293  -0.439  13.894  1.00  0.00    -0.550 OA
ENDBRANCH   1   2
BRANCH   1   5
ATOM      5  C   UNL     1      17.853  -1.298  14.651  1.00  0.00     0.003 C 
ATOM      6  C   UNL     1      18.310  -2.319  13.612  1.00  0.00     0.004 C 
ENDBRANCH   1   5
TORSDOF 2
ENDMDL
MODEL 9
REMARK VINA RESULT:    -2.449     24.221     24.894
REMARK INTER + INTRA:          -2.794
REMARK INTER:                  -2.758
REMARK INTRA:                  -0.036
REMARK UNBOUND:                -0.059
REMARK SMILES CCCC(=O)[O-]
REMARK SMILES IDX 3 1 4 2 5 3 6 4 2 5 1 6
REMARK H PARENT
REMARK Flexibility Score: inf
ROOT
ATOM      1  C   UNL     1      17.231  -0.591  15.037  1.00  0.00     0.052 C 
ENDROOT
BRANCH   1   2
ATOM      2  C   UNL     1      18.033  -1.048  13.857  1.00  0.00     0.041 C 
ATOM      3  O   UNL     1      18.348  -2.262  13.736  1.00  0.00    -0.550 OA
ATOM      4  O   UNL     1      18.407  -0.139  12.875  1.00  0.00    -0.550 OA
ENDBRANCH   1   2
BRANCH   1   5
ATOM      5  C   UNL     1      16.449  -1.748  15.673  1.00  0.00     0.003 C 
ATOM      6  C   UNL     1      14.967  -1.719  15.304  1.00  0.00     0.004 C 
ENDBRANCH   1   5
TORSDOF 2
ENDMDL
