MODEL 1
REMARK VINA RESULT:    18.050      0.000      0.000
REMARK INTER + INTRA:          21.434
REMARK INTER:                  21.216
REMARK INTRA:                   0.218
REMARK UNBOUND:                 0.218
REMARK SMILES O=c1c(O)c(-c2ccc(O)cc2)oc2cc(O)cc(O)c12
REMARK SMILES IDX 5 1 3 2 2 3 1 4 21 5 19 6 18 7 16 8 15 9 14 10 13 11 6 12
REMARK SMILES IDX 7 13 8 14 9 15 12 16 11 17 10 18 4 20 20 22 17 24
REMARK H PARENT 10 19 4 21 20 23 17 25
REMARK Flexibility Score: inf
ROOT
ATOM      1  C   UNL     1       7.912   7.422  13.661  1.00  0.00     0.180 A 
ATOM      2  C   UNL     1       7.769   6.276  12.859  1.00  0.00     0.208 A 
ATOM      3  C   UNL     1       6.480   5.871  12.476  1.00  0.00     0.238 A 
ATOM      4  O   UNL     1       6.362   4.876  11.713  1.00  0.00    -0.285 OA
ATOM      5  C   UNL     1       5.351   6.605  12.913  1.00  0.00     0.111 A 
ATOM      6  C   UNL     1       3.997   6.261  12.618  1.00  0.00     0.134 A 
ATOM      7  C   UNL     1       2.966   7.131  12.992  1.00  0.00     0.093 A 
ATOM      8  C   UNL     1       3.236   8.302  13.707  1.00  0.00     0.123 A 
ATOM      9  C   UNL     1       4.548   8.615  14.051  1.00  0.00     0.094 A 
ATOM     10  C   UNL     1       5.602   7.785  13.661  1.00  0.00     0.146 A 
ATOM     11  O   UNL     1       6.838   8.126  14.000  1.00  0.00    -0.452 OA
ENDROOT
BRANCH   1  12
ATOM     12  C   UNL     1       9.234   7.898  14.126  1.00  0.00     0.021 A 
ATOM     13  C   UNL     1      10.371   7.828  13.299  1.00  0.00     0.016 A 
ATOM     14  C   UNL     1      11.615   8.262  13.768  1.00  0.00     0.047 A 
ATOM     15  C   UNL     1      11.741   8.757  15.072  1.00  0.00     0.115 A 
ATOM     16  C   UNL     1       9.376   8.378  15.439  1.00  0.00     0.016 A 
ATOM     17  C   UNL     1      10.620   8.811  15.905  1.00  0.00     0.047 A 
BRANCH  15  18
ATOM     18  O   UNL     1      12.976   9.194  15.549  1.00  0.00    -0.508 OA
ATOM     19  H   UNL     1      13.061   9.672  16.438  1.00  0.00     0.293 HD
ENDBRANCH  15  18
ENDBRANCH   1  12
BRANCH   2  20
ATOM     20  O   UNL     1       8.898   5.580  12.421  1.00  0.00    -0.502 OA
ATOM     21  H   UNL     1       9.013   5.280  11.460  1.00  0.00     0.293 HD
ENDBRANCH   2  20
BRANCH   6  22
ATOM     22  O   UNL     1       3.613   5.073  11.990  1.00  0.00    -0.507 OA
ATOM     23  H   UNL     1       2.670   4.718  11.959  1.00  0.00     0.293 HD
ENDBRANCH   6  22
BRANCH   8  24
ATOM     24  O   UNL     1       2.202   9.154  14.089  1.00  0.00    -0.508 OA
ATOM     25  H   UNL     1       1.604   9.603  13.405  1.00  0.00     0.293 HD
ENDBRANCH   8  24
TORSDOF 5
ENDMDL
MODEL 2
REMARK VINA RESULT:    18.960      1.361      1.511
REMARK INTER + INTRA:          22.504
REMARK INTER:                  22.029
REMARK INTRA:                   0.475
REMARK UNBOUND:                 0.218
REMARK SMILES O=c1c(O)c(-c2ccc(O)cc2)oc2cc(O)cc(O)c12
REMARK SMILES IDX 5 1 3 2 2 3 1 4 21 5 19 6 18 7 16 8 15 9 14 10 13 11 6 12
REMARK SMILES IDX 7 13 8 14 9 15 12 16 11 17 10 18 4 20 20 22 17 24
REMARK H PARENT 10 19 4 21 20 23 17 25
REMARK Flexibility Score: inf
ROOT
ATOM      1  C   UNL     1       8.962   7.948  13.875  1.00  0.00     0.180 A 
ATOM      2  C   UNL     1       8.795   7.501  12.552  1.00  0.00     0.208 A 
ATOM      3  C   UNL     1       7.496   7.255  12.077  1.00  0.00     0.238 A 
ATOM      4  O   UNL     1       7.350   6.908  10.876  1.00  0.00    -0.285 OA
ATOM      5  C   UNL     1       6.385   7.442  12.933  1.00  0.00     0.111 A 
ATOM      6  C   UNL     1       5.029   7.184  12.568  1.00  0.00     0.134 A 
ATOM      7  C   UNL     1       3.998   7.529  13.451  1.00  0.00     0.093 A 
ATOM      8  C   UNL     1       4.279   8.062  14.713  1.00  0.00     0.123 A 
ATOM      9  C   UNL     1       5.602   8.261  15.100  1.00  0.00     0.094 A 
ATOM     10  C   UNL     1       6.650   7.961  14.227  1.00  0.00     0.146 A 
ATOM     11  O   UNL     1       7.895   8.176  14.632  1.00  0.00    -0.452 OA
ENDROOT
BRANCH   1  12
ATOM     12  C   UNL     1      10.299   8.205  14.456  1.00  0.00     0.021 A 
ATOM     13  C   UNL     1      11.477   7.859  13.768  1.00  0.00     0.016 A 
ATOM     14  C   UNL     1      12.728   8.090  14.348  1.00  0.00     0.047 A 
ATOM     15  C   UNL     1      12.819   8.655  15.625  1.00  0.00     0.115 A 
ATOM     16  C   UNL     1      10.400   8.753  15.746  1.00  0.00     0.016 A 
ATOM     17  C   UNL     1      11.652   8.983  16.322  1.00  0.00     0.047 A 
BRANCH  15  18
ATOM     18  O   UNL     1      14.060   8.891  16.212  1.00  0.00    -0.508 OA
ATOM     19  H   UNL     1      14.239   9.726  16.757  1.00  0.00     0.293 HD
ENDBRANCH  15  18
ENDBRANCH   1  12
BRANCH   2  20
ATOM     20  O   UNL     1       9.904   7.344  11.718  1.00  0.00    -0.502 OA
ATOM     21  H   UNL     1      10.612   8.062  11.614  1.00  0.00     0.293 HD
ENDBRANCH   2  20
BRANCH   6  22
ATOM     22  O   UNL     1       4.646   6.571  11.372  1.00  0.00    -0.507 OA
ATOM     23  H   UNL     1       5.238   5.972  10.818  1.00  0.00     0.293 HD
ENDBRANCH   6  22
BRANCH   8  24
ATOM     24  O   UNL     1       3.249   8.387  15.591  1.00  0.00    -0.508 OA
ATOM     25  H   UNL     1       2.615   9.156  15.405  1.00  0.00     0.293 HD
ENDBRANCH   8  24
TORSDOF 5
ENDMDL
MODEL 3
REMARK VINA RESULT:    18.983      1.825      2.594
REMARK INTER + INTRA:          22.530
REMARK INTER:                  22.788
REMARK INTRA:                  -0.257
REMARK UNBOUND:                 0.218
REMARK SMILES O=c1c(O)c(-c2ccc(O)cc2)oc2cc(O)cc(O)c12
REMARK SMILES IDX 5 1 3 2 2 3 1 4 21 5 19 6 18 7 16 8 15 9 14 10 13 11 6 12
REMARK SMILES IDX 7 13 8 14 9 15 12 16 11 17 10 18 4 20 20 22 17 24
REMARK H PARENT 10 19 4 21 20 23 17 25
REMARK Flexibility Score: inf
ROOT
ATOM      1  C   UNL     1       8.768   8.260  13.597  1.00  0.00     0.180 A 
ATOM      2  C   UNL     1       8.326   9.240  12.691  1.00  0.00     0.208 A 
ATOM      3  C   UNL     1       7.033   9.134  12.152  1.00  0.00     0.238 A 
ATOM      4  O   UNL     1       6.624  10.044  11.384  1.00  0.00    -0.285 OA
ATOM      5  C   UNL     1       6.207   8.043  12.511  1.00  0.00     0.111 A 
ATOM      6  C   UNL     1       4.895   7.815  11.995  1.00  0.00     0.134 A 
ATOM      7  C   UNL     1       4.117   6.777  12.520  1.00  0.00     0.093 A 
ATOM      8  C   UNL     1       4.628   5.917  13.496  1.00  0.00     0.123 A 
ATOM      9  C   UNL     1       5.928   6.095  13.962  1.00  0.00     0.094 A 
ATOM     10  C   UNL     1       6.716   7.145  13.485  1.00  0.00     0.146 A 
ATOM     11  O   UNL     1       7.945   7.285  13.964  1.00  0.00    -0.452 OA
ENDROOT
BRANCH   1  12
ATOM     12  C   UNL     1      10.125   8.288  14.188  1.00  0.00     0.021 A 
ATOM     13  C   UNL     1      11.255   7.890  13.449  1.00  0.00     0.016 A 
ATOM     14  C   UNL     1      12.524   7.902  14.037  1.00  0.00     0.047 A 
ATOM     15  C   UNL     1      12.678   8.298  15.371  1.00  0.00     0.115 A 
ATOM     16  C   UNL     1      10.288   8.664  15.532  1.00  0.00     0.016 A 
ATOM     17  C   UNL     1      11.557   8.676  16.116  1.00  0.00     0.047 A 
BRANCH  15  18
ATOM     18  O   UNL     1      13.938   8.315  15.966  1.00  0.00    -0.508 OA
ATOM     19  H   UNL     1      14.402   9.185  16.199  1.00  0.00     0.293 HD
ENDBRANCH  15  18
ENDBRANCH   1  12
BRANCH   2  20
ATOM     20  O   UNL     1       9.151  10.320  12.366  1.00  0.00    -0.502 OA
ATOM     21  H   UNL     1       9.506  10.471  11.429  1.00  0.00     0.293 HD
ENDBRANCH   2  20
BRANCH   6  22
ATOM     22  O   UNL     1       4.326   8.558  10.957  1.00  0.00    -0.507 OA
ATOM     23  H   UNL     1       4.551   8.447   9.980  1.00  0.00     0.293 HD
ENDBRANCH   6  22
BRANCH   8  24
ATOM     24  O   UNL     1       3.852   4.875  14.001  1.00  0.00    -0.508 OA
ATOM     25  H   UNL     1       3.261   5.000  14.814  1.00  0.00     0.293 HD
ENDBRANCH   8  24
TORSDOF 5
ENDMDL
MODEL 4
REMARK VINA RESULT:    20.091      1.554      1.586
REMARK INTER + INTRA:          23.833
REMARK INTER:                  24.013
REMARK INTRA:                  -0.180
REMARK UNBOUND:                 0.218
REMARK SMILES O=c1c(O)c(-c2ccc(O)cc2)oc2cc(O)cc(O)c12
REMARK SMILES IDX 5 1 3 2 2 3 1 4 21 5 19 6 18 7 16 8 15 9 14 10 13 11 6 12
REMARK SMILES IDX 7 13 8 14 9 15 12 16 11 17 10 18 4 20 20 22 17 24
REMARK H PARENT 10 19 4 21 20 23 17 25
REMARK Flexibility Score: inf
ROOT
ATOM      1  C   UNL     1       8.563   7.640  13.537  1.00  0.00     0.180 A 
ATOM      2  C   UNL     1       8.089   6.318  13.477  1.00  0.00     0.208 A 
ATOM      3  C   UNL     1       6.818   6.075  12.930  1.00  0.00     0.238 A 
ATOM      4  O   UNL     1       6.422   4.884  12.829  1.00  0.00    -0.285 OA
ATOM      5  C   UNL     1       6.032   7.157  12.467  1.00  0.00     0.111 A 
ATOM      6  C   UNL     1       4.714   7.031  11.932  1.00  0.00     0.134 A 
ATOM      7  C   UNL     1       4.081   8.152  11.384  1.00  0.00     0.093 A 
ATOM      8  C   UNL     1       4.692   9.409  11.410  1.00  0.00     0.123 A 
ATOM      9  C   UNL     1       5.952   9.553  11.984  1.00  0.00     0.094 A 
ATOM     10  C   UNL     1       6.625   8.446  12.506  1.00  0.00     0.146 A 
ATOM     11  O   UNL     1       7.829   8.626  13.035  1.00  0.00    -0.452 OA
ENDROOT
BRANCH   1  12
ATOM     12  C   UNL     1       9.881   7.979  14.121  1.00  0.00     0.021 A 
ATOM     13  C   UNL     1      11.081   7.618  13.480  1.00  0.00     0.016 A 
ATOM     14  C   UNL     1      12.314   7.928  14.062  1.00  0.00     0.047 A 
ATOM     15  C   UNL     1      12.364   8.588  15.296  1.00  0.00     0.115 A 
ATOM     16  C   UNL     1       9.941   8.622  15.369  1.00  0.00     0.016 A 
ATOM     17  C   UNL     1      11.175   8.931  15.947  1.00  0.00     0.047 A 
BRANCH  15  18
ATOM     18  O   UNL     1      13.587   8.903  15.885  1.00  0.00    -0.508 OA
ATOM     19  H   UNL     1      13.872   9.863  16.032  1.00  0.00     0.293 HD
ENDBRANCH  15  18
ENDBRANCH   1  12
BRANCH   2  20
ATOM     20  O   UNL     1       8.891   5.263  13.920  1.00  0.00    -0.502 OA
ATOM     21  H   UNL     1       9.858   5.392  14.193  1.00  0.00     0.293 HD
ENDBRANCH   2  20
BRANCH   6  22
ATOM     22  O   UNL     1       3.980   5.841  11.941  1.00  0.00    -0.507 OA
ATOM     23  H   UNL     1       3.638   5.371  11.116  1.00  0.00     0.293 HD
ENDBRANCH   6  22
BRANCH   8  24
ATOM     24  O   UNL     1       4.047  10.523  10.876  1.00  0.00    -0.508 OA
ATOM     25  H   UNL     1       3.717  11.278  11.466  1.00  0.00     0.293 HD
ENDBRANCH   8  24
TORSDOF 5
ENDMDL
