MODEL 1
REMARK VINA RESULT:    50.511      0.000      0.000
REMARK INTER + INTRA:          55.141
REMARK INTER:                  54.940
REMARK INTRA:                   0.201
REMARK UNBOUND:                 0.201
REMARK SMILES CC(=O)[C@H]1CC[C@H]2[C@H]3CC=C4C[C@H](O)CC[C@]4(C)[C@H]3CC[C@@]12C
REMARK SMILES IDX 4 1 5 2 6 3 7 4 22 5 21 6 20 7 19 8 8 9 9 10 10 11 11 12
REMARK SMILES IDX 17 13 16 14 15 15 13 16 12 17 18 18 23 19 2 20 1 21 3 22
REMARK SMILES IDX 14 23
REMARK H PARENT 14 24
REMARK Flexibility Score: inf
ROOT
ATOM      1  C   UNL     1     -23.415  33.721  -9.709  1.00  0.00     0.062 C 
ATOM      2  C   UNL     1     -22.431  32.912  -8.847  1.00  0.00     0.012 C 
ATOM      3  C   UNL     1     -23.062  31.531  -8.663  1.00  0.00     0.005 C 
ATOM      4  C   UNL     1     -24.362  31.526  -9.483  1.00  0.00    -0.001 C 
ATOM      5  C   UNL     1     -24.781  33.002  -9.560  1.00  0.00    -0.020 C 
ATOM      6  C   UNL     1     -25.480  33.409  -8.237  1.00  0.00     0.008 C 
ATOM      7  C   UNL     1     -26.738  32.596  -7.950  1.00  0.00     0.005 C 
ATOM      8  C   UNL     1     -26.561  31.048  -7.997  1.00  0.00     0.003 C 
ATOM      9  C   UNL     1     -25.488  30.532  -9.036  1.00  0.00     0.000 C 
ATOM     10  C   UNL     1     -24.912  29.132  -8.700  1.00  0.00     0.031 C 
ATOM     11  C   UNL     1     -25.878  28.279  -7.936  1.00  0.00    -0.027 C 
ATOM     12  C   UNL     1     -26.592  28.778  -6.910  1.00  0.00    -0.065 C 
ATOM     13  C   UNL     1     -26.581  30.287  -6.610  1.00  0.00    -0.008 C 
ATOM     14  C   UNL     1     -27.885  30.636  -5.813  1.00  0.00     0.014 C 
ATOM     15  C   UNL     1     -28.167  29.739  -4.585  1.00  0.00     0.033 C 
ATOM     16  C   UNL     1     -27.680  28.280  -4.727  1.00  0.00     0.118 C 
ATOM     17  C   UNL     1     -27.557  27.863  -6.190  1.00  0.00     0.063 C 
ATOM     18  C   UNL     1     -25.357  30.644  -5.738  1.00  0.00     0.016 C 
ATOM     19  C   UNL     1     -25.685  33.271 -10.787  1.00  0.00     0.012 C 
ENDROOT
BRANCH   1  20
ATOM     20  C   UNL     1     -23.455  35.222  -9.446  1.00  0.00     0.133 C 
ATOM     21  C   UNL     1     -24.521  36.124 -10.003  1.00  0.00     0.088 C 
ATOM     22  O   UNL     1     -22.593  35.715  -8.735  1.00  0.00    -0.300 OA
ENDBRANCH   1  20
BRANCH  16  23
ATOM     23  O   UNL     1     -28.563  27.409  -4.072  1.00  0.00    -0.393 OA
ATOM     24  H   UNL     1     -28.086  26.545  -3.964  1.00  0.00     0.210 HD
ENDBRANCH  16  23
TORSDOF 2
ENDMDL
MODEL 2
REMARK VINA RESULT:    52.171     16.974     19.930
REMARK INTER + INTRA:          56.947
REMARK INTER:                  56.787
REMARK INTRA:                   0.161
REMARK UNBOUND:                 0.201
REMARK SMILES CC(=O)[C@H]1CC[C@H]2[C@H]3CC=C4C[C@H](O)CC[C@]4(C)[C@H]3CC[C@@]12C
REMARK SMILES IDX 4 1 5 2 6 3 7 4 22 5 21 6 20 7 19 8 8 9 9 10 10 11 11 12
REMARK SMILES IDX 17 13 16 14 15 15 13 16 12 17 18 18 23 19 2 20 1 21 3 22
REMARK SMILES IDX 14 23
REMARK H PARENT 14 24
REMARK Flexibility Score: inf
ROOT
ATOM      1  C   UNL     1     -38.482  22.081   6.417  1.00  0.00     0.062 C 
ATOM      2  C   UNL     1     -37.962  21.806   7.838  1.00  0.00     0.012 C 
ATOM      3  C   UNL     1     -36.913  22.881   8.124  1.00  0.00     0.005 C 
ATOM      4  C   UNL     1     -36.892  23.815   6.903  1.00  0.00    -0.001 C 
ATOM      5  C   UNL     1     -37.386  22.945   5.738  1.00  0.00    -0.020 C 
ATOM      6  C   UNL     1     -36.221  22.059   5.226  1.00  0.00     0.008 C 
ATOM      7  C   UNL     1     -35.034  22.868   4.714  1.00  0.00     0.005 C 
ATOM      8  C   UNL     1     -34.483  23.944   5.698  1.00  0.00     0.003 C 
ATOM      9  C   UNL     1     -35.570  24.611   6.632  1.00  0.00     0.000 C 
ATOM     10  C   UNL     1     -34.991  25.216   7.937  1.00  0.00     0.031 C 
ATOM     11  C   UNL     1     -33.570  25.663   7.784  1.00  0.00    -0.027 C 
ATOM     12  C   UNL     1     -32.661  24.901   7.147  1.00  0.00    -0.065 C 
ATOM     13  C   UNL     1     -33.095  23.633   6.390  1.00  0.00    -0.008 C 
ATOM     14  C   UNL     1     -32.005  23.311   5.311  1.00  0.00     0.014 C 
ATOM     15  C   UNL     1     -30.550  23.280   5.833  1.00  0.00     0.033 C 
ATOM     16  C   UNL     1     -30.262  24.251   6.998  1.00  0.00     0.118 C 
ATOM     17  C   UNL     1     -31.246  25.418   7.020  1.00  0.00     0.063 C 
ATOM     18  C   UNL     1     -33.192  22.441   7.368  1.00  0.00     0.016 C 
ATOM     19  C   UNL     1     -37.987  23.808   4.601  1.00  0.00     0.012 C 
ENDROOT
BRANCH   1  20
ATOM     20  C   UNL     1     -38.916  20.860   5.615  1.00  0.00     0.133 C 
ATOM     21  C   UNL     1     -39.124  19.505   6.233  1.00  0.00     0.088 C 
ATOM     22  O   UNL     1     -39.123  20.989   4.418  1.00  0.00    -0.300 OA
ENDBRANCH   1  20
BRANCH  16  23
ATOM     23  O   UNL     1     -28.955  24.753   6.899  1.00  0.00    -0.393 OA
ATOM     24  H   UNL     1     -28.986  25.695   7.211  1.00  0.00     0.210 HD
ENDBRANCH  16  23
TORSDOF 2
ENDMDL
