MODEL 1
REMARK VINA RESULT:    -4.483      0.000      0.000
REMARK INTER + INTRA:          -5.234
REMARK INTER:                  -5.138
REMARK INTRA:                  -0.096
REMARK UNBOUND:                -0.096
REMARK SMILES COc1cc(C(=O)[O-])ccc1O
REMARK SMILES IDX 5 1 9 2 4 3 10 4 3 5 11 6 6 7 7 8 8 9 2 10 1 11 12 12
REMARK H PARENT 12 13
REMARK Flexibility Score: inf
ROOT
ATOM      1  C   UNL     1      19.596  41.974   2.355  1.00  0.00     0.001 A 
ATOM      2  C   UNL     1      20.510  42.866   2.938  1.00  0.00     0.014 A 
ATOM      3  C   UNL     1      19.870  40.595   2.391  1.00  0.00     0.060 A 
ATOM      4  C   UNL     1      21.674  42.390   3.545  1.00  0.00     0.051 A 
ATOM      5  C   UNL     1      21.043  40.109   3.003  1.00  0.00     0.161 A 
ATOM      6  C   UNL     1      21.945  41.020   3.580  1.00  0.00     0.157 A 
ENDROOT
BRANCH   1   7
ATOM      7  C   UNL     1      18.364  42.484   1.713  1.00  0.00     0.072 C 
ATOM      8  O   UNL     1      17.336  42.727   2.399  1.00  0.00    -0.545 OA
ATOM      9  O   UNL     1      18.325  42.704   0.340  1.00  0.00    -0.545 OA
ENDBRANCH   1   7
BRANCH   5  10
ATOM     10  O   UNL     1      21.342  38.737   3.054  1.00  0.00    -0.493 OA
ATOM     11  C   UNL     1      20.800  37.826   4.006  1.00  0.00     0.278 C 
ENDBRANCH   5  10
BRANCH   6  12
ATOM     12  O   UNL     1      23.118  40.583   4.196  1.00  0.00    -0.504 OA
ATOM     13  H   UNL     1      23.957  40.369   3.669  1.00  0.00     0.293 HD
ENDBRANCH   6  12
TORSDOF 3
ENDMDL
MODEL 2
REMARK VINA RESULT:    -4.385      2.749      4.034
REMARK INTER + INTRA:          -5.122
REMARK INTER:                  -5.045
REMARK INTRA:                  -0.078
REMARK UNBOUND:                -0.096
REMARK SMILES COc1cc(C(=O)[O-])ccc1O
REMARK SMILES IDX 5 1 9 2 4 3 10 4 3 5 11 6 6 7 7 8 8 9 2 10 1 11 12 12
REMARK H PARENT 12 13
REMARK Flexibility Score: inf
ROOT
ATOM      1  C   UNL     1      18.756  39.994   5.235  1.00  0.00     0.001 A 
ATOM      2  C   UNL     1      19.338  38.748   5.522  1.00  0.00     0.014 A 
ATOM      3  C   UNL     1      19.163  40.689   4.082  1.00  0.00     0.060 A 
ATOM      4  C   UNL     1      20.306  38.208   4.673  1.00  0.00     0.051 A 
ATOM      5  C   UNL     1      20.140  40.148   3.222  1.00  0.00     0.161 A 
ATOM      6  C   UNL     1      20.709  38.900   3.528  1.00  0.00     0.157 A 
ENDROOT
BRANCH   1   7
ATOM      7  C   UNL     1      17.731  40.562   6.138  1.00  0.00     0.072 C 
ATOM      8  O   UNL     1      17.846  40.455   7.388  1.00  0.00    -0.545 OA
ATOM      9  O   UNL     1      16.623  41.224   5.619  1.00  0.00    -0.545 OA
ENDBRANCH   1   7
BRANCH   5  10
ATOM     10  O   UNL     1      20.564  40.819   2.063  1.00  0.00    -0.493 OA
ATOM     11  C   UNL     1      20.293  42.188   1.775  1.00  0.00     0.278 C 
ENDBRANCH   5  10
BRANCH   6  12
ATOM     12  O   UNL     1      21.679  38.328   2.704  1.00  0.00    -0.504 OA
ATOM     13  H   UNL     1      22.259  37.554   3.009  1.00  0.00     0.293 HD
ENDBRANCH   6  12
TORSDOF 3
ENDMDL
MODEL 3
REMARK VINA RESULT:    -4.292      2.578      3.425
REMARK INTER + INTRA:          -5.015
REMARK INTER:                  -4.934
REMARK INTRA:                  -0.081
REMARK UNBOUND:                -0.096
REMARK SMILES COc1cc(C(=O)[O-])ccc1O
REMARK SMILES IDX 5 1 9 2 4 3 10 4 3 5 11 6 6 7 7 8 8 9 2 10 1 11 12 12
REMARK H PARENT 12 13
REMARK Flexibility Score: inf
ROOT
ATOM      1  C   UNL     1      19.082  39.846   4.860  1.00  0.00     0.001 A 
ATOM      2  C   UNL     1      19.639  40.629   3.836  1.00  0.00     0.014 A 
ATOM      3  C   UNL     1      19.624  38.574   5.120  1.00  0.00     0.060 A 
ATOM      4  C   UNL     1      20.717  40.151   3.088  1.00  0.00     0.051 A 
ATOM      5  C   UNL     1      20.712  38.087   4.368  1.00  0.00     0.161 A 
ATOM      6  C   UNL     1      21.255  38.887   3.348  1.00  0.00     0.157 A 
ENDROOT
BRANCH   1   7
ATOM      7  C   UNL     1      17.939  40.357   5.650  1.00  0.00     0.072 C 
ATOM      8  O   UNL     1      17.818  40.062   6.868  1.00  0.00    -0.545 OA
ATOM      9  O   UNL     1      16.981  41.172   5.056  1.00  0.00    -0.545 OA
ENDBRANCH   1   7
BRANCH   5  10
ATOM     10  O   UNL     1      21.274  36.821   4.607  1.00  0.00    -0.493 OA
ATOM     11  C   UNL     1      21.380  36.213   5.890  1.00  0.00     0.278 C 
ENDBRANCH   5  10
BRANCH   6  12
ATOM     12  O   UNL     1      22.331  38.445   2.579  1.00  0.00    -0.504 OA
ATOM     13  H   UNL     1      22.898  37.650   2.851  1.00  0.00     0.293 HD
ENDBRANCH   6  12
TORSDOF 3
ENDMDL
MODEL 4
REMARK VINA RESULT:    -4.116      2.464      3.337
REMARK INTER + INTRA:          -4.814
REMARK INTER:                  -4.740
REMARK INTRA:                  -0.074
REMARK UNBOUND:                -0.096
REMARK SMILES COc1cc(C(=O)[O-])ccc1O
REMARK SMILES IDX 5 1 9 2 4 3 10 4 3 5 11 6 6 7 7 8 8 9 2 10 1 11 12 12
REMARK H PARENT 12 13
REMARK Flexibility Score: inf
ROOT
ATOM      1  C   UNL     1      20.094  40.491   2.902  1.00  0.00     0.001 A 
ATOM      2  C   UNL     1      20.978  39.422   2.682  1.00  0.00     0.014 A 
ATOM      3  C   UNL     1      19.307  40.499   4.068  1.00  0.00     0.060 A 
ATOM      4  C   UNL     1      21.075  38.383   3.609  1.00  0.00     0.051 A 
ATOM      5  C   UNL     1      19.401  39.452   5.007  1.00  0.00     0.161 A 
ATOM      6  C   UNL     1      20.293  38.392   4.767  1.00  0.00     0.157 A 
ENDROOT
BRANCH   1   7
ATOM      7  C   UNL     1      19.995  41.590   1.915  1.00  0.00     0.072 C 
ATOM      8  O   UNL     1      19.386  41.421   0.825  1.00  0.00    -0.545 OA
ATOM      9  O   UNL     1      20.573  42.827   2.178  1.00  0.00    -0.545 OA
ENDBRANCH   1   7
BRANCH   5  10
ATOM     10  O   UNL     1      18.629  39.434   6.181  1.00  0.00    -0.493 OA
ATOM     11  C   UNL     1      17.883  40.542   6.675  1.00  0.00     0.278 C 
ENDBRANCH   5  10
BRANCH   6  12
ATOM     12  O   UNL     1      20.418  37.336   5.670  1.00  0.00    -0.504 OA
ATOM     13  H   UNL     1      20.890  36.472   5.429  1.00  0.00     0.293 HD
ENDBRANCH   6  12
TORSDOF 3
ENDMDL
MODEL 5
REMARK VINA RESULT:    -4.078      1.949      2.647
REMARK INTER + INTRA:          -4.771
REMARK INTER:                  -4.685
REMARK INTRA:                  -0.086
REMARK UNBOUND:                -0.096
REMARK SMILES COc1cc(C(=O)[O-])ccc1O
REMARK SMILES IDX 5 1 9 2 4 3 10 4 3 5 11 6 6 7 7 8 8 9 2 10 1 11 12 12
REMARK H PARENT 12 13
REMARK Flexibility Score: inf
ROOT
ATOM      1  C   UNL     1      19.058  40.979   3.670  1.00  0.00     0.001 A 
ATOM      2  C   UNL     1      18.514  40.624   4.915  1.00  0.00     0.014 A 
ATOM      3  C   UNL     1      20.035  40.150   3.089  1.00  0.00     0.060 A 
ATOM      4  C   UNL     1      18.937  39.463   5.566  1.00  0.00     0.051 A 
ATOM      5  C   UNL     1      20.465  38.977   3.742  1.00  0.00     0.161 A 
ATOM      6  C   UNL     1      19.907  38.640   4.988  1.00  0.00     0.157 A 
ENDROOT
BRANCH   1   7
ATOM      7  C   UNL     1      18.607  42.211   2.984  1.00  0.00     0.072 C 
ATOM      8  O   UNL     1      17.403  42.576   3.049  1.00  0.00    -0.545 OA
ATOM      9  O   UNL     1      19.507  42.984   2.259  1.00  0.00    -0.545 OA
ENDBRANCH   1   7
BRANCH   5  10
ATOM     10  O   UNL     1      21.438  38.130   3.185  1.00  0.00    -0.493 OA
ATOM     11  C   UNL     1      22.677  38.571   2.639  1.00  0.00     0.278 C 
ENDBRANCH   5  10
BRANCH   6  12
ATOM     12  O   UNL     1      20.304  37.489   5.669  1.00  0.00    -0.504 OA
ATOM     13  H   UNL     1      21.278  37.281   5.857  1.00  0.00     0.293 HD
ENDBRANCH   6  12
TORSDOF 3
ENDMDL
MODEL 6
REMARK VINA RESULT:    -4.059      1.953      4.924
REMARK INTER + INTRA:          -4.749
REMARK INTER:                  -4.667
REMARK INTRA:                  -0.082
REMARK UNBOUND:                -0.096
REMARK SMILES COc1cc(C(=O)[O-])ccc1O
REMARK SMILES IDX 5 1 9 2 4 3 10 4 3 5 11 6 6 7 7 8 8 9 2 10 1 11 12 12
REMARK H PARENT 12 13
REMARK Flexibility Score: inf
ROOT
ATOM      1  C   UNL     1      20.122  39.154   4.034  1.00  0.00     0.001 A 
ATOM      2  C   UNL     1      19.394  39.146   5.235  1.00  0.00     0.014 A 
ATOM      3  C   UNL     1      19.903  40.190   3.108  1.00  0.00     0.060 A 
ATOM      4  C   UNL     1      18.467  40.154   5.506  1.00  0.00     0.051 A 
ATOM      5  C   UNL     1      18.968  41.209   3.377  1.00  0.00     0.161 A 
ATOM      6  C   UNL     1      18.250  41.183   4.585  1.00  0.00     0.157 A 
ENDROOT
BRANCH   1   7
ATOM      7  C   UNL     1      21.104  38.083   3.752  1.00  0.00     0.072 C 
ATOM      8  O   UNL     1      21.963  38.223   2.841  1.00  0.00    -0.545 OA
ATOM      9  O   UNL     1      21.093  36.904   4.491  1.00  0.00    -0.545 OA
ENDBRANCH   1   7
BRANCH   5  10
ATOM     10  O   UNL     1      18.729  42.257   2.471  1.00  0.00    -0.493 OA
ATOM     11  C   UNL     1      19.687  42.759   1.544  1.00  0.00     0.278 C 
ENDBRANCH   5  10
BRANCH   6  12
ATOM     12  O   UNL     1      17.315  42.172   4.891  1.00  0.00    -0.504 OA
ATOM     13  H   UNL     1      17.548  42.979   5.457  1.00  0.00     0.293 HD
ENDBRANCH   6  12
TORSDOF 3
ENDMDL
MODEL 7
REMARK VINA RESULT:    -3.932      2.196      4.505
REMARK INTER + INTRA:          -4.602
REMARK INTER:                  -4.524
REMARK INTRA:                  -0.078
REMARK UNBOUND:                -0.096
REMARK SMILES COc1cc(C(=O)[O-])ccc1O
REMARK SMILES IDX 5 1 9 2 4 3 10 4 3 5 11 6 6 7 7 8 8 9 2 10 1 11 12 12
REMARK H PARENT 12 13
REMARK Flexibility Score: inf
ROOT
ATOM      1  C   UNL     1      20.305  39.633   3.397  1.00  0.00     0.001 A 
ATOM      2  C   UNL     1      20.232  40.496   2.292  1.00  0.00     0.014 A 
ATOM      3  C   UNL     1      19.478  39.874   4.509  1.00  0.00     0.060 A 
ATOM      4  C   UNL     1      19.350  41.578   2.297  1.00  0.00     0.051 A 
ATOM      5  C   UNL     1      18.585  40.965   4.519  1.00  0.00     0.161 A 
ATOM      6  C   UNL     1      18.529  41.817   3.402  1.00  0.00     0.157 A 
ENDROOT
BRANCH   1   7
ATOM      7  C   UNL     1      21.242  38.487   3.386  1.00  0.00     0.072 C 
ATOM      8  O   UNL     1      21.001  37.454   4.067  1.00  0.00    -0.545 OA
ATOM      9  O   UNL     1      22.403  38.534   2.622  1.00  0.00    -0.545 OA
ENDBRANCH   1   7
BRANCH   5  10
ATOM     10  O   UNL     1      17.747  41.230   5.615  1.00  0.00    -0.493 OA
ATOM     11  C   UNL     1      17.711  40.457   6.811  1.00  0.00     0.278 C 
ENDBRANCH   5  10
BRANCH   6  12
ATOM     12  O   UNL     1      17.660  42.908   3.370  1.00  0.00    -0.504 OA
ATOM     13  H   UNL     1      17.414  43.427   4.205  1.00  0.00     0.293 HD
ENDBRANCH   6  12
TORSDOF 3
ENDMDL
MODEL 8
REMARK VINA RESULT:    -3.867      1.519      1.866
REMARK INTER + INTRA:          -4.528
REMARK INTER:                  -4.448
REMARK INTRA:                  -0.080
REMARK UNBOUND:                -0.096
REMARK SMILES COc1cc(C(=O)[O-])ccc1O
REMARK SMILES IDX 5 1 9 2 4 3 10 4 3 5 11 6 6 7 7 8 8 9 2 10 1 11 12 12
REMARK H PARENT 12 13
REMARK Flexibility Score: inf
ROOT
ATOM      1  C   UNL     1      18.950  41.707   3.353  1.00  0.00     0.001 A 
ATOM      2  C   UNL     1      19.728  41.736   2.184  1.00  0.00     0.014 A 
ATOM      3  C   UNL     1      19.355  40.890   4.423  1.00  0.00     0.060 A 
ATOM      4  C   UNL     1      20.887  40.965   2.088  1.00  0.00     0.051 A 
ATOM      5  C   UNL     1      20.525  40.109   4.331  1.00  0.00     0.161 A 
ATOM      6  C   UNL     1      21.289  40.153   3.152  1.00  0.00     0.157 A 
ENDROOT
BRANCH   1   7
ATOM      7  C   UNL     1      17.721  42.527   3.449  1.00  0.00     0.072 C 
ATOM      8  O   UNL     1      17.271  42.877   4.572  1.00  0.00    -0.545 OA
ATOM      9  O   UNL     1      17.046  42.923   2.300  1.00  0.00    -0.545 OA
ENDBRANCH   1   7
BRANCH   5  10
ATOM     10  O   UNL     1      20.954  39.285   5.385  1.00  0.00    -0.493 OA
ATOM     11  C   UNL     1      20.611  37.910   5.527  1.00  0.00     0.278 C 
ENDBRANCH   5  10
BRANCH   6  12
ATOM     12  O   UNL     1      22.454  39.397   3.018  1.00  0.00    -0.504 OA
ATOM     13  H   UNL     1      23.358  39.823   2.851  1.00  0.00     0.293 HD
ENDBRANCH   6  12
TORSDOF 3
ENDMDL
MODEL 9
REMARK VINA RESULT:    -3.801      2.516      4.302
REMARK INTER + INTRA:          -4.453
REMARK INTER:                  -4.379
REMARK INTRA:                  -0.074
REMARK UNBOUND:                -0.096
REMARK SMILES COc1cc(C(=O)[O-])ccc1O
REMARK SMILES IDX 5 1 9 2 4 3 10 4 3 5 11 6 6 7 7 8 8 9 2 10 1 11 12 12
REMARK H PARENT 12 13
REMARK Flexibility Score: inf
ROOT
ATOM      1  C   UNL     1      20.374  41.012   5.261  1.00  0.00     0.001 A 
ATOM      2  C   UNL     1      20.452  39.643   5.567  1.00  0.00     0.014 A 
ATOM      3  C   UNL     1      20.160  41.403   3.927  1.00  0.00     0.060 A 
ATOM      4  C   UNL     1      20.318  38.686   4.560  1.00  0.00     0.051 A 
ATOM      5  C   UNL     1      20.024  40.440   2.907  1.00  0.00     0.161 A 
ATOM      6  C   UNL     1      20.105  39.076   3.235  1.00  0.00     0.157 A 
ENDROOT
BRANCH   1   7
ATOM      7  C   UNL     1      20.517  42.023   6.332  1.00  0.00     0.072 C 
ATOM      8  O   UNL     1      21.580  42.689   6.448  1.00  0.00    -0.545 OA
ATOM      9  O   UNL     1      19.478  42.253   7.228  1.00  0.00    -0.545 OA
ENDBRANCH   1   7
BRANCH   5  10
ATOM     10  O   UNL     1      19.808  40.802   1.566  1.00  0.00    -0.493 OA
ATOM     11  C   UNL     1      19.417  42.101   1.132  1.00  0.00     0.278 C 
ENDBRANCH   5  10
BRANCH   6  12
ATOM     12  O   UNL     1      19.976  38.089   2.257  1.00  0.00    -0.504 OA
ATOM     13  H   UNL     1      19.275  37.360   2.314  1.00  0.00     0.293 HD
ENDBRANCH   6  12
TORSDOF 3
ENDMDL
