MODEL 1
REMARK VINA RESULT:    60.170      0.000      0.000
REMARK INTER + INTRA:         101.483
REMARK INTER:                  95.345
REMARK INTRA:                   6.138
REMARK UNBOUND:                 6.138
REMARK SMILES C[C@H]1O[C@@H](O[C@@H]2[C@@H](Oc3cc(O)c4c(c3)O[C@@H](c3ccc(O)cc3)CC4=O)O[C@H](CO)[C@H](O)[C@@H]2O)[C@H](O)[C@@H](O)[C@@H]1O
REMARK SMILES IDX 6 1 34 2 32 3 29 4 28 5 7 6 5 7 4 8 1 9 2 10 40 11 3 12
REMARK SMILES IDX 38 13 36 14 41 15 39 17 37 19 35 21 8 23 9 24 10 25 15 26
REMARK SMILES IDX 11 27 14 28 13 29 16 30 26 31 17 32 27 33 25 34 12 35 18 37
REMARK SMILES IDX 19 38 24 39 20 40 23 41 21 42 22 43 33 45 30 47 31 48
REMARK H PARENT 41 16 39 18 37 20 35 22 12 36 22 44 33 46 31 49
REMARK Flexibility Score: inf
ROOT
ATOM      1  C   UNL     1      11.944   8.810  19.141  1.00  0.00     0.221 C 
ATOM      2  C   UNL     1      12.898   9.459  18.113  1.00  0.00     0.181 C 
ATOM      3  C   UNL     1      12.585   8.978  16.686  1.00  0.00     0.177 C 
ATOM      4  C   UNL     1      11.073   9.155  16.410  1.00  0.00     0.179 C 
ATOM      5  O   UNL     1      10.283   8.480  17.381  1.00  0.00    -0.332 OA
ATOM      6  C   UNL     1      10.484   9.014  18.684  1.00  0.00     0.339 C 
ENDROOT
BRANCH   1   7
ATOM      7  O   UNL     1      12.226   7.420  19.225  1.00  0.00    -0.337 OA
BRANCH   7   8
ATOM      8  C   UNL     1      12.863   6.907  18.059  1.00  0.00     0.282 C 
ATOM      9  C   UNL     1      10.504   5.131  19.057  1.00  0.00     0.041 C 
ATOM     10  C   UNL     1      11.555   4.905  17.955  1.00  0.00     0.150 C 
ATOM     11  C   UNL     1      12.747   4.022  18.413  1.00  0.00     0.174 C 
ATOM     12  O   UNL     1      11.956   6.111  17.304  1.00  0.00    -0.344 OA
ATOM     13  C   UNL     1      13.815   4.830  19.173  1.00  0.00     0.179 C 
ATOM     14  C   UNL     1      14.143   6.136  18.434  1.00  0.00     0.202 C 
BRANCH  11  15
ATOM     15  O   UNL     1      13.343   3.415  17.288  1.00  0.00    -0.388 OA
ATOM     16  H   UNL     1      14.207   3.028  17.587  1.00  0.00     0.211 HD
ENDBRANCH  11  15
BRANCH  13  17
ATOM     17  O   UNL     1      13.392   5.121  20.485  1.00  0.00    -0.387 OA
ATOM     18  H   UNL     1      12.667   4.472  20.699  1.00  0.00     0.211 HD
ENDBRANCH  13  17
BRANCH  14  19
ATOM     19  O   UNL     1      14.873   5.861  17.263  1.00  0.00    -0.385 OA
ATOM     20  H   UNL     1      15.825   6.062  17.463  1.00  0.00     0.211 HD
ENDBRANCH  14  19
ENDBRANCH   7   8
ENDBRANCH   1   7
BRANCH   2  21
ATOM     21  O   UNL     1      14.235   9.164  18.426  1.00  0.00    -0.387 OA
ATOM     22  H   UNL     1      14.675  10.022  18.653  1.00  0.00     0.211 HD
ENDBRANCH   2  21
BRANCH   6  23
ATOM     23  O   UNL     1      10.124  10.399  18.742  1.00  0.00    -0.462 OA
BRANCH  23  24
ATOM     24  C   UNL     1       9.226  10.952  19.669  1.00  0.00     0.130 A 
ATOM     25  C   UNL     1       9.130  12.338  19.901  1.00  0.00     0.093 A 
ATOM     26  C   UNL     1       8.397  10.084  20.382  1.00  0.00     0.094 A 
ATOM     27  C   UNL     1       8.222  12.851  20.835  1.00  0.00     0.133 A 
ATOM     28  C   UNL     1       7.510  10.574  21.344  1.00  0.00     0.138 A 
ATOM     29  C   UNL     1       7.419  11.961  21.588  1.00  0.00     0.102 A 
ATOM     30  O   UNL     1       6.718   9.665  22.067  1.00  0.00    -0.484 OA
ATOM     31  C   UNL     1       6.472  12.392  22.639  1.00  0.00     0.174 C 
ATOM     32  C   UNL     1       5.847  10.037  23.144  1.00  0.00     0.211 C 
ATOM     33  O   UNL     1       6.642  13.457  23.290  1.00  0.00    -0.294 OA
ATOM     34  C   UNL     1       5.335  11.479  22.982  1.00  0.00     0.131 C 
BRANCH  27  35
ATOM     35  O   UNL     1       8.126  14.241  20.951  1.00  0.00    -0.507 OA
ATOM     36  H   UNL     1       7.379  14.789  20.552  1.00  0.00     0.293 HD
ENDBRANCH  27  35
BRANCH  32  37
ATOM     37  C   UNL     1       6.514   9.844  24.492  1.00  0.00    -0.007 A 
ATOM     38  C   UNL     1       7.316   8.707  24.702  1.00  0.00     0.011 A 
ATOM     39  C   UNL     1       6.281  10.718  25.570  1.00  0.00     0.011 A 
ATOM     40  C   UNL     1       7.882   8.460  25.956  1.00  0.00     0.046 A 
ATOM     41  C   UNL     1       6.852  10.471  26.822  1.00  0.00     0.046 A 
ATOM     42  C   UNL     1       7.651   9.342  27.021  1.00  0.00     0.115 A 
BRANCH  42  43
ATOM     43  O   UNL     1       8.201   9.100  28.277  1.00  0.00    -0.508 OA
ATOM     44  H   UNL     1       9.107   9.470  28.541  1.00  0.00     0.293 HD
ENDBRANCH  42  43
ENDBRANCH  32  37
ENDBRANCH  23  24
ENDBRANCH   6  23
BRANCH   3  45
ATOM     45  O   UNL     1      12.965   7.630  16.547  1.00  0.00    -0.387 OA
ATOM     46  H   UNL     1      12.697   7.339  15.639  1.00  0.00     0.211 HD
ENDBRANCH   3  45
BRANCH   4  47
ATOM     47  C   UNL     1      10.677   8.662  15.013  1.00  0.00     0.191 C 
BRANCH  47  48
ATOM     48  O   UNL     1      11.061   7.329  14.836  1.00  0.00    -0.394 OA
ATOM     49  H   UNL     1      11.977   7.253  15.211  1.00  0.00     0.210 HD
ENDBRANCH  47  48
ENDBRANCH   4  47
TORSDOF 14
ENDMDL
MODEL 2
REMARK VINA RESULT:    60.954      3.295      9.120
REMARK INTER + INTRA:         102.727
REMARK INTER:                  96.483
REMARK INTRA:                   6.243
REMARK UNBOUND:                 6.138
REMARK SMILES C[C@H]1O[C@@H](O[C@@H]2[C@@H](Oc3cc(O)c4c(c3)O[C@@H](c3ccc(O)cc3)CC4=O)O[C@H](CO)[C@H](O)[C@@H]2O)[C@H](O)[C@@H](O)[C@@H]1O
REMARK SMILES IDX 6 1 34 2 32 3 29 4 28 5 7 6 5 7 4 8 1 9 2 10 40 11 3 12
REMARK SMILES IDX 38 13 36 14 41 15 39 17 37 19 35 21 8 23 9 24 10 25 15 26
REMARK SMILES IDX 11 27 14 28 13 29 16 30 26 31 17 32 27 33 25 34 12 35 18 37
REMARK SMILES IDX 19 38 24 39 20 40 23 41 21 42 22 43 33 45 30 47 31 48
REMARK H PARENT 41 16 39 18 37 20 35 22 12 36 22 44 33 46 31 49
REMARK Flexibility Score: inf
ROOT
ATOM      1  C   UNL     1      11.065   7.118  17.312  1.00  0.00     0.221 C 
ATOM      2  C   UNL     1      11.563   7.998  16.142  1.00  0.00     0.181 C 
ATOM      3  C   UNL     1      12.459   9.139  16.650  1.00  0.00     0.177 C 
ATOM      4  C   UNL     1      13.558   8.553  17.569  1.00  0.00     0.179 C 
ATOM      5  O   UNL     1      12.996   7.805  18.640  1.00  0.00    -0.332 OA
ATOM      6  C   UNL     1      12.271   6.677  18.168  1.00  0.00     0.339 C 
ENDROOT
BRANCH   1   7
ATOM      7  O   UNL     1      10.166   7.873  18.112  1.00  0.00    -0.337 OA
BRANCH   7   8
ATOM      8  C   UNL     1      10.378   9.279  18.020  1.00  0.00     0.282 C 
ATOM      9  C   UNL     1      10.103   8.263  20.954  1.00  0.00     0.041 C 
ATOM     10  C   UNL     1      10.187   9.686  20.371  1.00  0.00     0.150 C 
ATOM     11  C   UNL     1       8.802  10.368  20.208  1.00  0.00     0.174 C 
ATOM     12  O   UNL     1      11.003   9.767  19.202  1.00  0.00    -0.344 OA
ATOM     13  C   UNL     1       8.093   9.949  18.908  1.00  0.00     0.179 C 
ATOM     14  C   UNL     1       9.058  10.009  17.713  1.00  0.00     0.202 C 
BRANCH  11  15
ATOM     15  O   UNL     1       8.964  11.769  20.213  1.00  0.00    -0.388 OA
ATOM     16  H   UNL     1       8.073  12.166  20.400  1.00  0.00     0.211 HD
ENDBRANCH  11  15
BRANCH  13  17
ATOM     17  O   UNL     1       7.556   8.651  19.018  1.00  0.00    -0.387 OA
ATOM     18  H   UNL     1       8.332   8.027  19.055  1.00  0.00     0.211 HD
ENDBRANCH  13  17
BRANCH  14  19
ATOM     19  O   UNL     1       9.340  11.348  17.384  1.00  0.00    -0.385 OA
ATOM     20  H   UNL     1       8.466  11.815  17.301  1.00  0.00     0.211 HD
ENDBRANCH  14  19
ENDBRANCH   7   8
ENDBRANCH   1   7
BRANCH   2  21
ATOM     21  O   UNL     1      10.476   8.534  15.432  1.00  0.00    -0.387 OA
ATOM     22  H   UNL     1      10.791   8.703  14.508  1.00  0.00     0.211 HD
ENDBRANCH   2  21
BRANCH   6  23
ATOM     23  O   UNL     1      13.114   5.783  17.432  1.00  0.00    -0.462 OA
BRANCH  23  24
ATOM     24  C   UNL     1      13.235   4.408  17.686  1.00  0.00     0.130 A 
ATOM     25  C   UNL     1      13.743   3.501  16.736  1.00  0.00     0.093 A 
ATOM     26  C   UNL     1      12.833   3.931  18.935  1.00  0.00     0.094 A 
ATOM     27  C   UNL     1      13.846   2.136  17.026  1.00  0.00     0.133 A 
ATOM     28  C   UNL     1      12.895   2.566  19.230  1.00  0.00     0.138 A 
ATOM     29  C   UNL     1      13.392   1.652  18.277  1.00  0.00     0.102 A 
ATOM     30  O   UNL     1      12.446   2.120  20.486  1.00  0.00    -0.484 OA
ATOM     31  C   UNL     1      13.401   0.225  18.663  1.00  0.00     0.174 C 
ATOM     32  C   UNL     1      12.367   0.739  20.867  1.00  0.00     0.211 C 
ATOM     33  O   UNL     1      13.326  -0.695  17.806  1.00  0.00    -0.294 OA
ATOM     34  C   UNL     1      13.411  -0.111  20.123  1.00  0.00     0.131 C 
BRANCH  27  35
ATOM     35  O   UNL     1      14.437   1.310  16.064  1.00  0.00    -0.507 OA
ATOM     36  H   UNL     1      14.903   1.654  15.237  1.00  0.00     0.293 HD
ENDBRANCH  27  35
BRANCH  32  37
ATOM     37  C   UNL     1      10.970   0.186  20.667  1.00  0.00    -0.007 A 
ATOM     38  C   UNL     1       9.865   0.953  21.076  1.00  0.00     0.011 A 
ATOM     39  C   UNL     1      10.748  -1.113  20.171  1.00  0.00     0.011 A 
ATOM     40  C   UNL     1       8.569   0.441  20.977  1.00  0.00     0.046 A 
ATOM     41  C   UNL     1       9.450  -1.622  20.069  1.00  0.00     0.046 A 
ATOM     42  C   UNL     1       8.357  -0.850  20.473  1.00  0.00     0.115 A 
BRANCH  42  43
ATOM     43  O   UNL     1       7.071  -1.375  20.380  1.00  0.00    -0.508 OA
ATOM     44  H   UNL     1       6.864  -2.174  19.791  1.00  0.00     0.293 HD
ENDBRANCH  42  43
ENDBRANCH  32  37
ENDBRANCH  23  24
ENDBRANCH   6  23
BRANCH   3  45
ATOM     45  O   UNL     1      11.678  10.083  17.343  1.00  0.00    -0.387 OA
ATOM     46  H   UNL     1      12.291  10.782  17.684  1.00  0.00     0.211 HD
ENDBRANCH   3  45
BRANCH   4  47
ATOM     47  C   UNL     1      14.473   9.640  18.144  1.00  0.00     0.191 C 
BRANCH  47  48
ATOM     48  O   UNL     1      13.724  10.602  18.829  1.00  0.00    -0.394 OA
ATOM     49  H   UNL     1      13.331  10.139  19.614  1.00  0.00     0.210 HD
ENDBRANCH  47  48
ENDBRANCH   4  47
TORSDOF 14
ENDMDL
MODEL 3
REMARK VINA RESULT:    62.351      4.716      8.842
REMARK INTER + INTRA:         104.939
REMARK INTER:                 105.225
REMARK INTRA:                  -0.286
REMARK UNBOUND:                 6.138
REMARK SMILES C[C@H]1O[C@@H](O[C@@H]2[C@@H](Oc3cc(O)c4c(c3)O[C@@H](c3ccc(O)cc3)CC4=O)O[C@H](CO)[C@H](O)[C@@H]2O)[C@H](O)[C@@H](O)[C@@H]1O
REMARK SMILES IDX 6 1 34 2 32 3 29 4 28 5 7 6 5 7 4 8 1 9 2 10 40 11 3 12
REMARK SMILES IDX 38 13 36 14 41 15 39 17 37 19 35 21 8 23 9 24 10 25 15 26
REMARK SMILES IDX 11 27 14 28 13 29 16 30 26 31 17 32 27 33 25 34 12 35 18 37
REMARK SMILES IDX 19 38 24 39 20 40 23 41 21 42 22 43 33 45 30 47 31 48
REMARK H PARENT 41 16 39 18 37 20 35 22 12 36 22 44 33 46 31 49
REMARK Flexibility Score: inf
ROOT
ATOM      1  C   UNL     1      12.739   0.319  19.943  1.00  0.00     0.221 C 
ATOM      2  C   UNL     1      11.911  -0.668  19.089  1.00  0.00     0.181 C 
ATOM      3  C   UNL     1      10.612  -1.068  19.809  1.00  0.00     0.177 C 
ATOM      4  C   UNL     1       9.873   0.211  20.271  1.00  0.00     0.179 C 
ATOM      5  O   UNL     1      10.702   1.025  21.090  1.00  0.00    -0.332 OA
ATOM      6  C   UNL     1      11.841   1.495  20.380  1.00  0.00     0.339 C 
ENDROOT
BRANCH   1   7
ATOM      7  O   UNL     1      13.229  -0.358  21.092  1.00  0.00    -0.337 OA
BRANCH   7   8
ATOM      8  C   UNL     1      14.271  -1.282  20.797  1.00  0.00     0.282 C 
ATOM      9  C   UNL     1      12.593  -2.076  23.300  1.00  0.00     0.041 C 
ATOM     10  C   UNL     1      13.882  -2.673  22.705  1.00  0.00     0.150 C 
ATOM     11  C   UNL     1      15.172  -2.179  23.413  1.00  0.00     0.174 C 
ATOM     12  O   UNL     1      13.940  -2.579  21.282  1.00  0.00    -0.344 OA
ATOM     13  C   UNL     1      15.641  -0.811  22.885  1.00  0.00     0.179 C 
ATOM     14  C   UNL     1      15.617  -0.779  21.349  1.00  0.00     0.202 C 
BRANCH  11  15
ATOM     15  O   UNL     1      16.203  -3.123  23.224  1.00  0.00    -0.388 OA
ATOM     16  H   UNL     1      15.781  -3.952  22.877  1.00  0.00     0.211 HD
ENDBRANCH  11  15
BRANCH  13  17
ATOM     17  O   UNL     1      14.840   0.231  23.393  1.00  0.00    -0.387 OA
ATOM     18  H   UNL     1      14.969   0.231  24.381  1.00  0.00     0.211 HD
ENDBRANCH  13  17
BRANCH  14  19
ATOM     19  O   UNL     1      16.654  -1.576  20.831  1.00  0.00    -0.385 OA
ATOM     20  H   UNL     1      16.322  -1.963  19.977  1.00  0.00     0.211 HD
ENDBRANCH  14  19
ENDBRANCH   7   8
ENDBRANCH   1   7
BRANCH   2  21
ATOM     21  O   UNL     1      12.661  -1.820  18.800  1.00  0.00    -0.387 OA
ATOM     22  H   UNL     1      12.750  -1.866  17.814  1.00  0.00     0.211 HD
ENDBRANCH   2  21
BRANCH   6  23
ATOM     23  O   UNL     1      11.461   2.289  19.250  1.00  0.00    -0.462 OA
BRANCH  23  24
ATOM     24  C   UNL     1      11.983   3.559  18.955  1.00  0.00     0.130 A 
ATOM     25  C   UNL     1      13.239   3.992  19.424  1.00  0.00     0.093 A 
ATOM     26  C   UNL     1      11.219   4.418  18.164  1.00  0.00     0.094 A 
ATOM     27  C   UNL     1      13.724   5.267  19.109  1.00  0.00     0.133 A 
ATOM     28  C   UNL     1      11.670   5.707  17.869  1.00  0.00     0.138 A 
ATOM     29  C   UNL     1      12.922   6.150  18.346  1.00  0.00     0.102 A 
ATOM     30  O   UNL     1      10.855   6.556  17.099  1.00  0.00    -0.484 OA
ATOM     31  C   UNL     1      13.313   7.535  18.008  1.00  0.00     0.174 C 
ATOM     32  C   UNL     1      11.164   7.928  16.817  1.00  0.00     0.211 C 
ATOM     33  O   UNL     1      14.094   8.203  18.738  1.00  0.00    -0.294 OA
ATOM     34  C   UNL     1      12.683   8.173  16.808  1.00  0.00     0.131 C 
BRANCH  27  35
ATOM     35  O   UNL     1      15.013   5.595  19.541  1.00  0.00    -0.507 OA
ATOM     36  H   UNL     1      15.224   5.955  20.460  1.00  0.00     0.293 HD
ENDBRANCH  27  35
BRANCH  32  37
ATOM     37  C   UNL     1      10.465   8.866  17.782  1.00  0.00    -0.007 A 
ATOM     38  C   UNL     1      11.105   9.210  18.986  1.00  0.00     0.011 A 
ATOM     39  C   UNL     1       9.156   9.329  17.553  1.00  0.00     0.011 A 
ATOM     40  C   UNL     1      10.457  10.010  19.930  1.00  0.00     0.046 A 
ATOM     41  C   UNL     1       8.511  10.132  18.497  1.00  0.00     0.046 A 
ATOM     42  C   UNL     1       9.156  10.474  19.690  1.00  0.00     0.115 A 
BRANCH  42  43
ATOM     43  O   UNL     1       8.496  11.262  20.628  1.00  0.00    -0.508 OA
ATOM     44  H   UNL     1       7.523  11.522  20.514  1.00  0.00     0.293 HD
ENDBRANCH  42  43
ENDBRANCH  32  37
ENDBRANCH  23  24
ENDBRANCH   6  23
BRANCH   3  45
ATOM     45  O   UNL     1      10.914  -1.896  20.906  1.00  0.00    -0.387 OA
ATOM     46  H   UNL     1      11.078  -2.807  20.554  1.00  0.00     0.211 HD
ENDBRANCH   3  45
BRANCH   4  47
ATOM     47  C   UNL     1       8.580  -0.110  21.031  1.00  0.00     0.191 C 
BRANCH  47  48
ATOM     48  O   UNL     1       8.019  -1.303  20.565  1.00  0.00    -0.394 OA
ATOM     49  H   UNL     1       7.138  -1.062  20.177  1.00  0.00     0.210 HD
ENDBRANCH  47  48
ENDBRANCH   4  47
TORSDOF 14
ENDMDL
MODEL 4
REMARK VINA RESULT:    62.955      2.392     10.119
REMARK INTER + INTRA:         105.897
REMARK INTER:                 105.964
REMARK INTRA:                  -0.066
REMARK UNBOUND:                 6.138
REMARK SMILES C[C@H]1O[C@@H](O[C@@H]2[C@@H](Oc3cc(O)c4c(c3)O[C@@H](c3ccc(O)cc3)CC4=O)O[C@H](CO)[C@H](O)[C@@H]2O)[C@H](O)[C@@H](O)[C@@H]1O
REMARK SMILES IDX 6 1 34 2 32 3 29 4 28 5 7 6 5 7 4 8 1 9 2 10 40 11 3 12
REMARK SMILES IDX 38 13 36 14 41 15 39 17 37 19 35 21 8 23 9 24 10 25 15 26
REMARK SMILES IDX 11 27 14 28 13 29 16 30 26 31 17 32 27 33 25 34 12 35 18 37
REMARK SMILES IDX 19 38 24 39 20 40 23 41 21 42 22 43 33 45 30 47 31 48
REMARK H PARENT 41 16 39 18 37 20 35 22 12 36 22 44 33 46 31 49
REMARK Flexibility Score: inf
ROOT
ATOM      1  C   UNL     1       6.048  11.122  23.102  1.00  0.00     0.221 C 
ATOM      2  C   UNL     1       6.640  11.883  24.310  1.00  0.00     0.181 C 
ATOM      3  C   UNL     1       6.721  10.977  25.549  1.00  0.00     0.177 C 
ATOM      4  C   UNL     1       7.434   9.657  25.168  1.00  0.00     0.179 C 
ATOM      5  O   UNL     1       6.785   9.009  24.082  1.00  0.00    -0.332 OA
ATOM      6  C   UNL     1       6.821   9.801  22.901  1.00  0.00     0.339 C 
ENDROOT
BRANCH   1   7
ATOM      7  O   UNL     1       4.679  10.836  23.356  1.00  0.00    -0.337 OA
BRANCH   7   8
ATOM      8  C   UNL     1       3.857  11.999  23.367  1.00  0.00     0.282 C 
ATOM      9  C   UNL     1       2.852   9.761  25.289  1.00  0.00     0.041 C 
ATOM     10  C   UNL     1       2.220  11.099  24.863  1.00  0.00     0.150 C 
ATOM     11  C   UNL     1       1.169  10.951  23.731  1.00  0.00     0.174 C 
ATOM     12  O   UNL     1       3.185  12.122  24.616  1.00  0.00    -0.344 OA
ATOM     13  C   UNL     1       1.817  10.889  22.336  1.00  0.00     0.179 C 
ATOM     14  C   UNL     1       2.881  11.987  22.177  1.00  0.00     0.202 C 
BRANCH  11  15
ATOM     15  O   UNL     1       0.273  12.039  23.775  1.00  0.00    -0.388 OA
ATOM     16  H   UNL     1       0.382  12.472  24.662  1.00  0.00     0.211 HD
ENDBRANCH  11  15
BRANCH  13  17
ATOM     17  O   UNL     1       2.399   9.628  22.102  1.00  0.00    -0.387 OA
ATOM     18  H   UNL     1       1.828   8.961  22.574  1.00  0.00     0.211 HD
ENDBRANCH  13  17
BRANCH  14  19
ATOM     19  O   UNL     1       2.266  13.247  22.074  1.00  0.00    -0.385 OA
ATOM     20  H   UNL     1       1.970  13.349  21.130  1.00  0.00     0.211 HD
ENDBRANCH  14  19
ENDBRANCH   7   8
ENDBRANCH   1   7
BRANCH   2  21
ATOM     21  O   UNL     1       5.863  13.016  24.606  1.00  0.00    -0.387 OA
ATOM     22  H   UNL     1       5.304  13.199  23.809  1.00  0.00     0.211 HD
ENDBRANCH   2  21
BRANCH   6  23
ATOM     23  O   UNL     1       8.168  10.062  22.488  1.00  0.00    -0.462 OA
BRANCH  23  24
ATOM     24  C   UNL     1       8.651   9.881  21.182  1.00  0.00     0.130 A 
ATOM     25  C   UNL     1       7.808   9.878  20.054  1.00  0.00     0.093 A 
ATOM     26  C   UNL     1      10.024   9.701  21.006  1.00  0.00     0.094 A 
ATOM     27  C   UNL     1       8.327   9.693  18.767  1.00  0.00     0.133 A 
ATOM     28  C   UNL     1      10.557   9.478  19.733  1.00  0.00     0.138 A 
ATOM     29  C   UNL     1       9.715   9.462  18.601  1.00  0.00     0.102 A 
ATOM     30  O   UNL     1      11.940   9.264  19.602  1.00  0.00    -0.484 OA
ATOM     31  C   UNL     1      10.357   9.198  17.296  1.00  0.00     0.174 C 
ATOM     32  C   UNL     1      12.587   8.929  18.366  1.00  0.00     0.211 C 
ATOM     33  O   UNL     1       9.728   8.671  16.340  1.00  0.00    -0.294 OA
ATOM     34  C   UNL     1      11.820   9.491  17.157  1.00  0.00     0.131 C 
BRANCH  27  35
ATOM     35  O   UNL     1       7.441   9.784  17.689  1.00  0.00    -0.507 OA
ATOM     36  H   UNL     1       6.791   9.056  17.433  1.00  0.00     0.293 HD
ENDBRANCH  27  35
BRANCH  32  37
ATOM     37  C   UNL     1      12.793   7.432  18.234  1.00  0.00    -0.007 A 
ATOM     38  C   UNL     1      11.744   6.639  17.736  1.00  0.00     0.011 A 
ATOM     39  C   UNL     1      13.968   6.800  18.683  1.00  0.00     0.011 A 
ATOM     40  C   UNL     1      11.874   5.248  17.673  1.00  0.00     0.046 A 
ATOM     41  C   UNL     1      14.097   5.410  18.616  1.00  0.00     0.046 A 
ATOM     42  C   UNL     1      13.052   4.629  18.115  1.00  0.00     0.115 A 
BRANCH  42  43
ATOM     43  O   UNL     1      13.188   3.244  18.067  1.00  0.00    -0.508 OA
ATOM     44  H   UNL     1      12.930   2.657  18.853  1.00  0.00     0.293 HD
ENDBRANCH  42  43
ENDBRANCH  32  37
ENDBRANCH  23  24
ENDBRANCH   6  23
BRANCH   3  45
ATOM     45  O   UNL     1       5.426  10.723  26.038  1.00  0.00    -0.387 OA
ATOM     46  H   UNL     1       5.457   9.861  26.525  1.00  0.00     0.211 HD
ENDBRANCH   3  45
BRANCH   4  47
ATOM     47  C   UNL     1       7.523   8.684  26.349  1.00  0.00     0.191 C 
BRANCH  47  48
ATOM     48  O   UNL     1       7.403   9.371  27.562  1.00  0.00    -0.394 OA
ATOM     49  H   UNL     1       7.966  10.183  27.476  1.00  0.00     0.210 HD
ENDBRANCH  47  48
ENDBRANCH   4  47
TORSDOF 14
ENDMDL
