MODEL 1
REMARK VINA RESULT:    -4.891      0.000      0.000
REMARK INTER + INTRA:          -5.682
REMARK INTER:                  -5.462
REMARK INTRA:                  -0.219
REMARK UNBOUND:                -0.219
REMARK SMILES CC(C)c1ccc(C(=O)[O-])cc1
REMARK SMILES IDX 7 1 6 2 11 3 5 4 12 5 4 6 8 7 9 8 10 9 2 10 1 11 3 12
REMARK H PARENT
REMARK Flexibility Score: inf
ROOT
ATOM      1  C   UNL     1      -7.685  -0.140  -3.642  1.00  0.00    -0.003 A 
ATOM      2  C   UNL     1      -8.218  -1.343  -3.150  1.00  0.00     0.010 A 
ATOM      3  C   UNL     1      -7.511   0.011  -5.028  1.00  0.00     0.010 A 
ATOM      4  C   UNL     1      -8.570  -2.373  -4.025  1.00  0.00     0.004 A 
ATOM      5  C   UNL     1      -7.863  -1.021  -5.904  1.00  0.00     0.004 A 
ATOM      6  C   UNL     1      -8.397  -2.224  -5.413  1.00  0.00    -0.045 A 
ENDROOT
BRANCH   1   7
ATOM      7  C   UNL     1      -7.310   0.954  -2.718  1.00  0.00     0.071 C 
ATOM      8  O   UNL     1      -7.065   0.714  -1.507  1.00  0.00    -0.545 OA
ATOM      9  O   UNL     1      -7.222   2.263  -3.177  1.00  0.00    -0.545 OA
ENDBRANCH   1   7
BRANCH   6  10
ATOM     10  C   UNL     1      -8.776  -3.334  -6.375  1.00  0.00     0.013 C 
ATOM     11  C   UNL     1      -7.675  -3.561  -7.418  1.00  0.00     0.012 C 
ATOM     12  C   UNL     1      -9.099  -4.631  -5.623  1.00  0.00     0.012 C 
ENDBRANCH   6  10
TORSDOF 2
ENDMDL
MODEL 2
REMARK VINA RESULT:    -4.885      0.381      1.445
REMARK INTER + INTRA:          -5.675
REMARK INTER:                  -5.456
REMARK INTRA:                  -0.219
REMARK UNBOUND:                -0.219
REMARK SMILES CC(C)c1ccc(C(=O)[O-])cc1
REMARK SMILES IDX 7 1 6 2 11 3 5 4 12 5 4 6 8 7 9 8 10 9 2 10 1 11 3 12
REMARK H PARENT
REMARK Flexibility Score: inf
ROOT
ATOM      1  C   UNL     1      -7.744  -0.228  -3.617  1.00  0.00    -0.003 A 
ATOM      2  C   UNL     1      -7.683  -0.180  -5.020  1.00  0.00     0.010 A 
ATOM      3  C   UNL     1      -8.241  -1.386  -2.997  1.00  0.00     0.010 A 
ATOM      4  C   UNL     1      -8.110  -1.267  -5.786  1.00  0.00     0.004 A 
ATOM      5  C   UNL     1      -8.668  -2.474  -3.764  1.00  0.00     0.004 A 
ATOM      6  C   UNL     1      -8.608  -2.428  -5.167  1.00  0.00    -0.045 A 
ENDROOT
BRANCH   1   7
ATOM      7  C   UNL     1      -7.293   0.922  -2.802  1.00  0.00     0.071 C 
ATOM      8  O   UNL     1      -7.037   0.778  -1.577  1.00  0.00    -0.545 OA
ATOM      9  O   UNL     1      -7.144   2.178  -3.379  1.00  0.00    -0.545 OA
ENDBRANCH   1   7
BRANCH   6  10
ATOM     10  C   UNL     1      -9.074  -3.616  -5.986  1.00  0.00     0.013 C 
ATOM     11  C   UNL     1      -8.035  -3.998  -7.047  1.00  0.00     0.012 C 
ATOM     12  C   UNL     1      -9.409  -4.812  -5.086  1.00  0.00     0.012 C 
ENDBRANCH   6  10
TORSDOF 2
ENDMDL
MODEL 3
REMARK VINA RESULT:    -4.503     12.236     13.739
REMARK INTER + INTRA:          -5.249
REMARK INTER:                  -5.033
REMARK INTRA:                  -0.216
REMARK UNBOUND:                -0.219
REMARK SMILES CC(C)c1ccc(C(=O)[O-])cc1
REMARK SMILES IDX 7 1 6 2 11 3 5 4 12 5 4 6 8 7 9 8 10 9 2 10 1 11 3 12
REMARK H PARENT
REMARK Flexibility Score: inf
ROOT
ATOM      1  C   UNL     1      -2.477  -7.172   4.470  1.00  0.00    -0.003 A 
ATOM      2  C   UNL     1      -1.492  -7.080   5.467  1.00  0.00     0.010 A 
ATOM      3  C   UNL     1      -3.828  -7.233   4.850  1.00  0.00     0.010 A 
ATOM      4  C   UNL     1      -1.850  -7.050   6.817  1.00  0.00     0.004 A 
ATOM      5  C   UNL     1      -4.186  -7.204   6.201  1.00  0.00     0.004 A 
ATOM      6  C   UNL     1      -3.202  -7.112   7.200  1.00  0.00    -0.045 A 
ENDROOT
BRANCH   1   7
ATOM      7  C   UNL     1      -2.101  -7.204   3.038  1.00  0.00     0.071 C 
ATOM      8  O   UNL     1      -2.921  -7.602   2.170  1.00  0.00    -0.545 OA
ATOM      9  O   UNL     1      -0.837  -6.792   2.633  1.00  0.00    -0.545 OA
ENDBRANCH   1   7
BRANCH   6  10
ATOM     10  C   UNL     1      -3.606  -7.080   8.663  1.00  0.00     0.013 C 
ATOM     11  C   UNL     1      -2.374  -7.040   9.575  1.00  0.00     0.012 C 
ATOM     12  C   UNL     1      -4.545  -5.903   8.952  1.00  0.00     0.012 C 
ENDBRANCH   6  10
TORSDOF 2
ENDMDL
MODEL 4
REMARK VINA RESULT:    -4.476      2.981      5.215
REMARK INTER + INTRA:          -5.218
REMARK INTER:                  -5.009
REMARK INTRA:                  -0.209
REMARK UNBOUND:                -0.219
REMARK SMILES CC(C)c1ccc(C(=O)[O-])cc1
REMARK SMILES IDX 7 1 6 2 11 3 5 4 12 5 4 6 8 7 9 8 10 9 2 10 1 11 3 12
REMARK H PARENT
REMARK Flexibility Score: inf
ROOT
ATOM      1  C   UNL     1      -8.992  -1.353  -3.790  1.00  0.00    -0.003 A 
ATOM      2  C   UNL     1     -10.087  -0.525  -4.086  1.00  0.00     0.010 A 
ATOM      3  C   UNL     1      -7.836  -0.780  -3.232  1.00  0.00     0.010 A 
ATOM      4  C   UNL     1     -10.029   0.847  -3.829  1.00  0.00     0.004 A 
ATOM      5  C   UNL     1      -7.778   0.593  -2.976  1.00  0.00     0.004 A 
ATOM      6  C   UNL     1      -8.873   1.423  -3.271  1.00  0.00    -0.045 A 
ENDROOT
BRANCH   1   7
ATOM      7  C   UNL     1      -9.049  -2.807  -4.060  1.00  0.00     0.071 C 
ATOM      8  O   UNL     1      -9.026  -3.636  -3.113  1.00  0.00    -0.545 OA
ATOM      9  O   UNL     1      -9.130  -3.277  -5.366  1.00  0.00    -0.545 OA
ENDBRANCH   1   7
BRANCH   6  10
ATOM     10  C   UNL     1      -8.797   2.911  -2.986  1.00  0.00     0.013 C 
ATOM     11  C   UNL     1      -7.634   3.559  -3.748  1.00  0.00     0.012 C 
ATOM     12  C   UNL     1     -10.125   3.605  -3.310  1.00  0.00     0.012 C 
ENDBRANCH   6  10
TORSDOF 2
ENDMDL
MODEL 5
REMARK VINA RESULT:    -4.432      3.053      5.010
REMARK INTER + INTRA:          -5.170
REMARK INTER:                  -4.952
REMARK INTRA:                  -0.218
REMARK UNBOUND:                -0.219
REMARK SMILES CC(C)c1ccc(C(=O)[O-])cc1
REMARK SMILES IDX 7 1 6 2 11 3 5 4 12 5 4 6 8 7 9 8 10 9 2 10 1 11 3 12
REMARK H PARENT
REMARK Flexibility Score: inf
ROOT
ATOM      1  C   UNL     1      -8.209  -2.277  -5.408  1.00  0.00    -0.003 A 
ATOM      2  C   UNL     1      -8.555  -2.173  -4.051  1.00  0.00     0.010 A 
ATOM      3  C   UNL     1      -7.663  -1.159  -6.060  1.00  0.00     0.010 A 
ATOM      4  C   UNL     1      -8.358  -0.975  -3.359  1.00  0.00     0.004 A 
ATOM      5  C   UNL     1      -7.466   0.039  -5.367  1.00  0.00     0.004 A 
ATOM      6  C   UNL     1      -7.811   0.146  -4.009  1.00  0.00    -0.045 A 
ENDROOT
BRANCH   1   7
ATOM      7  C   UNL     1      -8.416  -3.544  -6.145  1.00  0.00     0.071 C 
ATOM      8  O   UNL     1      -7.909  -3.712  -7.285  1.00  0.00    -0.545 OA
ATOM      9  O   UNL     1      -9.174  -4.567  -5.587  1.00  0.00    -0.545 OA
ENDBRANCH   1   7
BRANCH   6  10
ATOM     10  C   UNL     1      -7.591   1.452  -3.270  1.00  0.00     0.013 C 
ATOM     11  C   UNL     1      -6.947   2.502  -4.183  1.00  0.00     0.012 C 
ATOM     12  C   UNL     1      -8.901   1.973  -2.666  1.00  0.00     0.012 C 
ENDBRANCH   6  10
TORSDOF 2
ENDMDL
MODEL 6
REMARK VINA RESULT:    -4.415     12.367     13.815
REMARK INTER + INTRA:          -5.150
REMARK INTER:                  -4.930
REMARK INTRA:                  -0.220
REMARK UNBOUND:                -0.219
REMARK SMILES CC(C)c1ccc(C(=O)[O-])cc1
REMARK SMILES IDX 7 1 6 2 11 3 5 4 12 5 4 6 8 7 9 8 10 9 2 10 1 11 3 12
REMARK H PARENT
REMARK Flexibility Score: inf
ROOT
ATOM      1  C   UNL     1      -2.431  -7.159   4.459  1.00  0.00    -0.003 A 
ATOM      2  C   UNL     1      -3.770  -7.204   4.879  1.00  0.00     0.010 A 
ATOM      3  C   UNL     1      -1.415  -7.108   5.428  1.00  0.00     0.010 A 
ATOM      4  C   UNL     1      -4.088  -7.199   6.240  1.00  0.00     0.004 A 
ATOM      5  C   UNL     1      -1.732  -7.103   6.790  1.00  0.00     0.004 A 
ATOM      6  C   UNL     1      -3.072  -7.148   7.212  1.00  0.00    -0.045 A 
ENDROOT
BRANCH   1   7
ATOM      7  C   UNL     1      -2.091  -7.164   3.019  1.00  0.00     0.071 C 
ATOM      8  O   UNL     1      -0.953  -6.791   2.628  1.00  0.00    -0.545 OA
ATOM      9  O   UNL     1      -3.024  -7.582   2.077  1.00  0.00    -0.545 OA
ENDBRANCH   1   7
BRANCH   6  10
ATOM     10  C   UNL     1      -3.401  -7.143   8.693  1.00  0.00     0.013 C 
ATOM     11  C   UNL     1      -4.556  -8.102   9.005  1.00  0.00     0.012 C 
ATOM     12  C   UNL     1      -2.164  -7.474   9.536  1.00  0.00     0.012 C 
ENDBRANCH   6  10
TORSDOF 2
ENDMDL
MODEL 7
REMARK VINA RESULT:    -4.183     12.819     14.069
REMARK INTER + INTRA:          -4.891
REMARK INTER:                  -4.685
REMARK INTRA:                  -0.206
REMARK UNBOUND:                -0.219
REMARK SMILES CC(C)c1ccc(C(=O)[O-])cc1
REMARK SMILES IDX 7 1 6 2 11 3 5 4 12 5 4 6 8 7 9 8 10 9 2 10 1 11 3 12
REMARK H PARENT
REMARK Flexibility Score: inf
ROOT
ATOM      1  C   UNL     1      -1.841   5.557   5.769  1.00  0.00    -0.003 A 
ATOM      2  C   UNL     1      -2.640   5.636   4.616  1.00  0.00     0.010 A 
ATOM      3  C   UNL     1      -2.444   5.715   7.028  1.00  0.00     0.010 A 
ATOM      4  C   UNL     1      -4.014   5.868   4.721  1.00  0.00     0.004 A 
ATOM      5  C   UNL     1      -3.819   5.946   7.132  1.00  0.00     0.004 A 
ATOM      6  C   UNL     1      -4.620   6.025   5.981  1.00  0.00    -0.045 A 
ENDROOT
BRANCH   1   7
ATOM      7  C   UNL     1      -0.385   5.312   5.663  1.00  0.00     0.071 C 
ATOM      8  O   UNL     1       0.051   4.184   5.314  1.00  0.00    -0.545 OA
ATOM      9  O   UNL     1       0.521   6.327   5.946  1.00  0.00    -0.545 OA
ENDBRANCH   1   7
BRANCH   6  10
ATOM     10  C   UNL     1      -6.111   6.277   6.109  1.00  0.00     0.013 C 
ATOM     11  C   UNL     1      -6.600   5.980   7.531  1.00  0.00     0.012 C 
ATOM     12  C   UNL     1      -6.468   7.708   5.689  1.00  0.00     0.012 C 
ENDBRANCH   6  10
TORSDOF 2
ENDMDL
MODEL 8
REMARK VINA RESULT:    -4.045     12.706     14.405
REMARK INTER + INTRA:          -4.737
REMARK INTER:                  -4.533
REMARK INTRA:                  -0.205
REMARK UNBOUND:                -0.219
REMARK SMILES CC(C)c1ccc(C(=O)[O-])cc1
REMARK SMILES IDX 7 1 6 2 11 3 5 4 12 5 4 6 8 7 9 8 10 9 2 10 1 11 3 12
REMARK H PARENT
REMARK Flexibility Score: inf
ROOT
ATOM      1  C   UNL     1      -0.925   5.118   7.024  1.00  0.00    -0.003 A 
ATOM      2  C   UNL     1      -2.030   5.463   7.819  1.00  0.00     0.010 A 
ATOM      3  C   UNL     1      -1.023   5.247   5.629  1.00  0.00     0.010 A 
ATOM      4  C   UNL     1      -3.209   5.930   7.231  1.00  0.00     0.004 A 
ATOM      5  C   UNL     1      -2.203   5.714   5.040  1.00  0.00     0.004 A 
ATOM      6  C   UNL     1      -3.309   6.061   5.834  1.00  0.00    -0.045 A 
ENDROOT
BRANCH   1   7
ATOM      7  C   UNL     1       0.325   4.623   7.643  1.00  0.00     0.071 C 
ATOM      8  O   UNL     1       1.034   5.384   8.353  1.00  0.00    -0.545 OA
ATOM      9  O   UNL     1       0.734   3.308   7.449  1.00  0.00    -0.545 OA
ENDBRANCH   1   7
BRANCH   6  10
ATOM     10  C   UNL     1      -4.582   6.566   5.182  1.00  0.00     0.013 C 
ATOM     11  C   UNL     1      -4.278   7.292   3.866  1.00  0.00     0.012 C 
ATOM     12  C   UNL     1      -5.583   5.425   4.965  1.00  0.00     0.012 C 
ENDBRANCH   6  10
TORSDOF 2
ENDMDL
MODEL 9
REMARK VINA RESULT:    -3.992     11.398     12.956
REMARK INTER + INTRA:          -4.678
REMARK INTER:                  -4.470
REMARK INTRA:                  -0.208
REMARK UNBOUND:                -0.219
REMARK SMILES CC(C)c1ccc(C(=O)[O-])cc1
REMARK SMILES IDX 7 1 6 2 11 3 5 4 12 5 4 6 8 7 9 8 10 9 2 10 1 11 3 12
REMARK H PARENT
REMARK Flexibility Score: inf
ROOT
ATOM      1  C   UNL     1      -3.709  -7.695   3.575  1.00  0.00    -0.003 A 
ATOM      2  C   UNL     1      -2.553  -6.935   3.819  1.00  0.00     0.010 A 
ATOM      3  C   UNL     1      -4.594  -7.947   4.636  1.00  0.00     0.010 A 
ATOM      4  C   UNL     1      -2.287  -6.438   5.098  1.00  0.00     0.004 A 
ATOM      5  C   UNL     1      -4.329  -7.450   5.915  1.00  0.00     0.004 A 
ATOM      6  C   UNL     1      -3.173  -6.690   6.161  1.00  0.00    -0.045 A 
ENDROOT
BRANCH   1   7
ATOM      7  C   UNL     1      -3.993  -8.223   2.222  1.00  0.00     0.071 C 
ATOM      8  O   UNL     1      -4.520  -9.357   2.075  1.00  0.00    -0.545 OA
ATOM      9  O   UNL     1      -3.682  -7.473   1.094  1.00  0.00    -0.545 OA
ENDBRANCH   1   7
BRANCH   6  10
ATOM     10  C   UNL     1      -2.898  -6.156   7.555  1.00  0.00     0.013 C 
ATOM     11  C   UNL     1      -3.758  -4.922   7.853  1.00  0.00     0.012 C 
ATOM     12  C   UNL     1      -3.108  -7.244   8.615  1.00  0.00     0.012 C 
ENDBRANCH   6  10
TORSDOF 2
ENDMDL
