MODEL 1
REMARK VINA RESULT:    -8.787      0.000      0.000
REMARK INTER + INTRA:         -12.485
REMARK INTER:                 -12.383
REMARK INTRA:                  -0.102
REMARK UNBOUND:                -0.102
REMARK SMILES C[C@H](CO)CCC(=O)[C@@H](C)[C@H]1C(=O)C[C@@H]2[C@@H]3CC=C4C[C@H](O)CC[C@]4(C)[C@H]3CC[C@@]21C
REMARK SMILES IDX 6 1 5 2 2 3 1 4 3 5 4 6 7 8 8 9 9 10 10 11 11 12 12 13 30 14
REMARK SMILES IDX 13 15 14 16 15 17 29 18 31 19 16 20 28 21 27 22 17 23 25 24
REMARK SMILES IDX 18 25 19 26 24 27 26 28 20 29 23 30 21 31 22 32
REMARK H PARENT 4 7 22 33
REMARK Flexibility Score: inf
ROOT
ATOM      1  C   UNL     1      15.254  -5.540  16.579  1.00  0.00     0.076 C 
ENDROOT
BRANCH   1   2
ATOM      2  C   UNL     1      16.550  -6.008  15.890  1.00  0.00     0.013 C 
BRANCH   2   3
ATOM      3  C   UNL     1      16.408  -7.052  14.749  1.00  0.00     0.012 C 
ATOM      4  C   UNL     1      14.994  -7.639  14.632  1.00  0.00     0.010 C 
BRANCH   3   5
ATOM      5  C   UNL     1      17.499  -8.144  14.763  1.00  0.00     0.159 C 
BRANCH   5   6
ATOM      6  O   UNL     1      18.736  -7.644  15.197  1.00  0.00    -0.396 OA
ATOM      7  H   UNL     1      18.738  -6.670  15.011  1.00  0.00     0.210 HD
ENDBRANCH   5   6
ENDBRANCH   3   5
ENDBRANCH   2   3
ENDBRANCH   1   2
BRANCH   1   8
ATOM      8  C   UNL     1      15.478  -4.650  17.778  1.00  0.00     0.136 C 
ATOM      9  O   UNL     1      15.116  -5.049  18.875  1.00  0.00    -0.299 OA
BRANCH   8  10
ATOM     10  C   UNL     1      16.145  -3.287  17.645  1.00  0.00     0.064 C 
ATOM     11  C   UNL     1      15.229  -2.121  18.090  1.00  0.00     0.017 C 
BRANCH  10  12
ATOM     12  C   UNL     1      17.597  -3.238  18.236  1.00  0.00     0.072 C 
ATOM     13  C   UNL     1      18.422  -2.290  17.437  1.00  0.00     0.137 C 
ATOM     14  C   UNL     1      17.843  -2.775  19.726  1.00  0.00    -0.019 C 
ATOM     15  O   UNL     1      18.707  -2.485  16.265  1.00  0.00    -0.299 OA
ATOM     16  C   UNL     1      18.869  -1.085  18.167  1.00  0.00     0.080 C 
ATOM     17  C   UNL     1      18.400  -1.308  19.620  1.00  0.00     0.007 C 
ATOM     18  C   UNL     1      18.887  -3.730  20.415  1.00  0.00     0.008 C 
ATOM     19  C   UNL     1      16.587  -2.795  20.636  1.00  0.00     0.012 C 
ATOM     20  C   UNL     1      19.496  -1.029  20.683  1.00  0.00     0.001 C 
ATOM     21  C   UNL     1      20.345  -3.389  20.082  1.00  0.00     0.005 C 
ATOM     22  C   UNL     1      20.739  -1.946  20.518  1.00  0.00     0.003 C 
ATOM     23  C   UNL     1      19.950   0.433  20.720  1.00  0.00     0.031 C 
ATOM     24  C   UNL     1      21.684  -1.833  21.774  1.00  0.00    -0.008 C 
ATOM     25  C   UNL     1      21.045   0.635  21.735  1.00  0.00    -0.027 C 
ATOM     26  C   UNL     1      21.880  -0.350  22.153  1.00  0.00    -0.065 C 
ATOM     27  C   UNL     1      23.080  -2.439  21.416  1.00  0.00     0.014 C 
ATOM     28  C   UNL     1      21.089  -2.584  22.996  1.00  0.00     0.016 C 
ATOM     29  C   UNL     1      22.991   0.002  23.123  1.00  0.00     0.063 C 
ATOM     30  C   UNL     1      24.184  -2.113  22.437  1.00  0.00     0.033 C 
ATOM     31  C   UNL     1      24.324  -0.602  22.663  1.00  0.00     0.118 C 
BRANCH  31  32
ATOM     32  O   UNL     1      24.758   0.015  21.479  1.00  0.00    -0.393 OA
ATOM     33  H   UNL     1      23.951   0.163  20.920  1.00  0.00     0.210 HD
ENDBRANCH  31  32
ENDBRANCH  10  12
ENDBRANCH   8  10
ENDBRANCH   1   8
TORSDOF 8
ENDMDL
MODEL 2
REMARK VINA RESULT:    -6.644     14.484     16.768
REMARK INTER + INTRA:          -9.465
REMARK INTER:                  -9.403
REMARK INTRA:                  -0.062
REMARK UNBOUND:                -0.102
REMARK SMILES C[C@H](CO)CCC(=O)[C@@H](C)[C@H]1C(=O)C[C@@H]2[C@@H]3CC=C4C[C@H](O)CC[C@]4(C)[C@H]3CC[C@@]21C
REMARK SMILES IDX 6 1 5 2 2 3 1 4 3 5 4 6 7 8 8 9 9 10 10 11 11 12 12 13 30 14
REMARK SMILES IDX 13 15 14 16 15 17 29 18 31 19 16 20 28 21 27 22 17 23 25 24
REMARK SMILES IDX 18 25 19 26 24 27 26 28 20 29 23 30 21 31 22 32
REMARK H PARENT 4 7 22 33
REMARK Flexibility Score: inf
ROOT
ATOM      1  C   UNL     1      18.670 -15.433   8.321  1.00  0.00     0.076 C 
ENDROOT
BRANCH   1   2
ATOM      2  C   UNL     1      17.902 -16.250   9.377  1.00  0.00     0.013 C 
BRANCH   2   3
ATOM      3  C   UNL     1      18.016 -15.782  10.854  1.00  0.00     0.012 C 
ATOM      4  C   UNL     1      18.134 -14.259  11.004  1.00  0.00     0.010 C 
BRANCH   3   5
ATOM      5  C   UNL     1      19.087 -16.538  11.668  1.00  0.00     0.159 C 
BRANCH   5   6
ATOM      6  O   UNL     1      20.387 -16.148  11.312  1.00  0.00    -0.396 OA
ATOM      7  H   UNL     1      20.913 -16.978  11.176  1.00  0.00     0.210 HD
ENDBRANCH   5   6
ENDBRANCH   3   5
ENDBRANCH   2   3
ENDBRANCH   1   2
BRANCH   1   8
ATOM      8  C   UNL     1      18.797 -16.118   6.981  1.00  0.00     0.136 C 
ATOM      9  O   UNL     1      18.610 -17.324   6.923  1.00  0.00    -0.299 OA
BRANCH   8  10
ATOM     10  C   UNL     1      19.140 -15.338   5.718  1.00  0.00     0.064 C 
ATOM     11  C   UNL     1      17.928 -14.573   5.133  1.00  0.00     0.017 C 
BRANCH  10  12
ATOM     12  C   UNL     1      20.452 -14.486   5.843  1.00  0.00     0.072 C 
ATOM     13  C   UNL     1      21.157 -14.474   4.531  1.00  0.00     0.137 C 
ATOM     14  C   UNL     1      20.383 -12.959   6.238  1.00  0.00    -0.019 C 
ATOM     15  O   UNL     1      21.638 -15.478   4.028  1.00  0.00    -0.299 OA
ATOM     16  C   UNL     1      21.229 -13.152   3.875  1.00  0.00     0.080 C 
ATOM     17  C   UNL     1      20.621 -12.171   4.898  1.00  0.00     0.007 C 
ATOM     18  C   UNL     1      21.501 -12.631   7.296  1.00  0.00     0.008 C 
ATOM     19  C   UNL     1      19.046 -12.507   6.882  1.00  0.00     0.012 C 
ATOM     20  C   UNL     1      21.474 -10.893   5.125  1.00  0.00     0.001 C 
ATOM     21  C   UNL     1      22.884 -12.396   6.676  1.00  0.00     0.005 C 
ATOM     22  C   UNL     1      22.894 -11.208   5.667  1.00  0.00     0.003 C 
ATOM     23  C   UNL     1      21.594 -10.012   3.878  1.00  0.00     0.031 C 
ATOM     24  C   UNL     1      23.609  -9.891   6.153  1.00  0.00    -0.008 C 
ATOM     25  C   UNL     1      22.468  -8.814   4.143  1.00  0.00    -0.027 C 
ATOM     26  C   UNL     1      23.428  -8.775   5.101  1.00  0.00    -0.065 C 
ATOM     27  C   UNL     1      25.138 -10.171   6.315  1.00  0.00     0.014 C 
ATOM     28  C   UNL     1      23.025  -9.398   7.505  1.00  0.00     0.016 C 
ATOM     29  C   UNL     1      24.292  -7.534   5.215  1.00  0.00     0.063 C 
ATOM     30  C   UNL     1      25.994  -8.903   6.479  1.00  0.00     0.033 C 
ATOM     31  C   UNL     1      25.774  -7.913   5.327  1.00  0.00     0.118 C 
BRANCH  31  32
ATOM     32  O   UNL     1      26.226  -8.480   4.125  1.00  0.00    -0.393 OA
ATOM     33  H   UNL     1      27.064  -8.970   4.335  1.00  0.00     0.210 HD
ENDBRANCH  31  32
ENDBRANCH  10  12
ENDBRANCH   8  10
ENDBRANCH   1   8
TORSDOF 8
ENDMDL
MODEL 3
REMARK VINA RESULT:    -6.518     12.627     16.924
REMARK INTER + INTRA:          -9.287
REMARK INTER:                  -8.738
REMARK INTRA:                  -0.549
REMARK UNBOUND:                -0.102
REMARK SMILES C[C@H](CO)CCC(=O)[C@@H](C)[C@H]1C(=O)C[C@@H]2[C@@H]3CC=C4C[C@H](O)CC[C@]4(C)[C@H]3CC[C@@]21C
REMARK SMILES IDX 6 1 5 2 2 3 1 4 3 5 4 6 7 8 8 9 9 10 10 11 11 12 12 13 30 14
REMARK SMILES IDX 13 15 14 16 15 17 29 18 31 19 16 20 28 21 27 22 17 23 25 24
REMARK SMILES IDX 18 25 19 26 24 27 26 28 20 29 23 30 21 31 22 32
REMARK H PARENT 4 7 22 33
REMARK Flexibility Score: inf
ROOT
ATOM      1  C   UNL     1      26.285  -6.332   9.461  1.00  0.00     0.076 C 
ENDROOT
BRANCH   1   2
ATOM      2  C   UNL     1      27.477  -6.960  10.207  1.00  0.00     0.013 C 
BRANCH   2   3
ATOM      3  C   UNL     1      27.185  -7.612  11.586  1.00  0.00     0.012 C 
ATOM      4  C   UNL     1      28.084  -7.084  12.714  1.00  0.00     0.010 C 
BRANCH   3   5
ATOM      5  C   UNL     1      27.133  -9.154  11.549  1.00  0.00     0.159 C 
BRANCH   5   6
ATOM      6  O   UNL     1      27.774  -9.673  10.413  1.00  0.00    -0.396 OA
ATOM      7  H   UNL     1      27.140 -10.304   9.984  1.00  0.00     0.210 HD
ENDBRANCH   5   6
ENDBRANCH   3   5
ENDBRANCH   2   3
ENDBRANCH   1   2
BRANCH   1   8
ATOM      8  C   UNL     1      26.669  -5.562   8.219  1.00  0.00     0.136 C 
ATOM      9  O   UNL     1      27.407  -4.594   8.339  1.00  0.00    -0.299 OA
BRANCH   8  10
ATOM     10  C   UNL     1      26.166  -5.971   6.841  1.00  0.00     0.064 C 
ATOM     11  C   UNL     1      27.310  -6.336   5.865  1.00  0.00     0.017 C 
BRANCH  10  12
ATOM     12  C   UNL     1      24.990  -7.009   6.885  1.00  0.00     0.072 C 
ATOM     13  C   UNL     1      24.080  -6.770   5.730  1.00  0.00     0.137 C 
ATOM     14  C   UNL     1      25.283  -8.559   6.808  1.00  0.00    -0.019 C 
ATOM     15  O   UNL     1      23.419  -5.749   5.607  1.00  0.00    -0.299 OA
ATOM     16  C   UNL     1      24.037  -7.861   4.735  1.00  0.00     0.080 C 
ATOM     17  C   UNL     1      24.907  -8.982   5.340  1.00  0.00     0.007 C 
ATOM     18  C   UNL     1      24.399  -9.322   7.863  1.00  0.00     0.008 C 
ATOM     19  C   UNL     1      26.749  -8.966   7.112  1.00  0.00     0.012 C 
ATOM     20  C   UNL     1      24.243 -10.384   5.297  1.00  0.00     0.001 C 
ATOM     21  C   UNL     1      22.964  -9.582   7.388  1.00  0.00     0.005 C 
ATOM     22  C   UNL     1      22.908 -10.441   6.089  1.00  0.00     0.003 C 
ATOM     23  C   UNL     1      24.007 -10.903   3.876  1.00  0.00     0.031 C 
ATOM     24  C   UNL     1      22.426 -11.931   6.262  1.00  0.00    -0.008 C 
ATOM     25  C   UNL     1      23.319 -12.243   3.894  1.00  0.00    -0.027 C 
ATOM     26  C   UNL     1      22.543 -12.681   4.917  1.00  0.00    -0.065 C 
ATOM     27  C   UNL     1      20.925 -11.933   6.697  1.00  0.00     0.014 C 
ATOM     28  C   UNL     1      23.277 -12.679   7.323  1.00  0.00     0.016 C 
ATOM     29  C   UNL     1      21.845 -14.020   4.779  1.00  0.00     0.063 C 
ATOM     30  C   UNL     1      20.246 -13.310   6.597  1.00  0.00     0.033 C 
ATOM     31  C   UNL     1      20.371 -13.908   5.190  1.00  0.00     0.118 C 
BRANCH  31  32
ATOM     32  O   UNL     1      19.667 -13.110   4.273  1.00  0.00    -0.393 OA
ATOM     33  H   UNL     1      19.817 -13.505   3.375  1.00  0.00     0.210 HD
ENDBRANCH  31  32
ENDBRANCH  10  12
ENDBRANCH   8  10
ENDBRANCH   1   8
TORSDOF 8
ENDMDL
MODEL 4
REMARK VINA RESULT:    -6.420     14.420     17.849
REMARK INTER + INTRA:          -9.149
REMARK INTER:                  -8.636
REMARK INTRA:                  -0.513
REMARK UNBOUND:                -0.102
REMARK SMILES C[C@H](CO)CCC(=O)[C@@H](C)[C@H]1C(=O)C[C@@H]2[C@@H]3CC=C4C[C@H](O)CC[C@]4(C)[C@H]3CC[C@@]21C
REMARK SMILES IDX 6 1 5 2 2 3 1 4 3 5 4 6 7 8 8 9 9 10 10 11 11 12 12 13 30 14
REMARK SMILES IDX 13 15 14 16 15 17 29 18 31 19 16 20 28 21 27 22 17 23 25 24
REMARK SMILES IDX 18 25 19 26 24 27 26 28 20 29 23 30 21 31 22 32
REMARK H PARENT 4 7 22 33
REMARK Flexibility Score: inf
ROOT
ATOM      1  C   UNL     1      25.655  -7.457   5.503  1.00  0.00     0.076 C 
ENDROOT
BRANCH   1   2
ATOM      2  C   UNL     1      26.432  -6.157   5.220  1.00  0.00     0.013 C 
BRANCH   2   3
ATOM      3  C   UNL     1      25.770  -4.825   5.666  1.00  0.00     0.012 C 
ATOM      4  C   UNL     1      26.342  -4.268   6.977  1.00  0.00     0.010 C 
BRANCH   3   5
ATOM      5  C   UNL     1      24.227  -4.865   5.667  1.00  0.00     0.159 C 
BRANCH   5   6
ATOM      6  O   UNL     1      23.688  -4.308   4.497  1.00  0.00    -0.396 OA
ATOM      7  H   UNL     1      24.345  -3.647   4.159  1.00  0.00     0.210 HD
ENDBRANCH   5   6
ENDBRANCH   3   5
ENDBRANCH   2   3
ENDBRANCH   1   2
BRANCH   1   8
ATOM      8  C   UNL     1      25.937  -8.065   6.856  1.00  0.00     0.136 C 
ATOM      9  O   UNL     1      25.811  -7.361   7.848  1.00  0.00    -0.299 OA
BRANCH   8  10
ATOM     10  C   UNL     1      26.359  -9.521   7.003  1.00  0.00     0.064 C 
ATOM     11  C   UNL     1      27.406  -9.736   8.122  1.00  0.00     0.017 C 
BRANCH  10  12
ATOM     12  C   UNL     1      25.153 -10.524   7.037  1.00  0.00     0.072 C 
ATOM     13  C   UNL     1      24.009  -9.895   7.755  1.00  0.00     0.137 C 
ATOM     14  C   UNL     1      24.503 -11.044   5.695  1.00  0.00    -0.019 C 
ATOM     15  O   UNL     1      24.048  -9.613   8.943  1.00  0.00    -0.299 OA
ATOM     16  C   UNL     1      22.820  -9.628   6.920  1.00  0.00     0.080 C 
ATOM     17  C   UNL     1      23.157 -10.245   5.546  1.00  0.00     0.007 C 
ATOM     18  C   UNL     1      24.236 -12.592   5.797  1.00  0.00     0.008 C 
ATOM     19  C   UNL     1      25.372 -10.848   4.425  1.00  0.00     0.012 C 
ATOM     20  C   UNL     1      22.023 -11.130   4.961  1.00  0.00     0.001 C 
ATOM     21  C   UNL     1      22.944 -12.945   6.545  1.00  0.00     0.005 C 
ATOM     22  C   UNL     1      21.676 -12.340   5.870  1.00  0.00     0.003 C 
ATOM     23  C   UNL     1      20.742 -10.350   4.650  1.00  0.00     0.031 C 
ATOM     24  C   UNL     1      20.742 -13.356   5.111  1.00  0.00    -0.008 C 
ATOM     25  C   UNL     1      19.663 -11.265   4.130  1.00  0.00    -0.027 C 
ATOM     26  C   UNL     1      19.606 -12.594   4.396  1.00  0.00    -0.065 C 
ATOM     27  C   UNL     1      20.102 -14.334   6.150  1.00  0.00     0.014 C 
ATOM     28  C   UNL     1      21.536 -14.170   4.053  1.00  0.00     0.016 C 
ATOM     29  C   UNL     1      18.425 -13.390   3.875  1.00  0.00     0.063 C 
ATOM     30  C   UNL     1      18.937 -15.168   5.589  1.00  0.00     0.033 C 
ATOM     31  C   UNL     1      17.844 -14.284   4.978  1.00  0.00     0.118 C 
BRANCH  31  32
ATOM     32  O   UNL     1      17.253 -13.500   5.982  1.00  0.00    -0.393 OA
ATOM     33  H   UNL     1      16.314 -13.337   5.704  1.00  0.00     0.210 HD
ENDBRANCH  31  32
ENDBRANCH  10  12
ENDBRANCH   8  10
ENDBRANCH   1   8
TORSDOF 8
ENDMDL
MODEL 5
REMARK VINA RESULT:    -6.134      2.031      8.054
REMARK INTER + INTRA:          -8.745
REMARK INTER:                  -7.979
REMARK INTRA:                  -0.767
REMARK UNBOUND:                -0.102
REMARK SMILES C[C@H](CO)CCC(=O)[C@@H](C)[C@H]1C(=O)C[C@@H]2[C@@H]3CC=C4C[C@H](O)CC[C@]4(C)[C@H]3CC[C@@]21C
REMARK SMILES IDX 6 1 5 2 2 3 1 4 3 5 4 6 7 8 8 9 9 10 10 11 11 12 12 13 30 14
REMARK SMILES IDX 13 15 14 16 15 17 29 18 31 19 16 20 28 21 27 22 17 23 25 24
REMARK SMILES IDX 18 25 19 26 24 27 26 28 20 29 23 30 21 31 22 32
REMARK H PARENT 4 7 22 33
REMARK Flexibility Score: inf
ROOT
ATOM      1  C   UNL     1      21.222   0.350  22.665  1.00  0.00     0.076 C 
ENDROOT
BRANCH   1   2
ATOM      2  C   UNL     1      19.786   0.288  23.221  1.00  0.00     0.013 C 
BRANCH   2   3
ATOM      3  C   UNL     1      18.674   0.976  22.385  1.00  0.00     0.012 C 
ATOM      4  C   UNL     1      17.280   0.370  22.606  1.00  0.00     0.010 C 
BRANCH   3   5
ATOM      5  C   UNL     1      19.019   1.125  20.888  1.00  0.00     0.159 C 
BRANCH   5   6
ATOM      6  O   UNL     1      17.873   1.074  20.078  1.00  0.00    -0.396 OA
ATOM      7  H   UNL     1      18.139   1.390  19.177  1.00  0.00     0.210 HD
ENDBRANCH   5   6
ENDBRANCH   3   5
ENDBRANCH   2   3
ENDBRANCH   1   2
BRANCH   1   8
ATOM      8  C   UNL     1      22.039  -0.894  22.924  1.00  0.00     0.136 C 
ATOM      9  O   UNL     1      22.100  -1.323  24.067  1.00  0.00    -0.299 OA
BRANCH   8  10
ATOM     10  C   UNL     1      22.771  -1.614  21.798  1.00  0.00     0.064 C 
ATOM     11  C   UNL     1      24.095  -2.269  22.261  1.00  0.00     0.017 C 
BRANCH  10  12
ATOM     12  C   UNL     1      21.844  -2.548  20.945  1.00  0.00     0.072 C 
ATOM     13  C   UNL     1      20.924  -3.291  21.851  1.00  0.00     0.137 C 
ATOM     14  C   UNL     1      20.876  -1.941  19.855  1.00  0.00    -0.019 C 
ATOM     15  O   UNL     1      21.317  -4.115  22.664  1.00  0.00    -0.299 OA
ATOM     16  C   UNL     1      19.494  -2.953  21.700  1.00  0.00     0.080 C 
ATOM     17  C   UNL     1      19.442  -1.984  20.501  1.00  0.00     0.007 C 
ATOM     18  C   UNL     1      20.935  -2.812  18.545  1.00  0.00     0.008 C 
ATOM     19  C   UNL     1      21.209  -0.492  19.414  1.00  0.00     0.012 C 
ATOM     20  C   UNL     1      18.350  -2.337  19.456  1.00  0.00     0.001 C 
ATOM     21  C   UNL     1      20.059  -4.070  18.604  1.00  0.00     0.005 C 
ATOM     22  C   UNL     1      18.552  -3.742  18.827  1.00  0.00     0.003 C 
ATOM     23  C   UNL     1      16.925  -2.232  20.006  1.00  0.00     0.031 C 
ATOM     24  C   UNL     1      17.608  -3.936  17.581  1.00  0.00    -0.008 C 
ATOM     25  C   UNL     1      15.910  -2.630  18.965  1.00  0.00    -0.027 C 
ATOM     26  C   UNL     1      16.181  -3.456  17.923  1.00  0.00    -0.065 C 
ATOM     27  C   UNL     1      17.543  -5.457  17.223  1.00  0.00     0.014 C 
ATOM     28  C   UNL     1      18.120  -3.134  16.355  1.00  0.00     0.016 C 
ATOM     29  C   UNL     1      15.051  -3.840  16.988  1.00  0.00     0.063 C 
ATOM     30  C   UNL     1      16.421  -5.819  16.234  1.00  0.00     0.033 C 
ATOM     31  C   UNL     1      15.048  -5.352  16.732  1.00  0.00     0.118 C 
BRANCH  31  32
ATOM     32  O   UNL     1      14.709  -6.046  17.905  1.00  0.00    -0.393 OA
ATOM     33  H   UNL     1      14.989  -6.989  17.772  1.00  0.00     0.210 HD
ENDBRANCH  31  32
ENDBRANCH  10  12
ENDBRANCH   8  10
ENDBRANCH   1   8
TORSDOF 8
ENDMDL
MODEL 6
REMARK VINA RESULT:    -5.989      1.808      2.827
REMARK INTER + INTRA:          -8.542
REMARK INTER:                  -8.441
REMARK INTRA:                  -0.101
REMARK UNBOUND:                -0.102
REMARK SMILES C[C@H](CO)CCC(=O)[C@@H](C)[C@H]1C(=O)C[C@@H]2[C@@H]3CC=C4C[C@H](O)CC[C@]4(C)[C@H]3CC[C@@]21C
REMARK SMILES IDX 6 1 5 2 2 3 1 4 3 5 4 6 7 8 8 9 9 10 10 11 11 12 12 13 30 14
REMARK SMILES IDX 13 15 14 16 15 17 29 18 31 19 16 20 28 21 27 22 17 23 25 24
REMARK SMILES IDX 18 25 19 26 24 27 26 28 20 29 23 30 21 31 22 32
REMARK H PARENT 4 7 22 33
REMARK Flexibility Score: inf
ROOT
ATOM      1  C   UNL     1      15.917  -6.688  16.031  1.00  0.00     0.076 C 
ENDROOT
BRANCH   1   2
ATOM      2  C   UNL     1      16.683  -7.051  14.744  1.00  0.00     0.013 C 
BRANCH   2   3
ATOM      3  C   UNL     1      17.474  -8.386  14.744  1.00  0.00     0.012 C 
ATOM      4  C   UNL     1      18.996  -8.194  14.808  1.00  0.00     0.010 C 
BRANCH   3   5
ATOM      5  C   UNL     1      17.052  -9.363  13.627  1.00  0.00     0.159 C 
BRANCH   5   6
ATOM      6  O   UNL     1      17.974  -9.380  12.569  1.00  0.00    -0.396 OA
ATOM      7  H   UNL     1      18.117  -8.438  12.292  1.00  0.00     0.210 HD
ENDBRANCH   5   6
ENDBRANCH   3   5
ENDBRANCH   2   3
ENDBRANCH   1   2
BRANCH   1   8
ATOM      8  C   UNL     1      16.092  -5.254  16.472  1.00  0.00     0.136 C 
ATOM      9  O   UNL     1      16.893  -4.553  15.870  1.00  0.00    -0.299 OA
BRANCH   8  10
ATOM     10  C   UNL     1      15.291  -4.675  17.631  1.00  0.00     0.064 C 
ATOM     11  C   UNL     1      14.173  -5.624  18.126  1.00  0.00     0.017 C 
BRANCH  10  12
ATOM     12  C   UNL     1      16.183  -4.067  18.769  1.00  0.00     0.072 C 
ATOM     13  C   UNL     1      17.493  -4.777  18.799  1.00  0.00     0.137 C 
ATOM     14  C   UNL     1      16.591  -2.542  18.742  1.00  0.00    -0.019 C 
ATOM     15  O   UNL     1      17.600  -5.958  19.093  1.00  0.00    -0.299 OA
ATOM     16  C   UNL     1      18.660  -3.945  18.440  1.00  0.00     0.080 C 
ATOM     17  C   UNL     1      18.092  -2.520  18.272  1.00  0.00     0.007 C 
ATOM     18  C   UNL     1      16.438  -1.924  20.181  1.00  0.00     0.008 C 
ATOM     19  C   UNL     1      15.735  -1.649  17.805  1.00  0.00     0.012 C 
ATOM     20  C   UNL     1      18.911  -1.427  19.009  1.00  0.00     0.001 C 
ATOM     21  C   UNL     1      17.629  -2.213  21.104  1.00  0.00     0.005 C 
ATOM     22  C   UNL     1      18.972  -1.655  20.544  1.00  0.00     0.003 C 
ATOM     23  C   UNL     1      20.334  -1.264  18.467  1.00  0.00     0.031 C 
ATOM     24  C   UNL     1      19.554  -0.385  21.272  1.00  0.00    -0.008 C 
ATOM     25  C   UNL     1      21.096  -0.225  19.249  1.00  0.00    -0.027 C 
ATOM     26  C   UNL     1      20.810   0.118  20.530  1.00  0.00    -0.065 C 
ATOM     27  C   UNL     1      19.966  -0.778  22.729  1.00  0.00     0.014 C 
ATOM     28  C   UNL     1      18.511   0.765  21.320  1.00  0.00     0.016 C 
ATOM     29  C   UNL     1      21.702   1.125  21.230  1.00  0.00     0.063 C 
ATOM     30  C   UNL     1      20.831   0.277  23.440  1.00  0.00     0.033 C 
ATOM     31  C   UNL     1      22.085   0.630  22.631  1.00  0.00     0.118 C 
BRANCH  31  32
ATOM     32  O   UNL     1      22.920  -0.495  22.540  1.00  0.00    -0.393 OA
ATOM     33  H   UNL     1      23.806  -0.171  22.230  1.00  0.00     0.210 HD
ENDBRANCH  31  32
ENDBRANCH  10  12
ENDBRANCH   8  10
ENDBRANCH   1   8
TORSDOF 8
ENDMDL
MODEL 7
REMARK VINA RESULT:    -5.892     14.564     16.529
REMARK INTER + INTRA:          -8.405
REMARK INTER:                  -8.864
REMARK INTRA:                   0.459
REMARK UNBOUND:                -0.102
REMARK SMILES C[C@H](CO)CCC(=O)[C@@H](C)[C@H]1C(=O)C[C@@H]2[C@@H]3CC=C4C[C@H](O)CC[C@]4(C)[C@H]3CC[C@@]21C
REMARK SMILES IDX 6 1 5 2 2 3 1 4 3 5 4 6 7 8 8 9 9 10 10 11 11 12 12 13 30 14
REMARK SMILES IDX 13 15 14 16 15 17 29 18 31 19 16 20 28 21 27 22 17 23 25 24
REMARK SMILES IDX 18 25 19 26 24 27 26 28 20 29 23 30 21 31 22 32
REMARK H PARENT 4 7 22 33
REMARK Flexibility Score: inf
ROOT
ATOM      1  C   UNL     1      18.747 -15.694   7.114  1.00  0.00     0.076 C 
ENDROOT
BRANCH   1   2
ATOM      2  C   UNL     1      17.928 -14.863   8.120  1.00  0.00     0.013 C 
BRANCH   2   3
ATOM      3  C   UNL     1      18.401 -14.874   9.599  1.00  0.00     0.012 C 
ATOM      4  C   UNL     1      19.499 -13.843   9.896  1.00  0.00     0.010 C 
BRANCH   3   5
ATOM      5  C   UNL     1      18.756 -16.279  10.131  1.00  0.00     0.159 C 
BRANCH   5   6
ATOM      6  O   UNL     1      19.991 -16.291  10.798  1.00  0.00    -0.396 OA
ATOM      7  H   UNL     1      20.246 -17.241  10.920  1.00  0.00     0.210 HD
ENDBRANCH   5   6
ENDBRANCH   3   5
ENDBRANCH   2   3
ENDBRANCH   1   2
BRANCH   1   8
ATOM      8  C   UNL     1      19.035 -14.984   5.813  1.00  0.00     0.136 C 
ATOM      9  O   UNL     1      18.091 -14.607   5.134  1.00  0.00    -0.299 OA
BRANCH   8  10
ATOM     10  C   UNL     1      20.461 -14.725   5.346  1.00  0.00     0.064 C 
ATOM     11  C   UNL     1      20.859 -15.580   4.119  1.00  0.00     0.017 C 
BRANCH  10  12
ATOM     12  C   UNL     1      20.815 -13.202   5.223  1.00  0.00     0.072 C 
ATOM     13  C   UNL     1      20.447 -12.506   6.488  1.00  0.00     0.137 C 
ATOM     14  C   UNL     1      22.304 -12.740   4.969  1.00  0.00    -0.019 C 
ATOM     15  O   UNL     1      19.291 -12.396   6.871  1.00  0.00    -0.299 OA
ATOM     16  C   UNL     1      21.586 -11.962   7.253  1.00  0.00     0.080 C 
ATOM     17  C   UNL     1      22.818 -12.211   6.359  1.00  0.00     0.007 C 
ATOM     18  C   UNL     1      22.332 -11.603   3.882  1.00  0.00     0.008 C 
ATOM     19  C   UNL     1      23.255 -13.849   4.446  1.00  0.00     0.012 C 
ATOM     20  C   UNL     1      23.738 -10.971   6.197  1.00  0.00     0.001 C 
ATOM     21  C   UNL     1      22.009 -10.211   4.440  1.00  0.00     0.005 C 
ATOM     22  C   UNL     1      23.009  -9.763   5.549  1.00  0.00     0.003 C 
ATOM     23  C   UNL     1      24.389 -10.521   7.509  1.00  0.00     0.031 C 
ATOM     24  C   UNL     1      24.040  -8.643   5.142  1.00  0.00    -0.008 C 
ATOM     25  C   UNL     1      25.231  -9.289   7.302  1.00  0.00    -0.027 C 
ATOM     26  C   UNL     1      25.034  -8.399   6.297  1.00  0.00    -0.065 C 
ATOM     27  C   UNL     1      23.266  -7.313   4.868  1.00  0.00     0.014 C 
ATOM     28  C   UNL     1      24.842  -9.049   3.875  1.00  0.00     0.016 C 
ATOM     29  C   UNL     1      25.904  -7.158   6.245  1.00  0.00     0.063 C 
ATOM     30  C   UNL     1      24.170  -6.072   4.769  1.00  0.00     0.033 C 
ATOM     31  C   UNL     1      25.050  -5.905   6.014  1.00  0.00     0.118 C 
BRANCH  31  32
ATOM     32  O   UNL     1      24.240  -5.652   7.134  1.00  0.00    -0.393 OA
ATOM     33  H   UNL     1      23.770  -6.501   7.345  1.00  0.00     0.210 HD
ENDBRANCH  31  32
ENDBRANCH  10  12
ENDBRANCH   8  10
ENDBRANCH   1   8
TORSDOF 8
ENDMDL
