MODEL 1
REMARK VINA RESULT:    -4.104      0.000      0.000
REMARK INTER + INTRA:          -5.008
REMARK INTER:                  -4.823
REMARK INTRA:                  -0.184
REMARK UNBOUND:                -0.184
REMARK SMILES O=C([O-])CCC(=O)[O-]
REMARK SMILES IDX 4 1 2 2 1 3 3 4 5 5 6 6 7 7 8 8
REMARK H PARENT
REMARK Flexibility Score: inf
ROOT
ATOM      1  C   UNL     1      81.676  61.756  10.115  1.00  0.00     0.059 C 
ENDROOT
BRANCH   1   2
ATOM      2  C   UNL     1      82.502  62.815  10.781  1.00  0.00     0.042 C 
ATOM      3  O   UNL     1      83.730  62.919  10.520  1.00  0.00    -0.550 OA
ATOM      4  O   UNL     1      81.905  63.711  11.657  1.00  0.00    -0.550 OA
ENDBRANCH   1   2
BRANCH   1   5
ATOM      5  C   UNL     1      82.085  60.352  10.572  1.00  0.00     0.059 C 
BRANCH   5   6
ATOM      6  C   UNL     1      81.938  60.188  12.053  1.00  0.00     0.042 C 
ATOM      7  O   UNL     1      82.910  59.787  12.746  1.00  0.00    -0.550 OA
ATOM      8  O   UNL     1      80.716  60.437  12.664  1.00  0.00    -0.550 OA
ENDBRANCH   5   6
ENDBRANCH   1   5
TORSDOF 3
ENDMDL
MODEL 2
REMARK VINA RESULT:    -4.097      0.070      3.149
REMARK INTER + INTRA:          -5.000
REMARK INTER:                  -4.817
REMARK INTRA:                  -0.183
REMARK UNBOUND:                -0.184
REMARK SMILES O=C([O-])CCC(=O)[O-]
REMARK SMILES IDX 4 1 2 2 1 3 3 4 5 5 6 6 7 7 8 8
REMARK H PARENT
REMARK Flexibility Score: inf
ROOT
ATOM      1  C   UNL     1      82.124  60.314  10.612  1.00  0.00     0.059 C 
ENDROOT
BRANCH   1   2
ATOM      2  C   UNL     1      81.983  60.164  12.097  1.00  0.00     0.042 C 
ATOM      3  O   UNL     1      82.967  59.801  12.794  1.00  0.00    -0.550 OA
ATOM      4  O   UNL     1      80.776  60.466  12.713  1.00  0.00    -0.550 OA
ENDBRANCH   1   2
BRANCH   1   5
ATOM      5  C   UNL     1      81.689  61.706  10.142  1.00  0.00     0.059 C 
BRANCH   5   6
ATOM      6  C   UNL     1      82.530  62.784  10.754  1.00  0.00     0.042 C 
ATOM      7  O   UNL     1      83.754  62.871  10.470  1.00  0.00    -0.550 OA
ATOM      8  O   UNL     1      81.972  63.668  11.668  1.00  0.00    -0.550 OA
ENDBRANCH   5   6
ENDBRANCH   1   5
TORSDOF 3
ENDMDL
MODEL 3
REMARK VINA RESULT:    -4.084      0.074      1.147
REMARK INTER + INTRA:          -4.985
REMARK INTER:                  -4.811
REMARK INTRA:                  -0.175
REMARK UNBOUND:                -0.184
REMARK SMILES O=C([O-])CCC(=O)[O-]
REMARK SMILES IDX 4 1 2 2 1 3 3 4 5 5 6 6 7 7 8 8
REMARK H PARENT
REMARK Flexibility Score: inf
ROOT
ATOM      1  C   UNL     1      81.683  61.791  10.151  1.00  0.00     0.059 C 
ENDROOT
BRANCH   1   2
ATOM      2  C   UNL     1      82.505  62.851  10.820  1.00  0.00     0.042 C 
ATOM      3  O   UNL     1      81.967  63.659  11.622  1.00  0.00    -0.550 OA
ATOM      4  O   UNL     1      83.873  62.919  10.587  1.00  0.00    -0.550 OA
ENDBRANCH   1   2
BRANCH   1   5
ATOM      5  C   UNL     1      82.102  60.387  10.597  1.00  0.00     0.059 C 
BRANCH   5   6
ATOM      6  C   UNL     1      81.948  60.208  12.077  1.00  0.00     0.042 C 
ATOM      7  O   UNL     1      82.915  59.793  12.769  1.00  0.00    -0.550 OA
ATOM      8  O   UNL     1      80.726  60.462  12.685  1.00  0.00    -0.550 OA
ENDBRANCH   5   6
ENDBRANCH   1   5
TORSDOF 3
ENDMDL
MODEL 4
REMARK VINA RESULT:    -3.921      1.485      3.509
REMARK INTER + INTRA:          -4.793
REMARK INTER:                  -4.634
REMARK INTRA:                  -0.159
REMARK UNBOUND:                -0.184
REMARK SMILES O=C([O-])CCC(=O)[O-]
REMARK SMILES IDX 4 1 2 2 1 3 3 4 5 5 6 6 7 7 8 8
REMARK H PARENT
REMARK Flexibility Score: inf
ROOT
ATOM      1  C   UNL     1      82.101  60.242  12.319  1.00  0.00     0.059 C 
ENDROOT
BRANCH   1   2
ATOM      2  C   UNL     1      80.671  60.611  12.576  1.00  0.00     0.042 C 
ATOM      3  O   UNL     1      80.390  61.534  13.385  1.00  0.00    -0.550 OA
ATOM      4  O   UNL     1      79.653  59.962  11.890  1.00  0.00    -0.550 OA
ENDBRANCH   1   2
BRANCH   1   5
ATOM      5  C   UNL     1      82.521  60.578  10.884  1.00  0.00     0.059 C 
BRANCH   5   6
ATOM      6  C   UNL     1      82.511  62.055  10.636  1.00  0.00     0.042 C 
ATOM      7  O   UNL     1      81.661  62.561   9.856  1.00  0.00    -0.550 OA
ATOM      8  O   UNL     1      83.464  62.868  11.235  1.00  0.00    -0.550 OA
ENDBRANCH   5   6
ENDBRANCH   1   5
TORSDOF 3
ENDMDL
MODEL 5
REMARK VINA RESULT:    -3.914      1.492      1.874
REMARK INTER + INTRA:          -4.784
REMARK INTER:                  -4.616
REMARK INTRA:                  -0.168
REMARK UNBOUND:                -0.184
REMARK SMILES O=C([O-])CCC(=O)[O-]
REMARK SMILES IDX 4 1 2 2 1 3 3 4 5 5 6 6 7 7 8 8
REMARK H PARENT
REMARK Flexibility Score: inf
ROOT
ATOM      1  C   UNL     1      82.502  60.545  10.860  1.00  0.00     0.059 C 
ENDROOT
BRANCH   1   2
ATOM      2  C   UNL     1      82.555  62.022  10.608  1.00  0.00     0.042 C 
ATOM      3  O   UNL     1      81.738  62.560   9.815  1.00  0.00    -0.550 OA
ATOM      4  O   UNL     1      83.481  62.807  11.281  1.00  0.00    -0.550 OA
ENDBRANCH   1   2
BRANCH   1   5
ATOM      5  C   UNL     1      82.085  60.233  12.301  1.00  0.00     0.059 C 
BRANCH   5   6
ATOM      6  C   UNL     1      80.678  60.668  12.575  1.00  0.00     0.042 C 
ATOM      7  O   UNL     1      80.447  61.567  13.426  1.00  0.00    -0.550 OA
ATOM      8  O   UNL     1      79.619  60.052  11.922  1.00  0.00    -0.550 OA
ENDBRANCH   5   6
ENDBRANCH   1   5
TORSDOF 3
ENDMDL
MODEL 6
REMARK VINA RESULT:    -3.883      1.478      3.587
REMARK INTER + INTRA:          -4.749
REMARK INTER:                  -4.578
REMARK INTRA:                  -0.171
REMARK UNBOUND:                -0.184
REMARK SMILES O=C([O-])CCC(=O)[O-]
REMARK SMILES IDX 4 1 2 2 1 3 3 4 5 5 6 6 7 7 8 8
REMARK H PARENT
REMARK Flexibility Score: inf
ROOT
ATOM      1  C   UNL     1      80.776  60.994  12.821  1.00  0.00     0.059 C 
ENDROOT
BRANCH   1   2
ATOM      2  C   UNL     1      81.711  59.951  12.290  1.00  0.00     0.042 C 
ATOM      3  O   UNL     1      82.883  59.859  12.743  1.00  0.00    -0.550 OA
ATOM      4  O   UNL     1      81.274  59.054  11.323  1.00  0.00    -0.550 OA
ENDBRANCH   1   2
BRANCH   1   5
ATOM      5  C   UNL     1      80.236  61.890  11.702  1.00  0.00     0.059 C 
BRANCH   5   6
ATOM      6  C   UNL     1      81.316  62.740  11.106  1.00  0.00     0.042 C 
ATOM      7  O   UNL     1      81.794  63.706  11.757  1.00  0.00    -0.550 OA
ATOM      8  O   UNL     1      81.765  62.492   9.815  1.00  0.00    -0.550 OA
ENDBRANCH   5   6
ENDBRANCH   1   5
TORSDOF 3
ENDMDL
MODEL 7
REMARK VINA RESULT:    -3.880      1.749      2.404
REMARK INTER + INTRA:          -4.745
REMARK INTER:                  -4.614
REMARK INTRA:                  -0.131
REMARK UNBOUND:                -0.184
REMARK SMILES O=C([O-])CCC(=O)[O-]
REMARK SMILES IDX 4 1 2 2 1 3 3 4 5 5 6 6 7 7 8 8
REMARK H PARENT
REMARK Flexibility Score: inf
ROOT
ATOM      1  C   UNL     1      80.510  61.323  12.815  1.00  0.00     0.059 C 
ENDROOT
BRANCH   1   2
ATOM      2  C   UNL     1      80.524  62.478  11.860  1.00  0.00     0.042 C 
ATOM      3  O   UNL     1      79.515  62.725  11.149  1.00  0.00    -0.550 OA
ATOM      4  O   UNL     1      81.638  63.304  11.786  1.00  0.00    -0.550 OA
ENDBRANCH   1   2
BRANCH   1   5
ATOM      5  C   UNL     1      80.715  59.989  12.090  1.00  0.00     0.059 C 
BRANCH   5   6
ATOM      6  C   UNL     1      82.167  59.708  11.850  1.00  0.00     0.042 C 
ATOM      7  O   UNL     1      82.998  59.823  12.789  1.00  0.00    -0.550 OA
ATOM      8  O   UNL     1      82.609  59.359  10.581  1.00  0.00    -0.550 OA
ENDBRANCH   5   6
ENDBRANCH   1   5
TORSDOF 3
ENDMDL
MODEL 8
REMARK VINA RESULT:    -3.680      2.484      3.373
REMARK INTER + INTRA:          -4.510
REMARK INTER:                  -4.478
REMARK INTRA:                  -0.032
REMARK UNBOUND:                -0.184
REMARK SMILES O=C([O-])CCC(=O)[O-]
REMARK SMILES IDX 4 1 2 2 1 3 3 4 5 5 6 6 7 7 8 8
REMARK H PARENT
REMARK Flexibility Score: inf
ROOT
ATOM      1  C   UNL     1      80.367  61.339  12.850  1.00  0.00     0.059 C 
ENDROOT
BRANCH   1   2
ATOM      2  C   UNL     1      79.024  61.933  12.551  1.00  0.00     0.042 C 
ATOM      3  O   UNL     1      78.191  62.116  13.478  1.00  0.00    -0.550 OA
ATOM      4  O   UNL     1      78.710  62.322  11.256  1.00  0.00    -0.550 OA
ENDBRANCH   1   2
BRANCH   1   5
ATOM      5  C   UNL     1      80.606  60.054  12.051  1.00  0.00     0.059 C 
BRANCH   5   6
ATOM      6  C   UNL     1      82.067  59.806  11.827  1.00  0.00     0.042 C 
ATOM      7  O   UNL     1      82.875  59.866  12.791  1.00  0.00    -0.550 OA
ATOM      8  O   UNL     1      82.542  59.551  10.547  1.00  0.00    -0.550 OA
ENDBRANCH   5   6
ENDBRANCH   1   5
TORSDOF 3
ENDMDL
MODEL 9
REMARK VINA RESULT:    -3.641      2.184      3.259
REMARK INTER + INTRA:          -4.464
REMARK INTER:                  -4.379
REMARK INTRA:                  -0.085
REMARK UNBOUND:                -0.184
REMARK SMILES O=C([O-])CCC(=O)[O-]
REMARK SMILES IDX 4 1 2 2 1 3 3 4 5 5 6 6 7 7 8 8
REMARK H PARENT
REMARK Flexibility Score: inf
ROOT
ATOM      1  C   UNL     1      81.312  60.171  12.385  1.00  0.00     0.059 C 
ENDROOT
BRANCH   1   2
ATOM      2  C   UNL     1      82.184  60.464  11.202  1.00  0.00     0.042 C 
ATOM      3  O   UNL     1      82.511  61.651  10.934  1.00  0.00    -0.550 OA
ATOM      4  O   UNL     1      82.667  59.423  10.421  1.00  0.00    -0.550 OA
ENDBRANCH   1   2
BRANCH   1   5
ATOM      5  C   UNL     1      80.571  61.423  12.865  1.00  0.00     0.059 C 
BRANCH   5   6
ATOM      6  C   UNL     1      79.091  61.298  12.670  1.00  0.00     0.042 C 
ATOM      7  O   UNL     1      78.629  60.479  11.832  1.00  0.00    -0.550 OA
ATOM      8  O   UNL     1      78.223  62.115  13.383  1.00  0.00    -0.550 OA
ENDBRANCH   5   6
ENDBRANCH   1   5
TORSDOF 3
ENDMDL
