MODEL 1
REMARK VINA RESULT:    -4.297      0.000      0.000
REMARK INTER + INTRA:          -7.212
REMARK INTER:                  -6.181
REMARK INTRA:                  -1.031
REMARK UNBOUND:                -1.031
REMARK SMILES O=C(CO)[C@H](O)[C@H](O)[C@H](O)CO
REMARK SMILES IDX 7 1 9 2 11 3 12 4 10 6 5 8 2 9 1 10 3 11 4 12 6 14 8 16
REMARK H PARENT 12 5 10 7 4 13 6 15 8 17
REMARK Flexibility Score: inf
ROOT
ATOM      1  C   UNL     1     -43.085 -16.138  -2.607  1.00  0.00     0.181 C 
ENDROOT
BRANCH   1   2
ATOM      2  C   UNL     1     -41.916 -16.045  -3.624  1.00  0.00     0.171 C 
BRANCH   2   3
ATOM      3  C   UNL     1     -40.776 -15.144  -3.115  1.00  0.00     0.190 C 
BRANCH   3   4
ATOM      4  O   UNL     1     -41.167 -13.795  -3.105  1.00  0.00    -0.394 OA
ATOM      5  H   UNL     1     -40.484 -13.302  -2.580  1.00  0.00     0.210 HD
ENDBRANCH   3   4
ENDBRANCH   2   3
BRANCH   2   6
ATOM      6  O   UNL     1     -41.411 -17.330  -3.884  1.00  0.00    -0.388 OA
ATOM      7  H   UNL     1     -40.423 -17.275  -3.797  1.00  0.00     0.211 HD
ENDBRANCH   2   6
ENDBRANCH   1   2
BRANCH   1   8
ATOM      8  C   UNL     1     -44.263 -15.196  -2.984  1.00  0.00     0.214 C 
BRANCH   8   9
ATOM      9  C   UNL     1     -44.529 -14.158  -1.911  1.00  0.00     0.189 C 
ATOM     10  O   UNL     1     -43.763 -13.213  -1.793  1.00  0.00    -0.294 OA
BRANCH   9  11
ATOM     11  C   UNL     1     -45.704 -14.258  -0.977  1.00  0.00     0.234 C 
BRANCH  11  12
ATOM     12  O   UNL     1     -46.890 -14.206  -1.718  1.00  0.00    -0.388 OA
ATOM     13  H   UNL     1     -46.883 -13.331  -2.188  1.00  0.00     0.211 HD
ENDBRANCH  11  12
ENDBRANCH   9  11
ENDBRANCH   8   9
BRANCH   8  14
ATOM     14  O   UNL     1     -45.442 -15.911  -3.266  1.00  0.00    -0.382 OA
ATOM     15  H   UNL     1     -45.203 -16.679  -3.847  1.00  0.00     0.211 HD
ENDBRANCH   8  14
ENDBRANCH   1   8
BRANCH   1  16
ATOM     16  O   UNL     1     -42.630 -15.847  -1.307  1.00  0.00    -0.387 OA
ATOM     17  H   UNL     1     -43.165 -15.081  -0.968  1.00  0.00     0.211 HD
ENDBRANCH   1  16
TORSDOF 10
ENDMDL
MODEL 2
REMARK VINA RESULT:    -4.046      1.635      4.407
REMARK INTER + INTRA:          -6.851
REMARK INTER:                  -5.832
REMARK INTRA:                  -1.019
REMARK UNBOUND:                -1.031
REMARK SMILES O=C(CO)[C@H](O)[C@H](O)[C@H](O)CO
REMARK SMILES IDX 7 1 9 2 11 3 12 4 10 6 5 8 2 9 1 10 3 11 4 12 6 14 8 16
REMARK H PARENT 12 5 10 7 4 13 6 15 8 17
REMARK Flexibility Score: inf
ROOT
ATOM      1  C   UNL     1     -44.652 -14.954  -2.080  1.00  0.00     0.181 C 
ENDROOT
BRANCH   1   2
ATOM      2  C   UNL     1     -45.931 -14.188  -2.512  1.00  0.00     0.171 C 
BRANCH   2   3
ATOM      3  C   UNL     1     -46.374 -14.558  -3.939  1.00  0.00     0.190 C 
BRANCH   3   4
ATOM      4  O   UNL     1     -46.949 -15.838  -3.972  1.00  0.00    -0.394 OA
ATOM      5  H   UNL     1     -47.490 -15.888  -4.803  1.00  0.00     0.210 HD
ENDBRANCH   3   4
ENDBRANCH   2   3
BRANCH   2   6
ATOM      6  O   UNL     1     -46.976 -14.466  -1.615  1.00  0.00    -0.388 OA
ATOM      7  H   UNL     1     -47.808 -14.105  -2.020  1.00  0.00     0.211 HD
ENDBRANCH   2   6
ENDBRANCH   1   2
BRANCH   1   8
ATOM      8  C   UNL     1     -43.573 -14.002  -1.490  1.00  0.00     0.214 C 
BRANCH   8   9
ATOM      9  C   UNL     1     -42.558 -13.576  -2.533  1.00  0.00     0.189 C 
ATOM     10  O   UNL     1     -42.902 -12.811  -3.421  1.00  0.00    -0.294 OA
BRANCH   9  11
ATOM     11  C   UNL     1     -41.139 -14.073  -2.515  1.00  0.00     0.234 C 
BRANCH  11  12
ATOM     12  O   UNL     1     -41.138 -15.473  -2.543  1.00  0.00    -0.388 OA
ATOM     13  H   UNL     1     -40.451 -15.734  -3.211  1.00  0.00     0.211 HD
ENDBRANCH  11  12
ENDBRANCH   9  11
ENDBRANCH   8   9
BRANCH   8  14
ATOM     14  O   UNL     1     -42.918 -14.570  -0.382  1.00  0.00    -0.382 OA
ATOM     15  H   UNL     1     -42.065 -14.965  -0.699  1.00  0.00     0.211 HD
ENDBRANCH   8  14
ENDBRANCH   1   8
BRANCH   1  16
ATOM     16  O   UNL     1     -44.120 -15.674  -3.166  1.00  0.00    -0.387 OA
ATOM     17  H   UNL     1     -43.604 -15.035  -3.725  1.00  0.00     0.211 HD
ENDBRANCH   1  16
TORSDOF 10
ENDMDL
MODEL 3
REMARK VINA RESULT:    -3.886      9.245     10.929
REMARK INTER + INTRA:          -6.621
REMARK INTER:                  -5.703
REMARK INTRA:                  -0.918
REMARK UNBOUND:                -1.031
REMARK SMILES O=C(CO)[C@H](O)[C@H](O)[C@H](O)CO
REMARK SMILES IDX 7 1 9 2 11 3 12 4 10 6 5 8 2 9 1 10 3 11 4 12 6 14 8 16
REMARK H PARENT 12 5 10 7 4 13 6 15 8 17
REMARK Flexibility Score: inf
ROOT
ATOM      1  C   UNL     1     -44.773 -16.124   7.121  1.00  0.00     0.181 C 
ENDROOT
BRANCH   1   2
ATOM      2  C   UNL     1     -46.143 -16.805   7.384  1.00  0.00     0.171 C 
BRANCH   2   3
ATOM      3  C   UNL     1     -46.161 -17.574   8.718  1.00  0.00     0.190 C 
BRANCH   3   4
ATOM      4  O   UNL     1     -45.986 -16.702   9.804  1.00  0.00    -0.394 OA
ATOM      5  H   UNL     1     -46.893 -16.427  10.100  1.00  0.00     0.210 HD
ENDBRANCH   3   4
ENDBRANCH   2   3
BRANCH   2   6
ATOM      6  O   UNL     1     -47.160 -15.836   7.393  1.00  0.00    -0.388 OA
ATOM      7  H   UNL     1     -47.897 -16.187   6.828  1.00  0.00     0.211 HD
ENDBRANCH   2   6
ENDBRANCH   1   2
BRANCH   1   8
ATOM      8  C   UNL     1     -44.848 -14.580   7.284  1.00  0.00     0.214 C 
BRANCH   8   9
ATOM      9  C   UNL     1     -43.560 -13.898   6.863  1.00  0.00     0.189 C 
ATOM     10  O   UNL     1     -43.535 -13.263   5.820  1.00  0.00    -0.294 OA
BRANCH   9  11
ATOM     11  C   UNL     1     -42.305 -13.987   7.687  1.00  0.00     0.234 C 
BRANCH  11  12
ATOM     12  O   UNL     1     -42.586 -13.602   9.004  1.00  0.00    -0.388 OA
ATOM     13  H   UNL     1     -43.523 -13.882   9.178  1.00  0.00     0.211 HD
ENDBRANCH  11  12
ENDBRANCH   9  11
ENDBRANCH   8   9
BRANCH   8  14
ATOM     14  O   UNL     1     -45.187 -14.203   8.596  1.00  0.00    -0.382 OA
ATOM     15  H   UNL     1     -46.129 -14.469   8.758  1.00  0.00     0.211 HD
ENDBRANCH   8  14
ENDBRANCH   1   8
BRANCH   1  16
ATOM     16  O   UNL     1     -44.300 -16.452   5.836  1.00  0.00    -0.387 OA
ATOM     17  H   UNL     1     -44.837 -17.219   5.506  1.00  0.00     0.211 HD
ENDBRANCH   1  16
TORSDOF 10
ENDMDL
MODEL 4
REMARK VINA RESULT:    -3.855      1.004      4.327
REMARK INTER + INTRA:          -6.577
REMARK INTER:                  -5.822
REMARK INTRA:                  -0.755
REMARK UNBOUND:                -1.031
REMARK SMILES O=C(CO)[C@H](O)[C@H](O)[C@H](O)CO
REMARK SMILES IDX 7 1 9 2 11 3 12 4 10 6 5 8 2 9 1 10 3 11 4 12 6 14 8 16
REMARK H PARENT 12 5 10 7 4 13 6 15 8 17
REMARK Flexibility Score: inf
ROOT
ATOM      1  C   UNL     1     -43.315 -14.163  -2.501  1.00  0.00     0.181 C 
ENDROOT
BRANCH   1   2
ATOM      2  C   UNL     1     -44.638 -14.950  -2.299  1.00  0.00     0.171 C 
BRANCH   2   3
ATOM      3  C   UNL     1     -45.874 -14.110  -2.669  1.00  0.00     0.190 C 
BRANCH   3   4
ATOM      4  O   UNL     1     -46.987 -14.487  -1.902  1.00  0.00    -0.394 OA
ATOM      5  H   UNL     1     -47.518 -15.118  -2.456  1.00  0.00     0.210 HD
ENDBRANCH   3   4
ENDBRANCH   2   3
BRANCH   2   6
ATOM      6  O   UNL     1     -44.619 -16.117  -3.080  1.00  0.00    -0.388 OA
ATOM      7  H   UNL     1     -45.324 -16.717  -2.720  1.00  0.00     0.211 HD
ENDBRANCH   2   6
ENDBRANCH   1   2
BRANCH   1   8
ATOM      8  C   UNL     1     -42.088 -14.927  -1.929  1.00  0.00     0.214 C 
BRANCH   8   9
ATOM      9  C   UNL     1     -41.048 -15.213  -2.994  1.00  0.00     0.189 C 
ATOM     10  O   UNL     1     -39.968 -14.645  -2.940  1.00  0.00    -0.294 OA
BRANCH   9  11
ATOM     11  C   UNL     1     -41.306 -16.172  -4.124  1.00  0.00     0.234 C 
BRANCH  11  12
ATOM     12  O   UNL     1     -41.658 -17.422  -3.600  1.00  0.00    -0.388 OA
ATOM     13  H   UNL     1     -42.640 -17.503  -3.721  1.00  0.00     0.211 HD
ENDBRANCH  11  12
ENDBRANCH   9  11
ENDBRANCH   8   9
BRANCH   8  14
ATOM     14  O   UNL     1     -42.463 -16.120  -1.286  1.00  0.00    -0.382 OA
ATOM     15  H   UNL     1     -43.197 -16.534  -1.809  1.00  0.00     0.211 HD
ENDBRANCH   8  14
ENDBRANCH   1   8
BRANCH   1  16
ATOM     16  O   UNL     1     -43.408 -12.887  -1.913  1.00  0.00    -0.387 OA
ATOM     17  H   UNL     1     -43.395 -12.218  -2.647  1.00  0.00     0.211 HD
ENDBRANCH   1  16
TORSDOF 10
ENDMDL
MODEL 5
REMARK VINA RESULT:    -3.842      1.451      4.219
REMARK INTER + INTRA:          -6.557
REMARK INTER:                  -5.478
REMARK INTRA:                  -1.079
REMARK UNBOUND:                -1.031
REMARK SMILES O=C(CO)[C@H](O)[C@H](O)[C@H](O)CO
REMARK SMILES IDX 7 1 9 2 11 3 12 4 10 6 5 8 2 9 1 10 3 11 4 12 6 14 8 16
REMARK H PARENT 12 5 10 7 4 13 6 15 8 17
REMARK Flexibility Score: inf
ROOT
ATOM      1  C   UNL     1     -43.653 -15.657  -2.718  1.00  0.00     0.181 C 
ENDROOT
BRANCH   1   2
ATOM      2  C   UNL     1     -45.036 -15.020  -3.024  1.00  0.00     0.171 C 
BRANCH   2   3
ATOM      3  C   UNL     1     -45.608 -14.266  -1.810  1.00  0.00     0.190 C 
BRANCH   3   4
ATOM      4  O   UNL     1     -47.004 -14.400  -1.746  1.00  0.00    -0.394 OA
ATOM      5  H   UNL     1     -47.193 -15.361  -1.584  1.00  0.00     0.210 HD
ENDBRANCH   3   4
ENDBRANCH   2   3
BRANCH   2   6
ATOM      6  O   UNL     1     -44.919 -14.134  -4.108  1.00  0.00    -0.388 OA
ATOM      7  H   UNL     1     -44.462 -14.629  -4.837  1.00  0.00     0.211 HD
ENDBRANCH   2   6
ENDBRANCH   1   2
BRANCH   1   8
ATOM      8  C   UNL     1     -42.856 -14.842  -1.661  1.00  0.00     0.214 C 
BRANCH   8   9
ATOM      9  C   UNL     1     -41.873 -13.882  -2.304  1.00  0.00     0.189 C 
ATOM     10  O   UNL     1     -42.300 -12.919  -2.923  1.00  0.00    -0.294 OA
BRANCH   9  11
ATOM     11  C   UNL     1     -40.386 -14.083  -2.212  1.00  0.00     0.234 C 
BRANCH  11  12
ATOM     12  O   UNL     1     -40.057 -15.348  -2.714  1.00  0.00    -0.388 OA
ATOM     13  H   UNL     1     -39.161 -15.565  -2.345  1.00  0.00     0.211 HD
ENDBRANCH  11  12
ENDBRANCH   9  11
ENDBRANCH   8   9
BRANCH   8  14
ATOM     14  O   UNL     1     -42.188 -15.676  -0.746  1.00  0.00    -0.382 OA
ATOM     15  H   UNL     1     -41.485 -15.138  -0.297  1.00  0.00     0.211 HD
ENDBRANCH   8  14
ENDBRANCH   1   8
BRANCH   1  16
ATOM     16  O   UNL     1     -42.899 -15.785  -3.900  1.00  0.00    -0.387 OA
ATOM     17  H   UNL     1     -42.577 -16.724  -3.949  1.00  0.00     0.211 HD
ENDBRANCH   1  16
TORSDOF 10
ENDMDL
MODEL 6
REMARK VINA RESULT:    -3.802      1.593      2.622
REMARK INTER + INTRA:          -6.500
REMARK INTER:                  -5.710
REMARK INTRA:                  -0.790
REMARK UNBOUND:                -1.031
REMARK SMILES O=C(CO)[C@H](O)[C@H](O)[C@H](O)CO
REMARK SMILES IDX 7 1 9 2 11 3 12 4 10 6 5 8 2 9 1 10 3 11 4 12 6 14 8 16
REMARK H PARENT 12 5 10 7 4 13 6 15 8 17
REMARK Flexibility Score: inf
ROOT
ATOM      1  C   UNL     1     -44.880 -14.499  -3.107  1.00  0.00     0.181 C 
ENDROOT
BRANCH   1   2
ATOM      2  C   UNL     1     -43.428 -13.950  -3.091  1.00  0.00     0.171 C 
BRANCH   2   3
ATOM      3  C   UNL     1     -42.384 -15.067  -3.269  1.00  0.00     0.190 C 
BRANCH   3   4
ATOM      4  O   UNL     1     -42.093 -15.685  -2.042  1.00  0.00    -0.394 OA
ATOM      5  H   UNL     1     -42.122 -16.664  -2.199  1.00  0.00     0.210 HD
ENDBRANCH   3   4
ENDBRANCH   2   3
BRANCH   2   6
ATOM      6  O   UNL     1     -43.269 -13.000  -4.113  1.00  0.00    -0.388 OA
ATOM      7  H   UNL     1     -42.298 -12.950  -4.313  1.00  0.00     0.211 HD
ENDBRANCH   2   6
ENDBRANCH   1   2
BRANCH   1   8
ATOM      8  C   UNL     1     -45.749 -13.885  -1.974  1.00  0.00     0.214 C 
BRANCH   8   9
ATOM      9  C   UNL     1     -45.055 -13.944  -0.627  1.00  0.00     0.189 C 
ATOM     10  O   UNL     1     -44.369 -14.917  -0.353  1.00  0.00    -0.294 OA
BRANCH   9  11
ATOM     11  C   UNL     1     -45.190 -12.843   0.389  1.00  0.00     0.234 C 
BRANCH  11  12
ATOM     12  O   UNL     1     -46.265 -12.018   0.038  1.00  0.00    -0.388 OA
ATOM     13  H   UNL     1     -46.544 -12.302  -0.871  1.00  0.00     0.211 HD
ENDBRANCH  11  12
ENDBRANCH   9  11
ENDBRANCH   8   9
BRANCH   8  14
ATOM     14  O   UNL     1     -47.015 -14.492  -1.892  1.00  0.00    -0.382 OA
ATOM     15  H   UNL     1     -47.213 -14.660  -0.934  1.00  0.00     0.211 HD
ENDBRANCH   8  14
ENDBRANCH   1   8
BRANCH   1  16
ATOM     16  O   UNL     1     -44.876 -15.903  -3.006  1.00  0.00    -0.387 OA
ATOM     17  H   UNL     1     -45.821 -16.202  -2.953  1.00  0.00     0.211 HD
ENDBRANCH   1  16
TORSDOF 10
ENDMDL
MODEL 7
REMARK VINA RESULT:    -3.736      8.736     10.359
REMARK INTER + INTRA:          -6.406
REMARK INTER:                  -5.475
REMARK INTRA:                  -0.930
REMARK UNBOUND:                -1.031
REMARK SMILES O=C(CO)[C@H](O)[C@H](O)[C@H](O)CO
REMARK SMILES IDX 7 1 9 2 11 3 12 4 10 6 5 8 2 9 1 10 3 11 4 12 6 14 8 16
REMARK H PARENT 12 5 10 7 4 13 6 15 8 17
REMARK Flexibility Score: inf
ROOT
ATOM      1  C   UNL     1     -45.617 -15.109   6.784  1.00  0.00     0.181 C 
ENDROOT
BRANCH   1   2
ATOM      2  C   UNL     1     -45.831 -16.295   7.762  1.00  0.00     0.171 C 
BRANCH   2   3
ATOM      3  C   UNL     1     -45.014 -17.536   7.356  1.00  0.00     0.190 C 
BRANCH   3   4
ATOM      4  O   UNL     1     -45.777 -18.402   6.557  1.00  0.00    -0.394 OA
ATOM      5  H   UNL     1     -46.725 -18.126   6.659  1.00  0.00     0.210 HD
ENDBRANCH   3   4
ENDBRANCH   2   3
BRANCH   2   6
ATOM      6  O   UNL     1     -45.470 -15.908   9.063  1.00  0.00    -0.388 OA
ATOM      7  H   UNL     1     -46.237 -16.133   9.654  1.00  0.00     0.211 HD
ENDBRANCH   2   6
ENDBRANCH   1   2
BRANCH   1   8
ATOM      8  C   UNL     1     -44.184 -15.101   6.181  1.00  0.00     0.214 C 
BRANCH   8   9
ATOM      9  C   UNL     1     -43.392 -13.880   6.608  1.00  0.00     0.189 C 
ATOM     10  O   UNL     1     -43.530 -12.835   5.991  1.00  0.00    -0.294 OA
BRANCH   9  11
ATOM     11  C   UNL     1     -42.432 -13.916   7.765  1.00  0.00     0.234 C 
BRANCH  11  12
ATOM     12  O   UNL     1     -43.151 -13.862   8.966  1.00  0.00    -0.388 OA
ATOM     13  H   UNL     1     -44.111 -13.876   8.712  1.00  0.00     0.211 HD
ENDBRANCH  11  12
ENDBRANCH   9  11
ENDBRANCH   8   9
BRANCH   8  14
ATOM     14  O   UNL     1     -44.202 -15.198   4.778  1.00  0.00    -0.382 OA
ATOM     15  H   UNL     1     -44.774 -14.468   4.426  1.00  0.00     0.211 HD
ENDBRANCH   8  14
ENDBRANCH   1   8
BRANCH   1  16
ATOM     16  O   UNL     1     -45.875 -13.885   7.432  1.00  0.00    -0.387 OA
ATOM     17  H   UNL     1     -45.478 -13.164   6.877  1.00  0.00     0.211 HD
ENDBRANCH   1  16
TORSDOF 10
ENDMDL
MODEL 8
REMARK VINA RESULT:    -3.716      9.294     10.605
REMARK INTER + INTRA:          -6.377
REMARK INTER:                  -5.159
REMARK INTRA:                  -1.217
REMARK UNBOUND:                -1.031
REMARK SMILES O=C(CO)[C@H](O)[C@H](O)[C@H](O)CO
REMARK SMILES IDX 7 1 9 2 11 3 12 4 10 6 5 8 2 9 1 10 3 11 4 12 6 14 8 16
REMARK H PARENT 12 5 10 7 4 13 6 15 8 17
REMARK Flexibility Score: inf
ROOT
ATOM      1  C   UNL     1     -45.501 -15.076   7.279  1.00  0.00     0.181 C 
ENDROOT
BRANCH   1   2
ATOM      2  C   UNL     1     -45.996 -16.416   6.670  1.00  0.00     0.171 C 
BRANCH   2   3
ATOM      3  C   UNL     1     -45.838 -17.592   7.652  1.00  0.00     0.190 C 
BRANCH   3   4
ATOM      4  O   UNL     1     -44.483 -17.883   7.875  1.00  0.00    -0.394 OA
ATOM      5  H   UNL     1     -43.991 -17.603   7.059  1.00  0.00     0.210 HD
ENDBRANCH   3   4
ENDBRANCH   2   3
BRANCH   2   6
ATOM      6  O   UNL     1     -47.345 -16.299   6.299  1.00  0.00    -0.388 OA
ATOM      7  H   UNL     1     -47.831 -17.045   6.739  1.00  0.00     0.211 HD
ENDBRANCH   2   6
ENDBRANCH   1   2
BRANCH   1   8
ATOM      8  C   UNL     1     -44.323 -14.467   6.469  1.00  0.00     0.214 C 
BRANCH   8   9
ATOM      9  C   UNL     1     -42.975 -14.844   7.051  1.00  0.00     0.189 C 
ATOM     10  O   UNL     1     -42.540 -15.971   6.867  1.00  0.00    -0.294 OA
BRANCH   9  11
ATOM     11  C   UNL     1     -42.155 -13.876   7.859  1.00  0.00     0.234 C 
BRANCH  11  12
ATOM     12  O   UNL     1     -42.875 -13.499   9.000  1.00  0.00    -0.388 OA
ATOM     13  H   UNL     1     -42.299 -13.728   9.776  1.00  0.00     0.211 HD
ENDBRANCH  11  12
ENDBRANCH   9  11
ENDBRANCH   8   9
BRANCH   8  14
ATOM     14  O   UNL     1     -44.426 -13.068   6.358  1.00  0.00    -0.382 OA
ATOM     15  H   UNL     1     -44.590 -12.847   5.405  1.00  0.00     0.211 HD
ENDBRANCH   8  14
ENDBRANCH   1   8
BRANCH   1  16
ATOM     16  O   UNL     1     -45.121 -15.257   8.623  1.00  0.00    -0.387 OA
ATOM     17  H   UNL     1     -44.552 -14.485   8.879  1.00  0.00     0.211 HD
ENDBRANCH   1  16
TORSDOF 10
ENDMDL
MODEL 9
REMARK VINA RESULT:    -3.709      8.382      9.979
REMARK INTER + INTRA:          -6.366
REMARK INTER:                  -5.068
REMARK INTRA:                  -1.298
REMARK UNBOUND:                -1.031
REMARK SMILES O=C(CO)[C@H](O)[C@H](O)[C@H](O)CO
REMARK SMILES IDX 7 1 9 2 11 3 12 4 10 6 5 8 2 9 1 10 3 11 4 12 6 14 8 16
REMARK H PARENT 12 5 10 7 4 13 6 15 8 17
REMARK Flexibility Score: inf
ROOT
ATOM      1  C   UNL     1     -44.849 -16.326   7.372  1.00  0.00     0.181 C 
ENDROOT
BRANCH   1   2
ATOM      2  C   UNL     1     -45.832 -16.819   6.276  1.00  0.00     0.171 C 
BRANCH   2   3
ATOM      3  C   UNL     1     -45.144 -17.742   5.254  1.00  0.00     0.190 C 
BRANCH   3   4
ATOM      4  O   UNL     1     -44.333 -17.006   4.376  1.00  0.00    -0.394 OA
ATOM      5  H   UNL     1     -44.847 -16.895   3.534  1.00  0.00     0.210 HD
ENDBRANCH   3   4
ENDBRANCH   2   3
BRANCH   2   6
ATOM      6  O   UNL     1     -46.903 -17.504   6.873  1.00  0.00    -0.388 OA
ATOM      7  H   UNL     1     -47.112 -18.279   6.288  1.00  0.00     0.211 HD
ENDBRANCH   2   6
ENDBRANCH   1   2
BRANCH   1   8
ATOM      8  C   UNL     1     -44.788 -14.774   7.445  1.00  0.00     0.214 C 
BRANCH   8   9
ATOM      9  C   UNL     1     -43.638 -14.210   6.632  1.00  0.00     0.189 C 
ATOM     10  O   UNL     1     -43.666 -14.306   5.414  1.00  0.00    -0.294 OA
BRANCH   9  11
ATOM     11  C   UNL     1     -42.457 -13.541   7.278  1.00  0.00     0.234 C 
BRANCH  11  12
ATOM     12  O   UNL     1     -41.872 -14.421   8.198  1.00  0.00    -0.388 OA
ATOM     13  H   UNL     1     -42.069 -15.336   7.867  1.00  0.00     0.211 HD
ENDBRANCH  11  12
ENDBRANCH   9  11
ENDBRANCH   8   9
BRANCH   8  14
ATOM     14  O   UNL     1     -44.714 -14.310   8.771  1.00  0.00    -0.382 OA
ATOM     15  H   UNL     1     -45.603 -13.948   9.019  1.00  0.00     0.211 HD
ENDBRANCH   8  14
ENDBRANCH   1   8
BRANCH   1  16
ATOM     16  O   UNL     1     -43.562 -16.850   7.150  1.00  0.00    -0.387 OA
ATOM     17  H   UNL     1     -43.533 -17.755   7.559  1.00  0.00     0.211 HD
ENDBRANCH   1  16
TORSDOF 10
ENDMDL
