MODEL 1
REMARK VINA RESULT:    -6.635      0.000      0.000
REMARK INTER + INTRA:          -7.359
REMARK INTER:                  -7.217
REMARK INTRA:                  -0.142
REMARK UNBOUND:                -0.142
REMARK SMILES CC(C)c1cc2c(cc1O)[C@@]1(C)CCCC(C)(C)[C@H]1CC2=O
REMARK SMILES IDX 4 1 9 2 8 3 7 4 6 5 5 6 21 7 22 8 20 9 19 10 11 11 13 12
REMARK SMILES IDX 14 13 15 14 16 15 17 16 18 17 12 18 2 19 1 20 3 21 10 22
REMARK H PARENT 10 23
REMARK Flexibility Score: inf
ROOT
ATOM      1  C   UNL     1       6.770  -1.481  38.201  1.00  0.00    -0.003 A 
ATOM      2  C   UNL     1       6.985  -2.864  38.364  1.00  0.00     0.119 A 
ATOM      3  C   UNL     1       7.704  -3.338  39.467  1.00  0.00     0.051 A 
ATOM      4  C   UNL     1       8.248  -2.458  40.426  1.00  0.00    -0.027 A 
ATOM      5  C   UNL     1       7.975  -1.075  40.297  1.00  0.00     0.022 A 
ATOM      6  C   UNL     1       7.260  -0.604  39.181  1.00  0.00     0.020 A 
ATOM      7  C   UNL     1       8.430  -0.122  41.327  1.00  0.00     0.163 C 
ATOM      8  O   UNL     1       8.276   1.120  41.167  1.00  0.00    -0.294 OA
ATOM      9  C   UNL     1       9.021  -0.619  42.600  1.00  0.00     0.086 C 
ATOM     10  C   UNL     1       9.862  -1.902  42.392  1.00  0.00     0.013 C 
ATOM     11  C   UNL     1       9.044  -3.023  41.622  1.00  0.00    -0.003 C 
ATOM     12  C   UNL     1      10.008  -4.156  41.124  1.00  0.00     0.012 C 
ATOM     13  C   UNL     1      11.259  -4.288  41.984  1.00  0.00     0.001 C 
ATOM     14  C   UNL     1      12.131  -3.027  41.886  1.00  0.00     0.007 C 
ATOM     15  C   UNL     1      11.330  -1.676  41.838  1.00  0.00    -0.031 C 
ATOM     16  C   UNL     1      12.100  -0.654  42.716  1.00  0.00     0.011 C 
ATOM     17  C   UNL     1      11.334  -1.124  40.389  1.00  0.00     0.011 C 
ATOM     18  C   UNL     1       8.015  -3.652  42.595  1.00  0.00     0.017 C 
ENDROOT
BRANCH   1  19
ATOM     19  C   UNL     1       6.018  -0.907  37.007  1.00  0.00     0.017 C 
ATOM     20  C   UNL     1       6.816  -1.056  35.706  1.00  0.00     0.012 C 
ATOM     21  C   UNL     1       5.596   0.548  37.246  1.00  0.00     0.012 C 
ENDBRANCH   1  19
BRANCH   2  22
ATOM     22  O   UNL     1       6.488  -3.776  37.432  1.00  0.00    -0.508 OA
ATOM     23  H   UNL     1       6.645  -3.663  36.437  1.00  0.00     0.293 HD
ENDBRANCH   2  22
TORSDOF 2
ENDMDL
MODEL 2
REMARK VINA RESULT:    -6.397      2.850      5.568
REMARK INTER + INTRA:          -7.100
REMARK INTER:                  -6.837
REMARK INTRA:                  -0.263
REMARK UNBOUND:                -0.142
REMARK SMILES CC(C)c1cc2c(cc1O)[C@@]1(C)CCCC(C)(C)[C@H]1CC2=O
REMARK SMILES IDX 4 1 9 2 8 3 7 4 6 5 5 6 21 7 22 8 20 9 19 10 11 11 13 12
REMARK SMILES IDX 14 13 15 14 16 15 17 16 18 17 12 18 2 19 1 20 3 21 10 22
REMARK H PARENT 10 23
REMARK Flexibility Score: inf
ROOT
ATOM      1  C   UNL     1       8.286  -6.382  42.234  1.00  0.00    -0.003 A 
ATOM      2  C   UNL     1       7.483  -5.257  42.510  1.00  0.00     0.119 A 
ATOM      3  C   UNL     1       7.814  -4.010  41.971  1.00  0.00     0.051 A 
ATOM      4  C   UNL     1       8.958  -3.834  41.163  1.00  0.00    -0.027 A 
ATOM      5  C   UNL     1       9.724  -4.977  40.832  1.00  0.00     0.022 A 
ATOM      6  C   UNL     1       9.393  -6.227  41.385  1.00  0.00     0.020 A 
ATOM      7  C   UNL     1      10.868  -4.869  39.907  1.00  0.00     0.163 C 
ATOM      8  O   UNL     1      11.614  -5.863  39.688  1.00  0.00    -0.294 OA
ATOM      9  C   UNL     1      11.121  -3.600  39.171  1.00  0.00     0.086 C 
ATOM     10  C   UNL     1      10.766  -2.353  40.017  1.00  0.00     0.013 C 
ATOM     11  C   UNL     1       9.291  -2.437  40.598  1.00  0.00    -0.003 C 
ATOM     12  C   UNL     1       9.084  -1.355  41.714  1.00  0.00     0.012 C 
ATOM     13  C   UNL     1       9.988  -0.141  41.537  1.00  0.00     0.001 C 
ATOM     14  C   UNL     1      11.466  -0.525  41.702  1.00  0.00     0.007 C 
ATOM     15  C   UNL     1      11.857  -1.914  41.079  1.00  0.00    -0.031 C 
ATOM     16  C   UNL     1      13.244  -1.741  40.406  1.00  0.00     0.011 C 
ATOM     17  C   UNL     1      12.029  -2.957  42.213  1.00  0.00     0.011 C 
ATOM     18  C   UNL     1       8.283  -2.157  39.455  1.00  0.00     0.017 C 
ENDROOT
BRANCH   1  19
ATOM     19  C   UNL     1       7.989  -7.759  42.814  1.00  0.00     0.017 C 
ATOM     20  C   UNL     1       8.934  -8.106  43.971  1.00  0.00     0.012 C 
ATOM     21  C   UNL     1       7.999  -8.847  41.733  1.00  0.00     0.012 C 
ENDBRANCH   1  19
BRANCH   2  22
ATOM     22  O   UNL     1       6.354  -5.371  43.322  1.00  0.00    -0.508 OA
ATOM     23  H   UNL     1       6.152  -6.219  43.840  1.00  0.00     0.293 HD
ENDBRANCH   2  22
TORSDOF 2
ENDMDL
MODEL 3
REMARK VINA RESULT:    -5.905     12.584     15.750
REMARK INTER + INTRA:          -6.565
REMARK INTER:                  -6.307
REMARK INTRA:                  -0.257
REMARK UNBOUND:                -0.142
REMARK SMILES CC(C)c1cc2c(cc1O)[C@@]1(C)CCCC(C)(C)[C@H]1CC2=O
REMARK SMILES IDX 4 1 9 2 8 3 7 4 6 5 5 6 21 7 22 8 20 9 19 10 11 11 13 12
REMARK SMILES IDX 14 13 15 14 16 15 17 16 18 17 12 18 2 19 1 20 3 21 10 22
REMARK H PARENT 10 23
REMARK Flexibility Score: inf
ROOT
ATOM      1  C   UNL     1      18.436  -9.802  42.129  1.00  0.00    -0.003 A 
ATOM      2  C   UNL     1      18.011 -10.103  43.439  1.00  0.00     0.119 A 
ATOM      3  C   UNL     1      18.849 -10.819  44.301  1.00  0.00     0.051 A 
ATOM      4  C   UNL     1      20.119 -11.275  43.887  1.00  0.00    -0.027 A 
ATOM      5  C   UNL     1      20.570 -10.913  42.595  1.00  0.00     0.022 A 
ATOM      6  C   UNL     1      19.720 -10.202  41.729  1.00  0.00     0.020 A 
ATOM      7  C   UNL     1      21.930 -11.273  42.150  1.00  0.00     0.163 C 
ATOM      8  O   UNL     1      22.301 -11.041  40.966  1.00  0.00    -0.294 OA
ATOM      9  C   UNL     1      22.905 -11.857  43.111  1.00  0.00     0.086 C 
ATOM     10  C   UNL     1      22.222 -12.788  44.142  1.00  0.00     0.013 C 
ATOM     11  C   UNL     1      21.006 -12.070  44.868  1.00  0.00    -0.003 C 
ATOM     12  C   UNL     1      20.131 -13.122  45.634  1.00  0.00     0.012 C 
ATOM     13  C   UNL     1      20.922 -14.353  46.058  1.00  0.00     0.001 C 
ATOM     14  C   UNL     1      21.414 -15.141  44.836  1.00  0.00     0.007 C 
ATOM     15  C   UNL     1      21.897 -14.253  43.632  1.00  0.00    -0.031 C 
ATOM     16  C   UNL     1      23.165 -14.927  43.045  1.00  0.00     0.011 C 
ATOM     17  C   UNL     1      20.820 -14.264  42.518  1.00  0.00     0.011 C 
ATOM     18  C   UNL     1      21.564 -11.056  45.899  1.00  0.00     0.017 C 
ENDROOT
BRANCH   1  19
ATOM     19  C   UNL     1      17.557  -9.049  41.139  1.00  0.00     0.017 C 
ATOM     20  C   UNL     1      17.777  -9.532  39.700  1.00  0.00     0.012 C 
ATOM     21  C   UNL     1      17.736  -7.530  41.257  1.00  0.00     0.012 C 
ENDBRANCH   1  19
BRANCH   2  22
ATOM     22  O   UNL     1      16.756  -9.696  43.891  1.00  0.00    -0.508 OA
ATOM     23  H   UNL     1      15.901 -10.119  43.547  1.00  0.00     0.293 HD
ENDBRANCH   2  22
TORSDOF 2
ENDMDL
MODEL 4
REMARK VINA RESULT:    -5.846     13.223     16.512
REMARK INTER + INTRA:          -6.501
REMARK INTER:                  -6.266
REMARK INTRA:                  -0.234
REMARK UNBOUND:                -0.142
REMARK SMILES CC(C)c1cc2c(cc1O)[C@@]1(C)CCCC(C)(C)[C@H]1CC2=O
REMARK SMILES IDX 4 1 9 2 8 3 7 4 6 5 5 6 21 7 22 8 20 9 19 10 11 11 13 12
REMARK SMILES IDX 14 13 15 14 16 15 17 16 18 17 12 18 2 19 1 20 3 21 10 22
REMARK H PARENT 10 23
REMARK Flexibility Score: inf
ROOT
ATOM      1  C   UNL     1      18.157 -11.370  42.771  1.00  0.00    -0.003 A 
ATOM      2  C   UNL     1      18.347 -10.589  43.929  1.00  0.00     0.119 A 
ATOM      3  C   UNL     1      19.568 -10.630  44.610  1.00  0.00     0.051 A 
ATOM      4  C   UNL     1      20.627 -11.457  44.180  1.00  0.00    -0.027 A 
ATOM      5  C   UNL     1      20.458 -12.189  42.980  1.00  0.00     0.022 A 
ATOM      6  C   UNL     1      19.225 -12.152  42.304  1.00  0.00     0.020 A 
ATOM      7  C   UNL     1      21.568 -12.987  42.427  1.00  0.00     0.163 C 
ATOM      8  O   UNL     1      21.392 -13.719  41.414  1.00  0.00    -0.294 OA
ATOM      9  C   UNL     1      22.930 -12.891  43.022  1.00  0.00     0.086 C 
ATOM     10  C   UNL     1      22.885 -12.697  44.556  1.00  0.00     0.013 C 
ATOM     11  C   UNL     1      21.954 -11.478  44.967  1.00  0.00    -0.003 C 
ATOM     12  C   UNL     1      21.652 -11.519  46.506  1.00  0.00     0.012 C 
ATOM     13  C   UNL     1      22.747 -12.215  47.305  1.00  0.00     0.001 C 
ATOM     14  C   UNL     1      22.840 -13.702  46.935  1.00  0.00     0.007 C 
ATOM     15  C   UNL     1      22.644 -14.012  45.407  1.00  0.00    -0.031 C 
ATOM     16  C   UNL     1      23.670 -15.112  45.026  1.00  0.00     0.011 C 
ATOM     17  C   UNL     1      21.232 -14.610  45.179  1.00  0.00     0.011 C 
ATOM     18  C   UNL     1      22.691 -10.153  44.651  1.00  0.00     0.017 C 
ENDROOT
BRANCH   1  19
ATOM     19  C   UNL     1      16.841 -11.386  42.005  1.00  0.00     0.017 C 
ATOM     20  C   UNL     1      16.625 -12.715  41.270  1.00  0.00     0.012 C 
ATOM     21  C   UNL     1      16.722 -10.190  41.052  1.00  0.00     0.012 C 
ENDBRANCH   1  19
BRANCH   2  22
ATOM     22  O   UNL     1      17.325  -9.772  44.411  1.00  0.00    -0.508 OA
ATOM     23  H   UNL     1      16.818  -9.136  43.805  1.00  0.00     0.293 HD
ENDBRANCH   2  22
TORSDOF 2
ENDMDL
MODEL 5
REMARK VINA RESULT:    -5.744     11.012     13.280
REMARK INTER + INTRA:          -6.390
REMARK INTER:                  -6.146
REMARK INTRA:                  -0.243
REMARK UNBOUND:                -0.142
REMARK SMILES CC(C)c1cc2c(cc1O)[C@@]1(C)CCCC(C)(C)[C@H]1CC2=O
REMARK SMILES IDX 4 1 9 2 8 3 7 4 6 5 5 6 21 7 22 8 20 9 19 10 11 11 13 12
REMARK SMILES IDX 14 13 15 14 16 15 17 16 18 17 12 18 2 19 1 20 3 21 10 22
REMARK H PARENT 10 23
REMARK Flexibility Score: inf
ROOT
ATOM      1  C   UNL     1       6.584 -11.635  42.236  1.00  0.00    -0.003 A 
ATOM      2  C   UNL     1       5.737 -11.955  41.157  1.00  0.00     0.119 A 
ATOM      3  C   UNL     1       5.635 -13.279  40.714  1.00  0.00     0.051 A 
ATOM      4  C   UNL     1       6.382 -14.317  41.310  1.00  0.00    -0.027 A 
ATOM      5  C   UNL     1       7.181 -14.004  42.436  1.00  0.00     0.022 A 
ATOM      6  C   UNL     1       7.287 -12.671  42.871  1.00  0.00     0.020 A 
ATOM      7  C   UNL     1       7.901 -15.068  43.161  1.00  0.00     0.163 C 
ATOM      8  O   UNL     1       8.691 -14.782  44.102  1.00  0.00    -0.294 OA
ATOM      9  C   UNL     1       7.654 -16.499  42.834  1.00  0.00     0.086 C 
ATOM     10  C   UNL     1       7.393 -16.716  41.323  1.00  0.00     0.013 C 
ATOM     11  C   UNL     1       6.246 -15.760  40.782  1.00  0.00    -0.003 C 
ATOM     12  C   UNL     1       6.242 -15.749  39.214  1.00  0.00     0.012 C 
ATOM     13  C   UNL     1       6.798 -17.034  38.612  1.00  0.00     0.001 C 
ATOM     14  C   UNL     1       8.286 -17.203  38.950  1.00  0.00     0.007 C 
ATOM     15  C   UNL     1       8.684 -16.763  40.405  1.00  0.00    -0.031 C 
ATOM     16  C   UNL     1       9.702 -17.805  40.938  1.00  0.00     0.011 C 
ATOM     17  C   UNL     1       9.417 -15.398  40.349  1.00  0.00     0.011 C 
ATOM     18  C   UNL     1       4.875 -16.295  41.269  1.00  0.00     0.017 C 
ENDROOT
BRANCH   1  19
ATOM     19  C   UNL     1       6.756 -10.209  42.744  1.00  0.00     0.017 C 
ATOM     20  C   UNL     1       7.751  -9.415  41.889  1.00  0.00     0.012 C 
ATOM     21  C   UNL     1       7.137 -10.175  44.229  1.00  0.00     0.012 C 
ENDBRANCH   1  19
BRANCH   2  22
ATOM     22  O   UNL     1       4.993 -10.963  40.517  1.00  0.00    -0.508 OA
ATOM     23  H   UNL     1       5.109 -10.761  39.531  1.00  0.00     0.293 HD
ENDBRANCH   2  22
TORSDOF 2
ENDMDL
MODEL 6
REMARK VINA RESULT:    -5.725     17.421     20.243
REMARK INTER + INTRA:          -6.369
REMARK INTER:                  -6.103
REMARK INTRA:                  -0.265
REMARK UNBOUND:                -0.142
REMARK SMILES CC(C)c1cc2c(cc1O)[C@@]1(C)CCCC(C)(C)[C@H]1CC2=O
REMARK SMILES IDX 4 1 9 2 8 3 7 4 6 5 5 6 21 7 22 8 20 9 19 10 11 11 13 12
REMARK SMILES IDX 14 13 15 14 16 15 17 16 18 17 12 18 2 19 1 20 3 21 10 22
REMARK H PARENT 10 23
REMARK Flexibility Score: inf
ROOT
ATOM      1  C   UNL     1      23.507 -16.626  45.288  1.00  0.00    -0.003 A 
ATOM      2  C   UNL     1      24.050 -16.115  46.484  1.00  0.00     0.119 A 
ATOM      3  C   UNL     1      23.961 -14.747  46.766  1.00  0.00     0.051 A 
ATOM      4  C   UNL     1      23.355 -13.845  45.865  1.00  0.00    -0.027 A 
ATOM      5  C   UNL     1      22.751 -14.371  44.698  1.00  0.00     0.022 A 
ATOM      6  C   UNL     1      22.852 -15.745  44.415  1.00  0.00     0.020 A 
ATOM      7  C   UNL     1      22.013 -13.488  43.775  1.00  0.00     0.163 C 
ATOM      8  O   UNL     1      21.560 -13.933  42.684  1.00  0.00    -0.294 OA
ATOM      9  C   UNL     1      21.737 -12.073  44.149  1.00  0.00     0.086 C 
ATOM     10  C   UNL     1      22.896 -11.447  44.961  1.00  0.00     0.013 C 
ATOM     11  C   UNL     1      23.288 -12.343  46.212  1.00  0.00    -0.003 C 
ATOM     12  C   UNL     1      24.664 -11.878  46.804  1.00  0.00     0.012 C 
ATOM     13  C   UNL     1      24.958 -10.407  46.535  1.00  0.00     0.001 C 
ATOM     14  C   UNL     1      25.125 -10.144  45.032  1.00  0.00     0.007 C 
ATOM     15  C   UNL     1      24.136 -10.946  44.110  1.00  0.00    -0.031 C 
ATOM     16  C   UNL     1      23.677  -9.984  42.982  1.00  0.00     0.011 C 
ATOM     17  C   UNL     1      24.895 -12.114  43.431  1.00  0.00     0.011 C 
ATOM     18  C   UNL     1      22.205 -12.177  47.308  1.00  0.00     0.017 C 
ENDROOT
BRANCH   1  19
ATOM     19  C   UNL     1      23.597 -18.101  44.917  1.00  0.00     0.017 C 
ATOM     20  C   UNL     1      24.738 -18.371  43.928  1.00  0.00     0.012 C 
ATOM     21  C   UNL     1      22.259 -18.640  44.395  1.00  0.00     0.012 C 
ENDBRANCH   1  19
BRANCH   2  22
ATOM     22  O   UNL     1      24.681 -16.959  47.398  1.00  0.00    -0.508 OA
ATOM     23  H   UNL     1      24.861 -16.673  48.353  1.00  0.00     0.293 HD
ENDBRANCH   2  22
TORSDOF 2
ENDMDL
MODEL 7
REMARK VINA RESULT:    -5.653     10.569     12.873
REMARK INTER + INTRA:          -6.291
REMARK INTER:                  -6.076
REMARK INTRA:                  -0.215
REMARK UNBOUND:                -0.142
REMARK SMILES CC(C)c1cc2c(cc1O)[C@@]1(C)CCCC(C)(C)[C@H]1CC2=O
REMARK SMILES IDX 4 1 9 2 8 3 7 4 6 5 5 6 21 7 22 8 20 9 19 10 11 11 13 12
REMARK SMILES IDX 14 13 15 14 16 15 17 16 18 17 12 18 2 19 1 20 3 21 10 22
REMARK H PARENT 10 23
REMARK Flexibility Score: inf
ROOT
ATOM      1  C   UNL     1       7.194 -11.868  41.214  1.00  0.00    -0.003 A 
ATOM      2  C   UNL     1       7.317 -12.068  39.824  1.00  0.00     0.119 A 
ATOM      3  C   UNL     1       7.859 -13.261  39.332  1.00  0.00     0.051 A 
ATOM      4  C   UNL     1       8.315 -14.277  40.198  1.00  0.00    -0.027 A 
ATOM      5  C   UNL     1       8.129 -14.103  41.590  1.00  0.00     0.022 A 
ATOM      6  C   UNL     1       7.592 -12.898  42.080  1.00  0.00     0.020 A 
ATOM      7  C   UNL     1       8.490 -15.177  42.535  1.00  0.00     0.163 C 
ATOM      8  O   UNL     1       8.420 -14.989  43.780  1.00  0.00    -0.294 OA
ATOM      9  C   UNL     1       8.882 -16.521  42.027  1.00  0.00     0.086 C 
ATOM     10  C   UNL     1       9.679 -16.436  40.703  1.00  0.00     0.013 C 
ATOM     11  C   UNL     1       8.916 -15.572  39.612  1.00  0.00    -0.003 C 
ATOM     12  C   UNL     1       9.880 -15.216  38.428  1.00  0.00     0.012 C 
ATOM     13  C   UNL     1      10.999 -16.235  38.248  1.00  0.00     0.001 C 
ATOM     14  C   UNL     1      11.937 -16.244  39.464  1.00  0.00     0.007 C 
ATOM     15  C   UNL     1      11.217 -16.080  40.851  1.00  0.00    -0.031 C 
ATOM     16  C   UNL     1      11.913 -17.045  41.847  1.00  0.00     0.011 C 
ATOM     17  C   UNL     1      11.440 -14.641  41.382  1.00  0.00     0.011 C 
ATOM     18  C   UNL     1       7.737 -16.405  39.046  1.00  0.00     0.017 C 
ENDROOT
BRANCH   1  19
ATOM     19  C   UNL     1       6.636 -10.581  41.807  1.00  0.00     0.017 C 
ATOM     20  C   UNL     1       7.664  -9.443  41.769  1.00  0.00     0.012 C 
ATOM     21  C   UNL     1       6.087 -10.797  43.222  1.00  0.00     0.012 C 
ENDBRANCH   1  19
BRANCH   2  22
ATOM     22  O   UNL     1       6.903 -11.086  38.925  1.00  0.00    -0.508 OA
ATOM     23  H   UNL     1       6.969 -11.217  37.922  1.00  0.00     0.293 HD
ENDBRANCH   2  22
TORSDOF 2
ENDMDL
MODEL 8
REMARK VINA RESULT:    -5.536     16.966     19.477
REMARK INTER + INTRA:          -6.163
REMARK INTER:                  -5.908
REMARK INTRA:                  -0.256
REMARK UNBOUND:                -0.142
REMARK SMILES CC(C)c1cc2c(cc1O)[C@@]1(C)CCCC(C)(C)[C@H]1CC2=O
REMARK SMILES IDX 4 1 9 2 8 3 7 4 6 5 5 6 21 7 22 8 20 9 19 10 11 11 13 12
REMARK SMILES IDX 14 13 15 14 16 15 17 16 18 17 12 18 2 19 1 20 3 21 10 22
REMARK H PARENT 10 23
REMARK Flexibility Score: inf
ROOT
ATOM      1  C   UNL     1      23.157 -12.141  46.450  1.00  0.00    -0.003 A 
ATOM      2  C   UNL     1      21.848 -11.733  46.123  1.00  0.00     0.119 A 
ATOM      3  C   UNL     1      20.993 -12.602  45.439  1.00  0.00     0.051 A 
ATOM      4  C   UNL     1      21.413 -13.889  45.039  1.00  0.00    -0.027 A 
ATOM      5  C   UNL     1      22.703 -14.321  45.427  1.00  0.00     0.022 A 
ATOM      6  C   UNL     1      23.563 -13.440  46.106  1.00  0.00     0.020 A 
ATOM      7  C   UNL     1      23.155 -15.693  45.127  1.00  0.00     0.163 C 
ATOM      8  O   UNL     1      24.338 -16.051  45.381  1.00  0.00    -0.294 OA
ATOM      9  C   UNL     1      22.199 -16.695  44.578  1.00  0.00     0.086 C 
ATOM     10  C   UNL     1      21.172 -16.054  43.613  1.00  0.00     0.013 C 
ATOM     11  C   UNL     1      20.439 -14.811  44.276  1.00  0.00    -0.003 C 
ATOM     12  C   UNL     1      19.676 -13.983  43.183  1.00  0.00     0.012 C 
ATOM     13  C   UNL     1      19.262 -14.827  41.984  1.00  0.00     0.001 C 
ATOM     14  C   UNL     1      20.491 -15.347  41.224  1.00  0.00     0.007 C 
ATOM     15  C   UNL     1      21.690 -15.789  42.139  1.00  0.00    -0.031 C 
ATOM     16  C   UNL     1      22.285 -17.083  41.522  1.00  0.00     0.011 C 
ATOM     17  C   UNL     1      22.801 -14.710  42.089  1.00  0.00     0.011 C 
ATOM     18  C   UNL     1      19.403 -15.329  45.305  1.00  0.00     0.017 C 
ENDROOT
BRANCH   1  19
ATOM     19  C   UNL     1      24.140 -11.228  47.171  1.00  0.00     0.017 C 
ATOM     20  C   UNL     1      24.873 -10.296  46.197  1.00  0.00     0.012 C 
ATOM     21  C   UNL     1      25.124 -12.022  48.039  1.00  0.00     0.012 C 
ENDBRANCH   1  19
BRANCH   2  22
ATOM     22  O   UNL     1      21.391 -10.463  46.475  1.00  0.00    -0.508 OA
ATOM     23  H   UNL     1      21.867  -9.895  47.166  1.00  0.00     0.293 HD
ENDBRANCH   2  22
TORSDOF 2
ENDMDL
MODEL 9
REMARK VINA RESULT:    -5.513     16.747     19.138
REMARK INTER + INTRA:          -6.138
REMARK INTER:                  -5.900
REMARK INTRA:                  -0.238
REMARK UNBOUND:                -0.142
REMARK SMILES CC(C)c1cc2c(cc1O)[C@@]1(C)CCCC(C)(C)[C@H]1CC2=O
REMARK SMILES IDX 4 1 9 2 8 3 7 4 6 5 5 6 21 7 22 8 20 9 19 10 11 11 13 12
REMARK SMILES IDX 14 13 15 14 16 15 17 16 18 17 12 18 2 19 1 20 3 21 10 22
REMARK H PARENT 10 23
REMARK Flexibility Score: inf
ROOT
ATOM      1  C   UNL     1      20.700 -16.728  43.379  1.00  0.00    -0.003 A 
ATOM      2  C   UNL     1      19.704 -15.732  43.402  1.00  0.00     0.119 A 
ATOM      3  C   UNL     1      20.048 -14.401  43.661  1.00  0.00     0.051 A 
ATOM      4  C   UNL     1      21.381 -14.021  43.925  1.00  0.00    -0.027 A 
ATOM      5  C   UNL     1      22.389 -15.011  43.835  1.00  0.00     0.022 A 
ATOM      6  C   UNL     1      22.036 -16.349  43.584  1.00  0.00     0.020 A 
ATOM      7  C   UNL     1      23.810 -14.649  43.997  1.00  0.00     0.163 C 
ATOM      8  O   UNL     1      24.702 -15.542  44.018  1.00  0.00    -0.294 OA
ATOM      9  C   UNL     1      24.216 -13.219  44.077  1.00  0.00     0.086 C 
ATOM     10  C   UNL     1      23.170 -12.355  44.821  1.00  0.00     0.013 C 
ATOM     11  C   UNL     1      21.714 -12.542  44.215  1.00  0.00    -0.003 C 
ATOM     12  C   UNL     1      20.639 -11.942  45.186  1.00  0.00     0.012 C 
ATOM     13  C   UNL     1      21.189 -10.818  46.056  1.00  0.00     0.001 C 
ATOM     14  C   UNL     1      22.265 -11.342  47.019  1.00  0.00     0.007 C 
ATOM     15  C   UNL     1      23.226 -12.424  46.404  1.00  0.00    -0.031 C 
ATOM     16  C   UNL     1      24.656 -12.114  46.919  1.00  0.00     0.011 C 
ATOM     17  C   UNL     1      22.841 -13.824  46.946  1.00  0.00     0.011 C 
ATOM     18  C   UNL     1      21.630 -11.784  42.866  1.00  0.00     0.017 C 
ENDROOT
BRANCH   1  19
ATOM     19  C   UNL     1      20.381 -18.196  43.129  1.00  0.00     0.017 C 
ATOM     20  C   UNL     1      21.392 -19.124  43.814  1.00  0.00     0.012 C 
ATOM     21  C   UNL     1      20.257 -18.506  41.632  1.00  0.00     0.012 C 
ENDBRANCH   1  19
BRANCH   2  22
ATOM     22  O   UNL     1      18.367 -16.058  43.171  1.00  0.00    -0.508 OA
ATOM     23  H   UNL     1      17.623 -15.380  43.290  1.00  0.00     0.293 HD
ENDBRANCH   2  22
TORSDOF 2
ENDMDL
