MODEL 1
REMARK VINA RESULT:    -4.925      0.000      0.000
REMARK INTER + INTRA:          -6.878
REMARK INTER:                  -6.509
REMARK INTRA:                  -0.370
REMARK UNBOUND:                -0.370
REMARK SMILES CCCCC=CC=CCO
REMARK SMILES IDX 5 1 6 2 4 3 3 4 2 5 1 6 7 7 8 8 9 9 10 10
REMARK H PARENT 10 11
REMARK Flexibility Score: inf
ROOT
ATOM      1  C   UNL     1      11.655  -4.777  15.966  1.00  0.00    -0.027 C 
ATOM      2  C   UNL     1      10.989  -3.714  15.504  1.00  0.00    -0.005 C 
ENDROOT
BRANCH   1   3
ATOM      3  C   UNL     1      11.258  -5.459  17.243  1.00  0.00     0.027 C 
BRANCH   3   4
ATOM      4  C   UNL     1      12.271  -5.179  18.360  1.00  0.00     0.004 C 
BRANCH   4   5
ATOM      5  C   UNL     1      13.566  -4.589  17.791  1.00  0.00    -0.003 C 
ATOM      6  C   UNL     1      13.837  -3.200  18.362  1.00  0.00     0.004 C 
ENDBRANCH   4   5
ENDBRANCH   3   4
ENDBRANCH   1   3
BRANCH   2   7
ATOM      7  C   UNL     1      11.381  -3.064  14.242  1.00  0.00    -0.002 C 
ATOM      8  C   UNL     1      12.657  -3.028  13.855  1.00  0.00     0.001 C 
BRANCH   8   9
ATOM      9  C   UNL     1      13.065  -2.379  12.567  1.00  0.00     0.183 C 
BRANCH   9  10
ATOM     10  O   UNL     1      13.873  -1.262  12.818  1.00  0.00    -0.392 OA
ATOM     11  H   UNL     1      14.386  -1.085  11.987  1.00  0.00     0.210 HD
ENDBRANCH   9  10
ENDBRANCH   8   9
ENDBRANCH   2   7
TORSDOF 6
ENDMDL
MODEL 2
REMARK VINA RESULT:    -4.701      1.632      2.342
REMARK INTER + INTRA:          -6.582
REMARK INTER:                  -6.292
REMARK INTRA:                  -0.290
REMARK UNBOUND:                -0.370
REMARK SMILES CCCCC=CC=CCO
REMARK SMILES IDX 5 1 6 2 4 3 3 4 2 5 1 6 7 7 8 8 9 9 10 10
REMARK H PARENT 10 11
REMARK Flexibility Score: inf
ROOT
ATOM      1  C   UNL     1      13.355  -3.195  17.383  1.00  0.00    -0.027 C 
ATOM      2  C   UNL     1      13.162  -4.021  16.350  1.00  0.00    -0.005 C 
ENDROOT
BRANCH   1   3
ATOM      3  C   UNL     1      13.080  -3.625  18.795  1.00  0.00     0.027 C 
BRANCH   3   4
ATOM      4  C   UNL     1      11.998  -4.711  18.844  1.00  0.00     0.004 C 
BRANCH   4   5
ATOM      5  C   UNL     1      11.197  -4.629  20.148  1.00  0.00    -0.003 C 
ATOM      6  C   UNL     1      11.695  -3.489  21.031  1.00  0.00     0.004 C 
ENDBRANCH   4   5
ENDBRANCH   3   4
ENDBRANCH   1   3
BRANCH   2   7
ATOM      7  C   UNL     1      13.450  -3.592  14.972  1.00  0.00    -0.002 C 
ATOM      8  C   UNL     1      13.531  -2.297  14.658  1.00  0.00     0.001 C 
BRANCH   8   9
ATOM      9  C   UNL     1      13.835  -1.850  13.260  1.00  0.00     0.183 C 
BRANCH   9  10
ATOM     10  O   UNL     1      14.359  -0.550  13.268  1.00  0.00    -0.392 OA
ATOM     11  H   UNL     1      14.245  -0.189  12.350  1.00  0.00     0.210 HD
ENDBRANCH   9  10
ENDBRANCH   8   9
ENDBRANCH   2   7
TORSDOF 6
ENDMDL
MODEL 3
REMARK VINA RESULT:    -4.378      3.056      5.531
REMARK INTER + INTRA:          -6.155
REMARK INTER:                  -5.817
REMARK INTRA:                  -0.338
REMARK UNBOUND:                -0.370
REMARK SMILES CCCCC=CC=CCO
REMARK SMILES IDX 5 1 6 2 4 3 3 4 2 5 1 6 7 7 8 8 9 9 10 10
REMARK H PARENT 10 11
REMARK Flexibility Score: inf
ROOT
ATOM      1  C   UNL     1      13.595  -2.290  16.388  1.00  0.00    -0.027 C 
ATOM      2  C   UNL     1      13.539  -3.572  16.759  1.00  0.00    -0.005 C 
ENDROOT
BRANCH   1   3
ATOM      3  C   UNL     1      13.928  -1.893  14.979  1.00  0.00     0.027 C 
BRANCH   3   4
ATOM      4  C   UNL     1      13.649  -3.039  13.999  1.00  0.00     0.004 C 
BRANCH   4   5
ATOM      5  C   UNL     1      12.722  -2.581  12.868  1.00  0.00    -0.003 C 
ATOM      6  C   UNL     1      11.299  -2.363  13.375  1.00  0.00     0.004 C 
ENDBRANCH   4   5
ENDBRANCH   3   4
ENDBRANCH   1   3
BRANCH   2   7
ATOM      7  C   UNL     1      13.197  -3.947  18.141  1.00  0.00    -0.002 C 
ATOM      8  C   UNL     1      11.946  -4.265  18.478  1.00  0.00     0.001 C 
BRANCH   8   9
ATOM      9  C   UNL     1      11.590  -4.659  19.879  1.00  0.00     0.183 C 
BRANCH   9  10
ATOM     10  O   UNL     1      11.704  -3.558  20.739  1.00  0.00    -0.392 OA
ATOM     11  H   UNL     1      10.895  -3.558  21.315  1.00  0.00     0.210 HD
ENDBRANCH   9  10
ENDBRANCH   8   9
ENDBRANCH   2   7
TORSDOF 6
ENDMDL
MODEL 4
REMARK VINA RESULT:    -4.208      2.195      4.881
REMARK INTER + INTRA:          -5.931
REMARK INTER:                  -5.568
REMARK INTRA:                  -0.362
REMARK UNBOUND:                -0.370
REMARK SMILES CCCCC=CC=CCO
REMARK SMILES IDX 5 1 6 2 4 3 3 4 2 5 1 6 7 7 8 8 9 9 10 10
REMARK H PARENT 10 11
REMARK Flexibility Score: inf
ROOT
ATOM      1  C   UNL     1      11.307  -2.621  14.096  1.00  0.00    -0.027 C 
ATOM      2  C   UNL     1      11.249  -3.780  14.758  1.00  0.00    -0.005 C 
ENDROOT
BRANCH   1   3
ATOM      3  C   UNL     1      11.045  -2.546  12.619  1.00  0.00     0.027 C 
BRANCH   3   4
ATOM      4  C   UNL     1      12.347  -2.658  11.818  1.00  0.00     0.004 C 
BRANCH   4   5
ATOM      5  C   UNL     1      13.511  -2.001  12.567  1.00  0.00    -0.003 C 
ATOM      6  C   UNL     1      14.653  -2.989  12.790  1.00  0.00     0.004 C 
ENDBRANCH   4   5
ENDBRANCH   3   4
ENDBRANCH   1   3
BRANCH   2   7
ATOM      7  C   UNL     1      11.494  -3.837  16.209  1.00  0.00    -0.002 C 
ATOM      8  C   UNL     1      12.708  -4.112  16.691  1.00  0.00     0.001 C 
BRANCH   8   9
ATOM      9  C   UNL     1      12.971  -4.161  18.165  1.00  0.00     0.183 C 
BRANCH   9  10
ATOM     10  O   UNL     1      13.906  -3.182  18.527  1.00  0.00    -0.392 OA
ATOM     11  H   UNL     1      14.576  -3.140  17.796  1.00  0.00     0.210 HD
ENDBRANCH   9  10
ENDBRANCH   8   9
ENDBRANCH   2   7
TORSDOF 6
ENDMDL
MODEL 5
REMARK VINA RESULT:    -4.180      1.634      2.513
REMARK INTER + INTRA:          -5.894
REMARK INTER:                  -5.692
REMARK INTRA:                  -0.202
REMARK UNBOUND:                -0.370
REMARK SMILES CCCCC=CC=CCO
REMARK SMILES IDX 5 1 6 2 4 3 3 4 2 5 1 6 7 7 8 8 9 9 10 10
REMARK H PARENT 10 11
REMARK Flexibility Score: inf
ROOT
ATOM      1  C   UNL     1      13.514  -3.104  17.033  1.00  0.00    -0.027 C 
ATOM      2  C   UNL     1      13.189  -3.968  16.068  1.00  0.00    -0.005 C 
ENDROOT
BRANCH   1   3
ATOM      3  C   UNL     1      13.486  -3.497  18.482  1.00  0.00     0.027 C 
BRANCH   3   4
ATOM      4  C   UNL     1      12.086  -3.957  18.905  1.00  0.00     0.004 C 
BRANCH   4   5
ATOM      5  C   UNL     1      12.051  -5.472  19.133  1.00  0.00    -0.003 C 
ATOM      6  C   UNL     1      11.313  -5.820  20.422  1.00  0.00     0.004 C 
ENDBRANCH   4   5
ENDBRANCH   3   4
ENDBRANCH   1   3
BRANCH   2   7
ATOM      7  C   UNL     1      13.235  -3.573  14.650  1.00  0.00    -0.002 C 
ATOM      8  C   UNL     1      12.129  -3.200  14.004  1.00  0.00     0.001 C 
BRANCH   8   9
ATOM      9  C   UNL     1      12.167  -2.786  12.564  1.00  0.00     0.183 C 
BRANCH   9  10
ATOM     10  O   UNL     1      10.881  -2.454  12.118  1.00  0.00    -0.392 OA
ATOM     11  H   UNL     1      10.447  -1.940  12.849  1.00  0.00     0.210 HD
ENDBRANCH   9  10
ENDBRANCH   8   9
ENDBRANCH   2   7
TORSDOF 6
ENDMDL
MODEL 6
REMARK VINA RESULT:    -4.154      2.971      5.390
REMARK INTER + INTRA:          -5.859
REMARK INTER:                  -5.514
REMARK INTRA:                  -0.345
REMARK UNBOUND:                -0.370
REMARK SMILES CCCCC=CC=CCO
REMARK SMILES IDX 5 1 6 2 4 3 3 4 2 5 1 6 7 7 8 8 9 9 10 10
REMARK H PARENT 10 11
REMARK Flexibility Score: inf
ROOT
ATOM      1  C   UNL     1      11.523  -2.979  15.447  1.00  0.00    -0.027 C 
ATOM      2  C   UNL     1      11.107  -4.247  15.392  1.00  0.00    -0.005 C 
ENDROOT
BRANCH   1   3
ATOM      3  C   UNL     1      11.507  -2.093  14.235  1.00  0.00     0.027 C 
BRANCH   3   4
ATOM      4  C   UNL     1      11.095  -2.875  12.981  1.00  0.00     0.004 C 
BRANCH   4   5
ATOM      5  C   UNL     1      12.026  -2.558  11.806  1.00  0.00    -0.003 C 
ATOM      6  C   UNL     1      13.468  -2.388  12.275  1.00  0.00     0.004 C 
ENDBRANCH   4   5
ENDBRANCH   3   4
ENDBRANCH   1   3
BRANCH   2   7
ATOM      7  C   UNL     1      11.113  -5.100  16.592  1.00  0.00    -0.002 C 
ATOM      8  C   UNL     1      12.151  -5.098  17.431  1.00  0.00     0.001 C 
BRANCH   8   9
ATOM      9  C   UNL     1      12.163  -5.954  18.661  1.00  0.00     0.183 C 
BRANCH   9  10
ATOM     10  O   UNL     1      10.876  -6.038  19.210  1.00  0.00    -0.392 OA
ATOM     11  H   UNL     1      10.432  -5.167  19.034  1.00  0.00     0.210 HD
ENDBRANCH   9  10
ENDBRANCH   8   9
ENDBRANCH   2   7
TORSDOF 6
ENDMDL
MODEL 7
REMARK VINA RESULT:    -3.677      1.804      2.598
REMARK INTER + INTRA:          -5.229
REMARK INTER:                  -4.939
REMARK INTRA:                  -0.291
REMARK UNBOUND:                -0.370
REMARK SMILES CCCCC=CC=CCO
REMARK SMILES IDX 5 1 6 2 4 3 3 4 2 5 1 6 7 7 8 8 9 9 10 10
REMARK H PARENT 10 11
REMARK Flexibility Score: inf
ROOT
ATOM      1  C   UNL     1      12.495  -2.955  14.670  1.00  0.00    -0.027 C 
ATOM      2  C   UNL     1      12.509  -2.394  13.457  1.00  0.00    -0.005 C 
ENDROOT
BRANCH   1   3
ATOM      3  C   UNL     1      11.260  -2.949  15.524  1.00  0.00     0.027 C 
BRANCH   3   4
ATOM      4  C   UNL     1      11.362  -3.980  16.654  1.00  0.00     0.004 C 
BRANCH   4   5
ATOM      5  C   UNL     1      12.786  -4.040  17.216  1.00  0.00    -0.003 C 
ATOM      6  C   UNL     1      12.790  -3.864  18.732  1.00  0.00     0.004 C 
ENDBRANCH   4   5
ENDBRANCH   3   4
ENDBRANCH   1   3
BRANCH   2   7
ATOM      7  C   UNL     1      13.723  -2.420  12.624  1.00  0.00    -0.002 C 
ATOM      8  C   UNL     1      14.842  -3.004  13.058  1.00  0.00     0.001 C 
BRANCH   8   9
ATOM      9  C   UNL     1      16.079  -3.047  12.213  1.00  0.00     0.183 C 
BRANCH   9  10
ATOM     10  O   UNL     1      17.178  -2.562  12.934  1.00  0.00    -0.392 OA
ATOM     11  H   UNL     1      17.879  -3.264  12.898  1.00  0.00     0.210 HD
ENDBRANCH   9  10
ENDBRANCH   8   9
ENDBRANCH   2   7
TORSDOF 6
ENDMDL
MODEL 8
REMARK VINA RESULT:    -3.454     14.598     17.197
REMARK INTER + INTRA:          -4.934
REMARK INTER:                  -4.614
REMARK INTRA:                  -0.321
REMARK UNBOUND:                -0.370
REMARK SMILES CCCCC=CC=CCO
REMARK SMILES IDX 5 1 6 2 4 3 3 4 2 5 1 6 7 7 8 8 9 9 10 10
REMARK H PARENT 10 11
REMARK Flexibility Score: inf
ROOT
ATOM      1  C   UNL     1      11.522   7.189   2.334  1.00  0.00    -0.027 C 
ATOM      2  C   UNL     1      12.577   7.055   3.142  1.00  0.00    -0.005 C 
ENDROOT
BRANCH   1   3
ATOM      3  C   UNL     1      10.974   8.540   1.973  1.00  0.00     0.027 C 
BRANCH   3   4
ATOM      4  C   UNL     1      11.978   9.652   2.303  1.00  0.00     0.004 C 
BRANCH   4   5
ATOM      5  C   UNL     1      11.318  10.757   3.134  1.00  0.00    -0.003 C 
ATOM      6  C   UNL     1      12.032  10.945   4.469  1.00  0.00     0.004 C 
ENDBRANCH   4   5
ENDBRANCH   3   4
ENDBRANCH   1   3
BRANCH   2   7
ATOM      7  C   UNL     1      13.112   5.725   3.476  1.00  0.00    -0.002 C 
ATOM      8  C   UNL     1      14.427   5.498   3.492  1.00  0.00     0.001 C 
BRANCH   8   9
ATOM      9  C   UNL     1      14.983   4.150   3.841  1.00  0.00     0.183 C 
BRANCH   9  10
ATOM     10  O   UNL     1      13.944   3.246   4.100  1.00  0.00    -0.392 OA
ATOM     11  H   UNL     1      13.769   3.281   5.077  1.00  0.00     0.210 HD
ENDBRANCH   9  10
ENDBRANCH   8   9
ENDBRANCH   2   7
TORSDOF 6
ENDMDL
MODEL 9
REMARK VINA RESULT:    -3.274     15.129     17.728
REMARK INTER + INTRA:          -4.696
REMARK INTER:                  -4.519
REMARK INTRA:                  -0.177
REMARK UNBOUND:                -0.370
REMARK SMILES CCCCC=CC=CCO
REMARK SMILES IDX 5 1 6 2 4 3 3 4 2 5 1 6 7 7 8 8 9 9 10 10
REMARK H PARENT 10 11
REMARK Flexibility Score: inf
ROOT
ATOM      1  C   UNL     1      12.346   8.603   3.108  1.00  0.00    -0.027 C 
ATOM      2  C   UNL     1      11.487   9.498   2.613  1.00  0.00    -0.005 C 
ENDROOT
BRANCH   1   3
ATOM      3  C   UNL     1      12.472   7.227   2.521  1.00  0.00     0.027 C 
BRANCH   3   4
ATOM      4  C   UNL     1      12.961   6.219   3.568  1.00  0.00     0.004 C 
BRANCH   4   5
ATOM      5  C   UNL     1      14.382   5.742   3.249  1.00  0.00    -0.003 C 
ATOM      6  C   UNL     1      14.700   4.434   3.966  1.00  0.00     0.004 C 
ENDBRANCH   4   5
ENDBRANCH   3   4
ENDBRANCH   1   3
BRANCH   2   7
ATOM      7  C   UNL     1      11.384  10.849   3.190  1.00  0.00    -0.002 C 
ATOM      8  C   UNL     1      12.018  11.164   4.321  1.00  0.00     0.001 C 
BRANCH   8   9
ATOM      9  C   UNL     1      11.929  12.539   4.910  1.00  0.00     0.183 C 
BRANCH   9  10
ATOM     10  O   UNL     1      13.120  12.862   5.576  1.00  0.00    -0.392 OA
ATOM     11  H   UNL     1      13.106  13.843   5.730  1.00  0.00     0.210 HD
ENDBRANCH   9  10
ENDBRANCH   8   9
ENDBRANCH   2   7
TORSDOF 6
ENDMDL
