MODEL 1
REMARK VINA RESULT:    -4.167      0.000      0.000
REMARK INTER + INTRA:          -5.730
REMARK INTER:                  -5.873
REMARK INTRA:                   0.142
REMARK UNBOUND:                 0.142
REMARK SMILES CC1=CCC(=C(C)C)C(=O)CC(C)=CCC1
REMARK SMILES IDX 12 1 14 2 13 3 15 4 16 5 2 6 1 7 3 8 11 10 9 11 10 12 5 13
REMARK SMILES IDX 6 14 7 15 8 16 4 17
REMARK H PARENT
REMARK Flexibility Score: 60.00
ROOT
ATOM      1  C   UNL     1       9.089  21.677  74.362  1.00  0.00    -0.070 C 
ATOM      2  C   UNL     1       8.121  21.012  73.690  1.00  0.00    -0.027 C 
ATOM      3  C   UNL     1      10.257  20.886  74.891  1.00  0.00     0.039 C 
ENDROOT
BRANCH   2   4
ATOM      4  C   UNL     1       6.820  21.616  73.225  1.00  0.00     0.032 C 
BRANCH   4   5
ATOM      5  C   UNL     1       7.056  22.445  71.957  1.00  0.00     0.034 C 
BRANCH   5   6
ATOM      6  C   UNL     1       6.287  23.751  71.968  1.00  0.00    -0.077 C 
ATOM      7  C   UNL     1       4.787  23.705  72.121  1.00  0.00     0.039 C 
ATOM      8  C   UNL     1       6.879  24.971  71.919  1.00  0.00    -0.023 CG0
ATOM      9  G   UNL     1       8.352  25.275  71.709  1.00  0.00     0.000 G0
ENDBRANCH   5   6
ENDBRANCH   4   5
ENDBRANCH   2   4
BRANCH   1  10
ATOM     10  C   UNL     1       9.065  23.176  74.592  1.00  0.00     0.111 C 
BRANCH  10  11
ATOM     11  C   UNL     1       9.704  23.930  73.450  1.00  0.00     0.163 C 
ATOM     12  O   UNL     1      10.680  23.378  72.873  1.00  0.00    -0.294 OA
BRANCH  11  13
ATOM     13  C   UNL     1       9.229  25.267  72.964  1.00  0.00    -0.002 C 
ATOM     14  C   UNL     1       9.704  26.422  73.527  1.00  0.00    -0.069 C 
ATOM     15  C   UNL     1       9.433  27.780  72.919  1.00  0.00     0.039 C 
ATOM     16  C   UNL     1      10.487  26.405  74.820  1.00  0.00     0.039 C 
BRANCH  13  17
ATOM     17  C   UNL     1       8.352  25.301  71.716  1.00  0.00     0.066 CG0
ATOM     18  G   UNL     1       6.886  24.958  71.911  1.00  0.00     0.000 G0
ENDBRANCH  13  17
ENDBRANCH  11  13
ENDBRANCH  10  11
ENDBRANCH   1  10
TORSDOF 0
ENDMDL
MODEL 2
REMARK VINA RESULT:    -3.269     11.521     13.081
REMARK INTER + INTRA:          -4.464
REMARK INTER:                  -4.411
REMARK INTRA:                  -0.053
REMARK UNBOUND:                 0.142
REMARK SMILES CC1=CCC(=C(C)C)C(=O)CC(C)=CCC1
REMARK SMILES IDX 12 1 14 2 13 3 15 4 16 5 2 6 1 7 3 8 11 10 9 11 10 12 5 13
REMARK SMILES IDX 6 14 7 15 8 16 4 17
REMARK H PARENT
REMARK Flexibility Score: 60.00
ROOT
ATOM      1  C   UNL     1       6.762  34.237  66.443  1.00  0.00    -0.070 C 
ATOM      2  C   UNL     1       6.115  33.082  66.167  1.00  0.00    -0.027 C 
ATOM      3  C   UNL     1       7.882  34.659  65.527  1.00  0.00     0.039 C 
ENDROOT
BRANCH   2   4
ATOM      4  C   UNL     1       5.078  32.439  67.053  1.00  0.00     0.032 C 
BRANCH   4   5
ATOM      5  C   UNL     1       3.680  32.931  66.659  1.00  0.00     0.034 C 
BRANCH   5   6
ATOM      6  C   UNL     1       2.760  33.079  67.854  1.00  0.00    -0.077 C 
ATOM      7  C   UNL     1       2.250  31.831  68.532  1.00  0.00     0.039 C 
ATOM      8  C   UNL     1       2.422  34.275  68.398  1.00  0.00    -0.023 CG0
ATOM      9  G   UNL     1       2.759  35.658  67.869  1.00  0.00     0.000 G0
ENDBRANCH   5   6
ENDBRANCH   4   5
ENDBRANCH   2   4
BRANCH   1  10
ATOM     10  C   UNL     1       6.406  35.134  67.612  1.00  0.00     0.111 C 
BRANCH  10  11
ATOM     11  C   UNL     1       5.243  36.042  67.290  1.00  0.00     0.163 C 
ATOM     12  O   UNL     1       5.252  36.608  66.163  1.00  0.00    -0.294 OA
BRANCH  11  13
ATOM     13  C   UNL     1       4.090  36.283  68.219  1.00  0.00    -0.002 C 
ATOM     14  C   UNL     1       4.212  37.152  69.270  1.00  0.00    -0.069 C 
ATOM     15  C   UNL     1       3.018  37.597  70.085  1.00  0.00     0.039 C 
ATOM     16  C   UNL     1       5.561  37.677  69.708  1.00  0.00     0.039 C 
BRANCH  13  17
ATOM     17  C   UNL     1       2.740  35.676  67.850  1.00  0.00     0.066 CG0
ATOM     18  G   UNL     1       2.441  34.298  68.412  1.00  0.00     0.000 G0
ENDBRANCH  13  17
ENDBRANCH  11  13
ENDBRANCH  10  11
ENDBRANCH   1  10
TORSDOF 0
ENDMDL
MODEL 3
REMARK VINA RESULT:    -3.098     12.341     14.141
REMARK INTER + INTRA:          -4.224
REMARK INTER:                  -4.084
REMARK INTRA:                  -0.139
REMARK UNBOUND:                 0.142
REMARK SMILES CC1=CCC(=C(C)C)C(=O)CC(C)=CCC1
REMARK SMILES IDX 12 1 14 2 13 3 15 4 16 5 2 6 1 7 3 8 11 10 9 11 10 12 5 13
REMARK SMILES IDX 6 14 7 15 8 16 4 17
REMARK H PARENT
REMARK Flexibility Score: 60.00
ROOT
ATOM      1  C   UNL     1       7.882  36.467  69.007  1.00  0.00    -0.070 C 
ATOM      2  C   UNL     1       8.206  35.435  68.193  1.00  0.00    -0.027 C 
ATOM      3  C   UNL     1       8.991  37.371  69.481  1.00  0.00     0.039 C 
ENDROOT
BRANCH   2   4
ATOM      4  C   UNL     1       7.254  34.354  67.748  1.00  0.00     0.032 C 
BRANCH   4   5
ATOM      5  C   UNL     1       6.657  34.716  66.383  1.00  0.00     0.034 C 
BRANCH   5   6
ATOM      6  C   UNL     1       5.177  34.403  66.296  1.00  0.00    -0.077 C 
ATOM      7  C   UNL     1       4.749  32.962  66.167  1.00  0.00     0.039 C 
ATOM      8  C   UNL     1       4.204  35.343  66.402  1.00  0.00    -0.023 CG0
ATOM      9  G   UNL     1       4.380  36.849  66.480  1.00  0.00     0.000 G0
ENDBRANCH   5   6
ENDBRANCH   4   5
ENDBRANCH   2   4
BRANCH   1  10
ATOM     10  C   UNL     1       6.464  36.767  69.448  1.00  0.00     0.111 C 
BRANCH  10  11
ATOM     11  C   UNL     1       5.769  37.717  68.502  1.00  0.00     0.163 C 
ATOM     12  O   UNL     1       6.380  38.779  68.204  1.00  0.00    -0.294 OA
BRANCH  11  13
ATOM     13  C   UNL     1       4.423  37.453  67.893  1.00  0.00    -0.002 C 
ATOM     14  C   UNL     1       3.282  37.888  68.512  1.00  0.00    -0.069 C 
ATOM     15  C   UNL     1       1.934  37.849  67.826  1.00  0.00     0.039 C 
ATOM     16  C   UNL     1       3.298  38.386  69.939  1.00  0.00     0.039 C 
BRANCH  13  17
ATOM     17  C   UNL     1       4.381  36.854  66.491  1.00  0.00     0.066 CG0
ATOM     18  G   UNL     1       4.195  35.350  66.403  1.00  0.00     0.000 G0
ENDBRANCH  13  17
ENDBRANCH  11  13
ENDBRANCH  10  11
ENDBRANCH   1  10
TORSDOF 0
ENDMDL
MODEL 4
REMARK VINA RESULT:    -3.079      4.842      7.495
REMARK INTER + INTRA:          -4.197
REMARK INTER:                  -4.039
REMARK INTRA:                  -0.158
REMARK UNBOUND:                 0.142
REMARK SMILES CC1=CCC(=C(C)C)C(=O)CC(C)=CCC1
REMARK SMILES IDX 12 1 14 2 13 3 15 4 16 5 2 6 1 7 3 8 11 10 9 11 10 12 5 13
REMARK SMILES IDX 6 14 7 15 8 16 4 17
REMARK H PARENT
REMARK Flexibility Score: 60.00
ROOT
ATOM      1  C   UNL     1       3.325  26.331  68.148  1.00  0.00    -0.070 C 
ATOM      2  C   UNL     1       3.571  26.535  69.462  1.00  0.00    -0.027 C 
ATOM      3  C   UNL     1       2.812  27.491  67.334  1.00  0.00     0.039 C 
ENDROOT
BRANCH   2   4
ATOM      4  C   UNL     1       3.944  25.458  70.449  1.00  0.00     0.032 C 
BRANCH   4   5
ATOM      5  C   UNL     1       5.470  25.343  70.543  1.00  0.00     0.034 C 
BRANCH   5   6
ATOM      6  C   UNL     1       5.942  23.903  70.563  1.00  0.00    -0.077 C 
ATOM      7  C   UNL     1       5.694  23.079  71.803  1.00  0.00     0.039 C 
ATOM      8  C   UNL     1       6.515  23.285  69.500  1.00  0.00    -0.023 CG0
ATOM      9  G   UNL     1       6.916  23.911  68.176  1.00  0.00     0.000 G0
ENDBRANCH   5   6
ENDBRANCH   4   5
ENDBRANCH   2   4
BRANCH   1  10
ATOM     10  C   UNL     1       3.557  25.005  67.452  1.00  0.00     0.111 C 
BRANCH  10  11
ATOM     11  C   UNL     1       4.928  24.930  66.824  1.00  0.00     0.163 C 
ATOM     12  O   UNL     1       5.285  25.905  66.108  1.00  0.00    -0.294 OA
BRANCH  11  13
ATOM     13  C   UNL     1       5.878  23.786  67.024  1.00  0.00    -0.002 C 
ATOM     14  C   UNL     1       5.926  22.756  66.124  1.00  0.00    -0.069 C 
ATOM     15  C   UNL     1       7.018  21.710  66.161  1.00  0.00     0.039 C 
ATOM     16  C   UNL     1       4.857  22.578  65.069  1.00  0.00     0.039 C 
BRANCH  13  17
ATOM     17  C   UNL     1       6.901  23.899  68.150  1.00  0.00     0.066 CG0
ATOM     18  G   UNL     1       6.501  23.306  69.490  1.00  0.00     0.000 G0
ENDBRANCH  13  17
ENDBRANCH  11  13
ENDBRANCH  10  11
ENDBRANCH   1  10
TORSDOF 0
ENDMDL
MODEL 5
REMARK VINA RESULT:    -3.045     12.844     13.914
REMARK INTER + INTRA:          -4.149
REMARK INTER:                  -4.273
REMARK INTRA:                   0.124
REMARK UNBOUND:                 0.142
REMARK SMILES CC1=CCC(=C(C)C)C(=O)CC(C)=CCC1
REMARK SMILES IDX 12 1 14 2 13 3 15 4 16 5 2 6 1 7 3 8 11 10 9 11 10 12 5 13
REMARK SMILES IDX 6 14 7 15 8 16 4 17
REMARK H PARENT
REMARK Flexibility Score: 60.00
ROOT
ATOM      1  C   UNL     1       5.981  35.181  66.885  1.00  0.00    -0.070 C 
ATOM      2  C   UNL     1       4.896  34.487  67.298  1.00  0.00    -0.027 C 
ATOM      3  C   UNL     1       7.306  34.465  66.840  1.00  0.00     0.039 C 
ENDROOT
BRANCH   2   4
ATOM      4  C   UNL     1       3.532  35.081  67.544  1.00  0.00     0.032 C 
BRANCH   4   5
ATOM      5  C   UNL     1       3.329  35.317  69.045  1.00  0.00     0.034 C 
BRANCH   5   6
ATOM      6  C   UNL     1       3.443  36.780  69.422  1.00  0.00    -0.077 C 
ATOM      7  C   UNL     1       2.204  37.639  69.366  1.00  0.00     0.039 C 
ATOM      8  C   UNL     1       4.585  37.351  69.879  1.00  0.00    -0.023 CG0
ATOM      9  G   UNL     1       5.962  36.716  69.970  1.00  0.00     0.000 G0
ENDBRANCH   5   6
ENDBRANCH   4   5
ENDBRANCH   2   4
BRANCH   1  10
ATOM     10  C   UNL     1       5.927  36.632  66.450  1.00  0.00     0.111 C 
BRANCH  10  11
ATOM     11  C   UNL     1       6.398  37.565  67.540  1.00  0.00     0.163 C 
ATOM     12  O   UNL     1       6.288  38.802  67.323  1.00  0.00    -0.294 OA
BRANCH  11  13
ATOM     13  C   UNL     1       6.960  37.100  68.851  1.00  0.00    -0.002 C 
ATOM     14  C   UNL     1       8.305  37.174  69.097  1.00  0.00    -0.069 C 
ATOM     15  C   UNL     1       8.881  36.938  70.476  1.00  0.00     0.039 C 
ATOM     16  C   UNL     1       9.297  37.449  67.989  1.00  0.00     0.039 C 
BRANCH  13  17
ATOM     17  C   UNL     1       5.976  36.720  69.953  1.00  0.00     0.066 CG0
ATOM     18  G   UNL     1       4.594  37.342  69.870  1.00  0.00     0.000 G0
ENDBRANCH  13  17
ENDBRANCH  11  13
ENDBRANCH  10  11
ENDBRANCH   1  10
TORSDOF 0
ENDMDL
MODEL 6
REMARK VINA RESULT:    -3.014     12.074     14.692
REMARK INTER + INTRA:          -4.105
REMARK INTER:                  -4.473
REMARK INTRA:                   0.368
REMARK UNBOUND:                 0.142
REMARK SMILES CC1=CCC(=C(C)C)C(=O)CC(C)=CCC1
REMARK SMILES IDX 12 1 14 2 13 3 15 4 16 5 2 6 1 7 3 8 11 10 9 11 10 12 5 13
REMARK SMILES IDX 6 14 7 15 8 16 4 17
REMARK H PARENT
REMARK Flexibility Score: 60.00
ROOT
ATOM      1  C   UNL     1       6.552  38.289  66.662  1.00  0.00    -0.070 C 
ATOM      2  C   UNL     1       7.880  38.548  66.631  1.00  0.00    -0.027 C 
ATOM      3  C   UNL     1       5.878  37.889  65.376  1.00  0.00     0.039 C 
ENDROOT
BRANCH   2   4
ATOM      4  C   UNL     1       8.680  39.100  67.783  1.00  0.00     0.032 C 
BRANCH   4   5
ATOM      5  C   UNL     1       9.898  38.206  68.047  1.00  0.00     0.034 C 
BRANCH   5   6
ATOM      6  C   UNL     1       9.740  37.366  69.297  1.00  0.00    -0.077 C 
ATOM      7  C   UNL     1      10.508  37.761  70.535  1.00  0.00     0.039 C 
ATOM      8  C   UNL     1       8.889  36.314  69.393  1.00  0.00    -0.023 CG0
ATOM      9  G   UNL     1       8.059  35.694  68.282  1.00  0.00     0.000 G0
ENDBRANCH   5   6
ENDBRANCH   4   5
ENDBRANCH   2   4
BRANCH   1  10
ATOM     10  C   UNL     1       5.718  38.363  67.926  1.00  0.00     0.111 C 
BRANCH  10  11
ATOM     11  C   UNL     1       6.009  37.214  68.861  1.00  0.00     0.163 C 
ATOM     12  O   UNL     1       5.782  37.401  70.088  1.00  0.00    -0.294 OA
BRANCH  11  13
ATOM     13  C   UNL     1       6.525  35.879  68.409  1.00  0.00    -0.002 C 
ATOM     14  C   UNL     1       5.661  34.913  67.969  1.00  0.00    -0.069 C 
ATOM     15  C   UNL     1       6.148  33.651  67.292  1.00  0.00     0.039 C 
ATOM     16  C   UNL     1       4.168  35.032  68.180  1.00  0.00     0.039 C 
BRANCH  13  17
ATOM     17  C   UNL     1       8.034  35.703  68.286  1.00  0.00     0.066 CG0
ATOM     18  G   UNL     1       8.879  36.309  69.393  1.00  0.00     0.000 G0
ENDBRANCH  13  17
ENDBRANCH  11  13
ENDBRANCH  10  11
ENDBRANCH   1  10
TORSDOF 0
ENDMDL
MODEL 7
REMARK VINA RESULT:    -3.000     12.323     13.652
REMARK INTER + INTRA:          -4.085
REMARK INTER:                  -4.337
REMARK INTRA:                   0.251
REMARK UNBOUND:                 0.142
REMARK SMILES CC1=CCC(=C(C)C)C(=O)CC(C)=CCC1
REMARK SMILES IDX 12 1 14 2 13 3 15 4 16 5 2 6 1 7 3 8 11 10 9 11 10 12 5 13
REMARK SMILES IDX 6 14 7 15 8 16 4 17
REMARK H PARENT
REMARK Flexibility Score: 60.00
ROOT
ATOM      1  C   UNL     1       7.508  35.871  67.502  1.00  0.00    -0.070 C 
ATOM      2  C   UNL     1       7.138  34.776  66.800  1.00  0.00    -0.027 C 
ATOM      3  C   UNL     1       8.932  35.955  67.988  1.00  0.00     0.039 C 
ENDROOT
BRANCH   2   4
ATOM      4  C   UNL     1       5.728  34.461  66.368  1.00  0.00     0.032 C 
BRANCH   4   5
ATOM      5  C   UNL     1       4.943  33.870  67.545  1.00  0.00     0.034 C 
BRANCH   5   6
ATOM      6  C   UNL     1       3.524  34.396  67.617  1.00  0.00    -0.077 C 
ATOM      7  C   UNL     1       2.550  33.997  66.537  1.00  0.00     0.039 C 
ATOM      8  C   UNL     1       3.054  35.151  68.642  1.00  0.00    -0.023 CG0
ATOM      9  G   UNL     1       3.845  35.724  69.804  1.00  0.00     0.000 G0
ENDBRANCH   5   6
ENDBRANCH   4   5
ENDBRANCH   2   4
BRANCH   1  10
ATOM     10  C   UNL     1       6.569  37.022  67.808  1.00  0.00     0.111 C 
BRANCH  10  11
ATOM     11  C   UNL     1       6.041  36.957  69.221  1.00  0.00     0.163 C 
ATOM     12  O   UNL     1       6.891  36.853  70.147  1.00  0.00    -0.294 OA
BRANCH  11  13
ATOM     13  C   UNL     1       4.585  37.033  69.573  1.00  0.00    -0.002 C 
ATOM     14  C   UNL     1       3.915  38.226  69.511  1.00  0.00    -0.069 C 
ATOM     15  C   UNL     1       2.410  38.307  69.630  1.00  0.00     0.039 C 
ATOM     16  C   UNL     1       4.652  39.539  69.369  1.00  0.00     0.039 C 
BRANCH  13  17
ATOM     17  C   UNL     1       3.843  35.724  69.821  1.00  0.00     0.066 CG0
ATOM     18  G   UNL     1       3.067  35.153  68.648  1.00  0.00     0.000 G0
ENDBRANCH  13  17
ENDBRANCH  11  13
ENDBRANCH  10  11
ENDBRANCH   1  10
TORSDOF 0
ENDMDL
MODEL 8
REMARK VINA RESULT:    -2.872     13.301     15.567
REMARK INTER + INTRA:          -3.905
REMARK INTER:                  -4.371
REMARK INTRA:                   0.465
REMARK UNBOUND:                 0.142
REMARK SMILES CC1=CCC(=C(C)C)C(=O)CC(C)=CCC1
REMARK SMILES IDX 12 1 14 2 13 3 15 4 16 5 2 6 1 7 3 8 11 10 9 11 10 12 5 13
REMARK SMILES IDX 6 14 7 15 8 16 4 17
REMARK H PARENT
REMARK Flexibility Score: 60.00
ROOT
ATOM      1  C   UNL     1      10.182  38.065  69.770  1.00  0.00    -0.070 C 
ATOM      2  C   UNL     1       9.534  37.083  70.437  1.00  0.00    -0.027 C 
ATOM      3  C   UNL     1      11.066  38.995  70.561  1.00  0.00     0.039 C 
ENDROOT
BRANCH   2   4
ATOM      4  C   UNL     1       8.503  36.163  69.833  1.00  0.00     0.032 C 
BRANCH   4   5
ATOM      5  C   UNL     1       7.207  36.937  69.565  1.00  0.00     0.034 C 
BRANCH   5   6
ATOM      6  C   UNL     1       6.704  36.752  68.148  1.00  0.00    -0.077 C 
ATOM      7  C   UNL     1       6.319  35.366  67.693  1.00  0.00     0.039 C 
ATOM      8  C   UNL     1       6.509  37.776  67.280  1.00  0.00    -0.023 CG0
ATOM      9  G   UNL     1       6.870  39.237  67.482  1.00  0.00     0.000 G0
ENDBRANCH   5   6
ENDBRANCH   4   5
ENDBRANCH   2   4
BRANCH   1  10
ATOM     10  C   UNL     1      10.079  38.264  68.271  1.00  0.00     0.111 C 
BRANCH  10  11
ATOM     11  C   UNL     1       9.408  39.570  67.921  1.00  0.00     0.163 C 
ATOM     12  O   UNL     1       9.878  40.616  68.447  1.00  0.00    -0.294 OA
BRANCH  11  13
ATOM     13  C   UNL     1       8.245  39.686  66.979  1.00  0.00    -0.002 C 
ATOM     14  C   UNL     1       8.444  40.020  65.667  1.00  0.00    -0.069 C 
ATOM     15  C   UNL     1       7.339  39.922  64.639  1.00  0.00     0.039 C 
ATOM     16  C   UNL     1       9.772  40.555  65.180  1.00  0.00     0.039 C 
BRANCH  13  17
ATOM     17  C   UNL     1       6.874  39.247  67.483  1.00  0.00     0.066 CG0
ATOM     18  G   UNL     1       6.514  37.786  67.278  1.00  0.00     0.000 G0
ENDBRANCH  13  17
ENDBRANCH  11  13
ENDBRANCH  10  11
ENDBRANCH   1  10
TORSDOF 0
ENDMDL
MODEL 9
REMARK VINA RESULT:    -2.798     11.375     13.829
REMARK INTER + INTRA:          -3.801
REMARK INTER:                  -4.224
REMARK INTRA:                   0.424
REMARK UNBOUND:                 0.142
REMARK SMILES CC1=CCC(=C(C)C)C(=O)CC(C)=CCC1
REMARK SMILES IDX 12 1 14 2 13 3 15 4 16 5 2 6 1 7 3 8 11 10 9 11 10 12 5 13
REMARK SMILES IDX 6 14 7 15 8 16 4 17
REMARK H PARENT
REMARK Flexibility Score: 60.00
ROOT
ATOM      1  C   UNL     1       7.605  36.155  68.589  1.00  0.00    -0.070 C 
ATOM      2  C   UNL     1       6.895  36.992  69.378  1.00  0.00    -0.027 C 
ATOM      3  C   UNL     1       8.913  36.649  68.027  1.00  0.00     0.039 C 
ENDROOT
BRANCH   2   4
ATOM      4  C   UNL     1       5.507  36.719  69.900  1.00  0.00     0.032 C 
BRANCH   4   5
ATOM      5  C   UNL     1       4.539  37.796  69.395  1.00  0.00     0.034 C 
BRANCH   5   6
ATOM      6  C   UNL     1       4.570  37.942  67.887  1.00  0.00    -0.077 C 
ATOM      7  C   UNL     1       4.997  39.264  67.298  1.00  0.00     0.039 C 
ATOM      8  C   UNL     1       4.305  36.926  67.029  1.00  0.00    -0.023 CG0
ATOM      9  G   UNL     1       3.805  35.534  67.373  1.00  0.00     0.000 G0
ENDBRANCH   5   6
ENDBRANCH   4   5
ENDBRANCH   2   4
BRANCH   1  10
ATOM     10  C   UNL     1       7.162  34.744  68.258  1.00  0.00     0.111 C 
BRANCH  10  11
ATOM     11  C   UNL     1       6.251  34.708  67.054  1.00  0.00     0.163 C 
ATOM     12  O   UNL     1       6.773  34.952  65.932  1.00  0.00    -0.294 OA
BRANCH  11  13
ATOM     13  C   UNL     1       4.788  34.380  67.123  1.00  0.00    -0.002 C 
ATOM     14  C   UNL     1       4.367  33.077  67.137  1.00  0.00    -0.069 C 
ATOM     15  C   UNL     1       2.933  32.702  67.438  1.00  0.00     0.039 C 
ATOM     16  C   UNL     1       5.306  31.940  66.803  1.00  0.00     0.039 C 
BRANCH  13  17
ATOM     17  C   UNL     1       3.811  35.527  67.358  1.00  0.00     0.066 CG0
ATOM     18  G   UNL     1       4.308  36.920  67.016  1.00  0.00     0.000 G0
ENDBRANCH  13  17
ENDBRANCH  11  13
ENDBRANCH  10  11
ENDBRANCH   1  10
TORSDOF 0
ENDMDL
