MODEL 1
REMARK VINA RESULT:    -3.534      0.000      0.000
REMARK INTER + INTRA:          -7.264
REMARK INTER:                  -6.014
REMARK INTRA:                  -1.250
REMARK UNBOUND:                -1.250
REMARK SMILES CCCCCCCCCCCCCC(=O)[O-]
REMARK SMILES IDX 8 1 9 2 10 3 11 4 12 5 13 6 14 7 15 8 16 9 7 10 6 11 5 12
REMARK SMILES IDX 4 13 3 14 2 15 1 16
REMARK H PARENT
REMARK Flexibility Score: inf
ROOT
ATOM      1  C   UNL     1      57.088  29.188  52.560  1.00  0.00     0.000 C 
ENDROOT
BRANCH   1   2
ATOM      2  C   UNL     1      58.120  29.617  51.502  1.00  0.00     0.000 C 
BRANCH   2   3
ATOM      3  C   UNL     1      57.908  28.922  50.146  1.00  0.00     0.000 C 
BRANCH   3   4
ATOM      4  C   UNL     1      59.185  28.720  49.308  1.00  0.00     0.000 C 
BRANCH   4   5
ATOM      5  C   UNL     1      59.644  27.250  49.215  1.00  0.00     0.006 C 
BRANCH   5   6
ATOM      6  C   UNL     1      60.034  26.674  50.583  1.00  0.00     0.053 C 
BRANCH   6   7
ATOM      7  C   UNL     1      59.172  25.500  50.922  1.00  0.00     0.041 C 
ATOM      8  O   UNL     1      58.131  25.264  50.253  1.00  0.00    -0.550 OA
ATOM      9  O   UNL     1      59.490  24.694  52.007  1.00  0.00    -0.550 OA
ENDBRANCH   6   7
ENDBRANCH   5   6
ENDBRANCH   4   5
ENDBRANCH   3   4
ENDBRANCH   2   3
ENDBRANCH   1   2
BRANCH   1  10
ATOM     10  C   UNL     1      55.855  30.108  52.593  1.00  0.00     0.000 C 
BRANCH  10  11
ATOM     11  C   UNL     1      54.534  29.447  52.148  1.00  0.00    -0.000 C 
BRANCH  11  12
ATOM     12  C   UNL     1      54.240  29.524  50.636  1.00  0.00    -0.000 C 
BRANCH  12  13
ATOM     13  C   UNL     1      53.832  28.190  49.988  1.00  0.00    -0.000 C 
BRANCH  13  14
ATOM     14  C   UNL     1      54.754  27.026  50.390  1.00  0.00    -0.000 C 
BRANCH  14  15
ATOM     15  C   UNL     1      54.781  25.906  49.339  1.00  0.00    -0.003 C 
ATOM     16  C   UNL     1      53.381  25.478  48.898  1.00  0.00     0.004 C 
ENDBRANCH  14  15
ENDBRANCH  13  14
ENDBRANCH  12  13
ENDBRANCH  11  12
ENDBRANCH  10  11
ENDBRANCH   1  10
TORSDOF 12
ENDMDL
MODEL 2
REMARK VINA RESULT:    -3.516     11.219     13.413
REMARK INTER + INTRA:          -7.232
REMARK INTER:                  -5.192
REMARK INTRA:                  -2.040
REMARK UNBOUND:                -1.250
REMARK SMILES CCCCCCCCCCCCCC(=O)[O-]
REMARK SMILES IDX 8 1 9 2 10 3 11 4 12 5 13 6 14 7 15 8 16 9 7 10 6 11 5 12
REMARK SMILES IDX 4 13 3 14 2 15 1 16
REMARK H PARENT
REMARK Flexibility Score: inf
ROOT
ATOM      1  C   UNL     1      61.163  31.456  58.698  1.00  0.00     0.000 C 
ENDROOT
BRANCH   1   2
ATOM      2  C   UNL     1      62.693  31.462  58.536  1.00  0.00     0.000 C 
BRANCH   2   3
ATOM      3  C   UNL     1      63.306  32.862  58.716  1.00  0.00     0.000 C 
BRANCH   3   4
ATOM      4  C   UNL     1      64.299  32.994  59.887  1.00  0.00     0.000 C 
BRANCH   4   5
ATOM      5  C   UNL     1      63.737  33.770  61.097  1.00  0.00     0.006 C 
BRANCH   5   6
ATOM      6  C   UNL     1      62.502  34.604  60.730  1.00  0.00     0.053 C 
BRANCH   6   7
ATOM      7  C   UNL     1      62.638  35.998  61.253  1.00  0.00     0.041 C 
ATOM      8  O   UNL     1      63.718  36.375  61.781  1.00  0.00    -0.550 OA
ATOM      9  O   UNL     1      61.556  36.868  61.204  1.00  0.00    -0.550 OA
ENDBRANCH   6   7
ENDBRANCH   5   6
ENDBRANCH   4   5
ENDBRANCH   3   4
ENDBRANCH   2   3
ENDBRANCH   1   2
BRANCH   1  10
ATOM     10  C   UNL     1      60.697  30.626  59.907  1.00  0.00     0.000 C 
BRANCH  10  11
ATOM     11  C   UNL     1      61.122  31.177  61.283  1.00  0.00    -0.000 C 
BRANCH  11  12
ATOM     12  C   UNL     1      62.175  30.333  62.030  1.00  0.00    -0.000 C 
BRANCH  12  13
ATOM     13  C   UNL     1      62.237  28.855  61.609  1.00  0.00    -0.000 C 
BRANCH  13  14
ATOM     14  C   UNL     1      63.670  28.381  61.312  1.00  0.00    -0.000 C 
BRANCH  14  15
ATOM     15  C   UNL     1      64.669  29.545  61.225  1.00  0.00    -0.003 C 
ATOM     16  C   UNL     1      65.507  29.507  59.946  1.00  0.00     0.004 C 
ENDBRANCH  14  15
ENDBRANCH  13  14
ENDBRANCH  12  13
ENDBRANCH  11  12
ENDBRANCH  10  11
ENDBRANCH   1  10
TORSDOF 12
ENDMDL
MODEL 3
REMARK VINA RESULT:    -3.507      2.693      3.667
REMARK INTER + INTRA:          -7.217
REMARK INTER:                  -5.469
REMARK INTRA:                  -1.748
REMARK UNBOUND:                -1.250
REMARK SMILES CCCCCCCCCCCCCC(=O)[O-]
REMARK SMILES IDX 8 1 9 2 10 3 11 4 12 5 13 6 14 7 15 8 16 9 7 10 6 11 5 12
REMARK SMILES IDX 4 13 3 14 2 15 1 16
REMARK H PARENT
REMARK Flexibility Score: inf
ROOT
ATOM      1  C   UNL     1      57.985  25.388  51.186  1.00  0.00     0.000 C 
ENDROOT
BRANCH   1   2
ATOM      2  C   UNL     1      58.804  25.539  49.893  1.00  0.00     0.000 C 
BRANCH   2   3
ATOM      3  C   UNL     1      59.875  26.638  49.990  1.00  0.00     0.000 C 
BRANCH   3   4
ATOM      4  C   UNL     1      59.708  27.804  48.997  1.00  0.00     0.000 C 
BRANCH   4   5
ATOM      5  C   UNL     1      59.463  29.170  49.673  1.00  0.00     0.006 C 
BRANCH   5   6
ATOM      6  C   UNL     1      60.408  29.409  50.859  1.00  0.00     0.053 C 
BRANCH   6   7
ATOM      7  C   UNL     1      61.692  30.015  50.391  1.00  0.00     0.041 C 
ATOM      8  O   UNL     1      62.645  29.277  50.023  1.00  0.00    -0.550 OA
ATOM      9  O   UNL     1      61.857  31.394  50.407  1.00  0.00    -0.550 OA
ENDBRANCH   6   7
ENDBRANCH   5   6
ENDBRANCH   4   5
ENDBRANCH   3   4
ENDBRANCH   2   3
ENDBRANCH   1   2
BRANCH   1  10
ATOM     10  C   UNL     1      58.137  26.594  52.130  1.00  0.00     0.000 C 
BRANCH  10  11
ATOM     11  C   UNL     1      56.817  27.284  52.528  1.00  0.00    -0.000 C 
BRANCH  11  12
ATOM     12  C   UNL     1      56.463  28.543  51.710  1.00  0.00    -0.000 C 
BRANCH  12  13
ATOM     13  C   UNL     1      55.966  28.268  50.281  1.00  0.00    -0.000 C 
BRANCH  13  14
ATOM     14  C   UNL     1      54.660  27.456  50.252  1.00  0.00    -0.000 C 
BRANCH  14  15
ATOM     15  C   UNL     1      54.823  26.102  49.544  1.00  0.00    -0.003 C 
ATOM     16  C   UNL     1      53.524  25.611  48.904  1.00  0.00     0.004 C 
ENDBRANCH  14  15
ENDBRANCH  13  14
ENDBRANCH  12  13
ENDBRANCH  11  12
ENDBRANCH  10  11
ENDBRANCH   1  10
TORSDOF 12
ENDMDL
MODEL 4
REMARK VINA RESULT:    -3.502      2.184      3.366
REMARK INTER + INTRA:          -7.209
REMARK INTER:                  -5.827
REMARK INTRA:                  -1.382
REMARK UNBOUND:                -1.250
REMARK SMILES CCCCCCCCCCCCCC(=O)[O-]
REMARK SMILES IDX 8 1 9 2 10 3 11 4 12 5 13 6 14 7 15 8 16 9 7 10 6 11 5 12
REMARK SMILES IDX 4 13 3 14 2 15 1 16
REMARK H PARENT
REMARK Flexibility Score: inf
ROOT
ATOM      1  C   UNL     1      57.328  26.959  51.368  1.00  0.00     0.000 C 
ENDROOT
BRANCH   1   2
ATOM      2  C   UNL     1      57.267  28.467  51.071  1.00  0.00     0.000 C 
BRANCH   2   3
ATOM      3  C   UNL     1      58.013  28.852  49.782  1.00  0.00     0.000 C 
BRANCH   3   4
ATOM      4  C   UNL     1      59.549  28.772  49.868  1.00  0.00     0.000 C 
BRANCH   4   5
ATOM      5  C   UNL     1      60.158  27.593  49.080  1.00  0.00     0.006 C 
BRANCH   5   6
ATOM      6  C   UNL     1      60.915  26.616  49.990  1.00  0.00     0.053 C 
BRANCH   6   7
ATOM      7  C   UNL     1      62.359  26.555  49.606  1.00  0.00     0.041 C 
ATOM      8  O   UNL     1      63.091  25.624  50.037  1.00  0.00    -0.550 OA
ATOM      9  O   UNL     1      62.910  27.552  48.813  1.00  0.00    -0.550 OA
ENDBRANCH   6   7
ENDBRANCH   5   6
ENDBRANCH   4   5
ENDBRANCH   3   4
ENDBRANCH   2   3
ENDBRANCH   1   2
BRANCH   1  10
ATOM     10  C   UNL     1      56.942  26.098  50.152  1.00  0.00     0.000 C 
BRANCH  10  11
ATOM     11  C   UNL     1      55.465  26.200  49.720  1.00  0.00    -0.000 C 
BRANCH  11  12
ATOM     12  C   UNL     1      54.436  25.949  50.842  1.00  0.00    -0.000 C 
BRANCH  12  13
ATOM     13  C   UNL     1      53.504  27.135  51.140  1.00  0.00    -0.000 C 
BRANCH  13  14
ATOM     14  C   UNL     1      53.375  28.105  49.953  1.00  0.00    -0.000 C 
BRANCH  14  15
ATOM     15  C   UNL     1      53.849  29.525  50.298  1.00  0.00    -0.003 C 
ATOM     16  C   UNL     1      52.887  30.256  51.234  1.00  0.00     0.004 C 
ENDBRANCH  14  15
ENDBRANCH  13  14
ENDBRANCH  12  13
ENDBRANCH  11  12
ENDBRANCH  10  11
ENDBRANCH   1  10
TORSDOF 12
ENDMDL
MODEL 5
REMARK VINA RESULT:    -3.418     11.451     13.431
REMARK INTER + INTRA:          -7.066
REMARK INTER:                  -5.497
REMARK INTRA:                  -1.569
REMARK UNBOUND:                -1.250
REMARK SMILES CCCCCCCCCCCCCC(=O)[O-]
REMARK SMILES IDX 8 1 9 2 10 3 11 4 12 5 13 6 14 7 15 8 16 9 7 10 6 11 5 12
REMARK SMILES IDX 4 13 3 14 2 15 1 16
REMARK H PARENT
REMARK Flexibility Score: inf
ROOT
ATOM      1  C   UNL     1      61.550  32.406  59.555  1.00  0.00     0.000 C 
ENDROOT
BRANCH   1   2
ATOM      2  C   UNL     1      61.344  32.282  61.075  1.00  0.00     0.000 C 
BRANCH   2   3
ATOM      3  C   UNL     1      61.049  30.839  61.520  1.00  0.00     0.000 C 
BRANCH   3   4
ATOM      4  C   UNL     1      62.264  30.061  62.060  1.00  0.00     0.000 C 
BRANCH   4   5
ATOM      5  C   UNL     1      62.901  29.105  61.029  1.00  0.00     0.006 C 
BRANCH   5   6
ATOM      6  C   UNL     1      64.417  28.969  61.222  1.00  0.00     0.053 C 
BRANCH   6   7
ATOM      7  C   UNL     1      65.147  29.515  60.036  1.00  0.00     0.041 C 
ATOM      8  O   UNL     1      66.297  30.012  60.173  1.00  0.00    -0.550 OA
ATOM      9  O   UNL     1      64.538  29.521  58.788  1.00  0.00    -0.550 OA
ENDBRANCH   6   7
ENDBRANCH   5   6
ENDBRANCH   4   5
ENDBRANCH   3   4
ENDBRANCH   2   3
ENDBRANCH   1   2
BRANCH   1  10
ATOM     10  C   UNL     1      63.011  32.705  59.176  1.00  0.00     0.000 C 
BRANCH  10  11
ATOM     11  C   UNL     1      63.945  33.013  60.364  1.00  0.00    -0.000 C 
BRANCH  11  12
ATOM     12  C   UNL     1      64.384  34.486  60.487  1.00  0.00    -0.000 C 
BRANCH  12  13
ATOM     13  C   UNL     1      63.629  35.299  61.552  1.00  0.00    -0.000 C 
BRANCH  13  14
ATOM     14  C   UNL     1      63.329  36.739  61.100  1.00  0.00    -0.000 C 
BRANCH  14  15
ATOM     15  C   UNL     1      61.827  37.061  61.119  1.00  0.00    -0.003 C 
ATOM     16  C   UNL     1      60.975  35.935  60.533  1.00  0.00     0.004 C 
ENDBRANCH  14  15
ENDBRANCH  13  14
ENDBRANCH  12  13
ENDBRANCH  11  12
ENDBRANCH  10  11
ENDBRANCH   1  10
TORSDOF 12
ENDMDL
MODEL 6
REMARK VINA RESULT:    -3.418     11.114     13.176
REMARK INTER + INTRA:          -7.066
REMARK INTER:                  -5.864
REMARK INTRA:                  -1.201
REMARK UNBOUND:                -1.250
REMARK SMILES CCCCCCCCCCCCCC(=O)[O-]
REMARK SMILES IDX 8 1 9 2 10 3 11 4 12 5 13 6 14 7 15 8 16 9 7 10 6 11 5 12
REMARK SMILES IDX 4 13 3 14 2 15 1 16
REMARK H PARENT
REMARK Flexibility Score: inf
ROOT
ATOM      1  C   UNL     1      64.060  33.925  60.450  1.00  0.00     0.000 C 
ENDROOT
BRANCH   1   2
ATOM      2  C   UNL     1      63.415  32.575  60.809  1.00  0.00     0.000 C 
BRANCH   2   3
ATOM      3  C   UNL     1      61.878  32.626  60.792  1.00  0.00     0.000 C 
BRANCH   3   4
ATOM      4  C   UNL     1      61.176  31.336  61.261  1.00  0.00     0.000 C 
BRANCH   4   5
ATOM      5  C   UNL     1      62.113  30.343  61.981  1.00  0.00     0.006 C 
BRANCH   5   6
ATOM      6  C   UNL     1      62.132  28.967  61.302  1.00  0.00     0.053 C 
BRANCH   6   7
ATOM      7  C   UNL     1      63.481  28.335  61.439  1.00  0.00     0.041 C 
ATOM      8  O   UNL     1      64.521  29.042  61.381  1.00  0.00    -0.550 OA
ATOM      9  O   UNL     1      63.592  26.957  61.580  1.00  0.00    -0.550 OA
ENDBRANCH   6   7
ENDBRANCH   5   6
ENDBRANCH   4   5
ENDBRANCH   3   4
ENDBRANCH   2   3
ENDBRANCH   1   2
BRANCH   1  10
ATOM     10  C   UNL     1      64.334  34.800  61.686  1.00  0.00     0.000 C 
BRANCH  10  11
ATOM     11  C   UNL     1      63.755  36.227  61.619  1.00  0.00    -0.000 C 
BRANCH  11  12
ATOM     12  C   UNL     1      62.725  36.464  60.495  1.00  0.00    -0.000 C 
BRANCH  12  13
ATOM     13  C   UNL     1      61.262  36.210  60.893  1.00  0.00    -0.000 C 
BRANCH  13  14
ATOM     14  C   UNL     1      60.276  36.491  59.747  1.00  0.00    -0.000 C 
BRANCH  14  15
ATOM     15  C   UNL     1      60.735  35.884  58.412  1.00  0.00    -0.003 C 
ATOM     16  C   UNL     1      60.182  34.477  58.183  1.00  0.00     0.004 C 
ENDBRANCH  14  15
ENDBRANCH  13  14
ENDBRANCH  12  13
ENDBRANCH  11  12
ENDBRANCH  10  11
ENDBRANCH   1  10
TORSDOF 12
ENDMDL
MODEL 7
REMARK VINA RESULT:    -3.392     10.903     13.201
REMARK INTER + INTRA:          -7.022
REMARK INTER:                  -5.506
REMARK INTRA:                  -1.517
REMARK UNBOUND:                -1.250
REMARK SMILES CCCCCCCCCCCCCC(=O)[O-]
REMARK SMILES IDX 8 1 9 2 10 3 11 4 12 5 13 6 14 7 15 8 16 9 7 10 6 11 5 12
REMARK SMILES IDX 4 13 3 14 2 15 1 16
REMARK H PARENT
REMARK Flexibility Score: inf
ROOT
ATOM      1  C   UNL     1      60.706  30.615  60.134  1.00  0.00     0.000 C 
ENDROOT
BRANCH   1   2
ATOM      2  C   UNL     1      61.161  30.881  61.579  1.00  0.00     0.000 C 
BRANCH   2   3
ATOM      3  C   UNL     1      62.296  29.945  62.029  1.00  0.00     0.000 C 
BRANCH   3   4
ATOM      4  C   UNL     1      63.718  30.440  61.703  1.00  0.00     0.000 C 
BRANCH   4   5
ATOM      5  C   UNL     1      64.374  29.712  60.511  1.00  0.00     0.006 C 
BRANCH   5   6
ATOM      6  C   UNL     1      63.829  28.289  60.327  1.00  0.00     0.053 C 
BRANCH   6   7
ATOM      7  C   UNL     1      64.751  27.291  60.953  1.00  0.00     0.041 C 
ATOM      8  O   UNL     1      65.963  27.578  61.141  1.00  0.00    -0.550 OA
ATOM      9  O   UNL     1      64.284  26.026  61.284  1.00  0.00    -0.550 OA
ENDBRANCH   6   7
ENDBRANCH   5   6
ENDBRANCH   4   5
ENDBRANCH   3   4
ENDBRANCH   2   3
ENDBRANCH   1   2
BRANCH   1  10
ATOM     10  C   UNL     1      60.639  31.898  59.286  1.00  0.00     0.000 C 
BRANCH  10  11
ATOM     11  C   UNL     1      61.661  32.988  59.667  1.00  0.00    -0.000 C 
BRANCH  11  12
ATOM     12  C   UNL     1      63.044  32.851  58.997  1.00  0.00    -0.000 C 
BRANCH  12  13
ATOM     13  C   UNL     1      64.114  33.825  59.519  1.00  0.00    -0.000 C 
BRANCH  13  14
ATOM     14  C   UNL     1      64.056  34.011  61.045  1.00  0.00    -0.000 C 
BRANCH  14  15
ATOM     15  C   UNL     1      63.702  35.450  61.450  1.00  0.00    -0.003 C 
ATOM     16  C   UNL     1      64.832  36.143  62.212  1.00  0.00     0.004 C 
ENDBRANCH  14  15
ENDBRANCH  13  14
ENDBRANCH  12  13
ENDBRANCH  11  12
ENDBRANCH  10  11
ENDBRANCH   1  10
TORSDOF 12
ENDMDL
MODEL 8
REMARK VINA RESULT:    -3.392      2.044      3.759
REMARK INTER + INTRA:          -7.022
REMARK INTER:                  -4.882
REMARK INTRA:                  -2.140
REMARK UNBOUND:                -1.250
REMARK SMILES CCCCCCCCCCCCCC(=O)[O-]
REMARK SMILES IDX 8 1 9 2 10 3 11 4 12 5 13 6 14 7 15 8 16 9 7 10 6 11 5 12
REMARK SMILES IDX 4 13 3 14 2 15 1 16
REMARK H PARENT
REMARK Flexibility Score: inf
ROOT
ATOM      1  C   UNL     1      54.522  25.914  52.983  1.00  0.00     0.000 C 
ENDROOT
BRANCH   1   2
ATOM      2  C   UNL     1      55.856  25.161  52.845  1.00  0.00     0.000 C 
BRANCH   2   3
ATOM      3  C   UNL     1      57.064  26.002  53.292  1.00  0.00     0.000 C 
BRANCH   3   4
ATOM      4  C   UNL     1      58.054  26.370  52.170  1.00  0.00     0.000 C 
BRANCH   4   5
ATOM      5  C   UNL     1      58.121  25.331  51.031  1.00  0.00     0.006 C 
BRANCH   5   6
ATOM      6  C   UNL     1      58.146  25.990  49.645  1.00  0.00     0.053 C 
BRANCH   6   7
ATOM      7  C   UNL     1      59.440  26.708  49.430  1.00  0.00     0.041 C 
ATOM      8  O   UNL     1      60.534  26.094  49.550  1.00  0.00    -0.550 OA
ATOM      9  O   UNL     1      59.441  28.067  49.146  1.00  0.00    -0.550 OA
ENDBRANCH   6   7
ENDBRANCH   5   6
ENDBRANCH   4   5
ENDBRANCH   3   4
ENDBRANCH   2   3
ENDBRANCH   1   2
BRANCH   1  10
ATOM     10  C   UNL     1      53.547  25.612  51.830  1.00  0.00     0.000 C 
BRANCH  10  11
ATOM     11  C   UNL     1      54.213  25.317  50.471  1.00  0.00    -0.000 C 
BRANCH  11  12
ATOM     12  C   UNL     1      54.534  26.560  49.616  1.00  0.00    -0.000 C 
BRANCH  12  13
ATOM     13  C   UNL     1      53.518  27.707  49.734  1.00  0.00    -0.000 C 
BRANCH  13  14
ATOM     14  C   UNL     1      54.137  28.994  50.307  1.00  0.00    -0.000 C 
BRANCH  14  15
ATOM     15  C   UNL     1      55.603  28.806  50.728  1.00  0.00    -0.003 C 
ATOM     16  C   UNL     1      55.881  29.324  52.139  1.00  0.00     0.004 C 
ENDBRANCH  14  15
ENDBRANCH  13  14
ENDBRANCH  12  13
ENDBRANCH  11  12
ENDBRANCH  10  11
ENDBRANCH   1  10
TORSDOF 12
ENDMDL
MODEL 9
REMARK VINA RESULT:    -3.333      3.371      4.306
REMARK INTER + INTRA:          -6.921
REMARK INTER:                  -5.695
REMARK INTRA:                  -1.226
REMARK UNBOUND:                -1.250
REMARK SMILES CCCCCCCCCCCCCC(=O)[O-]
REMARK SMILES IDX 8 1 9 2 10 3 11 4 12 5 13 6 14 7 15 8 16 9 7 10 6 11 5 12
REMARK SMILES IDX 4 13 3 14 2 15 1 16
REMARK H PARENT
REMARK Flexibility Score: inf
ROOT
ATOM      1  C   UNL     1      58.749  29.181  49.289  1.00  0.00     0.000 C 
ENDROOT
BRANCH   1   2
ATOM      2  C   UNL     1      60.044  28.592  49.874  1.00  0.00     0.000 C 
BRANCH   2   3
ATOM      3  C   UNL     1      60.564  27.384  49.075  1.00  0.00     0.000 C 
BRANCH   3   4
ATOM      4  C   UNL     1      61.587  26.502  49.815  1.00  0.00     0.000 C 
BRANCH   4   5
ATOM      5  C   UNL     1      63.037  27.025  49.732  1.00  0.00     0.006 C 
BRANCH   5   6
ATOM      6  C   UNL     1      63.369  27.599  48.348  1.00  0.00     0.053 C 
BRANCH   6   7
ATOM      7  C   UNL     1      63.910  28.987  48.473  1.00  0.00     0.041 C 
ATOM      8  O   UNL     1      64.793  29.398  47.674  1.00  0.00    -0.550 OA
ATOM      9  O   UNL     1      63.476  29.812  49.502  1.00  0.00    -0.550 OA
ENDBRANCH   6   7
ENDBRANCH   5   6
ENDBRANCH   4   5
ENDBRANCH   3   4
ENDBRANCH   2   3
ENDBRANCH   1   2
BRANCH   1  10
ATOM     10  C   UNL     1      57.520  28.907  50.173  1.00  0.00     0.000 C 
BRANCH  10  11
ATOM     11  C   UNL     1      57.784  28.017  51.404  1.00  0.00    -0.000 C 
BRANCH  11  12
ATOM     12  C   UNL     1      57.180  26.600  51.331  1.00  0.00    -0.000 C 
BRANCH  12  13
ATOM     13  C   UNL     1      56.442  26.279  50.020  1.00  0.00    -0.000 C 
BRANCH  13  14
ATOM     14  C   UNL     1      54.916  26.201  50.201  1.00  0.00    -0.000 C 
BRANCH  14  15
ATOM     15  C   UNL     1      54.199  27.470  49.712  1.00  0.00    -0.003 C 
ATOM     16  C   UNL     1      54.025  28.511  50.818  1.00  0.00     0.004 C 
ENDBRANCH  14  15
ENDBRANCH  13  14
ENDBRANCH  12  13
ENDBRANCH  11  12
ENDBRANCH  10  11
ENDBRANCH   1  10
TORSDOF 12
ENDMDL
