MODEL 1
REMARK VINA RESULT:    -5.582      0.000      0.000
REMARK INTER + INTRA:         -12.541
REMARK INTER:                 -10.150
REMARK INTRA:                  -2.391
REMARK UNBOUND:                -2.391
REMARK SMILES CCCCCC=CCC=CCCCCCCCC(=O)[O-]
REMARK SMILES IDX 11 1 12 2 13 3 14 4 15 5 16 6 17 7 18 8 19 9 20 10 10 11
REMARK SMILES IDX 9 12 8 13 7 14 6 15 5 16 4 17 3 18 2 19 1 20
REMARK H PARENT
REMARK Flexibility Score: inf
ROOT
ATOM      1  C   UNL     1      40.482  40.784  17.041  1.00  0.00     0.027 C 
ENDROOT
BRANCH   1   2
ATOM      2  C   UNL     1      41.280  40.484  18.317  1.00  0.00     0.004 C 
BRANCH   2   3
ATOM      3  C   UNL     1      41.316  41.709  19.243  1.00  0.00     0.000 C 
BRANCH   3   4
ATOM      4  C   UNL     1      42.746  42.116  19.643  1.00  0.00     0.000 C 
BRANCH   4   5
ATOM      5  C   UNL     1      43.534  42.871  18.558  1.00  0.00     0.000 C 
BRANCH   5   6
ATOM      6  C   UNL     1      42.670  43.882  17.783  1.00  0.00     0.006 C 
BRANCH   6   7
ATOM      7  C   UNL     1      43.181  44.104  16.354  1.00  0.00     0.053 C 
BRANCH   7   8
ATOM      8  C   UNL     1      42.124  44.698  15.474  1.00  0.00     0.041 C 
ATOM      9  O   UNL     1      42.447  45.328  14.432  1.00  0.00    -0.550 OA
ATOM     10  O   UNL     1      40.782  44.524  15.785  1.00  0.00    -0.550 OA
ENDBRANCH   7   8
ENDBRANCH   6   7
ENDBRANCH   5   6
ENDBRANCH   4   5
ENDBRANCH   3   4
ENDBRANCH   2   3
ENDBRANCH   1   2
BRANCH   1  11
ATOM     11  C   UNL     1      41.395  40.962  15.860  1.00  0.00    -0.031 C 
ATOM     12  C   UNL     1      42.661  40.520  15.878  1.00  0.00    -0.027 C 
BRANCH  12  13
ATOM     13  C   UNL     1      43.567  40.694  14.691  1.00  0.00     0.054 C 
BRANCH  13  14
ATOM     14  C   UNL     1      44.563  39.564  14.599  1.00  0.00    -0.027 C 
ATOM     15  C   UNL     1      44.326  38.419  13.933  1.00  0.00    -0.031 C 
BRANCH  15  16
ATOM     16  C   UNL     1      43.070  38.138  13.150  1.00  0.00     0.027 C 
BRANCH  16  17
ATOM     17  C   UNL     1      42.303  36.957  13.758  1.00  0.00     0.004 C 
BRANCH  17  18
ATOM     18  C   UNL     1      40.802  37.060  13.448  1.00  0.00     0.000 C 
BRANCH  18  19
ATOM     19  C   UNL     1      40.298  38.512  13.452  1.00  0.00    -0.003 C 
ATOM     20  C   UNL     1      39.339  38.808  12.300  1.00  0.00     0.004 C 
ENDBRANCH  18  19
ENDBRANCH  17  18
ENDBRANCH  16  17
ENDBRANCH  15  16
ENDBRANCH  13  14
ENDBRANCH  12  13
ENDBRANCH   1  11
TORSDOF 14
ENDMDL
MODEL 2
REMARK VINA RESULT:    -5.554      0.958      1.944
REMARK INTER + INTRA:         -12.491
REMARK INTER:                 -10.536
REMARK INTRA:                  -1.955
REMARK UNBOUND:                -2.391
REMARK SMILES CCCCCC=CCC=CCCCCCCCC(=O)[O-]
REMARK SMILES IDX 11 1 12 2 13 3 14 4 15 5 16 6 17 7 18 8 19 9 20 10 10 11
REMARK SMILES IDX 9 12 8 13 7 14 6 15 5 16 4 17 3 18 2 19 1 20
REMARK H PARENT
REMARK Flexibility Score: inf
ROOT
ATOM      1  C   UNL     1      41.656  40.506  19.734  1.00  0.00     0.027 C 
ENDROOT
BRANCH   1   2
ATOM      2  C   UNL     1      41.658  42.011  20.034  1.00  0.00     0.004 C 
BRANCH   2   3
ATOM      3  C   UNL     1      43.019  42.458  20.587  1.00  0.00     0.000 C 
BRANCH   3   4
ATOM      4  C   UNL     1      43.787  43.378  19.621  1.00  0.00     0.000 C 
BRANCH   4   5
ATOM      5  C   UNL     1      43.300  43.337  18.161  1.00  0.00     0.000 C 
BRANCH   5   6
ATOM      6  C   UNL     1      43.530  44.662  17.414  1.00  0.00     0.006 C 
BRANCH   6   7
ATOM      7  C   UNL     1      42.925  44.646  16.005  1.00  0.00     0.053 C 
BRANCH   7   8
ATOM      8  C   UNL     1      41.488  45.067  16.015  1.00  0.00     0.041 C 
ATOM      9  O   UNL     1      41.185  46.290  16.027  1.00  0.00    -0.550 OA
ATOM     10  O   UNL     1      40.482  44.110  15.975  1.00  0.00    -0.550 OA
ENDBRANCH   7   8
ENDBRANCH   6   7
ENDBRANCH   5   6
ENDBRANCH   4   5
ENDBRANCH   3   4
ENDBRANCH   2   3
ENDBRANCH   1   2
BRANCH   1  11
ATOM     11  C   UNL     1      41.718  40.248  18.253  1.00  0.00    -0.031 C 
ATOM     12  C   UNL     1      40.904  40.882  17.395  1.00  0.00    -0.027 C 
BRANCH  12  13
ATOM     13  C   UNL     1      40.976  40.627  15.916  1.00  0.00     0.054 C 
BRANCH  13  14
ATOM     14  C   UNL     1      42.258  41.168  15.333  1.00  0.00    -0.027 C 
ATOM     15  C   UNL     1      43.263  40.386  14.900  1.00  0.00    -0.031 C 
BRANCH  15  16
ATOM     16  C   UNL     1      43.221  38.880  14.885  1.00  0.00     0.027 C 
BRANCH  16  17
ATOM     17  C   UNL     1      42.731  38.364  13.527  1.00  0.00     0.004 C 
BRANCH  17  18
ATOM     18  C   UNL     1      42.029  37.006  13.678  1.00  0.00     0.000 C 
BRANCH  18  19
ATOM     19  C   UNL     1      40.515  37.094  13.436  1.00  0.00    -0.003 C 
ATOM     20  C   UNL     1      40.072  38.475  12.953  1.00  0.00     0.004 C 
ENDBRANCH  18  19
ENDBRANCH  17  18
ENDBRANCH  16  17
ENDBRANCH  15  16
ENDBRANCH  13  14
ENDBRANCH  12  13
ENDBRANCH   1  11
TORSDOF 14
ENDMDL
MODEL 3
REMARK VINA RESULT:    -5.403      1.861      2.952
REMARK INTER + INTRA:         -12.215
REMARK INTER:                  -9.972
REMARK INTRA:                  -2.243
REMARK UNBOUND:                -2.391
REMARK SMILES CCCCCC=CCC=CCCCCCCCC(=O)[O-]
REMARK SMILES IDX 11 1 12 2 13 3 14 4 15 5 16 6 17 7 18 8 19 9 20 10 10 11
REMARK SMILES IDX 9 12 8 13 7 14 6 15 5 16 4 17 3 18 2 19 1 20
REMARK H PARENT
REMARK Flexibility Score: inf
ROOT
ATOM      1  C   UNL     1      40.824  41.244  15.833  1.00  0.00     0.027 C 
ENDROOT
BRANCH   1   2
ATOM      2  C   UNL     1      41.306  42.573  15.237  1.00  0.00     0.004 C 
BRANCH   2   3
ATOM      3  C   UNL     1      40.702  43.765  15.993  1.00  0.00     0.000 C 
BRANCH   3   4
ATOM      4  C   UNL     1      41.768  44.702  16.589  1.00  0.00     0.000 C 
BRANCH   4   5
ATOM      5  C   UNL     1      43.141  44.050  16.833  1.00  0.00     0.000 C 
BRANCH   5   6
ATOM      6  C   UNL     1      43.349  43.616  18.294  1.00  0.00     0.006 C 
BRANCH   6   7
ATOM      7  C   UNL     1      43.390  42.090  18.445  1.00  0.00     0.053 C 
BRANCH   7   8
ATOM      8  C   UNL     1      42.237  41.583  19.255  1.00  0.00     0.041 C 
ATOM      9  O   UNL     1      41.141  42.205  19.257  1.00  0.00    -0.550 OA
ATOM     10  O   UNL     1      42.360  40.405  19.980  1.00  0.00    -0.550 OA
ENDBRANCH   7   8
ENDBRANCH   6   7
ENDBRANCH   5   6
ENDBRANCH   4   5
ENDBRANCH   3   4
ENDBRANCH   2   3
ENDBRANCH   1   2
BRANCH   1  11
ATOM     11  C   UNL     1      41.919  40.214  15.818  1.00  0.00    -0.031 C 
ATOM     12  C   UNL     1      42.988  40.337  15.017  1.00  0.00    -0.027 C 
BRANCH  12  13
ATOM     13  C   UNL     1      44.084  39.308  15.012  1.00  0.00     0.054 C 
BRANCH  13  14
ATOM     14  C   UNL     1      44.252  38.700  13.642  1.00  0.00    -0.027 C 
ATOM     15  C   UNL     1      43.542  37.644  13.207  1.00  0.00    -0.031 C 
BRANCH  15  16
ATOM     16  C   UNL     1      42.455  36.967  14.002  1.00  0.00     0.027 C 
BRANCH  16  17
ATOM     17  C   UNL     1      41.129  36.984  13.231  1.00  0.00     0.004 C 
BRANCH  17  18
ATOM     18  C   UNL     1      40.317  38.244  13.565  1.00  0.00     0.000 C 
BRANCH  18  19
ATOM     19  C   UNL     1      39.590  38.819  12.340  1.00  0.00    -0.003 C 
ATOM     20  C   UNL     1      38.509  37.883  11.800  1.00  0.00     0.004 C 
ENDBRANCH  18  19
ENDBRANCH  17  18
ENDBRANCH  16  17
ENDBRANCH  15  16
ENDBRANCH  13  14
ENDBRANCH  12  13
ENDBRANCH   1  11
TORSDOF 14
ENDMDL
MODEL 4
REMARK VINA RESULT:    -4.939      1.810      2.717
REMARK INTER + INTRA:         -11.372
REMARK INTER:                  -9.877
REMARK INTRA:                  -1.495
REMARK UNBOUND:                -2.391
REMARK SMILES CCCCCC=CCC=CCCCCCCCC(=O)[O-]
REMARK SMILES IDX 11 1 12 2 13 3 14 4 15 5 16 6 17 7 18 8 19 9 20 10 10 11
REMARK SMILES IDX 9 12 8 13 7 14 6 15 5 16 4 17 3 18 2 19 1 20
REMARK H PARENT
REMARK Flexibility Score: inf
ROOT
ATOM      1  C   UNL     1      41.320  42.002  15.526  1.00  0.00     0.027 C 
ENDROOT
BRANCH   1   2
ATOM      2  C   UNL     1      40.695  40.893  16.382  1.00  0.00     0.004 C 
BRANCH   2   3
ATOM      3  C   UNL     1      40.725  41.268  17.871  1.00  0.00     0.000 C 
BRANCH   3   4
ATOM      4  C   UNL     1      41.673  40.379  18.696  1.00  0.00     0.000 C 
BRANCH   4   5
ATOM      5  C   UNL     1      41.636  40.625  20.215  1.00  0.00     0.000 C 
BRANCH   5   6
ATOM      6  C   UNL     1      41.958  42.080  20.596  1.00  0.00     0.006 C 
BRANCH   6   7
ATOM      7  C   UNL     1      43.461  42.378  20.527  1.00  0.00     0.053 C 
BRANCH   7   8
ATOM      8  C   UNL     1      43.755  43.542  19.630  1.00  0.00     0.041 C 
ATOM      9  O   UNL     1      44.358  44.552  20.080  1.00  0.00    -0.550 OA
ATOM     10  O   UNL     1      43.394  43.495  18.290  1.00  0.00    -0.550 OA
ENDBRANCH   7   8
ENDBRANCH   6   7
ENDBRANCH   5   6
ENDBRANCH   4   5
ENDBRANCH   3   4
ENDBRANCH   2   3
ENDBRANCH   1   2
BRANCH   1  11
ATOM     11  C   UNL     1      42.561  41.515  14.830  1.00  0.00    -0.031 C 
ATOM     12  C   UNL     1      43.255  40.461  15.287  1.00  0.00    -0.027 C 
BRANCH  12  13
ATOM     13  C   UNL     1      44.490  39.973  14.583  1.00  0.00     0.054 C 
BRANCH  13  14
ATOM     14  C   UNL     1      44.557  38.466  14.587  1.00  0.00    -0.027 C 
ATOM     15  C   UNL     1      43.671  37.682  13.946  1.00  0.00    -0.031 C 
BRANCH  15  16
ATOM     16  C   UNL     1      42.536  38.201  13.100  1.00  0.00     0.027 C 
BRANCH  16  17
ATOM     17  C   UNL     1      41.212  37.542  13.505  1.00  0.00     0.004 C 
BRANCH  17  18
ATOM     18  C   UNL     1      40.075  38.574  13.541  1.00  0.00     0.000 C 
BRANCH  18  19
ATOM     19  C   UNL     1      39.468  38.831  12.154  1.00  0.00    -0.003 C 
ATOM     20  C   UNL     1      38.392  37.812  11.780  1.00  0.00     0.004 C 
ENDBRANCH  18  19
ENDBRANCH  17  18
ENDBRANCH  16  17
ENDBRANCH  15  16
ENDBRANCH  13  14
ENDBRANCH  12  13
ENDBRANCH   1  11
TORSDOF 14
ENDMDL
MODEL 5
REMARK VINA RESULT:    -4.742      1.555      2.201
REMARK INTER + INTRA:         -11.014
REMARK INTER:                  -9.394
REMARK INTRA:                  -1.621
REMARK UNBOUND:                -2.391
REMARK SMILES CCCCCC=CCC=CCCCCCCCC(=O)[O-]
REMARK SMILES IDX 11 1 12 2 13 3 14 4 15 5 16 6 17 7 18 8 19 9 20 10 10 11
REMARK SMILES IDX 9 12 8 13 7 14 6 15 5 16 4 17 3 18 2 19 1 20
REMARK H PARENT
REMARK Flexibility Score: inf
ROOT
ATOM      1  C   UNL     1      41.174  40.664  17.624  1.00  0.00     0.027 C 
ENDROOT
BRANCH   1   2
ATOM      2  C   UNL     1      40.516  42.017  17.924  1.00  0.00     0.004 C 
BRANCH   2   3
ATOM      3  C   UNL     1      41.404  43.177  17.449  1.00  0.00     0.000 C 
BRANCH   3   4
ATOM      4  C   UNL     1      40.804  43.946  16.259  1.00  0.00     0.000 C 
BRANCH   4   5
ATOM      5  C   UNL     1      41.714  45.037  15.666  1.00  0.00     0.000 C 
BRANCH   5   6
ATOM      6  C   UNL     1      42.620  44.515  14.537  1.00  0.00     0.006 C 
BRANCH   6   7
ATOM      7  C   UNL     1      44.008  45.167  14.560  1.00  0.00     0.053 C 
BRANCH   7   8
ATOM      8  C   UNL     1      43.917  46.660  14.640  1.00  0.00     0.041 C 
ATOM      9  O   UNL     1      44.495  47.282  15.571  1.00  0.00    -0.550 OA
ATOM     10  O   UNL     1      43.223  47.368  13.667  1.00  0.00    -0.550 OA
ENDBRANCH   7   8
ENDBRANCH   6   7
ENDBRANCH   5   6
ENDBRANCH   4   5
ENDBRANCH   3   4
ENDBRANCH   2   3
ENDBRANCH   1   2
BRANCH   1  11
ATOM     11  C   UNL     1      41.738  40.633  16.230  1.00  0.00    -0.031 C 
ATOM     12  C   UNL     1      43.057  40.530  16.008  1.00  0.00    -0.027 C 
BRANCH  12  13
ATOM     13  C   UNL     1      43.615  40.490  14.612  1.00  0.00     0.054 C 
BRANCH  13  14
ATOM     14  C   UNL     1      44.705  39.455  14.493  1.00  0.00    -0.027 C 
ATOM     15  C   UNL     1      44.558  38.295  13.827  1.00  0.00    -0.031 C 
BRANCH  15  16
ATOM     16  C   UNL     1      43.315  37.905  13.069  1.00  0.00     0.027 C 
BRANCH  16  17
ATOM     17  C   UNL     1      42.444  36.959  13.906  1.00  0.00     0.004 C 
BRANCH  17  18
ATOM     18  C   UNL     1      40.961  37.107  13.533  1.00  0.00     0.000 C 
BRANCH  18  19
ATOM     19  C   UNL     1      40.561  38.567  13.273  1.00  0.00    -0.003 C 
ATOM     20  C   UNL     1      39.394  38.696  12.295  1.00  0.00     0.004 C 
ENDBRANCH  18  19
ENDBRANCH  17  18
ENDBRANCH  16  17
ENDBRANCH  15  16
ENDBRANCH  13  14
ENDBRANCH  12  13
ENDBRANCH   1  11
TORSDOF 14
ENDMDL
MODEL 6
REMARK VINA RESULT:    -4.669      2.480      6.502
REMARK INTER + INTRA:         -10.882
REMARK INTER:                  -9.043
REMARK INTRA:                  -1.839
REMARK UNBOUND:                -2.391
REMARK SMILES CCCCCC=CCC=CCCCCCCCC(=O)[O-]
REMARK SMILES IDX 11 1 12 2 13 3 14 4 15 5 16 6 17 7 18 8 19 9 20 10 10 11
REMARK SMILES IDX 9 12 8 13 7 14 6 15 5 16 4 17 3 18 2 19 1 20
REMARK H PARENT
REMARK Flexibility Score: inf
ROOT
ATOM      1  C   UNL     1      41.626  40.775  15.007  1.00  0.00     0.027 C 
ENDROOT
BRANCH   1   2
ATOM      2  C   UNL     1      43.156  40.827  15.101  1.00  0.00     0.004 C 
BRANCH   2   3
ATOM      3  C   UNL     1      43.795  39.677  14.308  1.00  0.00     0.000 C 
BRANCH   3   4
ATOM      4  C   UNL     1      43.545  38.298  14.945  1.00  0.00     0.000 C 
BRANCH   4   5
ATOM      5  C   UNL     1      42.916  37.254  14.005  1.00  0.00     0.000 C 
BRANCH   5   6
ATOM      6  C   UNL     1      41.865  37.856  13.056  1.00  0.00     0.006 C 
BRANCH   6   7
ATOM      7  C   UNL     1      40.439  37.427  13.424  1.00  0.00     0.053 C 
BRANCH   7   8
ATOM      8  C   UNL     1      39.413  38.177  12.631  1.00  0.00     0.041 C 
ATOM      9  O   UNL     1      39.376  39.435  12.672  1.00  0.00    -0.550 OA
ATOM     10  O   UNL     1      38.522  37.488  11.819  1.00  0.00    -0.550 OA
ENDBRANCH   7   8
ENDBRANCH   6   7
ENDBRANCH   5   6
ENDBRANCH   4   5
ENDBRANCH   3   4
ENDBRANCH   2   3
ENDBRANCH   1   2
BRANCH   1  11
ATOM     11  C   UNL     1      40.997  40.839  16.371  1.00  0.00    -0.031 C 
ATOM     12  C   UNL     1      41.595  40.304  17.446  1.00  0.00    -0.027 C 
BRANCH  12  13
ATOM     13  C   UNL     1      40.965  40.378  18.810  1.00  0.00     0.054 C 
BRANCH  13  14
ATOM     14  C   UNL     1      42.014  40.355  19.893  1.00  0.00    -0.027 C 
ATOM     15  C   UNL     1      42.777  41.417  20.210  1.00  0.00    -0.031 C 
BRANCH  15  16
ATOM     16  C   UNL     1      42.648  42.775  19.570  1.00  0.00     0.027 C 
BRANCH  16  17
ATOM     17  C   UNL     1      43.538  42.875  18.325  1.00  0.00     0.004 C 
BRANCH  17  18
ATOM     18  C   UNL     1      43.138  44.081  17.461  1.00  0.00     0.000 C 
BRANCH  18  19
ATOM     19  C   UNL     1      41.688  43.992  16.960  1.00  0.00    -0.003 C 
ATOM     20  C   UNL     1      41.340  45.090  15.955  1.00  0.00     0.004 C 
ENDBRANCH  18  19
ENDBRANCH  17  18
ENDBRANCH  16  17
ENDBRANCH  15  16
ENDBRANCH  13  14
ENDBRANCH  12  13
ENDBRANCH   1  11
TORSDOF 14
ENDMDL
MODEL 7
REMARK VINA RESULT:    -4.647     11.031     12.681
REMARK INTER + INTRA:         -10.841
REMARK INTER:                  -9.707
REMARK INTRA:                  -1.133
REMARK UNBOUND:                -2.391
REMARK SMILES CCCCCC=CCC=CCCCCCCCC(=O)[O-]
REMARK SMILES IDX 11 1 12 2 13 3 14 4 15 5 16 6 17 7 18 8 19 9 20 10 10 11
REMARK SMILES IDX 9 12 8 13 7 14 6 15 5 16 4 17 3 18 2 19 1 20
REMARK H PARENT
REMARK Flexibility Score: inf
ROOT
ATOM      1  C   UNL     1      41.914  30.396  17.073  1.00  0.00     0.027 C 
ENDROOT
BRANCH   1   2
ATOM      2  C   UNL     1      43.419  30.660  17.213  1.00  0.00     0.004 C 
BRANCH   2   3
ATOM      3  C   UNL     1      44.018  29.830  18.358  1.00  0.00     0.000 C 
BRANCH   3   4
ATOM      4  C   UNL     1      43.137  28.631  18.755  1.00  0.00     0.000 C 
BRANCH   4   5
ATOM      5  C   UNL     1      43.523  27.955  20.083  1.00  0.00     0.000 C 
BRANCH   5   6
ATOM      6  C   UNL     1      44.414  28.840  20.972  1.00  0.00     0.006 C 
BRANCH   6   7
ATOM      7  C   UNL     1      44.267  28.501  22.460  1.00  0.00     0.053 C 
BRANCH   7   8
ATOM      8  C   UNL     1      43.642  29.626  23.226  1.00  0.00     0.041 C 
ATOM      9  O   UNL     1      43.169  29.425  24.376  1.00  0.00    -0.550 OA
ATOM     10  O   UNL     1      43.614  30.905  22.684  1.00  0.00    -0.550 OA
ENDBRANCH   7   8
ENDBRANCH   6   7
ENDBRANCH   5   6
ENDBRANCH   4   5
ENDBRANCH   3   4
ENDBRANCH   2   3
ENDBRANCH   1   2
BRANCH   1  11
ATOM     11  C   UNL     1      41.543  30.123  15.641  1.00  0.00    -0.031 C 
ATOM     12  C   UNL     1      41.612  28.888  15.121  1.00  0.00    -0.027 C 
BRANCH  12  13
ATOM     13  C   UNL     1      41.231  28.618  13.692  1.00  0.00     0.054 C 
BRANCH  13  14
ATOM     14  C   UNL     1      39.886  27.940  13.608  1.00  0.00    -0.027 C 
ATOM     15  C   UNL     1      38.718  28.607  13.608  1.00  0.00    -0.031 C 
BRANCH  15  16
ATOM     16  C   UNL     1      38.599  30.109  13.635  1.00  0.00     0.027 C 
BRANCH  16  17
ATOM     17  C   UNL     1      37.586  30.555  14.697  1.00  0.00     0.004 C 
BRANCH  17  18
ATOM     18  C   UNL     1      36.980  31.919  14.338  1.00  0.00     0.000 C 
BRANCH  18  19
ATOM     19  C   UNL     1      35.473  31.837  14.046  1.00  0.00    -0.003 C 
ATOM     20  C   UNL     1      35.011  30.419  13.714  1.00  0.00     0.004 C 
ENDBRANCH  18  19
ENDBRANCH  17  18
ENDBRANCH  16  17
ENDBRANCH  15  16
ENDBRANCH  13  14
ENDBRANCH  12  13
ENDBRANCH   1  11
TORSDOF 14
ENDMDL
MODEL 8
REMARK VINA RESULT:    -4.555      2.628      6.597
REMARK INTER + INTRA:         -10.674
REMARK INTER:                  -8.901
REMARK INTRA:                  -1.773
REMARK UNBOUND:                -2.391
REMARK SMILES CCCCCC=CCC=CCCCCCCCC(=O)[O-]
REMARK SMILES IDX 11 1 12 2 13 3 14 4 15 5 16 6 17 7 18 8 19 9 20 10 10 11
REMARK SMILES IDX 9 12 8 13 7 14 6 15 5 16 4 17 3 18 2 19 1 20
REMARK H PARENT
REMARK Flexibility Score: inf
ROOT
ATOM      1  C   UNL     1      43.603  39.842  15.482  1.00  0.00     0.027 C 
ENDROOT
BRANCH   1   2
ATOM      2  C   UNL     1      44.763  39.481  14.546  1.00  0.00     0.004 C 
BRANCH   2   3
ATOM      3  C   UNL     1      44.781  37.974  14.249  1.00  0.00     0.000 C 
BRANCH   3   4
ATOM      4  C   UNL     1      43.829  37.576  13.107  1.00  0.00     0.000 C 
BRANCH   4   5
ATOM      5  C   UNL     1      42.518  36.907  13.559  1.00  0.00     0.000 C 
BRANCH   5   6
ATOM      6  C   UNL     1      41.321  37.875  13.565  1.00  0.00     0.006 C 
BRANCH   6   7
ATOM      7  C   UNL     1      40.023  37.194  13.114  1.00  0.00     0.053 C 
BRANCH   7   8
ATOM      8  C   UNL     1      39.156  38.125  12.324  1.00  0.00     0.041 C 
ATOM      9  O   UNL     1      39.331  39.370  12.396  1.00  0.00    -0.550 OA
ATOM     10  O   UNL     1      38.178  37.615  11.479  1.00  0.00    -0.550 OA
ENDBRANCH   7   8
ENDBRANCH   6   7
ENDBRANCH   5   6
ENDBRANCH   4   5
ENDBRANCH   3   4
ENDBRANCH   2   3
ENDBRANCH   1   2
BRANCH   1  11
ATOM     11  C   UNL     1      42.834  41.026  14.962  1.00  0.00    -0.031 C 
ATOM     12  C   UNL     1      43.333  42.269  15.024  1.00  0.00    -0.027 C 
BRANCH  12  13
ATOM     13  C   UNL     1      42.564  43.448  14.495  1.00  0.00     0.054 C 
BRANCH  13  14
ATOM     14  C   UNL     1      42.280  44.446  15.590  1.00  0.00    -0.027 C 
ATOM     15  C   UNL     1      41.237  44.344  16.434  1.00  0.00    -0.031 C 
BRANCH  15  16
ATOM     16  C   UNL     1      40.257  43.199  16.436  1.00  0.00     0.027 C 
BRANCH  16  17
ATOM     17  C   UNL     1      40.597  42.194  17.543  1.00  0.00     0.004 C 
BRANCH  17  18
ATOM     18  C   UNL     1      41.739  42.719  18.426  1.00  0.00     0.000 C 
BRANCH  18  19
ATOM     19  C   UNL     1      42.449  41.596  19.199  1.00  0.00    -0.003 C 
ATOM     20  C   UNL     1      41.710  40.261  19.116  1.00  0.00     0.004 C 
ENDBRANCH  18  19
ENDBRANCH  17  18
ENDBRANCH  16  17
ENDBRANCH  15  16
ENDBRANCH  13  14
ENDBRANCH  12  13
ENDBRANCH   1  11
TORSDOF 14
ENDMDL
MODEL 9
REMARK VINA RESULT:    -4.446      2.997      7.571
REMARK INTER + INTRA:         -10.476
REMARK INTER:                  -9.304
REMARK INTRA:                  -1.172
REMARK UNBOUND:                -2.391
REMARK SMILES CCCCCC=CCC=CCCCCCCCC(=O)[O-]
REMARK SMILES IDX 11 1 12 2 13 3 14 4 15 5 16 6 17 7 18 8 19 9 20 10 10 11
REMARK SMILES IDX 9 12 8 13 7 14 6 15 5 16 4 17 3 18 2 19 1 20
REMARK H PARENT
REMARK Flexibility Score: inf
ROOT
ATOM      1  C   UNL     1      40.627  40.924  16.625  1.00  0.00     0.027 C 
ENDROOT
BRANCH   1   2
ATOM      2  C   UNL     1      41.541  41.675  15.648  1.00  0.00     0.004 C 
BRANCH   2   3
ATOM      3  C   UNL     1      43.013  41.302  15.877  1.00  0.00     0.000 C 
BRANCH   3   4
ATOM      4  C   UNL     1      43.651  40.600  14.664  1.00  0.00     0.000 C 
BRANCH   4   5
ATOM      5  C   UNL     1      43.757  39.069  14.782  1.00  0.00     0.000 C 
BRANCH   5   6
ATOM      6  C   UNL     1      43.226  38.332  13.540  1.00  0.00     0.006 C 
BRANCH   6   7
ATOM      7  C   UNL     1      42.204  37.248  13.903  1.00  0.00     0.053 C 
BRANCH   7   8
ATOM      8  C   UNL     1      40.819  37.625  13.473  1.00  0.00     0.041 C 
ATOM      9  O   UNL     1      40.057  36.762  12.962  1.00  0.00    -0.550 OA
ATOM     10  O   UNL     1      40.359  38.921  13.668  1.00  0.00    -0.550 OA
ENDBRANCH   7   8
ENDBRANCH   6   7
ENDBRANCH   5   6
ENDBRANCH   4   5
ENDBRANCH   3   4
ENDBRANCH   2   3
ENDBRANCH   1   2
BRANCH   1  11
ATOM     11  C   UNL     1      41.010  41.206  18.052  1.00  0.00    -0.031 C 
ATOM     12  C   UNL     1      41.660  40.299  18.797  1.00  0.00    -0.027 C 
BRANCH  12  13
ATOM     13  C   UNL     1      42.048  40.589  20.220  1.00  0.00     0.054 C 
BRANCH  13  14
ATOM     14  C   UNL     1      41.569  41.955  20.645  1.00  0.00    -0.027 C 
ATOM     15  C   UNL     1      42.377  43.025  20.751  1.00  0.00    -0.031 C 
BRANCH  15  16
ATOM     16  C   UNL     1      43.844  43.017  20.406  1.00  0.00     0.027 C 
BRANCH  16  17
ATOM     17  C   UNL     1      44.695  43.318  21.646  1.00  0.00     0.004 C 
BRANCH  17  18
ATOM     18  C   UNL     1      44.900  44.831  21.816  1.00  0.00     0.000 C 
BRANCH  18  19
ATOM     19  C   UNL     1      44.954  45.573  20.472  1.00  0.00    -0.003 C 
ATOM     20  C   UNL     1      44.730  47.078  20.617  1.00  0.00     0.004 C 
ENDBRANCH  18  19
ENDBRANCH  17  18
ENDBRANCH  16  17
ENDBRANCH  15  16
ENDBRANCH  13  14
ENDBRANCH  12  13
ENDBRANCH   1  11
TORSDOF 14
ENDMDL
