MODEL 1
REMARK VINA RESULT:    -1.882      0.000      0.000
REMARK INTER + INTRA:          -2.798
REMARK INTER:                  -2.322
REMARK INTRA:                  -0.476
REMARK UNBOUND:                -0.476
REMARK SMILES C=CC[C@H](C)C(=O)CC
REMARK SMILES IDX 4 1 5 2 6 3 7 4 8 5 9 6 3 7 2 8 1 9
REMARK H PARENT
REMARK Flexibility Score: inf
ROOT
ATOM      1  C   UNL     1      30.453  56.651  11.499  1.00  0.00     0.057 C 
ATOM      2  C   UNL     1      29.104  55.943  11.315  1.00  0.00     0.016 C 
ENDROOT
BRANCH   1   3
ATOM      3  C   UNL     1      31.129  56.824  10.155  1.00  0.00     0.135 C 
ATOM      4  O   UNL     1      31.201  55.875   9.386  1.00  0.00    -0.299 OA
BRANCH   3   5
ATOM      5  C   UNL     1      31.727  58.145   9.747  1.00  0.00     0.072 C 
ATOM      6  C   UNL     1      31.057  59.295  10.489  1.00  0.00     0.012 C 
ENDBRANCH   3   5
ENDBRANCH   1   3
BRANCH   1   7
ATOM      7  C   UNL     1      31.379  55.875  12.458  1.00  0.00     0.038 C 
BRANCH   7   8
ATOM      8  C   UNL     1      31.711  56.663  13.698  1.00  0.00    -0.034 C 
ATOM      9  C   UNL     1      31.112  57.824  13.975  1.00  0.00     0.004 C 
ENDBRANCH   7   8
ENDBRANCH   1   7
TORSDOF 4
ENDMDL
MODEL 2
REMARK VINA RESULT:    -1.838      1.856      3.184
REMARK INTER + INTRA:          -2.744
REMARK INTER:                  -2.271
REMARK INTRA:                  -0.473
REMARK UNBOUND:                -0.476
REMARK SMILES C=CC[C@H](C)C(=O)CC
REMARK SMILES IDX 4 1 5 2 6 3 7 4 8 5 9 6 3 7 2 8 1 9
REMARK H PARENT
REMARK Flexibility Score: inf
ROOT
ATOM      1  C   UNL     1      31.067  56.720  11.820  1.00  0.00     0.057 C 
ATOM      2  C   UNL     1      31.528  55.876  13.017  1.00  0.00     0.016 C 
ENDROOT
BRANCH   1   3
ATOM      3  C   UNL     1      29.734  57.366  12.131  1.00  0.00     0.135 C 
ATOM      4  O   UNL     1      28.801  56.675  12.519  1.00  0.00    -0.299 OA
BRANCH   3   5
ATOM      5  C   UNL     1      29.527  58.848  11.964  1.00  0.00     0.072 C 
ATOM      6  C   UNL     1      30.782  59.618  12.359  1.00  0.00     0.012 C 
ENDBRANCH   3   5
ENDBRANCH   1   3
BRANCH   1   7
ATOM      7  C   UNL     1      30.956  55.875  10.534  1.00  0.00     0.038 C 
BRANCH   7   8
ATOM      8  C   UNL     1      31.295  56.665   9.298  1.00  0.00    -0.034 C 
ATOM      9  C   UNL     1      32.047  57.768   9.351  1.00  0.00     0.004 C 
ENDBRANCH   7   8
ENDBRANCH   1   7
TORSDOF 4
ENDMDL
MODEL 3
REMARK VINA RESULT:    -1.765      1.465      3.798
REMARK INTER + INTRA:          -2.654
REMARK INTER:                  -2.401
REMARK INTRA:                  -0.253
REMARK UNBOUND:                -0.476
REMARK SMILES C=CC[C@H](C)C(=O)CC
REMARK SMILES IDX 4 1 5 2 6 3 7 4 8 5 9 6 3 7 2 8 1 9
REMARK H PARENT
REMARK Flexibility Score: inf
ROOT
ATOM      1  C   UNL     1      31.378  57.490  10.331  1.00  0.00     0.057 C 
ATOM      2  C   UNL     1      31.741  57.072   8.900  1.00  0.00     0.016 C 
ENDROOT
BRANCH   1   3
ATOM      3  C   UNL     1      30.058  56.865  10.729  1.00  0.00     0.135 C 
ATOM      4  O   UNL     1      29.037  57.170  10.129  1.00  0.00    -0.299 OA
BRANCH   3   5
ATOM      5  C   UNL     1      29.974  55.875  11.861  1.00  0.00     0.072 C 
ATOM      6  C   UNL     1      31.258  55.881  12.682  1.00  0.00     0.012 C 
ENDBRANCH   3   5
ENDBRANCH   1   3
BRANCH   1   7
ATOM      7  C   UNL     1      31.298  59.025  10.475  1.00  0.00     0.038 C 
BRANCH   7   8
ATOM      8  C   UNL     1      32.123  59.741   9.439  1.00  0.00    -0.034 C 
ATOM      9  C   UNL     1      32.030  61.061   9.255  1.00  0.00     0.004 C 
ENDBRANCH   7   8
ENDBRANCH   1   7
TORSDOF 4
ENDMDL
MODEL 4
REMARK VINA RESULT:    -1.721      1.715      3.368
REMARK INTER + INTRA:          -2.599
REMARK INTER:                  -2.290
REMARK INTRA:                  -0.309
REMARK UNBOUND:                -0.476
REMARK SMILES C=CC[C@H](C)C(=O)CC
REMARK SMILES IDX 4 1 5 2 6 3 7 4 8 5 9 6 3 7 2 8 1 9
REMARK H PARENT
REMARK Flexibility Score: inf
ROOT
ATOM      1  C   UNL     1      31.191  56.918  11.089  1.00  0.00     0.057 C 
ATOM      2  C   UNL     1      31.016  55.876   9.976  1.00  0.00     0.016 C 
ENDROOT
BRANCH   1   3
ATOM      3  C   UNL     1      30.775  56.324  12.418  1.00  0.00     0.135 C 
ATOM      4  O   UNL     1      29.587  56.167  12.667  1.00  0.00    -0.299 OA
BRANCH   3   5
ATOM      5  C   UNL     1      31.798  55.928  13.451  1.00  0.00     0.072 C 
ATOM      6  C   UNL     1      32.059  57.074  14.421  1.00  0.00     0.012 C 
ENDBRANCH   3   5
ENDBRANCH   1   3
BRANCH   1   7
ATOM      7  C   UNL     1      30.377  58.198  10.807  1.00  0.00     0.038 C 
BRANCH   7   8
ATOM      8  C   UNL     1      30.822  59.360  11.655  1.00  0.00    -0.034 C 
ATOM      9  C   UNL     1      31.155  60.536  11.119  1.00  0.00     0.004 C 
ENDBRANCH   7   8
ENDBRANCH   1   7
TORSDOF 4
ENDMDL
MODEL 5
REMARK VINA RESULT:    -1.720      2.097      3.955
REMARK INTER + INTRA:          -2.598
REMARK INTER:                  -2.124
REMARK INTRA:                  -0.475
REMARK UNBOUND:                -0.476
REMARK SMILES C=CC[C@H](C)C(=O)CC
REMARK SMILES IDX 4 1 5 2 6 3 7 4 8 5 9 6 3 7 2 8 1 9
REMARK H PARENT
REMARK Flexibility Score: inf
ROOT
ATOM      1  C   UNL     1      30.311  58.482  11.151  1.00  0.00     0.057 C 
ATOM      2  C   UNL     1      28.927  59.144  11.100  1.00  0.00     0.016 C 
ENDROOT
BRANCH   1   3
ATOM      3  C   UNL     1      30.769  58.361  12.589  1.00  0.00     0.135 C 
ATOM      4  O   UNL     1      30.625  59.306  13.353  1.00  0.00    -0.299 OA
BRANCH   3   5
ATOM      5  C   UNL     1      31.412  57.098  13.099  1.00  0.00     0.072 C 
ATOM      6  C   UNL     1      30.835  55.875  12.396  1.00  0.00     0.012 C 
ENDBRANCH   3   5
ENDBRANCH   1   3
BRANCH   1   7
ATOM      7  C   UNL     1      31.353  59.273  10.332  1.00  0.00     0.038 C 
BRANCH   7   8
ATOM      8  C   UNL     1      32.070  58.408   9.329  1.00  0.00    -0.034 C 
ATOM      9  C   UNL     1      31.704  57.145   9.100  1.00  0.00     0.004 C 
ENDBRANCH   7   8
ENDBRANCH   1   7
TORSDOF 4
ENDMDL
MODEL 6
REMARK VINA RESULT:    -1.683      1.172      2.982
REMARK INTER + INTRA:          -2.552
REMARK INTER:                  -2.186
REMARK INTRA:                  -0.366
REMARK UNBOUND:                -0.476
REMARK SMILES C=CC[C@H](C)C(=O)CC
REMARK SMILES IDX 4 1 5 2 6 3 7 4 8 5 9 6 3 7 2 8 1 9
REMARK H PARENT
REMARK Flexibility Score: inf
ROOT
ATOM      1  C   UNL     1      31.432  58.011  10.711  1.00  0.00     0.057 C 
ATOM      2  C   UNL     1      31.772  58.460   9.283  1.00  0.00     0.016 C 
ENDROOT
BRANCH   1   3
ATOM      3  C   UNL     1      31.061  56.543  10.714  1.00  0.00     0.135 C 
ATOM      4  O   UNL     1      31.222  55.875   9.701  1.00  0.00    -0.299 OA
BRANCH   3   5
ATOM      5  C   UNL     1      30.486  55.886  11.941  1.00  0.00     0.072 C 
ATOM      6  C   UNL     1      31.495  55.894  13.083  1.00  0.00     0.012 C 
ENDBRANCH   3   5
ENDBRANCH   1   3
BRANCH   1   7
ATOM      7  C   UNL     1      30.283  58.846  11.314  1.00  0.00     0.038 C 
BRANCH   7   8
ATOM      8  C   UNL     1      30.775  59.869  12.304  1.00  0.00    -0.034 C 
ATOM      9  C   UNL     1      30.548  59.746  13.614  1.00  0.00     0.004 C 
ENDBRANCH   7   8
ENDBRANCH   1   7
TORSDOF 4
ENDMDL
MODEL 7
REMARK VINA RESULT:    -1.669      2.100      3.468
REMARK INTER + INTRA:          -2.535
REMARK INTER:                  -2.052
REMARK INTRA:                  -0.483
REMARK UNBOUND:                -0.476
REMARK SMILES C=CC[C@H](C)C(=O)CC
REMARK SMILES IDX 4 1 5 2 6 3 7 4 8 5 9 6 3 7 2 8 1 9
REMARK H PARENT
REMARK Flexibility Score: inf
ROOT
ATOM      1  C   UNL     1      30.787  56.779  12.261  1.00  0.00     0.057 C 
ATOM      2  C   UNL     1      31.750  56.422  13.401  1.00  0.00     0.016 C 
ENDROOT
BRANCH   1   3
ATOM      3  C   UNL     1      29.356  56.665  12.743  1.00  0.00     0.135 C 
ATOM      4  O   UNL     1      29.111  56.055  13.775  1.00  0.00    -0.299 OA
BRANCH   3   5
ATOM      5  C   UNL     1      28.221  57.282  11.969  1.00  0.00     0.072 C 
ATOM      6  C   UNL     1      28.507  58.747  11.663  1.00  0.00     0.012 C 
ENDBRANCH   3   5
ENDBRANCH   1   3
BRANCH   1   7
ATOM      7  C   UNL     1      31.000  55.875  11.028  1.00  0.00     0.038 C 
BRANCH   7   8
ATOM      8  C   UNL     1      31.166  56.667   9.758  1.00  0.00    -0.034 C 
ATOM      9  C   UNL     1      31.745  57.871   9.750  1.00  0.00     0.004 C 
ENDBRANCH   7   8
ENDBRANCH   1   7
TORSDOF 4
ENDMDL
MODEL 8
REMARK VINA RESULT:    -1.665      1.928      4.146
REMARK INTER + INTRA:          -2.531
REMARK INTER:                  -2.230
REMARK INTRA:                  -0.301
REMARK UNBOUND:                -0.476
REMARK SMILES C=CC[C@H](C)C(=O)CC
REMARK SMILES IDX 4 1 5 2 6 3 7 4 8 5 9 6 3 7 2 8 1 9
REMARK H PARENT
REMARK Flexibility Score: inf
ROOT
ATOM      1  C   UNL     1      31.259  58.276   9.708  1.00  0.00     0.057 C 
ATOM      2  C   UNL     1      32.047  59.575   9.493  1.00  0.00     0.016 C 
ENDROOT
BRANCH   1   3
ATOM      3  C   UNL     1      31.055  58.039  11.190  1.00  0.00     0.135 C 
ATOM      4  O   UNL     1      30.922  58.993  11.944  1.00  0.00    -0.299 OA
BRANCH   3   5
ATOM      5  C   UNL     1      31.022  56.645  11.760  1.00  0.00     0.072 C 
ATOM      6  C   UNL     1      31.635  56.616  13.155  1.00  0.00     0.012 C 
ENDBRANCH   3   5
ENDBRANCH   1   3
BRANCH   1   7
ATOM      7  C   UNL     1      31.972  57.063   9.075  1.00  0.00     0.038 C 
BRANCH   7   8
ATOM      8  C   UNL     1      31.123  56.375   8.038  1.00  0.00    -0.034 C 
ATOM      9  C   UNL     1      29.920  55.875   8.333  1.00  0.00     0.004 C 
ENDBRANCH   7   8
ENDBRANCH   1   7
TORSDOF 4
ENDMDL
MODEL 9
REMARK VINA RESULT:    -1.643      1.441      2.705
REMARK INTER + INTRA:          -2.503
REMARK INTER:                  -2.161
REMARK INTRA:                  -0.342
REMARK UNBOUND:                -0.476
REMARK SMILES C=CC[C@H](C)C(=O)CC
REMARK SMILES IDX 4 1 5 2 6 3 7 4 8 5 9 6 3 7 2 8 1 9
REMARK H PARENT
REMARK Flexibility Score: inf
ROOT
ATOM      1  C   UNL     1      30.912  56.442   9.880  1.00  0.00     0.057 C 
ATOM      2  C   UNL     1      31.678  57.768   9.774  1.00  0.00     0.016 C 
ENDROOT
BRANCH   1   3
ATOM      3  C   UNL     1      29.478  56.642   9.437  1.00  0.00     0.135 C 
ATOM      4  O   UNL     1      29.233  57.368   8.483  1.00  0.00    -0.299 OA
BRANCH   3   5
ATOM      5  C   UNL     1      28.339  55.969  10.157  1.00  0.00     0.072 C 
ATOM      6  C   UNL     1      27.448  56.999  10.842  1.00  0.00     0.012 C 
ENDBRANCH   3   5
ENDBRANCH   1   3
BRANCH   1   7
ATOM      7  C   UNL     1      30.946  55.875  11.314  1.00  0.00     0.038 C 
BRANCH   7   8
ATOM      8  C   UNL     1      31.229  56.937  12.344  1.00  0.00    -0.034 C 
ATOM      9  C   UNL     1      31.744  56.638  13.540  1.00  0.00     0.004 C 
ENDBRANCH   7   8
ENDBRANCH   1   7
TORSDOF 4
ENDMDL
