MODEL 1
REMARK VINA RESULT:    -5.181      0.000      0.000
REMARK INTER + INTRA:          -5.824
REMARK INTER:                  -5.635
REMARK INTRA:                  -0.189
REMARK UNBOUND:                -0.189
REMARK SMILES Cc1ccc(C(C)C)c(O)c1
REMARK SMILES IDX 1 1 2 2 11 3 9 4 5 5 4 6 3 7 10 8 6 10 7 11 8 12
REMARK H PARENT 10 9
REMARK Flexibility Score: inf
ROOT
ATOM      1  C   UNL     1      21.918   9.893  22.237  1.00  0.00     0.044 C 
ATOM      2  C   UNL     1      23.343   9.422  22.226  1.00  0.00    -0.047 A 
ATOM      3  C   UNL     1      24.387  10.337  22.051  1.00  0.00     0.049 A 
ATOM      4  C   UNL     1      25.723   9.920  22.086  1.00  0.00     0.119 A 
ATOM      5  C   UNL     1      26.032   8.543  22.258  1.00  0.00    -0.004 A 
ATOM      6  C   UNL     1      24.969   7.646  22.500  1.00  0.00     0.008 A 
ATOM      7  C   UNL     1      23.643   8.081  22.481  1.00  0.00     0.004 A 
ENDROOT
BRANCH   4   8
ATOM      8  O   UNL     1      26.705  10.907  21.969  1.00  0.00    -0.508 OA
ATOM      9  H   UNL     1      26.670  11.665  21.302  1.00  0.00     0.293 HD
ENDBRANCH   4   8
BRANCH   5  10
ATOM     10  C   UNL     1      27.473   8.042  22.261  1.00  0.00     0.017 C 
ATOM     11  C   UNL     1      27.974   7.878  23.699  1.00  0.00     0.012 C 
ATOM     12  C   UNL     1      27.667   6.740  21.465  1.00  0.00     0.012 C 
ENDBRANCH   5  10
TORSDOF 2
ENDMDL
MODEL 2
REMARK VINA RESULT:    -5.161      2.886      3.652
REMARK INTER + INTRA:          -5.803
REMARK INTER:                  -5.612
REMARK INTRA:                  -0.191
REMARK UNBOUND:                -0.189
REMARK SMILES Cc1ccc(C(C)C)c(O)c1
REMARK SMILES IDX 1 1 2 2 11 3 9 4 5 5 4 6 3 7 10 8 6 10 7 11 8 12
REMARK H PARENT 10 9
REMARK Flexibility Score: inf
ROOT
ATOM      1  C   UNL     1      23.813   7.687  17.400  1.00  0.00     0.044 C 
ATOM      2  C   UNL     1      24.829   7.397  18.465  1.00  0.00    -0.047 A 
ATOM      3  C   UNL     1      24.621   7.839  19.777  1.00  0.00     0.049 A 
ATOM      4  C   UNL     1      25.535   7.535  20.792  1.00  0.00     0.119 A 
ATOM      5  C   UNL     1      26.717   6.806  20.488  1.00  0.00    -0.004 A 
ATOM      6  C   UNL     1      26.875   6.311  19.176  1.00  0.00     0.008 A 
ATOM      7  C   UNL     1      25.944   6.606  18.178  1.00  0.00     0.004 A 
ENDROOT
BRANCH   4   8
ATOM      8  O   UNL     1      25.219   7.958  22.086  1.00  0.00    -0.508 OA
ATOM      9  H   UNL     1      24.628   8.751  22.295  1.00  0.00     0.293 HD
ENDBRANCH   4   8
BRANCH   5  10
ATOM     10  C   UNL     1      27.758   6.490  21.557  1.00  0.00     0.017 C 
ATOM     11  C   UNL     1      27.454   5.138  22.210  1.00  0.00     0.012 C 
ATOM     12  C   UNL     1      29.203   6.527  21.030  1.00  0.00     0.012 C 
ENDBRANCH   5  10
TORSDOF 2
ENDMDL
MODEL 3
REMARK VINA RESULT:    -5.127      3.255      4.023
REMARK INTER + INTRA:          -5.766
REMARK INTER:                  -5.576
REMARK INTRA:                  -0.191
REMARK UNBOUND:                -0.189
REMARK SMILES Cc1ccc(C(C)C)c(O)c1
REMARK SMILES IDX 1 1 2 2 11 3 9 4 5 5 4 6 3 7 10 8 6 10 7 11 8 12
REMARK H PARENT 10 9
REMARK Flexibility Score: inf
ROOT
ATOM      1  C   UNL     1      23.994   7.558  17.416  1.00  0.00     0.044 C 
ATOM      2  C   UNL     1      24.976   7.158  18.477  1.00  0.00    -0.047 A 
ATOM      3  C   UNL     1      26.282   6.796  18.129  1.00  0.00     0.049 A 
ATOM      4  C   UNL     1      27.224   6.467  19.112  1.00  0.00     0.119 A 
ATOM      5  C   UNL     1      26.845   6.456  20.482  1.00  0.00    -0.004 A 
ATOM      6  C   UNL     1      25.545   6.890  20.818  1.00  0.00     0.008 A 
ATOM      7  C   UNL     1      24.623   7.232  19.827  1.00  0.00     0.004 A 
ENDROOT
BRANCH   4   8
ATOM      8  O   UNL     1      28.524   6.182  18.683  1.00  0.00    -0.508 OA
ATOM      9  H   UNL     1      29.283   5.934  19.303  1.00  0.00     0.293 HD
ENDBRANCH   4   8
BRANCH   5  10
ATOM     10  C   UNL     1      27.830   6.064  21.579  1.00  0.00     0.017 C 
ATOM     11  C   UNL     1      28.542   7.307  22.122  1.00  0.00     0.012 C 
ATOM     12  C   UNL     1      27.181   5.267  22.723  1.00  0.00     0.012 C 
ENDBRANCH   5  10
TORSDOF 2
ENDMDL
MODEL 4
REMARK VINA RESULT:    -5.074      3.227      4.241
REMARK INTER + INTRA:          -5.709
REMARK INTER:                  -5.518
REMARK INTRA:                  -0.190
REMARK UNBOUND:                -0.189
REMARK SMILES Cc1ccc(C(C)C)c(O)c1
REMARK SMILES IDX 1 1 2 2 11 3 9 4 5 5 4 6 3 7 10 8 6 10 7 11 8 12
REMARK H PARENT 10 9
REMARK Flexibility Score: inf
ROOT
ATOM      1  C   UNL     1      21.949   4.276  24.761  1.00  0.00     0.044 C 
ATOM      2  C   UNL     1      23.238   4.979  24.452  1.00  0.00    -0.047 A 
ATOM      3  C   UNL     1      23.946   4.675  23.284  1.00  0.00     0.049 A 
ATOM      4  C   UNL     1      25.124   5.357  22.958  1.00  0.00     0.119 A 
ATOM      5  C   UNL     1      25.640   6.344  23.842  1.00  0.00    -0.004 A 
ATOM      6  C   UNL     1      24.877   6.685  24.979  1.00  0.00     0.008 A 
ATOM      7  C   UNL     1      23.694   6.008  25.281  1.00  0.00     0.004 A 
ENDROOT
BRANCH   4   8
ATOM      8  O   UNL     1      25.733   5.037  21.741  1.00  0.00    -0.508 OA
ATOM      9  H   UNL     1      26.375   4.267  21.614  1.00  0.00     0.293 HD
ENDBRANCH   4   8
BRANCH   5  10
ATOM     10  C   UNL     1      26.942   7.080  23.543  1.00  0.00     0.017 C 
ATOM     11  C   UNL     1      26.660   8.346  22.728  1.00  0.00     0.012 C 
ATOM     12  C   UNL     1      27.756   7.415  24.805  1.00  0.00     0.012 C 
ENDBRANCH   5  10
TORSDOF 2
ENDMDL
MODEL 5
REMARK VINA RESULT:    -5.040      1.646      2.411
REMARK INTER + INTRA:          -5.672
REMARK INTER:                  -5.486
REMARK INTRA:                  -0.185
REMARK UNBOUND:                -0.189
REMARK SMILES Cc1ccc(C(C)C)c(O)c1
REMARK SMILES IDX 1 1 2 2 11 3 9 4 5 5 4 6 3 7 10 8 6 10 7 11 8 12
REMARK H PARENT 10 9
REMARK Flexibility Score: inf
ROOT
ATOM      1  C   UNL     1      21.895  10.067  22.238  1.00  0.00     0.044 C 
ATOM      2  C   UNL     1      23.270   9.477  22.339  1.00  0.00    -0.047 A 
ATOM      3  C   UNL     1      23.449   8.185  22.846  1.00  0.00     0.049 A 
ATOM      4  C   UNL     1      24.720   7.602  22.902  1.00  0.00     0.119 A 
ATOM      5  C   UNL     1      25.859   8.342  22.481  1.00  0.00    -0.004 A 
ATOM      6  C   UNL     1      25.652   9.616  21.910  1.00  0.00     0.008 A 
ATOM      7  C   UNL     1      24.374  10.176  21.844  1.00  0.00     0.004 A 
ENDROOT
BRANCH   4   8
ATOM      8  O   UNL     1      24.801   6.284  23.361  1.00  0.00    -0.508 OA
ATOM      9  H   UNL     1      25.351   5.562  22.916  1.00  0.00     0.293 HD
ENDBRANCH   4   8
BRANCH   5  10
ATOM     10  C   UNL     1      27.266   7.759  22.564  1.00  0.00     0.017 C 
ATOM     11  C   UNL     1      27.583   6.956  21.299  1.00  0.00     0.012 C 
ATOM     12  C   UNL     1      28.350   8.819  22.821  1.00  0.00     0.012 C 
ENDBRANCH   5  10
TORSDOF 2
ENDMDL
MODEL 6
REMARK VINA RESULT:    -5.020      3.935      5.100
REMARK INTER + INTRA:          -5.649
REMARK INTER:                  -5.460
REMARK INTRA:                  -0.190
REMARK UNBOUND:                -0.189
REMARK SMILES Cc1ccc(C(C)C)c(O)c1
REMARK SMILES IDX 1 1 2 2 11 3 9 4 5 5 4 6 3 7 10 8 6 10 7 11 8 12
REMARK H PARENT 10 9
REMARK Flexibility Score: inf
ROOT
ATOM      1  C   UNL     1      23.825   2.236  19.579  1.00  0.00     0.044 C 
ATOM      2  C   UNL     1      24.760   3.095  20.379  1.00  0.00    -0.047 A 
ATOM      3  C   UNL     1      24.929   4.445  20.055  1.00  0.00     0.049 A 
ATOM      4  C   UNL     1      25.761   5.271  20.821  1.00  0.00     0.119 A 
ATOM      5  C   UNL     1      26.483   4.728  21.919  1.00  0.00    -0.004 A 
ATOM      6  C   UNL     1      26.247   3.382  22.271  1.00  0.00     0.008 A 
ATOM      7  C   UNL     1      25.399   2.577  21.508  1.00  0.00     0.004 A 
ENDROOT
BRANCH   4   8
ATOM      8  O   UNL     1      25.822   6.622  20.469  1.00  0.00    -0.508 OA
ATOM      9  H   UNL     1      26.634   7.208  20.608  1.00  0.00     0.293 HD
ENDBRANCH   4   8
BRANCH   5  10
ATOM     10  C   UNL     1      27.430   5.585  22.753  1.00  0.00     0.017 C 
ATOM     11  C   UNL     1      26.671   6.243  23.909  1.00  0.00     0.012 C 
ATOM     12  C   UNL     1      28.651   4.808  23.277  1.00  0.00     0.012 C 
ENDBRANCH   5  10
TORSDOF 2
ENDMDL
MODEL 7
REMARK VINA RESULT:    -4.980      3.225      5.212
REMARK INTER + INTRA:          -5.606
REMARK INTER:                  -5.417
REMARK INTRA:                  -0.188
REMARK UNBOUND:                -0.189
REMARK SMILES Cc1ccc(C(C)C)c(O)c1
REMARK SMILES IDX 1 1 2 2 11 3 9 4 5 5 4 6 3 7 10 8 6 10 7 11 8 12
REMARK H PARENT 10 9
REMARK Flexibility Score: inf
ROOT
ATOM      1  C   UNL     1      28.244   7.492  25.493  1.00  0.00     0.044 C 
ATOM      2  C   UNL     1      26.894   7.018  25.043  1.00  0.00    -0.047 A 
ATOM      3  C   UNL     1      26.688   6.636  23.713  1.00  0.00     0.049 A 
ATOM      4  C   UNL     1      25.447   6.146  23.288  1.00  0.00     0.119 A 
ATOM      5  C   UNL     1      24.362   6.073  24.204  1.00  0.00    -0.004 A 
ATOM      6  C   UNL     1      24.607   6.398  25.555  1.00  0.00     0.008 A 
ATOM      7  C   UNL     1      25.856   6.868  25.966  1.00  0.00     0.004 A 
ENDROOT
BRANCH   4   8
ATOM      8  O   UNL     1      25.345   5.724  21.959  1.00  0.00    -0.508 OA
ATOM      9  H   UNL     1      24.627   6.035  21.319  1.00  0.00     0.293 HD
ENDBRANCH   4   8
BRANCH   5  10
ATOM     10  C   UNL     1      22.983   5.584  23.771  1.00  0.00     0.017 C 
ATOM     11  C   UNL     1      22.417   4.609  24.808  1.00  0.00     0.012 C 
ATOM     12  C   UNL     1      21.990   6.726  23.499  1.00  0.00     0.012 C 
ENDBRANCH   5  10
TORSDOF 2
ENDMDL
MODEL 8
REMARK VINA RESULT:    -4.970      3.225      3.997
REMARK INTER + INTRA:          -5.596
REMARK INTER:                  -5.407
REMARK INTRA:                  -0.189
REMARK UNBOUND:                -0.189
REMARK SMILES Cc1ccc(C(C)C)c(O)c1
REMARK SMILES IDX 1 1 2 2 11 3 9 4 5 5 4 6 3 7 10 8 6 10 7 11 8 12
REMARK H PARENT 10 9
REMARK Flexibility Score: inf
ROOT
ATOM      1  C   UNL     1      21.978   4.422  24.370  1.00  0.00     0.044 C 
ATOM      2  C   UNL     1      23.261   5.192  24.261  1.00  0.00    -0.047 A 
ATOM      3  C   UNL     1      23.783   5.856  25.376  1.00  0.00     0.049 A 
ATOM      4  C   UNL     1      25.004   6.538  25.303  1.00  0.00     0.119 A 
ATOM      5  C   UNL     1      25.708   6.601  24.069  1.00  0.00    -0.004 A 
ATOM      6  C   UNL     1      25.200   5.869  22.974  1.00  0.00     0.008 A 
ATOM      7  C   UNL     1      23.991   5.178  23.070  1.00  0.00     0.004 A 
ENDROOT
BRANCH   4   8
ATOM      8  O   UNL     1      25.485   7.118  26.480  1.00  0.00    -0.508 OA
ATOM      9  H   UNL     1      26.353   7.632  26.544  1.00  0.00     0.293 HD
ENDBRANCH   4   8
BRANCH   5  10
ATOM     10  C   UNL     1      27.019   7.368  23.937  1.00  0.00     0.017 C 
ATOM     11  C   UNL     1      28.208   6.407  24.027  1.00  0.00     0.012 C 
ATOM     12  C   UNL     1      27.102   8.216  22.656  1.00  0.00     0.012 C 
ENDBRANCH   5  10
TORSDOF 2
ENDMDL
MODEL 9
REMARK VINA RESULT:    -4.929      5.049      6.321
REMARK INTER + INTRA:          -5.551
REMARK INTER:                  -5.399
REMARK INTRA:                  -0.152
REMARK UNBOUND:                -0.189
REMARK SMILES Cc1ccc(C(C)C)c(O)c1
REMARK SMILES IDX 1 1 2 2 11 3 9 4 5 5 4 6 3 7 10 8 6 10 7 11 8 12
REMARK H PARENT 10 9
REMARK Flexibility Score: inf
ROOT
ATOM      1  C   UNL     1      24.374   6.380  25.255  1.00  0.00     0.044 C 
ATOM      2  C   UNL     1      24.004   5.427  24.157  1.00  0.00    -0.047 A 
ATOM      3  C   UNL     1      22.892   4.588  24.296  1.00  0.00     0.049 A 
ATOM      4  C   UNL     1      22.505   3.728  23.261  1.00  0.00     0.119 A 
ATOM      5  C   UNL     1      23.273   3.667  22.066  1.00  0.00    -0.004 A 
ATOM      6  C   UNL     1      24.349   4.567  21.917  1.00  0.00     0.008 A 
ATOM      7  C   UNL     1      24.710   5.433  22.952  1.00  0.00     0.004 A 
ENDROOT
BRANCH   4   8
ATOM      8  O   UNL     1      21.346   2.973  23.456  1.00  0.00    -0.508 OA
ATOM      9  H   UNL     1      21.122   2.134  22.939  1.00  0.00     0.293 HD
ENDBRANCH   4   8
BRANCH   5  10
ATOM     10  C   UNL     1      22.909   2.713  20.932  1.00  0.00     0.017 C 
ATOM     11  C   UNL     1      21.764   3.295  20.097  1.00  0.00     0.012 C 
ATOM     12  C   UNL     1      24.105   2.348  20.036  1.00  0.00     0.012 C 
ENDBRANCH   5  10
TORSDOF 2
ENDMDL
