MODEL 1
REMARK VINA RESULT:    -3.194      0.000      0.000
REMARK INTER + INTRA:          -3.287
REMARK INTER:                  -3.287
REMARK INTRA:                   0.000
REMARK UNBOUND:                 0.000
REMARK SMILES Cc1cccc(O)c1C
REMARK SMILES IDX 1 1 2 2 8 3 6 4 5 5 4 6 3 7 9 8 7 9
REMARK H PARENT 7 10
REMARK Flexibility Score: inf
ROOT
ATOM      1  C   UNL     1     -24.412  55.344  42.224  1.00  0.00     0.045 C 
ATOM      2  C   UNL     1     -25.334  54.556  43.118  1.00  0.00    -0.045 A 
ATOM      3  C   UNL     1     -25.671  55.009  44.420  1.00  0.00    -0.006 A 
ATOM      4  C   UNL     1     -26.522  54.222  45.226  1.00  0.00     0.118 A 
ATOM      5  C   UNL     1     -27.058  53.029  44.725  1.00  0.00     0.046 A 
ATOM      6  C   UNL     1     -26.749  52.605  43.434  1.00  0.00     0.004 A 
ATOM      7  C   UNL     1     -25.894  53.362  42.634  1.00  0.00     0.004 A 
ATOM      8  C   UNL     1     -25.084  56.289  44.966  1.00  0.00     0.048 C 
ENDROOT
BRANCH   4   9
ATOM      9  O   UNL     1     -26.835  54.623  46.525  1.00  0.00    -0.508 OA
ATOM     10  H   UNL     1     -26.835  55.600  46.796  1.00  0.00     0.293 HD
ENDBRANCH   4   9
TORSDOF 1
ENDMDL
MODEL 2
REMARK VINA RESULT:    -3.191      1.939      2.880
REMARK INTER + INTRA:          -3.285
REMARK INTER:                  -3.285
REMARK INTRA:                   0.000
REMARK UNBOUND:                 0.000
REMARK SMILES Cc1cccc(O)c1C
REMARK SMILES IDX 1 1 2 2 8 3 6 4 5 5 4 6 3 7 9 8 7 9
REMARK H PARENT 7 10
REMARK Flexibility Score: inf
ROOT
ATOM      1  C   UNL     1     -25.401  55.982  45.240  1.00  0.00     0.045 C 
ATOM      2  C   UNL     1     -25.843  54.756  44.483  1.00  0.00    -0.045 A 
ATOM      3  C   UNL     1     -25.421  54.514  43.150  1.00  0.00    -0.006 A 
ATOM      4  C   UNL     1     -25.882  53.361  42.478  1.00  0.00     0.118 A 
ATOM      5  C   UNL     1     -26.712  52.447  43.140  1.00  0.00     0.046 A 
ATOM      6  C   UNL     1     -27.098  52.673  44.460  1.00  0.00     0.004 A 
ATOM      7  C   UNL     1     -26.666  53.819  45.129  1.00  0.00     0.004 A 
ATOM      8  C   UNL     1     -24.536  55.504  42.431  1.00  0.00     0.048 C 
ENDROOT
BRANCH   4   9
ATOM      9  O   UNL     1     -25.517  53.122  41.153  1.00  0.00    -0.508 OA
ATOM     10  H   UNL     1     -26.092  53.432  40.378  1.00  0.00     0.293 HD
ENDBRANCH   4   9
TORSDOF 1
ENDMDL
MODEL 3
REMARK VINA RESULT:    -3.165      2.145      3.774
REMARK INTER + INTRA:          -3.258
REMARK INTER:                  -3.258
REMARK INTRA:                   0.000
REMARK UNBOUND:                 0.000
REMARK SMILES Cc1cccc(O)c1C
REMARK SMILES IDX 1 1 2 2 8 3 6 4 5 5 4 6 3 7 9 8 7 9
REMARK H PARENT 7 10
REMARK Flexibility Score: inf
ROOT
ATOM      1  C   UNL     1     -26.343  54.487  45.631  1.00  0.00     0.045 C 
ATOM      2  C   UNL     1     -25.837  54.493  44.212  1.00  0.00    -0.045 A 
ATOM      3  C   UNL     1     -26.194  53.472  43.293  1.00  0.00    -0.006 A 
ATOM      4  C   UNL     1     -25.675  53.513  41.980  1.00  0.00     0.118 A 
ATOM      5  C   UNL     1     -24.851  54.574  41.583  1.00  0.00     0.046 A 
ATOM      6  C   UNL     1     -24.530  55.591  42.480  1.00  0.00     0.004 A 
ATOM      7  C   UNL     1     -25.020  55.553  43.786  1.00  0.00     0.004 A 
ATOM      8  C   UNL     1     -27.071  52.321  43.723  1.00  0.00     0.048 C 
ENDROOT
BRANCH   4   9
ATOM      9  O   UNL     1     -25.975  52.499  41.070  1.00  0.00    -0.508 OA
ATOM     10  H   UNL     1     -25.247  51.958  40.616  1.00  0.00     0.293 HD
ENDBRANCH   4   9
TORSDOF 1
ENDMDL
MODEL 4
REMARK VINA RESULT:    -3.128      0.890      2.630
REMARK INTER + INTRA:          -3.220
REMARK INTER:                  -3.220
REMARK INTRA:                   0.000
REMARK UNBOUND:                 0.000
REMARK SMILES Cc1cccc(O)c1C
REMARK SMILES IDX 1 1 2 2 8 3 6 4 5 5 4 6 3 7 9 8 7 9
REMARK H PARENT 7 10
REMARK Flexibility Score: inf
ROOT
ATOM      1  C   UNL     1     -25.633  52.492  42.102  1.00  0.00     0.045 C 
ATOM      2  C   UNL     1     -25.553  53.700  43.001  1.00  0.00    -0.045 A 
ATOM      3  C   UNL     1     -26.373  53.823  44.152  1.00  0.00    -0.006 A 
ATOM      4  C   UNL     1     -26.274  54.985  44.949  1.00  0.00     0.118 A 
ATOM      5  C   UNL     1     -25.343  55.981  44.626  1.00  0.00     0.046 A 
ATOM      6  C   UNL     1     -24.518  55.839  43.512  1.00  0.00     0.004 A 
ATOM      7  C   UNL     1     -24.619  54.706  42.705  1.00  0.00     0.004 A 
ATOM      8  C   UNL     1     -27.386  52.756  44.495  1.00  0.00     0.048 C 
ENDROOT
BRANCH   4   9
ATOM      9  O   UNL     1     -27.100  55.151  46.061  1.00  0.00    -0.508 OA
ATOM     10  H   UNL     1     -27.701  54.406  46.394  1.00  0.00     0.293 HD
ENDBRANCH   4   9
TORSDOF 1
ENDMDL
MODEL 5
REMARK VINA RESULT:    -3.084      5.948      7.557
REMARK INTER + INTRA:          -3.174
REMARK INTER:                  -3.174
REMARK INTRA:                   0.000
REMARK UNBOUND:                 0.000
REMARK SMILES Cc1cccc(O)c1C
REMARK SMILES IDX 1 1 2 2 8 3 6 4 5 5 4 6 3 7 9 8 7 9
REMARK H PARENT 7 10
REMARK Flexibility Score: inf
ROOT
ATOM      1  C   UNL     1     -27.730  46.488  42.983  1.00  0.00     0.045 C 
ATOM      2  C   UNL     1     -27.914  47.329  41.745  1.00  0.00    -0.045 A 
ATOM      3  C   UNL     1     -27.189  48.534  41.553  1.00  0.00    -0.006 A 
ATOM      4  C   UNL     1     -27.413  49.296  40.385  1.00  0.00     0.118 A 
ATOM      5  C   UNL     1     -28.311  48.840  39.412  1.00  0.00     0.046 A 
ATOM      6  C   UNL     1     -28.996  47.640  39.591  1.00  0.00     0.004 A 
ATOM      7  C   UNL     1     -28.799  46.888  40.749  1.00  0.00     0.004 A 
ATOM      8  C   UNL     1     -26.229  49.032  42.608  1.00  0.00     0.048 C 
ENDROOT
BRANCH   4   9
ATOM      9  O   UNL     1     -26.746  50.505  40.193  1.00  0.00    -0.508 OA
ATOM     10  H   UNL     1     -26.702  50.950  39.283  1.00  0.00     0.293 HD
ENDBRANCH   4   9
TORSDOF 1
ENDMDL
MODEL 6
REMARK VINA RESULT:    -3.060      1.840      2.786
REMARK INTER + INTRA:          -3.149
REMARK INTER:                  -3.149
REMARK INTRA:                   0.000
REMARK UNBOUND:                 0.000
REMARK SMILES Cc1cccc(O)c1C
REMARK SMILES IDX 1 1 2 2 8 3 6 4 5 5 4 6 3 7 9 8 7 9
REMARK H PARENT 7 10
REMARK Flexibility Score: inf
ROOT
ATOM      1  C   UNL     1     -24.298  56.026  43.155  1.00  0.00     0.045 C 
ATOM      2  C   UNL     1     -25.236  54.933  43.600  1.00  0.00    -0.045 A 
ATOM      3  C   UNL     1     -25.520  53.816  42.772  1.00  0.00    -0.006 A 
ATOM      4  C   UNL     1     -26.422  52.830  43.227  1.00  0.00     0.118 A 
ATOM      5  C   UNL     1     -26.995  52.938  44.501  1.00  0.00     0.046 A 
ATOM      6  C   UNL     1     -26.688  54.021  45.323  1.00  0.00     0.004 A 
ATOM      7  C   UNL     1     -25.813  55.012  44.877  1.00  0.00     0.004 A 
ATOM      8  C   UNL     1     -24.913  53.705  41.393  1.00  0.00     0.048 C 
ENDROOT
BRANCH   4   9
ATOM      9  O   UNL     1     -26.752  51.745  42.416  1.00  0.00    -0.508 OA
ATOM     10  H   UNL     1     -27.692  51.366  42.388  1.00  0.00     0.293 HD
ENDBRANCH   4   9
TORSDOF 1
ENDMDL
MODEL 7
REMARK VINA RESULT:    -3.001      7.084      8.372
REMARK INTER + INTRA:          -3.089
REMARK INTER:                  -3.089
REMARK INTRA:                   0.000
REMARK UNBOUND:                 0.000
REMARK SMILES Cc1cccc(O)c1C
REMARK SMILES IDX 1 1 2 2 8 3 6 4 5 5 4 6 3 7 9 8 7 9
REMARK H PARENT 7 10
REMARK Flexibility Score: inf
ROOT
ATOM      1  C   UNL     1     -27.047  47.166  43.186  1.00  0.00     0.045 C 
ATOM      2  C   UNL     1     -27.488  47.702  41.849  1.00  0.00    -0.045 A 
ATOM      3  C   UNL     1     -28.652  47.213  41.201  1.00  0.00    -0.006 A 
ATOM      4  C   UNL     1     -29.011  47.734  39.939  1.00  0.00     0.118 A 
ATOM      5  C   UNL     1     -28.245  48.752  39.356  1.00  0.00     0.046 A 
ATOM      6  C   UNL     1     -27.121  49.251  40.012  1.00  0.00     0.004 A 
ATOM      7  C   UNL     1     -26.744  48.732  41.250  1.00  0.00     0.004 A 
ATOM      8  C   UNL     1     -29.471  46.106  41.822  1.00  0.00     0.048 C 
ENDROOT
BRANCH   4   9
ATOM      9  O   UNL     1     -30.125  47.240  39.261  1.00  0.00    -0.508 OA
ATOM     10  H   UNL     1     -30.821  47.857  38.859  1.00  0.00     0.293 HD
ENDBRANCH   4   9
TORSDOF 1
ENDMDL
MODEL 8
REMARK VINA RESULT:    -2.986     10.608     11.298
REMARK INTER + INTRA:          -3.073
REMARK INTER:                  -3.073
REMARK INTRA:                   0.000
REMARK UNBOUND:                 0.000
REMARK SMILES Cc1cccc(O)c1C
REMARK SMILES IDX 1 1 2 2 8 3 6 4 5 5 4 6 3 7 9 8 7 9
REMARK H PARENT 7 10
REMARK Flexibility Score: inf
ROOT
ATOM      1  C   UNL     1     -25.483  51.999  34.284  1.00  0.00     0.045 C 
ATOM      2  C   UNL     1     -26.866  51.458  34.026  1.00  0.00    -0.045 A 
ATOM      3  C   UNL     1     -27.843  52.220  33.334  1.00  0.00    -0.006 A 
ATOM      4  C   UNL     1     -29.131  51.675  33.137  1.00  0.00     0.118 A 
ATOM      5  C   UNL     1     -29.421  50.380  33.585  1.00  0.00     0.046 A 
ATOM      6  C   UNL     1     -28.448  49.624  34.235  1.00  0.00     0.004 A 
ATOM      7  C   UNL     1     -27.178  50.158  34.454  1.00  0.00     0.004 A 
ATOM      8  C   UNL     1     -27.536  53.621  32.862  1.00  0.00     0.048 C 
ENDROOT
BRANCH   4   9
ATOM      9  O   UNL     1     -30.123  52.419  32.499  1.00  0.00    -0.508 OA
ATOM     10  H   UNL     1     -30.712  53.069  33.008  1.00  0.00     0.293 HD
ENDBRANCH   4   9
TORSDOF 1
ENDMDL
MODEL 9
REMARK VINA RESULT:    -2.883      5.720      7.433
REMARK INTER + INTRA:          -2.967
REMARK INTER:                  -2.967
REMARK INTRA:                   0.000
REMARK UNBOUND:                 0.000
REMARK SMILES Cc1cccc(O)c1C
REMARK SMILES IDX 1 1 2 2 8 3 6 4 5 5 4 6 3 7 9 8 7 9
REMARK H PARENT 7 10
REMARK Flexibility Score: inf
ROOT
ATOM      1  C   UNL     1     -28.835  46.327  40.593  1.00  0.00     0.045 C 
ATOM      2  C   UNL     1     -27.953  47.399  41.181  1.00  0.00    -0.045 A 
ATOM      3  C   UNL     1     -27.697  48.610  40.487  1.00  0.00    -0.006 A 
ATOM      4  C   UNL     1     -26.846  49.574  41.072  1.00  0.00     0.118 A 
ATOM      5  C   UNL     1     -26.298  49.348  42.342  1.00  0.00     0.046 A 
ATOM      6  C   UNL     1     -26.579  48.170  43.032  1.00  0.00     0.004 A 
ATOM      7  C   UNL     1     -27.402  47.202  42.457  1.00  0.00     0.004 A 
ATOM      8  C   UNL     1     -28.277  48.850  39.114  1.00  0.00     0.048 C 
ENDROOT
BRANCH   4   9
ATOM      9  O   UNL     1     -26.542  50.753  40.393  1.00  0.00    -0.508 OA
ATOM     10  H   UNL     1     -26.074  50.746  39.494  1.00  0.00     0.293 HD
ENDBRANCH   4   9
TORSDOF 1
ENDMDL
