MODEL 1
REMARK VINA RESULT:    10.964      0.000      0.000
REMARK INTER + INTRA:          12.208
REMARK INTER:                  11.925
REMARK INTRA:                   0.282
REMARK UNBOUND:                 0.282
REMARK SMILES C[C@H]1[C@H](C)CC[C@]2(C(=O)[O-])CC[C@]3(C)C(=CC[C@@H]4[C@]5(C)CC[C@H](O)C(C)(C)[C@@H]5CC[C@@]43C)[C@H]12
REMARK SMILES IDX 7 1 6 2 11 3 33 4 5 5 12 6 15 7 2 8 3 9 13 10 16 11 1 12
REMARK SMILES IDX 4 13 14 14 31 15 17 16 18 17 30 18 32 19 19 20 29 21 28 22
REMARK SMILES IDX 21 23 20 24 25 25 22 26 23 27 26 28 27 29 8 30 9 31 10 32
REMARK SMILES IDX 24 33
REMARK H PARENT 24 34
REMARK Flexibility Score: inf
ROOT
ATOM      1  C   UNL     1     100.745 112.399 115.266  1.00  0.00     0.017 C 
ATOM      2  C   UNL     1      99.860 111.332 114.535  1.00  0.00     0.014 C 
ATOM      3  C   UNL     1     101.522 111.631 116.387  1.00  0.00     0.014 C 
ATOM      4  C   UNL     1      99.886 113.637 115.806  1.00  0.00     0.030 C 
ATOM      5  C   UNL     1      98.888 111.903 113.509  1.00  0.00     0.004 C 
ATOM      6  C   UNL     1     101.566 112.350 117.729  1.00  0.00     0.013 C 
ATOM      7  C   UNL     1      99.479 113.623 117.313  1.00  0.00    -0.063 C 
ATOM      8  C   UNL     1      98.743 114.090 114.796  1.00  0.00    -0.003 C 
ATOM      9  C   UNL     1      97.952 112.935 114.138  1.00  0.00    -0.011 C 
ATOM     10  C   UNL     1     100.149 112.668 118.313  1.00  0.00    -0.006 C 
ATOM     11  C   UNL     1      98.740 114.654 117.781  1.00  0.00    -0.027 C 
ATOM     12  C   UNL     1      99.293 115.058 113.727  1.00  0.00     0.008 C 
ATOM     13  C   UNL     1      96.944 112.303 115.112  1.00  0.00     0.008 C 
ATOM     14  C   UNL     1      99.287 111.368 118.361  1.00  0.00     0.017 C 
ATOM     15  C   UNL     1     100.290 113.294 119.805  1.00  0.00    -0.020 C 
ATOM     16  C   UNL     1      98.447 114.958 119.213  1.00  0.00     0.032 C 
ATOM     17  C   UNL     1      98.934 113.935 120.275  1.00  0.00     0.006 C 
ATOM     18  C   UNL     1     101.379 114.420 119.851  1.00  0.00     0.008 C 
ATOM     19  C   UNL     1     100.703 112.134 120.780  1.00  0.00     0.012 C 
ATOM     20  C   UNL     1      98.949 114.530 121.782  1.00  0.00    -0.025 C 
ATOM     21  C   UNL     1     101.189 115.539 120.913  1.00  0.00     0.005 C 
ATOM     22  C   UNL     1     100.389 115.117 122.174  1.00  0.00     0.003 C 
ATOM     23  C   UNL     1      97.815 115.613 121.951  1.00  0.00     0.010 C 
ATOM     24  C   UNL     1      98.573 113.363 122.763  1.00  0.00     0.012 C 
ATOM     25  C   UNL     1     100.425 116.179 123.370  1.00  0.00    -0.006 C 
ATOM     26  C   UNL     1      97.890 116.443 123.231  1.00  0.00     0.033 C 
ATOM     27  C   UNL     1      99.233 117.173 123.314  1.00  0.00     0.120 C 
ATOM     28  C   UNL     1     101.739 117.014 123.389  1.00  0.00     0.014 C 
ATOM     29  C   UNL     1     100.416 115.438 124.740  1.00  0.00     0.014 C 
ENDROOT
BRANCH   1  30
ATOM     30  C   UNL     1     101.807 112.939 114.303  1.00  0.00     0.048 C 
ATOM     31  O   UNL     1     101.610 112.987 113.059  1.00  0.00    -0.550 OA
ATOM     32  O   UNL     1     103.051 113.325 114.790  1.00  0.00    -0.550 OA
ENDBRANCH   1  30
BRANCH  27  33
ATOM     33  O   UNL     1      99.373 118.040 122.214  1.00  0.00    -0.393 OA
ATOM     34  H   UNL     1      99.333 117.481 121.394  1.00  0.00     0.210 HD
ENDBRANCH  27  33
TORSDOF 2
ENDMDL
MODEL 2
REMARK VINA RESULT:    12.633      1.449      8.030
REMARK INTER + INTRA:          14.023
REMARK INTER:                  14.115
REMARK INTRA:                  -0.092
REMARK UNBOUND:                 0.282
REMARK SMILES C[C@H]1[C@H](C)CC[C@]2(C(=O)[O-])CC[C@]3(C)C(=CC[C@@H]4[C@]5(C)CC[C@H](O)C(C)(C)[C@@H]5CC[C@@]43C)[C@H]12
REMARK SMILES IDX 7 1 6 2 11 3 33 4 5 5 12 6 15 7 2 8 3 9 13 10 16 11 1 12
REMARK SMILES IDX 4 13 14 14 31 15 17 16 18 17 30 18 32 19 19 20 29 21 28 22
REMARK SMILES IDX 21 23 20 24 25 25 22 26 23 27 26 28 27 29 8 30 9 31 10 32
REMARK SMILES IDX 24 33
REMARK H PARENT 24 34
REMARK Flexibility Score: inf
ROOT
ATOM      1  C   UNL     1      99.192 115.809 123.148  1.00  0.00     0.017 C 
ATOM      2  C   UNL     1     100.226 115.842 124.325  1.00  0.00     0.014 C 
ATOM      3  C   UNL     1      98.633 114.348 123.095  1.00  0.00     0.014 C 
ATOM      4  C   UNL     1      99.824 116.311 121.766  1.00  0.00     0.030 C 
ATOM      5  C   UNL     1     101.019 117.139 124.443  1.00  0.00     0.004 C 
ATOM      6  C   UNL     1      98.520 113.767 121.693  1.00  0.00     0.013 C 
ATOM      7  C   UNL     1     100.302 115.218 120.759  1.00  0.00    -0.063 C 
ATOM      8  C   UNL     1     100.806 117.549 121.943  1.00  0.00    -0.003 C 
ATOM      9  C   UNL     1     101.770 117.456 123.150  1.00  0.00    -0.011 C 
ATOM     10  C   UNL     1      99.878 113.749 120.913  1.00  0.00    -0.006 C 
ATOM     11  C   UNL     1     100.853 115.625 119.594  1.00  0.00    -0.027 C 
ATOM     12  C   UNL     1     100.029 118.882 121.964  1.00  0.00     0.008 C 
ATOM     13  C   UNL     1     102.928 116.480 122.886  1.00  0.00     0.008 C 
ATOM     14  C   UNL     1     100.974 113.038 121.766  1.00  0.00     0.017 C 
ATOM     15  C   UNL     1      99.695 112.980 119.495  1.00  0.00    -0.020 C 
ATOM     16  C   UNL     1     101.154 114.770 118.407  1.00  0.00     0.032 C 
ATOM     17  C   UNL     1     100.925 113.241 118.552  1.00  0.00     0.006 C 
ATOM     18  C   UNL     1      98.414 113.474 118.738  1.00  0.00     0.008 C 
ATOM     19  C   UNL     1      99.561 111.443 119.790  1.00  0.00     0.012 C 
ATOM     20  C   UNL     1     100.872 112.461 117.132  1.00  0.00    -0.025 C 
ATOM     21  C   UNL     1      98.440 113.394 117.186  1.00  0.00     0.005 C 
ATOM     22  C   UNL     1      99.369 112.296 116.601  1.00  0.00     0.003 C 
ATOM     23  C   UNL     1     101.786 113.193 116.075  1.00  0.00     0.010 C 
ATOM     24  C   UNL     1     101.513 111.043 117.340  1.00  0.00     0.012 C 
ATOM     25  C   UNL     1      99.190 112.043 115.031  1.00  0.00    -0.006 C 
ATOM     26  C   UNL     1     101.617 112.724 114.632  1.00  0.00     0.033 C 
ATOM     27  C   UNL     1     100.166 112.901 114.180  1.00  0.00     0.120 C 
ATOM     28  C   UNL     1      97.743 112.339 114.539  1.00  0.00     0.014 C 
ATOM     29  C   UNL     1      99.409 110.536 114.707  1.00  0.00     0.014 C 
ENDROOT
BRANCH   1  30
ATOM     30  C   UNL     1      97.999 116.710 123.482  1.00  0.00     0.048 C 
ATOM     31  O   UNL     1      97.597 116.863 124.667  1.00  0.00    -0.550 OA
ATOM     32  O   UNL     1      97.289 117.327 122.459  1.00  0.00    -0.550 OA
ENDBRANCH   1  30
BRANCH  27  33
ATOM     33  O   UNL     1      99.807 114.260 114.249  1.00  0.00    -0.393 OA
ATOM     34  H   UNL     1     100.516 114.723 114.770  1.00  0.00     0.210 HD
ENDBRANCH  27  33
TORSDOF 2
ENDMDL
