MODEL 1
REMARK VINA RESULT:    -4.803      0.000      0.000
REMARK INTER + INTRA:          -5.564
REMARK INTER:                  -5.505
REMARK INTRA:                  -0.059
REMARK UNBOUND:                -0.059
REMARK SMILES COc1cc(C=O)ccc1O
REMARK SMILES IDX 3 1 10 2 9 3 8 4 5 5 4 6 2 7 1 8 11 9 6 11 7 12
REMARK H PARENT 11 10
REMARK Flexibility Score: inf
ROOT
ATOM      1  C   UNL     1      20.102  30.027  27.987  1.00  0.00     0.161 A 
ATOM      2  C   UNL     1      18.712  30.176  28.140  1.00  0.00     0.157 A 
ATOM      3  C   UNL     1      18.018  29.368  29.046  1.00  0.00     0.051 A 
ATOM      4  C   UNL     1      18.694  28.409  29.802  1.00  0.00     0.015 A 
ATOM      5  C   UNL     1      20.081  28.246  29.662  1.00  0.00     0.018 A 
ATOM      6  C   UNL     1      20.780  29.057  28.753  1.00  0.00     0.062 A 
ENDROOT
BRANCH   1   7
ATOM      7  O   UNL     1      20.774  30.852  27.070  1.00  0.00    -0.493 OA
ATOM      8  C   UNL     1      21.753  30.399  26.141  1.00  0.00     0.278 C 
ENDBRANCH   1   7
BRANCH   2   9
ATOM      9  O   UNL     1      18.002  31.123  27.402  1.00  0.00    -0.504 OA
ATOM     10  H   UNL     1      17.702  32.004  27.802  1.00  0.00     0.293 HD
ENDBRANCH   2   9
BRANCH   5  11
ATOM     11  C   UNL     1      20.812  27.239  30.452  1.00  0.00     0.260 C 
ATOM     12  O   UNL     1      20.521  26.016  30.377  1.00  0.00    -0.298 OA
ENDBRANCH   5  11
TORSDOF 3
ENDMDL
MODEL 2
REMARK VINA RESULT:    -4.644      1.670      3.956
REMARK INTER + INTRA:          -5.381
REMARK INTER:                  -5.305
REMARK INTRA:                  -0.076
REMARK UNBOUND:                -0.059
REMARK SMILES COc1cc(C=O)ccc1O
REMARK SMILES IDX 3 1 10 2 9 3 8 4 5 5 4 6 2 7 1 8 11 9 6 11 7 12
REMARK H PARENT 11 10
REMARK Flexibility Score: inf
ROOT
ATOM      1  C   UNL     1      20.256  29.360  29.133  1.00  0.00     0.161 A 
ATOM      2  C   UNL     1      19.019  29.997  28.923  1.00  0.00     0.157 A 
ATOM      3  C   UNL     1      18.804  30.740  27.759  1.00  0.00     0.051 A 
ATOM      4  C   UNL     1      19.810  30.859  26.797  1.00  0.00     0.015 A 
ATOM      5  C   UNL     1      21.050  30.231  26.990  1.00  0.00     0.018 A 
ATOM      6  C   UNL     1      21.269  29.484  28.159  1.00  0.00     0.062 A 
ENDROOT
BRANCH   1   7
ATOM      7  O   UNL     1      20.446  28.620  30.311  1.00  0.00    -0.493 OA
ATOM      8  C   UNL     1      20.316  27.205  30.407  1.00  0.00     0.278 C 
ENDBRANCH   1   7
BRANCH   2   9
ATOM      9  O   UNL     1      17.991  29.901  29.860  1.00  0.00    -0.504 OA
ATOM     10  H   UNL     1      18.152  29.580  30.808  1.00  0.00     0.293 HD
ENDBRANCH   2   9
BRANCH   5  11
ATOM     11  C   UNL     1      22.124  30.345  25.987  1.00  0.00     0.260 C 
ATOM     12  O   UNL     1      21.875  30.267  24.755  1.00  0.00    -0.298 OA
ENDBRANCH   5  11
TORSDOF 3
ENDMDL
MODEL 3
REMARK VINA RESULT:    -4.535     18.455     19.375
REMARK INTER + INTRA:          -5.256
REMARK INTER:                  -5.193
REMARK INTRA:                  -0.064
REMARK UNBOUND:                -0.059
REMARK SMILES COc1cc(C=O)ccc1O
REMARK SMILES IDX 3 1 10 2 9 3 8 4 5 5 4 6 2 7 1 8 11 9 6 11 7 12
REMARK H PARENT 11 10
REMARK Flexibility Score: inf
ROOT
ATOM      1  C   UNL     1       4.833  17.696  21.992  1.00  0.00     0.161 A 
ATOM      2  C   UNL     1       3.955  17.880  23.075  1.00  0.00     0.157 A 
ATOM      3  C   UNL     1       4.451  17.901  24.382  1.00  0.00     0.051 A 
ATOM      4  C   UNL     1       5.817  17.739  24.625  1.00  0.00     0.015 A 
ATOM      5  C   UNL     1       6.707  17.554  23.556  1.00  0.00     0.018 A 
ATOM      6  C   UNL     1       6.211  17.532  22.243  1.00  0.00     0.062 A 
ENDROOT
BRANCH   1   7
ATOM      7  O   UNL     1       4.308  17.679  20.690  1.00  0.00    -0.493 OA
ATOM      8  C   UNL     1       4.779  18.489  19.617  1.00  0.00     0.278 C 
ENDBRANCH   1   7
BRANCH   2   9
ATOM      9  O   UNL     1       2.585  18.046  22.873  1.00  0.00    -0.504 OA
ATOM     10  H   UNL     1       1.894  17.605  23.469  1.00  0.00     0.293 HD
ENDBRANCH   2   9
BRANCH   5  11
ATOM     11  C   UNL     1       8.153  17.380  23.792  1.00  0.00     0.260 C 
ATOM     12  O   UNL     1       8.980  17.457  22.847  1.00  0.00    -0.298 OA
ENDBRANCH   5  11
TORSDOF 3
ENDMDL
MODEL 4
REMARK VINA RESULT:    -4.414     18.146     19.317
REMARK INTER + INTRA:          -5.118
REMARK INTER:                  -5.046
REMARK INTRA:                  -0.072
REMARK UNBOUND:                -0.059
REMARK SMILES COc1cc(C=O)ccc1O
REMARK SMILES IDX 3 1 10 2 9 3 8 4 5 5 4 6 2 7 1 8 11 9 6 11 7 12
REMARK H PARENT 11 10
REMARK Flexibility Score: inf
ROOT
ATOM      1  C   UNL     1       5.000  18.297  22.324  1.00  0.00     0.161 A 
ATOM      2  C   UNL     1       4.494  18.014  21.042  1.00  0.00     0.157 A 
ATOM      3  C   UNL     1       5.097  18.574  19.913  1.00  0.00     0.051 A 
ATOM      4  C   UNL     1       6.203  19.417  20.044  1.00  0.00     0.015 A 
ATOM      5  C   UNL     1       6.720  19.711  21.315  1.00  0.00     0.018 A 
ATOM      6  C   UNL     1       6.115  19.149  22.451  1.00  0.00     0.062 A 
ENDROOT
BRANCH   1   7
ATOM      7  O   UNL     1       4.374  17.720  23.441  1.00  0.00    -0.493 OA
ATOM      8  C   UNL     1       4.797  16.517  24.074  1.00  0.00     0.278 C 
ENDBRANCH   1   7
BRANCH   2   9
ATOM      9  O   UNL     1       3.391  17.177  20.870  1.00  0.00    -0.504 OA
ATOM     10  H   UNL     1       2.818  16.873  21.649  1.00  0.00     0.293 HD
ENDBRANCH   2   9
BRANCH   5  11
ATOM     11  C   UNL     1       7.887  20.599  21.474  1.00  0.00     0.260 C 
ATOM     12  O   UNL     1       7.761  21.760  21.946  1.00  0.00    -0.298 OA
ENDBRANCH   5  11
TORSDOF 3
ENDMDL
MODEL 5
REMARK VINA RESULT:    -4.325     10.689     11.999
REMARK INTER + INTRA:          -5.016
REMARK INTER:                  -4.942
REMARK INTRA:                  -0.073
REMARK UNBOUND:                -0.059
REMARK SMILES COc1cc(C=O)ccc1O
REMARK SMILES IDX 3 1 10 2 9 3 8 4 5 5 4 6 2 7 1 8 11 9 6 11 7 12
REMARK H PARENT 11 10
REMARK Flexibility Score: inf
ROOT
ATOM      1  C   UNL     1      13.179  20.572  28.362  1.00  0.00     0.161 A 
ATOM      2  C   UNL     1      14.005  20.797  27.246  1.00  0.00     0.157 A 
ATOM      3  C   UNL     1      14.463  19.717  26.486  1.00  0.00     0.051 A 
ATOM      4  C   UNL     1      14.108  18.410  26.825  1.00  0.00     0.015 A 
ATOM      5  C   UNL     1      13.286  18.167  27.936  1.00  0.00     0.018 A 
ATOM      6  C   UNL     1      12.825  19.250  28.701  1.00  0.00     0.062 A 
ENDROOT
BRANCH   1   7
ATOM      7  O   UNL     1      12.733  21.675  29.108  1.00  0.00    -0.493 OA
ATOM      8  C   UNL     1      11.403  22.182  29.086  1.00  0.00     0.278 C 
ENDBRANCH   1   7
BRANCH   2   9
ATOM      9  O   UNL     1      14.380  22.088  26.876  1.00  0.00    -0.504 OA
ATOM     10  H   UNL     1      13.887  22.909  27.206  1.00  0.00     0.293 HD
ENDBRANCH   2   9
BRANCH   5  11
ATOM     11  C   UNL     1      12.901  16.793  28.310  1.00  0.00     0.260 C 
ATOM     12  O   UNL     1      12.299  16.042  27.499  1.00  0.00    -0.298 OA
ENDBRANCH   5  11
TORSDOF 3
ENDMDL
MODEL 6
REMARK VINA RESULT:    -4.316     15.313     16.179
REMARK INTER + INTRA:          -5.006
REMARK INTER:                  -4.941
REMARK INTRA:                  -0.065
REMARK UNBOUND:                -0.059
REMARK SMILES COc1cc(C=O)ccc1O
REMARK SMILES IDX 3 1 10 2 9 3 8 4 5 5 4 6 2 7 1 8 11 9 6 11 7 12
REMARK H PARENT 11 10
REMARK Flexibility Score: inf
ROOT
ATOM      1  C   UNL     1      17.331  14.101  31.533  1.00  0.00     0.161 A 
ATOM      2  C   UNL     1      16.822  13.105  30.680  1.00  0.00     0.157 A 
ATOM      3  C   UNL     1      15.473  12.745  30.752  1.00  0.00     0.051 A 
ATOM      4  C   UNL     1      14.622  13.365  31.669  1.00  0.00     0.015 A 
ATOM      5  C   UNL     1      15.113  14.360  32.528  1.00  0.00     0.018 A 
ATOM      6  C   UNL     1      16.467  14.724  32.457  1.00  0.00     0.062 A 
ENDROOT
BRANCH   1   7
ATOM      7  O   UNL     1      18.690  14.443  31.439  1.00  0.00    -0.493 OA
ATOM      8  C   UNL     1      19.627  14.334  32.506  1.00  0.00     0.278 C 
ENDBRANCH   1   7
BRANCH   2   9
ATOM      9  O   UNL     1      17.641  12.462  29.752  1.00  0.00    -0.504 OA
ATOM     10  H   UNL     1      17.300  12.168  28.844  1.00  0.00     0.293 HD
ENDBRANCH   2   9
BRANCH   5  11
ATOM     11  C   UNL     1      14.229  15.027  33.502  1.00  0.00     0.260 C 
ATOM     12  O   UNL     1      13.513  16.007  33.167  1.00  0.00    -0.298 OA
ENDBRANCH   5  11
TORSDOF 3
ENDMDL
MODEL 7
REMARK VINA RESULT:    -4.306     15.880     17.478
REMARK INTER + INTRA:          -4.994
REMARK INTER:                  -4.933
REMARK INTRA:                  -0.061
REMARK UNBOUND:                -0.059
REMARK SMILES COc1cc(C=O)ccc1O
REMARK SMILES IDX 3 1 10 2 9 3 8 4 5 5 4 6 2 7 1 8 11 9 6 11 7 12
REMARK H PARENT 11 10
REMARK Flexibility Score: inf
ROOT
ATOM      1  C   UNL     1      14.815  13.802  34.022  1.00  0.00     0.161 A 
ATOM      2  C   UNL     1      13.967  12.680  34.046  1.00  0.00     0.157 A 
ATOM      3  C   UNL     1      13.969  11.779  32.977  1.00  0.00     0.051 A 
ATOM      4  C   UNL     1      14.807  11.984  31.879  1.00  0.00     0.015 A 
ATOM      5  C   UNL     1      15.659  13.099  31.838  1.00  0.00     0.018 A 
ATOM      6  C   UNL     1      15.659  14.005  32.910  1.00  0.00     0.062 A 
ENDROOT
BRANCH   1   7
ATOM      7  O   UNL     1      14.793  14.691  35.109  1.00  0.00    -0.493 OA
ATOM      8  C   UNL     1      14.592  16.096  35.001  1.00  0.00     0.278 C 
ENDBRANCH   1   7
BRANCH   2   9
ATOM      9  O   UNL     1      13.116  12.442  35.125  1.00  0.00    -0.504 OA
ATOM     10  H   UNL     1      12.737  13.193  35.689  1.00  0.00     0.293 HD
ENDBRANCH   2   9
BRANCH   5  11
ATOM     11  C   UNL     1      16.551  13.332  30.687  1.00  0.00     0.260 C 
ATOM     12  O   UNL     1      17.784  13.085  30.758  1.00  0.00    -0.298 OA
ENDBRANCH   5  11
TORSDOF 3
ENDMDL
MODEL 8
REMARK VINA RESULT:    -4.297     14.977     16.447
REMARK INTER + INTRA:          -4.984
REMARK INTER:                  -4.931
REMARK INTRA:                  -0.054
REMARK UNBOUND:                -0.059
REMARK SMILES COc1cc(C=O)ccc1O
REMARK SMILES IDX 3 1 10 2 9 3 8 4 5 5 4 6 2 7 1 8 11 9 6 11 7 12
REMARK H PARENT 11 10
REMARK Flexibility Score: inf
ROOT
ATOM      1  C   UNL     1      16.150  13.227  31.544  1.00  0.00     0.161 A 
ATOM      2  C   UNL     1      17.394  13.244  30.885  1.00  0.00     0.157 A 
ATOM      3  C   UNL     1      18.412  14.088  31.337  1.00  0.00     0.051 A 
ATOM      4  C   UNL     1      18.207  14.919  32.440  1.00  0.00     0.015 A 
ATOM      5  C   UNL     1      16.973  14.916  33.108  1.00  0.00     0.018 A 
ATOM      6  C   UNL     1      15.948  14.069  32.656  1.00  0.00     0.062 A 
ENDROOT
BRANCH   1   7
ATOM      7  O   UNL     1      15.145  12.369  31.068  1.00  0.00    -0.493 OA
ATOM      8  C   UNL     1      14.074  11.863  31.859  1.00  0.00     0.278 C 
ENDBRANCH   1   7
BRANCH   2   9
ATOM      9  O   UNL     1      17.636  12.428  29.781  1.00  0.00    -0.504 OA
ATOM     10  H   UNL     1      17.692  11.419  29.857  1.00  0.00     0.293 HD
ENDBRANCH   2   9
BRANCH   5  11
ATOM     11  C   UNL     1      16.737  15.787  34.275  1.00  0.00     0.260 C 
ATOM     12  O   UNL     1      15.596  16.262  34.512  1.00  0.00    -0.298 OA
ENDBRANCH   5  11
TORSDOF 3
ENDMDL
MODEL 9
REMARK VINA RESULT:    -4.268     10.525     12.073
REMARK INTER + INTRA:          -4.951
REMARK INTER:                  -4.879
REMARK INTRA:                  -0.072
REMARK UNBOUND:                -0.059
REMARK SMILES COc1cc(C=O)ccc1O
REMARK SMILES IDX 3 1 10 2 9 3 8 4 5 5 4 6 2 7 1 8 11 9 6 11 7 12
REMARK H PARENT 11 10
REMARK Flexibility Score: inf
ROOT
ATOM      1  C   UNL     1      13.073  19.741  29.092  1.00  0.00     0.161 A 
ATOM      2  C   UNL     1      13.421  21.027  28.639  1.00  0.00     0.157 A 
ATOM      3  C   UNL     1      14.021  21.188  27.387  1.00  0.00     0.051 A 
ATOM      4  C   UNL     1      14.283  20.080  26.579  1.00  0.00     0.015 A 
ATOM      5  C   UNL     1      13.944  18.790  27.015  1.00  0.00     0.018 A 
ATOM      6  C   UNL     1      13.341  18.626  28.273  1.00  0.00     0.062 A 
ENDROOT
BRANCH   1   7
ATOM      7  O   UNL     1      12.471  19.608  30.354  1.00  0.00    -0.493 OA
ATOM      8  C   UNL     1      13.173  19.320  31.559  1.00  0.00     0.278 C 
ENDBRANCH   1   7
BRANCH   2   9
ATOM      9  O   UNL     1      13.175  22.157  29.418  1.00  0.00    -0.504 OA
ATOM     10  H   UNL     1      12.873  23.036  29.014  1.00  0.00     0.293 HD
ENDBRANCH   2   9
BRANCH   5  11
ATOM     11  C   UNL     1      14.213  17.608  26.176  1.00  0.00     0.260 C 
ATOM     12  O   UNL     1      13.279  16.851  25.799  1.00  0.00    -0.298 OA
ENDBRANCH   5  11
TORSDOF 3
ENDMDL
