MODEL 1
REMARK VINA RESULT:    -3.666      0.000      0.000
REMARK INTER + INTRA:          -4.214
REMARK INTER:                  -4.094
REMARK INTRA:                  -0.120
REMARK UNBOUND:                -0.120
REMARK SMILES COc1cc2ccc(=O)oc2cc1OC
REMARK SMILES IDX 3 1 13 2 12 3 11 4 5 5 4 6 6 7 7 8 8 9 9 10 10 11 2 12 1 13
REMARK SMILES IDX 14 14 15 15
REMARK H PARENT
REMARK Flexibility Score: inf
ROOT
ATOM      1  C   UNL     1      10.732   5.001  -2.650  1.00  0.00     0.161 A 
ATOM      2  C   UNL     1      11.404   5.804  -1.712  1.00  0.00     0.164 A 
ATOM      3  C   UNL     1      12.681   5.425  -1.254  1.00  0.00     0.098 A 
ATOM      4  C   UNL     1      13.284   4.257  -1.725  1.00  0.00     0.142 A 
ATOM      5  C   UNL     1      12.611   3.450  -2.665  1.00  0.00     0.022 A 
ATOM      6  C   UNL     1      11.342   3.821  -3.125  1.00  0.00     0.062 A 
ATOM      7  C   UNL     1      13.241   2.286  -3.118  1.00  0.00     0.019 A 
ATOM      8  C   UNL     1      14.506   1.960  -2.630  1.00  0.00     0.094 A 
ATOM      9  C   UNL     1      15.114   2.807  -1.699  1.00  0.00     0.336 A 
ATOM     10  O   UNL     1      16.255   2.531  -1.246  1.00  0.00    -0.246 OA
ATOM     11  O   UNL     1      14.492   3.908  -1.285  1.00  0.00    -0.423 OA
ENDROOT
BRANCH   1  12
ATOM     12  O   UNL     1       9.461   5.408  -3.085  1.00  0.00    -0.493 OA
ATOM     13  C   UNL     1       8.312   4.567  -3.122  1.00  0.00     0.278 C 
ENDBRANCH   1  12
BRANCH   2  14
ATOM     14  O   UNL     1      10.767   6.971  -1.261  1.00  0.00    -0.493 OA
ATOM     15  C   UNL     1      11.013   8.276  -1.777  1.00  0.00     0.278 C 
ENDBRANCH   2  14
TORSDOF 2
ENDMDL
MODEL 2
REMARK VINA RESULT:    -3.646      1.582      3.081
REMARK INTER + INTRA:          -4.192
REMARK INTER:                  -4.078
REMARK INTRA:                  -0.114
REMARK UNBOUND:                -0.120
REMARK SMILES COc1cc2ccc(=O)oc2cc1OC
REMARK SMILES IDX 3 1 13 2 12 3 11 4 5 5 4 6 6 7 7 8 8 9 9 10 10 11 2 12 1 13
REMARK SMILES IDX 14 14 15 15
REMARK H PARENT
REMARK Flexibility Score: inf
ROOT
ATOM      1  C   UNL     1       9.845   6.206  -1.632  1.00  0.00     0.161 A 
ATOM      2  C   UNL     1       9.323   5.336  -2.604  1.00  0.00     0.164 A 
ATOM      3  C   UNL     1      10.112   4.274  -3.087  1.00  0.00     0.098 A 
ATOM      4  C   UNL     1      11.409   4.080  -2.606  1.00  0.00     0.142 A 
ATOM      5  C   UNL     1      11.933   4.952  -1.631  1.00  0.00     0.022 A 
ATOM      6  C   UNL     1      11.154   6.010  -1.146  1.00  0.00     0.062 A 
ATOM      7  C   UNL     1      13.235   4.732  -1.170  1.00  0.00     0.019 A 
ATOM      8  C   UNL     1      13.971   3.664  -1.683  1.00  0.00     0.094 A 
ATOM      9  C   UNL     1      13.387   2.840  -2.649  1.00  0.00     0.336 A 
ATOM     10  O   UNL     1      14.034   1.871  -3.125  1.00  0.00    -0.246 OA
ATOM     11  O   UNL     1      12.146   3.072  -3.071  1.00  0.00    -0.423 OA
ENDROOT
BRANCH   1  12
ATOM     12  O   UNL     1       9.031   7.255  -1.173  1.00  0.00    -0.493 OA
ATOM     13  C   UNL     1       9.028   8.572  -1.715  1.00  0.00     0.278 C 
ENDBRANCH   1  12
BRANCH   2  14
ATOM     14  O   UNL     1       8.016   5.562  -3.065  1.00  0.00    -0.493 OA
ATOM     15  C   UNL     1       6.932   4.654  -2.893  1.00  0.00     0.278 C 
ENDBRANCH   2  14
TORSDOF 2
ENDMDL
MODEL 3
REMARK VINA RESULT:    -3.153      1.593      2.121
REMARK INTER + INTRA:          -3.642
REMARK INTER:                  -3.510
REMARK INTRA:                  -0.133
REMARK UNBOUND:                -0.120
REMARK SMILES COc1cc2ccc(=O)oc2cc1OC
REMARK SMILES IDX 3 1 13 2 12 3 11 4 5 5 4 6 6 7 7 8 8 9 9 10 10 11 2 12 1 13
REMARK SMILES IDX 14 14 15 15
REMARK H PARENT
REMARK Flexibility Score: inf
ROOT
ATOM      1  C   UNL     1      10.228   6.749  -2.368  1.00  0.00     0.161 A 
ATOM      2  C   UNL     1      11.508   7.225  -2.036  1.00  0.00     0.164 A 
ATOM      3  C   UNL     1      12.610   6.347  -2.066  1.00  0.00     0.098 A 
ATOM      4  C   UNL     1      12.439   5.008  -2.424  1.00  0.00     0.142 A 
ATOM      5  C   UNL     1      11.155   4.530  -2.757  1.00  0.00     0.022 A 
ATOM      6  C   UNL     1      10.056   5.397  -2.729  1.00  0.00     0.062 A 
ATOM      7  C   UNL     1      11.016   3.183  -3.111  1.00  0.00     0.019 A 
ATOM      8  C   UNL     1      12.141   2.360  -3.124  1.00  0.00     0.094 A 
ATOM      9  C   UNL     1      13.383   2.903  -2.783  1.00  0.00     0.336 A 
ATOM     10  O   UNL     1      14.412   2.177  -2.788  1.00  0.00    -0.246 OA
ATOM     11  O   UNL     1      13.487   4.188  -2.449  1.00  0.00    -0.423 OA
ENDROOT
BRANCH   1  12
ATOM     12  O   UNL     1       9.153   7.651  -2.326  1.00  0.00    -0.493 OA
ATOM     13  C   UNL     1       8.234   7.763  -1.244  1.00  0.00     0.278 C 
ENDBRANCH   1  12
BRANCH   2  14
ATOM     14  O   UNL     1      11.643   8.577  -1.681  1.00  0.00    -0.493 OA
ATOM     15  C   UNL     1      12.344   9.547  -2.452  1.00  0.00     0.278 C 
ENDBRANCH   2  14
TORSDOF 2
ENDMDL
MODEL 4
REMARK VINA RESULT:    -3.122      7.977     11.766
REMARK INTER + INTRA:          -3.607
REMARK INTER:                  -3.480
REMARK INTRA:                  -0.127
REMARK UNBOUND:                -0.120
REMARK SMILES COc1cc2ccc(=O)oc2cc1OC
REMARK SMILES IDX 3 1 13 2 12 3 11 4 5 5 4 6 6 7 7 8 8 9 9 10 10 11 2 12 1 13
REMARK SMILES IDX 14 14 15 15
REMARK H PARENT
REMARK Flexibility Score: inf
ROOT
ATOM      1  C   UNL     1      14.120  13.919  -2.275  1.00  0.00     0.161 A 
ATOM      2  C   UNL     1      12.783  13.586  -1.997  1.00  0.00     0.164 A 
ATOM      3  C   UNL     1      12.019  14.412  -1.149  1.00  0.00     0.098 A 
ATOM      4  C   UNL     1      12.581  15.558  -0.583  1.00  0.00     0.142 A 
ATOM      5  C   UNL     1      13.922  15.893  -0.861  1.00  0.00     0.022 A 
ATOM      6  C   UNL     1      14.687  15.076  -1.703  1.00  0.00     0.062 A 
ATOM      7  C   UNL     1      14.456  17.047  -0.278  1.00  0.00     0.019 A 
ATOM      8  C   UNL     1      13.654  17.827   0.553  1.00  0.00     0.094 A 
ATOM      9  C   UNL     1      12.332  17.434   0.784  1.00  0.00     0.336 A 
ATOM     10  O   UNL     1      11.591  18.125   1.532  1.00  0.00    -0.246 OA
ATOM     11  O   UNL     1      11.849  16.331   0.218  1.00  0.00    -0.423 OA
ENDROOT
BRANCH   1  12
ATOM     12  O   UNL     1      14.852  13.074  -3.124  1.00  0.00    -0.493 OA
ATOM     13  C   UNL     1      16.183  12.633  -2.873  1.00  0.00     0.278 C 
ENDBRANCH   1  12
BRANCH   2  14
ATOM     14  O   UNL     1      12.251  12.427  -2.584  1.00  0.00    -0.493 OA
ATOM     15  C   UNL     1      11.906  11.246  -1.867  1.00  0.00     0.278 C 
ENDBRANCH   2  14
TORSDOF 2
ENDMDL
MODEL 5
REMARK VINA RESULT:    -3.112      9.206     11.010
REMARK INTER + INTRA:          -3.596
REMARK INTER:                  -3.480
REMARK INTRA:                  -0.116
REMARK UNBOUND:                -0.120
REMARK SMILES COc1cc2ccc(=O)oc2cc1OC
REMARK SMILES IDX 3 1 13 2 12 3 11 4 5 5 4 6 6 7 7 8 8 9 9 10 10 11 2 12 1 13
REMARK SMILES IDX 14 14 15 15
REMARK H PARENT
REMARK Flexibility Score: inf
ROOT
ATOM      1  C   UNL     1      11.523  16.060  -0.602  1.00  0.00     0.161 A 
ATOM      2  C   UNL     1      12.735  16.650  -0.206  1.00  0.00     0.164 A 
ATOM      3  C   UNL     1      13.956  16.105  -0.652  1.00  0.00     0.098 A 
ATOM      4  C   UNL     1      13.969  14.983  -1.483  1.00  0.00     0.142 A 
ATOM      5  C   UNL     1      12.754  14.391  -1.881  1.00  0.00     0.022 A 
ATOM      6  C   UNL     1      11.537  14.928  -1.442  1.00  0.00     0.062 A 
ATOM      7  C   UNL     1      12.800  13.269  -2.715  1.00  0.00     0.019 A 
ATOM      8  C   UNL     1      14.036  12.772  -3.125  1.00  0.00     0.094 A 
ATOM      9  C   UNL     1      15.202  13.411  -2.691  1.00  0.00     0.336 A 
ATOM     10  O   UNL     1      16.328  12.979  -3.050  1.00  0.00    -0.246 OA
ATOM     11  O   UNL     1      15.129  14.477  -1.898  1.00  0.00    -0.423 OA
ENDROOT
BRANCH   1  12
ATOM     12  O   UNL     1      10.325  16.628  -0.140  1.00  0.00    -0.493 OA
ATOM     13  C   UNL     1       9.056  16.456  -0.763  1.00  0.00     0.278 C 
ENDBRANCH   1  12
BRANCH   2  14
ATOM     14  O   UNL     1      12.684  17.776   0.631  1.00  0.00    -0.493 OA
ATOM     15  C   UNL     1      12.884  17.743   2.041  1.00  0.00     0.278 C 
ENDBRANCH   2  14
TORSDOF 2
ENDMDL
MODEL 6
REMARK VINA RESULT:    -3.105      2.417      4.181
REMARK INTER + INTRA:          -3.588
REMARK INTER:                  -3.473
REMARK INTRA:                  -0.115
REMARK UNBOUND:                -0.120
REMARK SMILES COc1cc2ccc(=O)oc2cc1OC
REMARK SMILES IDX 3 1 13 2 12 3 11 4 5 5 4 6 6 7 7 8 8 9 9 10 10 11 2 12 1 13
REMARK SMILES IDX 14 14 15 15
REMARK H PARENT
REMARK Flexibility Score: inf
ROOT
ATOM      1  C   UNL     1       9.319   9.123  -1.916  1.00  0.00     0.161 A 
ATOM      2  C   UNL     1      10.642   9.597  -1.912  1.00  0.00     0.164 A 
ATOM      3  C   UNL     1      11.713   8.682  -1.877  1.00  0.00     0.098 A 
ATOM      4  C   UNL     1      11.469   7.307  -1.846  1.00  0.00     0.142 A 
ATOM      5  C   UNL     1      10.142   6.831  -1.851  1.00  0.00     0.022 A 
ATOM      6  C   UNL     1       9.073   7.735  -1.886  1.00  0.00     0.062 A 
ATOM      7  C   UNL     1       9.930   5.448  -1.820  1.00  0.00     0.019 A 
ATOM      8  C   UNL     1      11.027   4.589  -1.786  1.00  0.00     0.094 A 
ATOM      9  C   UNL     1      12.315   5.133  -1.784  1.00  0.00     0.336 A 
ATOM     10  O   UNL     1      13.319   4.374  -1.753  1.00  0.00    -0.246 OA
ATOM     11  O   UNL     1      12.489   6.452  -1.813  1.00  0.00    -0.423 OA
ENDROOT
BRANCH   1  12
ATOM     12  O   UNL     1       8.276  10.063  -1.951  1.00  0.00    -0.493 OA
ATOM     13  C   UNL     1       6.891   9.732  -1.949  1.00  0.00     0.278 C 
ENDBRANCH   1  12
BRANCH   2  14
ATOM     14  O   UNL     1      10.850  10.986  -1.942  1.00  0.00    -0.493 OA
ATOM     15  C   UNL     1      11.163  11.780  -0.802  1.00  0.00     0.278 C 
ENDBRANCH   2  14
TORSDOF 2
ENDMDL
MODEL 7
REMARK VINA RESULT:    -3.103     10.612     11.951
REMARK INTER + INTRA:          -3.586
REMARK INTER:                  -3.447
REMARK INTRA:                  -0.139
REMARK UNBOUND:                -0.120
REMARK SMILES COc1cc2ccc(=O)oc2cc1OC
REMARK SMILES IDX 3 1 13 2 12 3 11 4 5 5 4 6 6 7 7 8 8 9 9 10 10 11 2 12 1 13
REMARK SMILES IDX 14 14 15 15
REMARK H PARENT
REMARK Flexibility Score: inf
ROOT
ATOM      1  C   UNL     1       9.169  15.052  -1.026  1.00  0.00     0.161 A 
ATOM      2  C   UNL     1       9.012  16.359  -0.533  1.00  0.00     0.164 A 
ATOM      3  C   UNL     1      10.150  17.134  -0.233  1.00  0.00     0.098 A 
ATOM      4  C   UNL     1      11.432  16.614  -0.422  1.00  0.00     0.142 A 
ATOM      5  C   UNL     1      11.590  15.303  -0.917  1.00  0.00     0.022 A 
ATOM      6  C   UNL     1      10.464  14.527  -1.217  1.00  0.00     0.062 A 
ATOM      7  C   UNL     1      12.887  14.810  -1.095  1.00  0.00     0.019 A 
ATOM      8  C   UNL     1      13.976  15.622  -0.782  1.00  0.00     0.094 A 
ATOM      9  C   UNL     1      13.743  16.912  -0.296  1.00  0.00     0.336 A 
ATOM     10  O   UNL     1      14.713  17.661  -0.007  1.00  0.00    -0.246 OA
ATOM     11  O   UNL     1      12.499  17.356  -0.135  1.00  0.00    -0.423 OA
ENDROOT
BRANCH   1  12
ATOM     12  O   UNL     1       8.015  14.307  -1.315  1.00  0.00    -0.493 OA
ATOM     13  C   UNL     1       7.539  13.218  -0.530  1.00  0.00     0.278 C 
ENDBRANCH   1  12
BRANCH   2  14
ATOM     14  O   UNL     1       7.708  16.849  -0.355  1.00  0.00    -0.493 OA
ATOM     15  C   UNL     1       7.202  17.366   0.871  1.00  0.00     0.278 C 
ENDBRANCH   2  14
TORSDOF 2
ENDMDL
MODEL 8
REMARK VINA RESULT:    -3.066      2.671      4.653
REMARK INTER + INTRA:          -3.544
REMARK INTER:                  -3.415
REMARK INTRA:                  -0.129
REMARK UNBOUND:                -0.120
REMARK SMILES COc1cc2ccc(=O)oc2cc1OC
REMARK SMILES IDX 3 1 13 2 12 3 11 4 5 5 4 6 6 7 7 8 8 9 9 10 10 11 2 12 1 13
REMARK SMILES IDX 14 14 15 15
REMARK H PARENT
REMARK Flexibility Score: inf
ROOT
ATOM      1  C   UNL     1      11.459   9.637  -2.101  1.00  0.00     0.161 A 
ATOM      2  C   UNL     1      12.719   9.412  -2.681  1.00  0.00     0.164 A 
ATOM      3  C   UNL     1      13.208   8.096  -2.800  1.00  0.00     0.098 A 
ATOM      4  C   UNL     1      12.449   7.014  -2.347  1.00  0.00     0.142 A 
ATOM      5  C   UNL     1      11.185   7.239  -1.765  1.00  0.00     0.022 A 
ATOM      6  C   UNL     1      10.693   8.545  -1.644  1.00  0.00     0.062 A 
ATOM      7  C   UNL     1      10.450   6.136  -1.321  1.00  0.00     0.019 A 
ATOM      8  C   UNL     1      10.983   4.856  -1.465  1.00  0.00     0.094 A 
ATOM      9  C   UNL     1      12.243   4.708  -2.051  1.00  0.00     0.336 A 
ATOM     10  O   UNL     1      12.743   3.561  -2.190  1.00  0.00    -0.246 OA
ATOM     11  O   UNL     1      12.922   5.775  -2.465  1.00  0.00    -0.423 OA
ENDROOT
BRANCH   1  12
ATOM     12  O   UNL     1      11.002  10.961  -1.997  1.00  0.00    -0.493 OA
ATOM     13  C   UNL     1      11.131  11.771  -0.833  1.00  0.00     0.278 C 
ENDBRANCH   1  12
BRANCH   2  14
ATOM     14  O   UNL     1      13.454  10.523  -3.125  1.00  0.00    -0.493 OA
ATOM     15  C   UNL     1      14.816  10.773  -2.794  1.00  0.00     0.278 C 
ENDBRANCH   2  14
TORSDOF 2
ENDMDL
