MODEL 1
REMARK VINA RESULT:    -6.926      0.000      0.000
REMARK INTER + INTRA:         -10.372
REMARK INTER:                  -9.962
REMARK INTRA:                  -0.409
REMARK UNBOUND:                -0.409
REMARK SMILES O=c1cc(-c2ccc(O)c(O)c2)oc2cc(O[C@@H]3O[C@@H](CO)[C@@H](O)[C@@H](O)[C@H]3O)cc(O)c12
REMARK SMILES IDX 17 1 16 2 4 3 3 4 13 5 2 6 14 7 1 8 32 9 15 10 30 11 29 12
REMARK SMILES IDX 5 13 6 14 7 15 8 16 12 17 10 18 9 19 11 21 31 23 18 25 27 26
REMARK SMILES IDX 19 27 25 28 20 29 23 30 28 31 26 33 21 35 22 36 24 38
REMARK H PARENT 9 20 11 22 31 24 28 32 26 34 22 37 24 39
REMARK Flexibility Score: inf
ROOT
ATOM      1  O   UNL     1      28.078   2.649  16.938  1.00  0.00    -0.462 OA
ENDROOT
BRANCH   1   2
ATOM      2  C   UNL     1      27.909   2.294  18.286  1.00  0.00     0.130 A 
ATOM      3  C   UNL     1      28.111   3.329  22.943  1.00  0.00     0.138 A 
ATOM      4  C   UNL     1      27.658   2.052  23.309  1.00  0.00     0.100 A 
ATOM      5  O   UNL     1      28.262   3.625  21.655  1.00  0.00    -0.456 OA
ATOM      6  C   UNL     1      27.364   1.117  22.316  1.00  0.00     0.197 A 
ATOM      7  C   UNL     1      27.994   2.771  20.672  1.00  0.00     0.146 A 
ATOM      8  O   UNL     1      26.962  -0.030  22.655  1.00  0.00    -0.289 OA
ATOM      9  C   UNL     1      27.526   1.468  20.960  1.00  0.00     0.107 A 
ATOM     10  C   UNL     1      28.180   3.176  19.347  1.00  0.00     0.094 A 
ATOM     11  C   UNL     1      27.248   0.583  19.894  1.00  0.00     0.134 A 
ATOM     12  C   UNL     1      27.441   1.008  18.572  1.00  0.00     0.093 A 
BRANCH   3  13
ATOM     13  C   UNL     1      28.445   4.361  23.956  1.00  0.00     0.021 A 
ATOM     14  C   UNL     1      29.772   4.781  24.173  1.00  0.00     0.016 A 
ATOM     15  C   UNL     1      30.059   5.747  25.141  1.00  0.00     0.051 A 
ATOM     16  C   UNL     1      29.032   6.304  25.912  1.00  0.00     0.157 A 
ATOM     17  C   UNL     1      27.421   4.915  24.744  1.00  0.00     0.062 A 
ATOM     18  C   UNL     1      27.707   5.884  25.713  1.00  0.00     0.158 A 
BRANCH  16  19
ATOM     19  O   UNL     1      29.323   7.270  26.875  1.00  0.00    -0.504 OA
ATOM     20  H   UNL     1      29.567   7.016  27.824  1.00  0.00     0.293 HD
ENDBRANCH  16  19
BRANCH  18  21
ATOM     21  O   UNL     1      26.661   6.418  26.464  1.00  0.00    -0.504 OA
ATOM     22  H   UNL     1      25.846   6.837  26.031  1.00  0.00     0.293 HD
ENDBRANCH  18  21
ENDBRANCH   3  13
BRANCH  11  23
ATOM     23  O   UNL     1      26.782  -0.709  20.136  1.00  0.00    -0.507 OA
ATOM     24  H   UNL     1      26.006  -1.102  19.617  1.00  0.00     0.293 HD
ENDBRANCH  11  23
ENDBRANCH   1   2
BRANCH   1  25
ATOM     25  C   UNL     1      27.029   2.875  15.988  1.00  0.00     0.339 C 
ATOM     26  C   UNL     1      25.669   3.117  16.692  1.00  0.00     0.214 C 
ATOM     27  O   UNL     1      27.364   3.955  15.127  1.00  0.00    -0.332 OA
ATOM     28  C   UNL     1      25.661   4.477  17.412  1.00  0.00     0.180 C 
ATOM     29  C   UNL     1      27.525   5.168  15.848  1.00  0.00     0.179 C 
ATOM     30  C   UNL     1      26.193   5.608  16.506  1.00  0.00     0.177 C 
BRANCH  26  31
ATOM     31  O   UNL     1      24.626   3.057  15.753  1.00  0.00    -0.384 OA
ATOM     32  H   UNL     1      23.779   2.985  16.268  1.00  0.00     0.211 HD
ENDBRANCH  26  31
BRANCH  28  33
ATOM     33  O   UNL     1      24.362   4.771  17.859  1.00  0.00    -0.387 OA
ATOM     34  H   UNL     1      24.385   5.698  18.214  1.00  0.00     0.211 HD
ENDBRANCH  28  33
BRANCH  29  35
ATOM     35  C   UNL     1      28.091   6.246  14.913  1.00  0.00     0.191 C 
BRANCH  35  36
ATOM     36  O   UNL     1      28.747   7.245  15.643  1.00  0.00    -0.394 OA
ATOM     37  H   UNL     1      28.930   6.858  16.538  1.00  0.00     0.210 HD
ENDBRANCH  35  36
ENDBRANCH  29  35
BRANCH  30  38
ATOM     38  O   UNL     1      25.227   6.006  15.562  1.00  0.00    -0.387 OA
ATOM     39  H   UNL     1      25.693   6.425  14.794  1.00  0.00     0.211 HD
ENDBRANCH  30  38
ENDBRANCH   1  25
TORSDOF 11
ENDMDL
MODEL 2
REMARK VINA RESULT:    -6.894      2.907      5.483
REMARK INTER + INTRA:         -10.327
REMARK INTER:                  -9.409
REMARK INTRA:                  -0.918
REMARK UNBOUND:                -0.409
REMARK SMILES O=c1cc(-c2ccc(O)c(O)c2)oc2cc(O[C@@H]3O[C@@H](CO)[C@@H](O)[C@@H](O)[C@H]3O)cc(O)c12
REMARK SMILES IDX 17 1 16 2 4 3 3 4 13 5 2 6 14 7 1 8 32 9 15 10 30 11 29 12
REMARK SMILES IDX 5 13 6 14 7 15 8 16 12 17 10 18 9 19 11 21 31 23 18 25 27 26
REMARK SMILES IDX 19 27 25 28 20 29 23 30 28 31 26 33 21 35 22 36 24 38
REMARK H PARENT 9 20 11 22 31 24 28 32 26 34 22 37 24 39
REMARK Flexibility Score: inf
ROOT
ATOM      1  O   UNL     1      28.771   1.559  21.194  1.00  0.00    -0.462 OA
ENDROOT
BRANCH   1   2
ATOM      2  C   UNL     1      29.113   2.862  21.592  1.00  0.00     0.130 A 
ATOM      3  C   UNL     1      29.888   6.133  24.984  1.00  0.00     0.138 A 
ATOM      4  C   UNL     1      30.189   7.128  24.041  1.00  0.00     0.100 A 
ATOM      5  O   UNL     1      29.564   4.912  24.566  1.00  0.00    -0.456 OA
ATOM      6  C   UNL     1      30.154   6.819  22.680  1.00  0.00     0.197 A 
ATOM      7  C   UNL     1      29.519   4.567  23.282  1.00  0.00     0.146 A 
ATOM      8  O   UNL     1      30.422   7.721  21.840  1.00  0.00    -0.289 OA
ATOM      9  C   UNL     1      29.817   5.512  22.273  1.00  0.00     0.107 A 
ATOM     10  C   UNL     1      29.173   3.256  22.941  1.00  0.00     0.094 A 
ATOM     11  C   UNL     1      29.763   5.114  20.918  1.00  0.00     0.134 A 
ATOM     12  C   UNL     1      29.413   3.795  20.595  1.00  0.00     0.093 A 
BRANCH   3  13
ATOM     13  C   UNL     1      29.902   6.407  26.442  1.00  0.00     0.021 A 
ATOM     14  C   UNL     1      31.079   6.280  27.206  1.00  0.00     0.016 A 
ATOM     15  C   UNL     1      31.061   6.535  28.580  1.00  0.00     0.051 A 
ATOM     16  C   UNL     1      29.871   6.913  29.215  1.00  0.00     0.157 A 
ATOM     17  C   UNL     1      28.709   6.773  27.089  1.00  0.00     0.062 A 
ATOM     18  C   UNL     1      28.690   7.031  28.465  1.00  0.00     0.158 A 
BRANCH  16  19
ATOM     19  O   UNL     1      29.859   7.169  30.585  1.00  0.00    -0.504 OA
ATOM     20  H   UNL     1      29.070   7.620  31.034  1.00  0.00     0.293 HD
ENDBRANCH  16  19
BRANCH  18  21
ATOM     21  O   UNL     1      27.488   7.403  29.066  1.00  0.00    -0.504 OA
ATOM     22  H   UNL     1      27.317   8.350  29.384  1.00  0.00     0.293 HD
ENDBRANCH  18  21
ENDBRANCH   3  13
BRANCH  11  23
ATOM     23  O   UNL     1      30.053   6.015  19.893  1.00  0.00    -0.507 OA
ATOM     24  H   UNL     1      30.886   6.591  19.910  1.00  0.00     0.293 HD
ENDBRANCH  11  23
ENDBRANCH   1   2
BRANCH   1  25
ATOM     25  C   UNL     1      27.465   0.972  21.264  1.00  0.00     0.339 C 
ATOM     26  C   UNL     1      26.501   1.610  20.232  1.00  0.00     0.214 C 
ATOM     27  O   UNL     1      27.546  -0.436  21.094  1.00  0.00    -0.332 OA
ATOM     28  C   UNL     1      26.887   1.204  18.798  1.00  0.00     0.180 C 
ATOM     29  C   UNL     1      28.076  -0.780  19.823  1.00  0.00     0.179 C 
ATOM     30  C   UNL     1      27.137  -0.315  18.681  1.00  0.00     0.177 C 
BRANCH  26  31
ATOM     31  O   UNL     1      25.179   1.221  20.507  1.00  0.00    -0.384 OA
ATOM     32  H   UNL     1      24.968   1.545  21.422  1.00  0.00     0.211 HD
ENDBRANCH  26  31
BRANCH  28  33
ATOM     33  O   UNL     1      25.886   1.612  17.901  1.00  0.00    -0.387 OA
ATOM     34  H   UNL     1      26.216   2.441  17.464  1.00  0.00     0.211 HD
ENDBRANCH  28  33
BRANCH  29  35
ATOM     35  C   UNL     1      28.341  -2.292  19.772  1.00  0.00     0.191 C 
BRANCH  35  36
ATOM     36  O   UNL     1      27.945  -2.827  18.539  1.00  0.00    -0.394 OA
ATOM     37  H   UNL     1      26.953  -2.846  18.554  1.00  0.00     0.210 HD
ENDBRANCH  35  36
ENDBRANCH  29  35
BRANCH  30  38
ATOM     38  O   UNL     1      25.926  -1.032  18.648  1.00  0.00    -0.387 OA
ATOM     39  H   UNL     1      26.131  -1.984  18.465  1.00  0.00     0.211 HD
ENDBRANCH  30  38
ENDBRANCH   1  25
TORSDOF 11
ENDMDL
MODEL 3
REMARK VINA RESULT:    -6.609      5.607     11.349
REMARK INTER + INTRA:          -9.916
REMARK INTER:                  -9.121
REMARK INTRA:                  -0.795
REMARK UNBOUND:                -0.409
REMARK SMILES O=c1cc(-c2ccc(O)c(O)c2)oc2cc(O[C@@H]3O[C@@H](CO)[C@@H](O)[C@@H](O)[C@H]3O)cc(O)c12
REMARK SMILES IDX 17 1 16 2 4 3 3 4 13 5 2 6 14 7 1 8 32 9 15 10 30 11 29 12
REMARK SMILES IDX 5 13 6 14 7 15 8 16 12 17 10 18 9 19 11 21 31 23 18 25 27 26
REMARK SMILES IDX 19 27 25 28 20 29 23 30 28 31 26 33 21 35 22 36 24 38
REMARK H PARENT 9 20 11 22 31 24 28 32 26 34 22 37 24 39
REMARK Flexibility Score: inf
ROOT
ATOM      1  O   UNL     1      24.124   8.348  30.096  1.00  0.00    -0.462 OA
ENDROOT
BRANCH   1   2
ATOM      2  C   UNL     1      25.495   8.274  29.794  1.00  0.00     0.130 A 
ATOM      3  C   UNL     1      29.098   6.787  27.037  1.00  0.00     0.138 A 
ATOM      4  C   UNL     1      30.058   7.407  27.852  1.00  0.00     0.100 A 
ATOM      5  O   UNL     1      27.810   6.876  27.360  1.00  0.00    -0.456 OA
ATOM      6  C   UNL     1      29.646   8.116  28.981  1.00  0.00     0.197 A 
ATOM      7  C   UNL     1      27.367   7.540  28.423  1.00  0.00     0.146 A 
ATOM      8  O   UNL     1      30.516   8.667  29.710  1.00  0.00    -0.289 OA
ATOM      9  C   UNL     1      28.272   8.199  29.287  1.00  0.00     0.107 A 
ATOM     10  C   UNL     1      25.993   7.582  28.676  1.00  0.00     0.094 A 
ATOM     11  C   UNL     1      27.771   8.899  30.407  1.00  0.00     0.134 A 
ATOM     12  C   UNL     1      26.390   8.929  30.646  1.00  0.00     0.093 A 
BRANCH   3  13
ATOM     13  C   UNL     1      29.479   6.014  25.830  1.00  0.00     0.021 A 
ATOM     14  C   UNL     1      30.794   6.033  25.324  1.00  0.00     0.016 A 
ATOM     15  C   UNL     1      31.122   5.303  24.178  1.00  0.00     0.051 A 
ATOM     16  C   UNL     1      30.147   4.549  23.515  1.00  0.00     0.157 A 
ATOM     17  C   UNL     1      28.503   5.265  25.150  1.00  0.00     0.062 A 
ATOM     18  C   UNL     1      28.830   4.532  24.004  1.00  0.00     0.158 A 
BRANCH  16  19
ATOM     19  O   UNL     1      30.480   3.820  22.375  1.00  0.00    -0.504 OA
ATOM     20  H   UNL     1      31.434   3.540  22.184  1.00  0.00     0.293 HD
ENDBRANCH  16  19
BRANCH  18  21
ATOM     21  O   UNL     1      27.835   3.793  23.366  1.00  0.00    -0.504 OA
ATOM     22  H   UNL     1      27.054   4.236  22.896  1.00  0.00     0.293 HD
ENDBRANCH  18  21
ENDBRANCH   3  13
BRANCH  11  23
ATOM     23  O   UNL     1      28.630   9.565  31.282  1.00  0.00    -0.507 OA
ATOM     24  H   UNL     1      28.291  10.010  32.127  1.00  0.00     0.293 HD
ENDBRANCH  11  23
ENDBRANCH   1   2
BRANCH   1  25
ATOM     25  C   UNL     1      23.144   7.341  29.813  1.00  0.00     0.339 C 
ATOM     26  C   UNL     1      22.066   7.271  30.924  1.00  0.00     0.214 C 
ATOM     27  O   UNL     1      22.558   7.566  28.537  1.00  0.00    -0.332 OA
ATOM     28  C   UNL     1      21.167   8.519  30.893  1.00  0.00     0.180 C 
ATOM     29  C   UNL     1      21.883   8.814  28.485  1.00  0.00     0.179 C 
ATOM     30  C   UNL     1      20.682   8.841  29.464  1.00  0.00     0.177 C 
BRANCH  26  31
ATOM     31  O   UNL     1      21.291   6.110  30.766  1.00  0.00    -0.384 OA
ATOM     32  H   UNL     1      20.939   5.874  31.665  1.00  0.00     0.211 HD
ENDBRANCH  26  31
BRANCH  28  33
ATOM     33  O   UNL     1      20.075   8.341  31.759  1.00  0.00    -0.387 OA
ATOM     34  H   UNL     1      19.424   9.061  31.548  1.00  0.00     0.211 HD
ENDBRANCH  28  33
BRANCH  29  35
ATOM     35  C   UNL     1      21.456   9.103  27.039  1.00  0.00     0.191 C 
BRANCH  35  36
ATOM     36  O   UNL     1      22.573   9.181  26.195  1.00  0.00    -0.394 OA
ATOM     37  H   UNL     1      23.272   9.663  26.708  1.00  0.00     0.210 HD
ENDBRANCH  35  36
ENDBRANCH  29  35
BRANCH  30  38
ATOM     38  O   UNL     1      19.641   7.979  29.070  1.00  0.00    -0.387 OA
ATOM     39  H   UNL     1      20.036   7.104  28.823  1.00  0.00     0.211 HD
ENDBRANCH  30  38
ENDBRANCH   1  25
TORSDOF 11
ENDMDL
MODEL 4
REMARK VINA RESULT:    -6.605      2.066      2.608
REMARK INTER + INTRA:          -9.911
REMARK INTER:                  -9.276
REMARK INTRA:                  -0.634
REMARK UNBOUND:                -0.409
REMARK SMILES O=c1cc(-c2ccc(O)c(O)c2)oc2cc(O[C@@H]3O[C@@H](CO)[C@@H](O)[C@@H](O)[C@H]3O)cc(O)c12
REMARK SMILES IDX 17 1 16 2 4 3 3 4 13 5 2 6 14 7 1 8 32 9 15 10 30 11 29 12
REMARK SMILES IDX 5 13 6 14 7 15 8 16 12 17 10 18 9 19 11 21 31 23 18 25 27 26
REMARK SMILES IDX 19 27 25 28 20 29 23 30 28 31 26 33 21 35 22 36 24 38
REMARK H PARENT 9 20 11 22 31 24 28 32 26 34 22 37 24 39
REMARK Flexibility Score: inf
ROOT
ATOM      1  O   UNL     1      28.535   3.172  17.744  1.00  0.00    -0.462 OA
ENDROOT
BRANCH   1   2
ATOM      2  C   UNL     1      28.441   2.452  18.946  1.00  0.00     0.130 A 
ATOM      3  C   UNL     1      26.749   1.911  23.378  1.00  0.00     0.138 A 
ATOM      4  C   UNL     1      27.438   0.701  23.559  1.00  0.00     0.100 A 
ATOM      5  O   UNL     1      26.869   2.566  22.226  1.00  0.00    -0.456 OA
ATOM      6  C   UNL     1      28.229   0.199  22.524  1.00  0.00     0.197 A 
ATOM      7  C   UNL     1      27.607   2.129  21.210  1.00  0.00     0.146 A 
ATOM      8  O   UNL     1      28.847  -0.886  22.698  1.00  0.00    -0.289 OA
ATOM      9  C   UNL     1      28.324   0.915  21.313  1.00  0.00     0.107 A 
ATOM     10  C   UNL     1      27.666   2.886  20.036  1.00  0.00     0.094 A 
ATOM     11  C   UNL     1      29.097   0.475  20.215  1.00  0.00     0.134 A 
ATOM     12  C   UNL     1      29.145   1.248  19.046  1.00  0.00     0.093 A 
BRANCH   3  13
ATOM     13  C   UNL     1      25.901   2.495  24.446  1.00  0.00     0.021 A 
ATOM     14  C   UNL     1      25.111   1.687  25.287  1.00  0.00     0.016 A 
ATOM     15  C   UNL     1      24.313   2.266  26.278  1.00  0.00     0.051 A 
ATOM     16  C   UNL     1      24.285   3.656  26.444  1.00  0.00     0.157 A 
ATOM     17  C   UNL     1      25.857   3.891  24.610  1.00  0.00     0.062 A 
ATOM     18  C   UNL     1      25.060   4.471  25.604  1.00  0.00     0.158 A 
BRANCH  16  19
ATOM     19  O   UNL     1      23.491   4.228  27.436  1.00  0.00    -0.504 OA
ATOM     20  H   UNL     1      22.587   4.633  27.224  1.00  0.00     0.293 HD
ENDBRANCH  16  19
BRANCH  18  21
ATOM     21  O   UNL     1      25.054   5.859  25.740  1.00  0.00    -0.504 OA
ATOM     22  H   UNL     1      24.394   6.445  25.242  1.00  0.00     0.293 HD
ENDBRANCH  18  21
ENDBRANCH   3  13
BRANCH  11  23
ATOM     23  O   UNL     1      29.816  -0.719  20.275  1.00  0.00    -0.507 OA
ATOM     24  H   UNL     1      30.572  -0.854  20.937  1.00  0.00     0.293 HD
ENDBRANCH  11  23
ENDBRANCH   1   2
BRANCH   1  25
ATOM     25  C   UNL     1      27.672   3.034  16.608  1.00  0.00     0.339 C 
ATOM     26  C   UNL     1      26.179   3.058  17.025  1.00  0.00     0.214 C 
ATOM     27  O   UNL     1      27.956   4.039  15.644  1.00  0.00    -0.332 OA
ATOM     28  C   UNL     1      25.765   4.465  17.492  1.00  0.00     0.180 C 
ATOM     29  C   UNL     1      27.733   5.341  16.165  1.00  0.00     0.179 C 
ATOM     30  C   UNL     1      26.238   5.557  16.508  1.00  0.00     0.177 C 
BRANCH  26  31
ATOM     31  O   UNL     1      25.374   2.647  15.949  1.00  0.00    -0.384 OA
ATOM     32  H   UNL     1      25.193   1.679  16.079  1.00  0.00     0.211 HD
ENDBRANCH  26  31
BRANCH  28  33
ATOM     33  O   UNL     1      24.371   4.520  17.660  1.00  0.00    -0.387 OA
ATOM     34  H   UNL     1      24.191   5.251  18.309  1.00  0.00     0.211 HD
ENDBRANCH  28  33
BRANCH  29  35
ATOM     35  C   UNL     1      28.254   6.385  15.168  1.00  0.00     0.191 C 
BRANCH  35  36
ATOM     36  O   UNL     1      28.874   7.449  15.838  1.00  0.00    -0.394 OA
ATOM     37  H   UNL     1      28.278   7.681  16.596  1.00  0.00     0.210 HD
ENDBRANCH  35  36
ENDBRANCH  29  35
BRANCH  30  38
ATOM     38  O   UNL     1      25.420   5.604  15.363  1.00  0.00    -0.387 OA
ATOM     39  H   UNL     1      25.995   5.505  14.563  1.00  0.00     0.211 HD
ENDBRANCH  30  38
ENDBRANCH   1  25
TORSDOF 11
ENDMDL
MODEL 5
REMARK VINA RESULT:    -6.463      1.774      3.183
REMARK INTER + INTRA:          -9.707
REMARK INTER:                  -8.843
REMARK INTRA:                  -0.864
REMARK UNBOUND:                -0.409
REMARK SMILES O=c1cc(-c2ccc(O)c(O)c2)oc2cc(O[C@@H]3O[C@@H](CO)[C@@H](O)[C@@H](O)[C@H]3O)cc(O)c12
REMARK SMILES IDX 17 1 16 2 4 3 3 4 13 5 2 6 14 7 1 8 32 9 15 10 30 11 29 12
REMARK SMILES IDX 5 13 6 14 7 15 8 16 12 17 10 18 9 19 11 21 31 23 18 25 27 26
REMARK SMILES IDX 19 27 25 28 20 29 23 30 28 31 26 33 21 35 22 36 24 38
REMARK H PARENT 9 20 11 22 31 24 28 32 26 34 22 37 24 39
REMARK Flexibility Score: inf
ROOT
ATOM      1  O   UNL     1      28.977   3.429  19.234  1.00  0.00    -0.462 OA
ENDROOT
BRANCH   1   2
ATOM      2  C   UNL     1      28.508   3.308  20.553  1.00  0.00     0.130 A 
ATOM      3  C   UNL     1      28.188   4.903  25.042  1.00  0.00     0.138 A 
ATOM      4  C   UNL     1      27.387   3.820  25.435  1.00  0.00     0.100 A 
ATOM      5  O   UNL     1      28.616   4.979  23.784  1.00  0.00    -0.456 OA
ATOM      6  C   UNL     1      27.043   2.844  24.497  1.00  0.00     0.197 A 
ATOM      7  C   UNL     1      28.314   4.077  22.854  1.00  0.00     0.146 A 
ATOM      8  O   UNL     1      26.326   1.872  24.860  1.00  0.00    -0.289 OA
ATOM      9  C   UNL     1      27.505   2.962  23.171  1.00  0.00     0.107 A 
ATOM     10  C   UNL     1      28.807   4.247  21.557  1.00  0.00     0.094 A 
ATOM     11  C   UNL     1      27.200   2.023  22.160  1.00  0.00     0.134 A 
ATOM     12  C   UNL     1      27.704   2.208  20.865  1.00  0.00     0.093 A 
BRANCH   3  13
ATOM     13  C   UNL     1      28.590   5.965  25.997  1.00  0.00     0.021 A 
ATOM     14  C   UNL     1      29.816   6.647  25.870  1.00  0.00     0.016 A 
ATOM     15  C   UNL     1      30.174   7.636  26.791  1.00  0.00     0.051 A 
ATOM     16  C   UNL     1      29.322   7.955  27.855  1.00  0.00     0.157 A 
ATOM     17  C   UNL     1      27.747   6.281  27.076  1.00  0.00     0.062 A 
ATOM     18  C   UNL     1      28.103   7.273  27.998  1.00  0.00     0.158 A 
BRANCH  16  19
ATOM     19  O   UNL     1      29.682   8.944  28.769  1.00  0.00    -0.504 OA
ATOM     20  H   UNL     1      29.741   9.919  28.500  1.00  0.00     0.293 HD
ENDBRANCH  16  19
BRANCH  18  21
ATOM     21  O   UNL     1      27.233   7.565  29.048  1.00  0.00    -0.504 OA
ATOM     22  H   UNL     1      26.779   8.466  29.134  1.00  0.00     0.293 HD
ENDBRANCH  18  21
ENDBRANCH   3  13
BRANCH  11  23
ATOM     23  O   UNL     1      26.402   0.910  22.430  1.00  0.00    -0.507 OA
ATOM     24  H   UNL     1      26.688   0.197  23.090  1.00  0.00     0.293 HD
ENDBRANCH  11  23
ENDBRANCH   1   2
BRANCH   1  25
ATOM     25  C   UNL     1      28.681   4.500  18.329  1.00  0.00     0.339 C 
ATOM     26  C   UNL     1      29.298   4.248  16.930  1.00  0.00     0.214 C 
ATOM     27  O   UNL     1      27.277   4.704  18.246  1.00  0.00    -0.332 OA
ATOM     28  C   UNL     1      28.571   3.098  16.211  1.00  0.00     0.180 C 
ATOM     29  C   UNL     1      26.611   3.555  17.744  1.00  0.00     0.179 C 
ATOM     30  C   UNL     1      27.037   3.255  16.285  1.00  0.00     0.177 C 
BRANCH  26  31
ATOM     31  O   UNL     1      29.232   5.421  16.159  1.00  0.00    -0.384 OA
ATOM     32  H   UNL     1      30.135   5.559  15.768  1.00  0.00     0.211 HD
ENDBRANCH  26  31
BRANCH  28  33
ATOM     33  O   UNL     1      28.998   3.025  14.875  1.00  0.00    -0.387 OA
ATOM     34  H   UNL     1      29.643   2.271  14.822  1.00  0.00     0.211 HD
ENDBRANCH  28  33
BRANCH  29  35
ATOM     35  C   UNL     1      25.093   3.746  17.875  1.00  0.00     0.191 C 
BRANCH  35  36
ATOM     36  O   UNL     1      24.752   5.104  17.797  1.00  0.00    -0.394 OA
ATOM     37  H   UNL     1      25.610   5.600  17.747  1.00  0.00     0.210 HD
ENDBRANCH  35  36
ENDBRANCH  29  35
BRANCH  30  38
ATOM     38  O   UNL     1      26.577   4.226  15.375  1.00  0.00    -0.387 OA
ATOM     39  H   UNL     1      25.590   4.157  15.315  1.00  0.00     0.211 HD
ENDBRANCH  30  38
ENDBRANCH   1  25
TORSDOF 11
ENDMDL
MODEL 6
REMARK VINA RESULT:    -6.329      4.849     11.904
REMARK INTER + INTRA:          -9.514
REMARK INTER:                  -8.494
REMARK INTRA:                  -1.020
REMARK UNBOUND:                -0.409
REMARK SMILES O=c1cc(-c2ccc(O)c(O)c2)oc2cc(O[C@@H]3O[C@@H](CO)[C@@H](O)[C@@H](O)[C@H]3O)cc(O)c12
REMARK SMILES IDX 17 1 16 2 4 3 3 4 13 5 2 6 14 7 1 8 32 9 15 10 30 11 29 12
REMARK SMILES IDX 5 13 6 14 7 15 8 16 12 17 10 18 9 19 11 21 31 23 18 25 27 26
REMARK SMILES IDX 19 27 25 28 20 29 23 30 28 31 26 33 21 35 22 36 24 38
REMARK H PARENT 9 20 11 22 31 24 28 32 26 34 22 37 24 39
REMARK Flexibility Score: inf
ROOT
ATOM      1  O   UNL     1      25.415   8.777  30.493  1.00  0.00    -0.462 OA
ENDROOT
BRANCH   1   2
ATOM      2  C   UNL     1      26.505   8.454  29.667  1.00  0.00     0.130 A 
ATOM      3  C   UNL     1      28.433   6.001  26.053  1.00  0.00     0.138 A 
ATOM      4  C   UNL     1      29.686   6.609  26.228  1.00  0.00     0.100 A 
ATOM      5  O   UNL     1      27.427   6.331  26.859  1.00  0.00    -0.456 OA
ATOM      6  C   UNL     1      29.854   7.558  27.238  1.00  0.00     0.197 A 
ATOM      7  C   UNL     1      27.536   7.229  27.834  1.00  0.00     0.146 A 
ATOM      8  O   UNL     1      30.985   8.096  27.391  1.00  0.00    -0.289 OA
ATOM      9  C   UNL     1      28.764   7.890  28.067  1.00  0.00     0.107 A 
ATOM     10  C   UNL     1      26.420   7.512  28.626  1.00  0.00     0.094 A 
ATOM     11  C   UNL     1      28.847   8.842  29.109  1.00  0.00     0.134 A 
ATOM     12  C   UNL     1      27.717   9.112  29.894  1.00  0.00     0.093 A 
BRANCH   3  13
ATOM     13  C   UNL     1      28.199   4.981  25.001  1.00  0.00     0.021 A 
ATOM     14  C   UNL     1      29.160   4.712  24.006  1.00  0.00     0.016 A 
ATOM     15  C   UNL     1      28.909   3.753  23.021  1.00  0.00     0.051 A 
ATOM     16  C   UNL     1      27.696   3.053  23.007  1.00  0.00     0.157 A 
ATOM     17  C   UNL     1      26.979   4.284  24.971  1.00  0.00     0.062 A 
ATOM     18  C   UNL     1      26.727   3.322  23.986  1.00  0.00     0.158 A 
BRANCH  16  19
ATOM     19  O   UNL     1      27.451   2.095  22.024  1.00  0.00    -0.504 OA
ATOM     20  H   UNL     1      26.646   1.482  22.069  1.00  0.00     0.293 HD
ENDBRANCH  16  19
BRANCH  18  21
ATOM     21  O   UNL     1      25.508   2.644  24.000  1.00  0.00    -0.504 OA
ATOM     22  H   UNL     1      25.126   2.243  24.848  1.00  0.00     0.293 HD
ENDBRANCH  18  21
ENDBRANCH   3  13
BRANCH  11  23
ATOM     23  O   UNL     1      30.038   9.519  29.370  1.00  0.00    -0.507 OA
ATOM     24  H   UNL     1      30.181  10.479  29.079  1.00  0.00     0.293 HD
ENDBRANCH  11  23
ENDBRANCH   1   2
BRANCH   1  25
ATOM     25  C   UNL     1      24.922   7.988  31.583  1.00  0.00     0.339 C 
ATOM     26  C   UNL     1      23.980   8.811  32.498  1.00  0.00     0.214 C 
ATOM     27  O   UNL     1      24.277   6.818  31.096  1.00  0.00    -0.332 OA
ATOM     28  C   UNL     1      22.652   9.117  31.782  1.00  0.00     0.180 C 
ATOM     29  C   UNL     1      23.154   7.138  30.288  1.00  0.00     0.179 C 
ATOM     30  C   UNL     1      22.059   7.859  31.114  1.00  0.00     0.177 C 
BRANCH  26  31
ATOM     31  O   UNL     1      23.738   8.110  33.691  1.00  0.00    -0.384 OA
ATOM     32  H   UNL     1      23.140   7.350  33.462  1.00  0.00     0.211 HD
ENDBRANCH  26  31
BRANCH  28  33
ATOM     33  O   UNL     1      21.738   9.673  32.692  1.00  0.00    -0.387 OA
ATOM     34  H   UNL     1      21.681  10.643  32.483  1.00  0.00     0.211 HD
ENDBRANCH  28  33
BRANCH  29  35
ATOM     35  C   UNL     1      22.627   5.862  29.618  1.00  0.00     0.191 C 
BRANCH  35  36
ATOM     36  O   UNL     1      22.660   4.780  30.508  1.00  0.00    -0.394 OA
ATOM     37  H   UNL     1      21.951   4.955  31.180  1.00  0.00     0.210 HD
ENDBRANCH  35  36
ENDBRANCH  29  35
BRANCH  30  38
ATOM     38  O   UNL     1      21.450   7.014  32.061  1.00  0.00    -0.387 OA
ATOM     39  H   UNL     1      22.058   6.925  32.839  1.00  0.00     0.211 HD
ENDBRANCH  30  38
ENDBRANCH   1  25
TORSDOF 11
ENDMDL
MODEL 7
REMARK VINA RESULT:    -6.251      3.386      5.681
REMARK INTER + INTRA:          -9.401
REMARK INTER:                  -8.520
REMARK INTRA:                  -0.881
REMARK UNBOUND:                -0.409
REMARK SMILES O=c1cc(-c2ccc(O)c(O)c2)oc2cc(O[C@@H]3O[C@@H](CO)[C@@H](O)[C@@H](O)[C@H]3O)cc(O)c12
REMARK SMILES IDX 17 1 16 2 4 3 3 4 13 5 2 6 14 7 1 8 32 9 15 10 30 11 29 12
REMARK SMILES IDX 5 13 6 14 7 15 8 16 12 17 10 18 9 19 11 21 31 23 18 25 27 26
REMARK SMILES IDX 19 27 25 28 20 29 23 30 28 31 26 33 21 35 22 36 24 38
REMARK H PARENT 9 20 11 22 31 24 28 32 26 34 22 37 24 39
REMARK Flexibility Score: inf
ROOT
ATOM      1  O   UNL     1      28.795   1.617  20.488  1.00  0.00    -0.462 OA
ENDROOT
BRANCH   1   2
ATOM      2  C   UNL     1      29.171   2.899  20.924  1.00  0.00     0.130 A 
ATOM      3  C   UNL     1      29.789   6.125  24.390  1.00  0.00     0.138 A 
ATOM      4  C   UNL     1      30.242   7.099  23.486  1.00  0.00     0.100 A 
ATOM      5  O   UNL     1      29.438   4.925  23.936  1.00  0.00    -0.456 OA
ATOM      6  C   UNL     1      30.327   6.789  22.127  1.00  0.00     0.197 A 
ATOM      7  C   UNL     1      29.503   4.580  22.653  1.00  0.00     0.146 A 
ATOM      8  O   UNL     1      30.731   7.672  21.322  1.00  0.00    -0.289 OA
ATOM      9  C   UNL     1      29.957   5.504  21.683  1.00  0.00     0.107 A 
ATOM     10  C   UNL     1      29.117   3.292  22.274  1.00  0.00     0.094 A 
ATOM     11  C   UNL     1      30.017   5.107  20.328  1.00  0.00     0.134 A 
ATOM     12  C   UNL     1      29.624   3.811  19.967  1.00  0.00     0.093 A 
BRANCH   3  13
ATOM     13  C   UNL     1      29.672   6.401  25.843  1.00  0.00     0.021 A 
ATOM     14  C   UNL     1      30.794   6.372  26.693  1.00  0.00     0.016 A 
ATOM     15  C   UNL     1      30.652   6.626  28.060  1.00  0.00     0.051 A 
ATOM     16  C   UNL     1      29.392   6.906  28.602  1.00  0.00     0.157 A 
ATOM     17  C   UNL     1      28.408   6.670  26.396  1.00  0.00     0.062 A 
ATOM     18  C   UNL     1      28.265   6.926  27.765  1.00  0.00     0.158 A 
BRANCH  16  19
ATOM     19  O   UNL     1      29.256   7.162  29.966  1.00  0.00    -0.504 OA
ATOM     20  H   UNL     1      29.538   6.484  30.663  1.00  0.00     0.293 HD
ENDBRANCH  16  19
BRANCH  18  21
ATOM     21  O   UNL     1      26.995   7.199  28.273  1.00  0.00    -0.504 OA
ATOM     22  H   UNL     1      26.630   8.142  28.328  1.00  0.00     0.293 HD
ENDBRANCH  18  21
ENDBRANCH   3  13
BRANCH  11  23
ATOM     23  O   UNL     1      30.462   5.987  19.342  1.00  0.00    -0.507 OA
ATOM     24  H   UNL     1      30.594   5.690  18.382  1.00  0.00     0.293 HD
ENDBRANCH  11  23
ENDBRANCH   1   2
BRANCH   1  25
ATOM     25  C   UNL     1      29.580   0.743  19.669  1.00  0.00     0.339 C 
ATOM     26  C   UNL     1      29.934  -0.569  20.416  1.00  0.00     0.214 C 
ATOM     27  O   UNL     1      28.909   0.475  18.445  1.00  0.00    -0.332 OA
ATOM     28  C   UNL     1      28.684  -1.446  20.602  1.00  0.00     0.180 C 
ATOM     29  C   UNL     1      27.668  -0.180  18.662  1.00  0.00     0.179 C 
ATOM     30  C   UNL     1      27.877  -1.580  19.293  1.00  0.00     0.177 C 
BRANCH  26  31
ATOM     31  O   UNL     1      30.920  -1.273  19.706  1.00  0.00    -0.384 OA
ATOM     32  H   UNL     1      30.458  -2.007  19.222  1.00  0.00     0.211 HD
ENDBRANCH  26  31
BRANCH  28  33
ATOM     33  O   UNL     1      29.057  -2.711  21.085  1.00  0.00    -0.387 OA
ATOM     34  H   UNL     1      29.584  -2.556  21.914  1.00  0.00     0.211 HD
ENDBRANCH  28  33
BRANCH  29  35
ATOM     35  C   UNL     1      26.891  -0.253  17.340  1.00  0.00     0.191 C 
BRANCH  35  36
ATOM     36  O   UNL     1      25.831  -1.165  17.433  1.00  0.00    -0.394 OA
ATOM     37  H   UNL     1      25.018  -0.625  17.609  1.00  0.00     0.210 HD
ENDBRANCH  35  36
ENDBRANCH  29  35
BRANCH  30  38
ATOM     38  O   UNL     1      28.486  -2.489  18.406  1.00  0.00    -0.387 OA
ATOM     39  H   UNL     1      27.777  -2.923  17.867  1.00  0.00     0.211 HD
ENDBRANCH  30  38
ENDBRANCH   1  25
TORSDOF 11
ENDMDL
MODEL 8
REMARK VINA RESULT:    -6.203      4.690      9.150
REMARK INTER + INTRA:          -9.332
REMARK INTER:                  -8.427
REMARK INTRA:                  -0.905
REMARK UNBOUND:                -0.409
REMARK SMILES O=c1cc(-c2ccc(O)c(O)c2)oc2cc(O[C@@H]3O[C@@H](CO)[C@@H](O)[C@@H](O)[C@H]3O)cc(O)c12
REMARK SMILES IDX 17 1 16 2 4 3 3 4 13 5 2 6 14 7 1 8 32 9 15 10 30 11 29 12
REMARK SMILES IDX 5 13 6 14 7 15 8 16 12 17 10 18 9 19 11 21 31 23 18 25 27 26
REMARK SMILES IDX 19 27 25 28 20 29 23 30 28 31 26 33 21 35 22 36 24 38
REMARK H PARENT 9 20 11 22 31 24 28 32 26 34 22 37 24 39
REMARK Flexibility Score: inf
ROOT
ATOM      1  O   UNL     1      29.012   5.258  25.241  1.00  0.00    -0.462 OA
ENDROOT
BRANCH   1   2
ATOM      2  C   UNL     1      28.890   6.197  26.279  1.00  0.00     0.130 A 
ATOM      3  C   UNL     1      26.322   8.405  29.644  1.00  0.00     0.138 A 
ATOM      4  C   UNL     1      27.409   9.201  30.038  1.00  0.00     0.100 A 
ATOM      5  O   UNL     1      26.476   7.530  28.653  1.00  0.00    -0.456 OA
ATOM      6  C   UNL     1      28.637   9.056  29.391  1.00  0.00     0.197 A 
ATOM      7  C   UNL     1      27.625   7.353  28.007  1.00  0.00     0.146 A 
ATOM      8  O   UNL     1      29.606   9.779  29.748  1.00  0.00    -0.289 OA
ATOM      9  C   UNL     1      28.767   8.112  28.352  1.00  0.00     0.107 A 
ATOM     10  C   UNL     1      27.691   6.405  26.983  1.00  0.00     0.094 A 
ATOM     11  C   UNL     1      29.974   7.899  27.649  1.00  0.00     0.134 A 
ATOM     12  C   UNL     1      30.021   6.944  26.623  1.00  0.00     0.093 A 
BRANCH   3  13
ATOM     13  C   UNL     1      24.992   8.522  30.291  1.00  0.00     0.021 A 
ATOM     14  C   UNL     1      24.709   7.890  31.518  1.00  0.00     0.016 A 
ATOM     15  C   UNL     1      23.444   8.009  32.100  1.00  0.00     0.051 A 
ATOM     16  C   UNL     1      22.440   8.752  31.467  1.00  0.00     0.157 A 
ATOM     17  C   UNL     1      23.975   9.255  29.656  1.00  0.00     0.062 A 
ATOM     18  C   UNL     1      22.707   9.377  30.238  1.00  0.00     0.158 A 
BRANCH  16  19
ATOM     19  O   UNL     1      21.180   8.871  32.053  1.00  0.00    -0.504 OA
ATOM     20  H   UNL     1      20.934   9.669  32.625  1.00  0.00     0.293 HD
ENDBRANCH  16  19
BRANCH  18  21
ATOM     21  O   UNL     1      21.730  10.123  29.581  1.00  0.00    -0.504 OA
ATOM     22  H   UNL     1      21.738  10.251  28.576  1.00  0.00     0.293 HD
ENDBRANCH  18  21
ENDBRANCH   3  13
BRANCH  11  23
ATOM     23  O   UNL     1      31.125   8.624  27.960  1.00  0.00    -0.507 OA
ATOM     24  H   UNL     1      31.085   9.603  28.219  1.00  0.00     0.293 HD
ENDBRANCH  11  23
ENDBRANCH   1   2
BRANCH   1  25
ATOM     25  C   UNL     1      28.271   5.259  24.014  1.00  0.00     0.339 C 
ATOM     26  C   UNL     1      29.065   4.573  22.872  1.00  0.00     0.214 C 
ATOM     27  O   UNL     1      27.003   4.647  24.201  1.00  0.00    -0.332 OA
ATOM     28  C   UNL     1      29.165   3.056  23.110  1.00  0.00     0.180 C 
ATOM     29  C   UNL     1      27.130   3.289  24.595  1.00  0.00     0.179 C 
ATOM     30  C   UNL     1      27.798   2.443  23.481  1.00  0.00     0.177 C 
BRANCH  26  31
ATOM     31  O   UNL     1      28.447   4.831  21.637  1.00  0.00    -0.384 OA
ATOM     32  H   UNL     1      28.569   4.019  21.079  1.00  0.00     0.211 HD
ENDBRANCH  26  31
BRANCH  28  33
ATOM     33  O   UNL     1      29.696   2.429  21.971  1.00  0.00    -0.387 OA
ATOM     34  H   UNL     1      30.685   2.452  22.068  1.00  0.00     0.211 HD
ENDBRANCH  28  33
BRANCH  29  35
ATOM     35  C   UNL     1      25.752   2.739  24.990  1.00  0.00     0.191 C 
BRANCH  35  36
ATOM     36  O   UNL     1      24.736   3.370  24.260  1.00  0.00    -0.394 OA
ATOM     37  H   UNL     1      24.626   2.842  23.427  1.00  0.00     0.210 HD
ENDBRANCH  35  36
ENDBRANCH  29  35
BRANCH  30  38
ATOM     38  O   UNL     1      26.977   2.296  22.347  1.00  0.00    -0.387 OA
ATOM     39  H   UNL     1      26.542   3.166  22.160  1.00  0.00     0.211 HD
ENDBRANCH  30  38
ENDBRANCH   1  25
TORSDOF 11
ENDMDL
MODEL 9
REMARK VINA RESULT:    -6.195      6.692     12.860
REMARK INTER + INTRA:          -9.321
REMARK INTER:                  -8.280
REMARK INTRA:                  -1.041
REMARK UNBOUND:                -0.409
REMARK SMILES O=c1cc(-c2ccc(O)c(O)c2)oc2cc(O[C@@H]3O[C@@H](CO)[C@@H](O)[C@@H](O)[C@H]3O)cc(O)c12
REMARK SMILES IDX 17 1 16 2 4 3 3 4 13 5 2 6 14 7 1 8 32 9 15 10 30 11 29 12
REMARK SMILES IDX 5 13 6 14 7 15 8 16 12 17 10 18 9 19 11 21 31 23 18 25 27 26
REMARK SMILES IDX 19 27 25 28 20 29 23 30 28 31 26 33 21 35 22 36 24 38
REMARK H PARENT 9 20 11 22 31 24 28 32 26 34 22 37 24 39
REMARK Flexibility Score: inf
ROOT
ATOM      1  O   UNL     1      22.705   7.840  30.587  1.00  0.00    -0.462 OA
ENDROOT
BRANCH   1   2
ATOM      2  C   UNL     1      24.077   8.115  30.466  1.00  0.00     0.130 A 
ATOM      3  C   UNL     1      28.262   7.621  28.220  1.00  0.00     0.138 A 
ATOM      4  C   UNL     1      28.924   8.446  29.143  1.00  0.00     0.100 A 
ATOM      5  O   UNL     1      26.962   7.381  28.372  1.00  0.00    -0.456 OA
ATOM      6  C   UNL     1      28.206   9.010  30.199  1.00  0.00     0.197 A 
ATOM      7  C   UNL     1      26.234   7.895  29.359  1.00  0.00     0.146 A 
ATOM      8  O   UNL     1      28.811   9.746  31.026  1.00  0.00    -0.289 OA
ATOM      9  C   UNL     1      26.828   8.743  30.324  1.00  0.00     0.107 A 
ATOM     10  C   UNL     1      24.872   7.589  29.432  1.00  0.00     0.094 A 
ATOM     11  C   UNL     1      26.027   9.276  31.359  1.00  0.00     0.134 A 
ATOM     12  C   UNL     1      24.663   8.957  31.416  1.00  0.00     0.093 A 
BRANCH   3  13
ATOM     13  C   UNL     1      28.976   6.989  27.083  1.00  0.00     0.021 A 
ATOM     14  C   UNL     1      30.316   7.303  26.786  1.00  0.00     0.016 A 
ATOM     15  C   UNL     1      30.960   6.700  25.703  1.00  0.00     0.051 A 
ATOM     16  C   UNL     1      30.279   5.782  24.895  1.00  0.00     0.157 A 
ATOM     17  C   UNL     1      28.294   6.076  26.260  1.00  0.00     0.062 A 
ATOM     18  C   UNL     1      28.939   5.470  25.175  1.00  0.00     0.158 A 
BRANCH  16  19
ATOM     19  O   UNL     1      30.927   5.180  23.817  1.00  0.00    -0.504 OA
ATOM     20  H   UNL     1      31.929   5.027  23.818  1.00  0.00     0.293 HD
ENDBRANCH  16  19
BRANCH  18  21
ATOM     21  O   UNL     1      28.231   4.561  24.389  1.00  0.00    -0.504 OA
ATOM     22  H   UNL     1      28.186   3.575  24.618  1.00  0.00     0.293 HD
ENDBRANCH  18  21
ENDBRANCH   3  13
BRANCH  11  23
ATOM     23  O   UNL     1      26.574  10.118  32.328  1.00  0.00    -0.507 OA
ATOM     24  H   UNL     1      26.227  10.132  33.280  1.00  0.00     0.293 HD
ENDBRANCH  11  23
ENDBRANCH   1   2
BRANCH   1  25
ATOM     25  C   UNL     1      22.103   6.539  30.585  1.00  0.00     0.339 C 
ATOM     26  C   UNL     1      22.432   5.760  31.884  1.00  0.00     0.214 C 
ATOM     27  O   UNL     1      20.700   6.643  30.386  1.00  0.00    -0.332 OA
ATOM     28  C   UNL     1      21.703   6.377  33.091  1.00  0.00     0.180 C 
ATOM     29  C   UNL     1      20.076   7.375  31.431  1.00  0.00     0.179 C 
ATOM     30  C   UNL     1      20.213   6.639  32.787  1.00  0.00     0.177 C 
BRANCH  26  31
ATOM     31  O   UNL     1      22.072   4.410  31.737  1.00  0.00    -0.384 OA
ATOM     32  H   UNL     1      21.763   4.295  30.800  1.00  0.00     0.211 HD
ENDBRANCH  26  31
BRANCH  28  33
ATOM     33  O   UNL     1      21.841   5.539  34.210  1.00  0.00    -0.387 OA
ATOM     34  H   UNL     1      22.247   6.090  34.931  1.00  0.00     0.211 HD
ENDBRANCH  28  33
BRANCH  29  35
ATOM     35  C   UNL     1      18.610   7.641  31.063  1.00  0.00     0.191 C 
BRANCH  35  36
ATOM     36  O   UNL     1      17.974   6.460  30.657  1.00  0.00    -0.394 OA
ATOM     37  H   UNL     1      17.545   6.085  31.469  1.00  0.00     0.210 HD
ENDBRANCH  35  36
ENDBRANCH  29  35
BRANCH  30  38
ATOM     38  O   UNL     1      19.463   5.448  32.837  1.00  0.00    -0.387 OA
ATOM     39  H   UNL     1      19.634   5.006  33.707  1.00  0.00     0.211 HD
ENDBRANCH  30  38
ENDBRANCH   1  25
TORSDOF 11
ENDMDL
