MODEL 1
REMARK VINA RESULT:    -4.736      0.000      0.000
REMARK INTER + INTRA:          -7.459
REMARK INTER:                  -6.951
REMARK INTRA:                  -0.508
REMARK UNBOUND:                -0.508
REMARK SMILES O=C([O-])CCCCCCCC(=O)[O-]
REMARK SMILES IDX 7 1 6 2 5 3 4 4 2 5 1 6 3 7 8 8 9 9 10 10 11 11 12 12 13 13
REMARK H PARENT
REMARK Flexibility Score: inf
ROOT
ATOM      1  C   UNL     1     102.811  22.908 199.863  1.00  0.00     0.000 C 
ENDROOT
BRANCH   1   2
ATOM      2  C   UNL     1     101.770  23.656 200.714  1.00  0.00     0.000 C 
BRANCH   2   3
ATOM      3  C   UNL     1     100.465  23.946 199.951  1.00  0.00     0.006 C 
BRANCH   3   4
ATOM      4  C   UNL     1     100.320  23.152 198.640  1.00  0.00     0.053 C 
BRANCH   4   5
ATOM      5  C   UNL     1      98.896  22.798 198.338  1.00  0.00     0.041 C 
ATOM      6  O   UNL     1      98.631  21.797 197.621  1.00  0.00    -0.550 OA
ATOM      7  O   UNL     1      97.858  23.550 198.877  1.00  0.00    -0.550 OA
ENDBRANCH   4   5
ENDBRANCH   3   4
ENDBRANCH   2   3
ENDBRANCH   1   2
BRANCH   1   8
ATOM      8  C   UNL     1     104.255  23.217 200.289  1.00  0.00     0.000 C 
BRANCH   8   9
ATOM      9  C   UNL     1     105.119  23.724 199.126  1.00  0.00     0.006 C 
BRANCH   9  10
ATOM     10  C   UNL     1     104.346  23.671 197.805  1.00  0.00     0.053 C 
BRANCH  10  11
ATOM     11  C   UNL     1     104.107  25.051 197.281  1.00  0.00     0.041 C 
ATOM     12  O   UNL     1     102.934  25.454 197.067  1.00  0.00    -0.550 OA
ATOM     13  O   UNL     1     105.179  25.911 197.075  1.00  0.00    -0.550 OA
ENDBRANCH  10  11
ENDBRANCH   9  10
ENDBRANCH   8   9
ENDBRANCH   1   8
TORSDOF 8
ENDMDL
MODEL 2
REMARK VINA RESULT:    -4.716      0.495      5.075
REMARK INTER + INTRA:          -7.429
REMARK INTER:                  -6.732
REMARK INTRA:                  -0.698
REMARK UNBOUND:                -0.508
REMARK SMILES O=C([O-])CCCCCCCC(=O)[O-]
REMARK SMILES IDX 7 1 6 2 5 3 4 4 2 5 1 6 3 7 8 8 9 9 10 10 11 11 12 12 13 13
REMARK H PARENT
REMARK Flexibility Score: inf
ROOT
ATOM      1  C   UNL     1     102.552  22.802 200.205  1.00  0.00     0.000 C 
ENDROOT
BRANCH   1   2
ATOM      2  C   UNL     1     103.994  23.337 200.222  1.00  0.00     0.000 C 
BRANCH   2   3
ATOM      3  C   UNL     1     104.800  22.939 198.973  1.00  0.00     0.006 C 
BRANCH   3   4
ATOM      4  C   UNL     1     104.111  23.307 197.645  1.00  0.00     0.053 C 
BRANCH   4   5
ATOM      5  C   UNL     1     104.026  24.787 197.433  1.00  0.00     0.041 C 
ATOM      6  O   UNL     1     102.903  25.352 197.359  1.00  0.00    -0.550 OA
ATOM      7  O   UNL     1     105.185  25.550 197.352  1.00  0.00    -0.550 OA
ENDBRANCH   4   5
ENDBRANCH   3   4
ENDBRANCH   2   3
ENDBRANCH   1   2
BRANCH   1   8
ATOM      8  C   UNL     1     101.526  23.852 200.658  1.00  0.00     0.000 C 
BRANCH   8   9
ATOM      9  C   UNL     1     100.252  23.842 199.801  1.00  0.00     0.006 C 
BRANCH   9  10
ATOM     10  C   UNL     1     100.470  23.058 198.504  1.00  0.00     0.053 C 
BRANCH  10  11
ATOM     11  C   UNL     1      99.177  22.491 198.010  1.00  0.00     0.041 C 
ATOM     12  O   UNL     1      99.161  21.393 197.394  1.00  0.00    -0.550 OA
ATOM     13  O   UNL     1      97.983  23.151 198.273  1.00  0.00    -0.550 OA
ENDBRANCH  10  11
ENDBRANCH   9  10
ENDBRANCH   8   9
ENDBRANCH   1   8
TORSDOF 8
ENDMDL
MODEL 3
REMARK VINA RESULT:    -4.712      3.263      4.205
REMARK INTER + INTRA:          -7.423
REMARK INTER:                  -7.068
REMARK INTRA:                  -0.356
REMARK UNBOUND:                -0.508
REMARK SMILES O=C([O-])CCCCCCCC(=O)[O-]
REMARK SMILES IDX 7 1 6 2 5 3 4 4 2 5 1 6 3 7 8 8 9 9 10 10 11 11 12 12 13 13
REMARK H PARENT
REMARK Flexibility Score: inf
ROOT
ATOM      1  C   UNL     1     104.853  25.571 197.113  1.00  0.00     0.000 C 
ENDROOT
BRANCH   1   2
ATOM      2  C   UNL     1     103.377  25.137 197.150  1.00  0.00     0.000 C 
BRANCH   2   3
ATOM      3  C   UNL     1     103.116  23.970 198.119  1.00  0.00     0.006 C 
BRANCH   3   4
ATOM      4  C   UNL     1     101.624  23.636 198.304  1.00  0.00     0.053 C 
BRANCH   4   5
ATOM      5  C   UNL     1     101.197  23.692 199.738  1.00  0.00     0.041 C 
ATOM      6  O   UNL     1     100.067  24.157 200.045  1.00  0.00    -0.550 OA
ATOM      7  O   UNL     1     102.029  23.197 200.736  1.00  0.00    -0.550 OA
ENDBRANCH   4   5
ENDBRANCH   3   4
ENDBRANCH   2   3
ENDBRANCH   1   2
BRANCH   1   8
ATOM      8  C   UNL     1     105.651  24.860 196.008  1.00  0.00     0.000 C 
BRANCH   8   9
ATOM      9  C   UNL     1     104.748  24.258 194.922  1.00  0.00     0.006 C 
BRANCH   9  10
ATOM     10  C   UNL     1     104.994  22.753 194.777  1.00  0.00     0.053 C 
BRANCH  10  11
ATOM     11  C   UNL     1     104.562  22.279 193.426  1.00  0.00     0.041 C 
ATOM     12  O   UNL     1     103.468  22.666 192.938  1.00  0.00    -0.550 OA
ATOM     13  O   UNL     1     105.392  21.448 192.683  1.00  0.00    -0.550 OA
ENDBRANCH  10  11
ENDBRANCH   9  10
ENDBRANCH   8   9
ENDBRANCH   1   8
TORSDOF 8
ENDMDL
MODEL 4
REMARK VINA RESULT:    -4.697      3.626      5.128
REMARK INTER + INTRA:          -7.402
REMARK INTER:                  -6.700
REMARK INTRA:                  -0.702
REMARK UNBOUND:                -0.508
REMARK SMILES O=C([O-])CCCCCCCC(=O)[O-]
REMARK SMILES IDX 7 1 6 2 5 3 4 4 2 5 1 6 3 7 8 8 9 9 10 10 11 11 12 12 13 13
REMARK H PARENT
REMARK Flexibility Score: inf
ROOT
ATOM      1  C   UNL     1     103.248  22.995 198.787  1.00  0.00     0.000 C 
ENDROOT
BRANCH   1   2
ATOM      2  C   UNL     1     102.252  24.091 198.370  1.00  0.00     0.000 C 
BRANCH   2   3
ATOM      3  C   UNL     1     102.745  24.931 197.178  1.00  0.00     0.006 C 
BRANCH   3   4
ATOM      4  C   UNL     1     103.934  24.307 196.424  1.00  0.00     0.053 C 
BRANCH   4   5
ATOM      5  C   UNL     1     105.131  25.206 196.395  1.00  0.00     0.041 C 
ATOM      6  O   UNL     1     105.866  25.249 195.374  1.00  0.00    -0.550 OA
ATOM      7  O   UNL     1     105.417  26.025 197.481  1.00  0.00    -0.550 OA
ENDBRANCH   4   5
ENDBRANCH   3   4
ENDBRANCH   2   3
ENDBRANCH   1   2
BRANCH   1   8
ATOM      8  C   UNL     1     103.916  23.287 200.140  1.00  0.00     0.000 C 
BRANCH   8   9
ATOM      9  C   UNL     1     105.449  23.270 200.057  1.00  0.00     0.006 C 
BRANCH   9  10
ATOM     10  C   UNL     1     105.926  22.402 198.890  1.00  0.00     0.053 C 
BRANCH  10  11
ATOM     11  C   UNL     1     107.079  21.546 199.309  1.00  0.00     0.041 C 
ATOM     12  O   UNL     1     108.103  22.069 199.824  1.00  0.00    -0.550 OA
ATOM     13  O   UNL     1     107.005  20.165 199.176  1.00  0.00    -0.550 OA
ENDBRANCH  10  11
ENDBRANCH   9  10
ENDBRANCH   8   9
ENDBRANCH   1   8
TORSDOF 8
ENDMDL
MODEL 5
REMARK VINA RESULT:    -4.694      3.316      4.880
REMARK INTER + INTRA:          -7.397
REMARK INTER:                  -6.714
REMARK INTRA:                  -0.683
REMARK UNBOUND:                -0.508
REMARK SMILES O=C([O-])CCCCCCCC(=O)[O-]
REMARK SMILES IDX 7 1 6 2 5 3 4 4 2 5 1 6 3 7 8 8 9 9 10 10 11 11 12 12 13 13
REMARK H PARENT
REMARK Flexibility Score: inf
ROOT
ATOM      1  C   UNL     1     104.749  24.388 196.482  1.00  0.00     0.000 C 
ENDROOT
BRANCH   1   2
ATOM      2  C   UNL     1     103.399  25.033 196.840  1.00  0.00     0.000 C 
BRANCH   2   3
ATOM      3  C   UNL     1     102.618  24.245 197.907  1.00  0.00     0.006 C 
BRANCH   3   4
ATOM      4  C   UNL     1     103.362  23.004 198.433  1.00  0.00     0.053 C 
BRANCH   4   5
ATOM      5  C   UNL     1     103.863  23.185 199.833  1.00  0.00     0.041 C 
ATOM      6  O   UNL     1     105.082  23.423 200.043  1.00  0.00    -0.550 OA
ATOM      7  O   UNL     1     102.980  23.129 200.905  1.00  0.00    -0.550 OA
ENDBRANCH   4   5
ENDBRANCH   3   4
ENDBRANCH   2   3
ENDBRANCH   1   2
BRANCH   1   8
ATOM      8  C   UNL     1     104.982  24.307 194.965  1.00  0.00     0.000 C 
BRANCH   8   9
ATOM      9  C   UNL     1     104.761  22.894 194.409  1.00  0.00     0.006 C 
BRANCH   9  10
ATOM     10  C   UNL     1     103.606  22.875 193.403  1.00  0.00     0.053 C 
BRANCH  10  11
ATOM     11  C   UNL     1     102.349  22.394 194.055  1.00  0.00     0.041 C 
ATOM     12  O   UNL     1     101.243  22.516 193.466  1.00  0.00    -0.550 OA
ATOM     13  O   UNL     1     102.405  21.766 195.293  1.00  0.00    -0.550 OA
ENDBRANCH  10  11
ENDBRANCH   9  10
ENDBRANCH   8   9
ENDBRANCH   1   8
TORSDOF 8
ENDMDL
MODEL 6
REMARK VINA RESULT:    -4.647      3.342      5.233
REMARK INTER + INTRA:          -7.328
REMARK INTER:                  -6.688
REMARK INTRA:                  -0.640
REMARK UNBOUND:                -0.508
REMARK SMILES O=C([O-])CCCCCCCC(=O)[O-]
REMARK SMILES IDX 7 1 6 2 5 3 4 4 2 5 1 6 3 7 8 8 9 9 10 10 11 11 12 12 13 13
REMARK H PARENT
REMARK Flexibility Score: inf
ROOT
ATOM      1  C   UNL     1     103.007  22.854 198.802  1.00  0.00     0.000 C 
ENDROOT
BRANCH   1   2
ATOM      2  C   UNL     1     103.620  23.257 200.154  1.00  0.00     0.000 C 
BRANCH   2   3
ATOM      3  C   UNL     1     105.159  23.263 200.141  1.00  0.00     0.006 C 
BRANCH   3   4
ATOM      4  C   UNL     1     105.775  22.483 198.965  1.00  0.00     0.053 C 
BRANCH   4   5
ATOM      5  C   UNL     1     106.931  21.629 199.385  1.00  0.00     0.041 C 
ATOM      6  O   UNL     1     107.863  22.120 200.074  1.00  0.00    -0.550 OA
ATOM      7  O   UNL     1     106.963  20.280 199.050  1.00  0.00    -0.550 OA
ENDBRANCH   4   5
ENDBRANCH   3   4
ENDBRANCH   2   3
ENDBRANCH   1   2
BRANCH   1   8
ATOM      8  C   UNL     1     102.027  23.906 198.260  1.00  0.00     0.000 C 
BRANCH   8   9
ATOM      9  C   UNL     1     102.459  24.469 196.898  1.00  0.00     0.006 C 
BRANCH   9  10
ATOM     10  C   UNL     1     103.731  25.311 197.032  1.00  0.00     0.053 C 
BRANCH  10  11
ATOM     11  C   UNL     1     104.803  24.788 196.130  1.00  0.00     0.041 C 
ATOM     12  O   UNL     1     106.015  25.004 196.395  1.00  0.00    -0.550 OA
ATOM     13  O   UNL     1     104.467  24.018 195.024  1.00  0.00    -0.550 OA
ENDBRANCH  10  11
ENDBRANCH   9  10
ENDBRANCH   8   9
ENDBRANCH   1   8
TORSDOF 8
ENDMDL
MODEL 7
REMARK VINA RESULT:    -4.619      3.247      4.531
REMARK INTER + INTRA:          -7.287
REMARK INTER:                  -6.359
REMARK INTRA:                  -0.928
REMARK UNBOUND:                -0.508
REMARK SMILES O=C([O-])CCCCCCCC(=O)[O-]
REMARK SMILES IDX 7 1 6 2 5 3 4 4 2 5 1 6 3 7 8 8 9 9 10 10 11 11 12 12 13 13
REMARK H PARENT
REMARK Flexibility Score: inf
ROOT
ATOM      1  C   UNL     1     104.538  22.270 193.596  1.00  0.00     0.000 C 
ENDROOT
BRANCH   1   2
ATOM      2  C   UNL     1     103.138  22.856 193.345  1.00  0.00     0.000 C 
BRANCH   2   3
ATOM      3  C   UNL     1     102.019  22.071 194.053  1.00  0.00     0.006 C 
BRANCH   3   4
ATOM      4  C   UNL     1     101.550  22.709 195.374  1.00  0.00     0.053 C 
BRANCH   4   5
ATOM      5  C   UNL     1     101.963  21.914 196.574  1.00  0.00     0.041 C 
ATOM      6  O   UNL     1     102.822  20.999 196.463  1.00  0.00    -0.550 OA
ATOM      7  O   UNL     1     101.428  22.204 197.824  1.00  0.00    -0.550 OA
ENDBRANCH   4   5
ENDBRANCH   3   4
ENDBRANCH   2   3
ENDBRANCH   1   2
BRANCH   1   8
ATOM      8  C   UNL     1     105.266  22.957 194.762  1.00  0.00     0.000 C 
BRANCH   8   9
ATOM      9  C   UNL     1     104.875  24.433 194.915  1.00  0.00     0.006 C 
BRANCH   9  10
ATOM     10  C   UNL     1     105.289  24.971 196.288  1.00  0.00     0.053 C 
BRANCH  10  11
ATOM     11  C   UNL     1     104.212  24.723 197.296  1.00  0.00     0.041 C 
ATOM     12  O   UNL     1     104.410  23.926 198.251  1.00  0.00    -0.550 OA
ATOM     13  O   UNL     1     103.008  25.409 197.209  1.00  0.00    -0.550 OA
ENDBRANCH  10  11
ENDBRANCH   9  10
ENDBRANCH   8   9
ENDBRANCH   1   8
TORSDOF 8
ENDMDL
MODEL 8
REMARK VINA RESULT:    -4.606      3.024      5.055
REMARK INTER + INTRA:          -7.268
REMARK INTER:                  -6.678
REMARK INTRA:                  -0.590
REMARK UNBOUND:                -0.508
REMARK SMILES O=C([O-])CCCCCCCC(=O)[O-]
REMARK SMILES IDX 7 1 6 2 5 3 4 4 2 5 1 6 3 7 8 8 9 9 10 10 11 11 12 12 13 13
REMARK H PARENT
REMARK Flexibility Score: inf
ROOT
ATOM      1  C   UNL     1     104.705  25.396 196.500  1.00  0.00     0.000 C 
ENDROOT
BRANCH   1   2
ATOM      2  C   UNL     1     104.969  25.000 195.036  1.00  0.00     0.000 C 
BRANCH   2   3
ATOM      3  C   UNL     1     104.982  23.477 194.817  1.00  0.00     0.006 C 
BRANCH   3   4
ATOM      4  C   UNL     1     103.910  22.980 193.830  1.00  0.00     0.053 C 
BRANCH   4   5
ATOM      5  C   UNL     1     102.746  22.340 194.522  1.00  0.00     0.041 C 
ATOM      6  O   UNL     1     101.580  22.492 194.071  1.00  0.00    -0.550 OA
ATOM      7  O   UNL     1     102.949  21.545 195.644  1.00  0.00    -0.550 OA
ENDBRANCH   4   5
ENDBRANCH   3   4
ENDBRANCH   2   3
ENDBRANCH   1   2
BRANCH   1   8
ATOM      8  C   UNL     1     103.259  25.117 196.937  1.00  0.00     0.000 C 
BRANCH   8   9
ATOM      9  C   UNL     1     103.173  24.098 198.082  1.00  0.00     0.006 C 
BRANCH   9  10
ATOM     10  C   UNL     1     101.732  23.622 198.287  1.00  0.00     0.053 C 
BRANCH  10  11
ATOM     11  C   UNL     1     101.376  23.637 199.739  1.00  0.00     0.041 C 
ATOM     12  O   UNL     1     100.386  24.301 200.143  1.00  0.00    -0.550 OA
ATOM     13  O   UNL     1     102.109  22.876 200.642  1.00  0.00    -0.550 OA
ENDBRANCH  10  11
ENDBRANCH   9  10
ENDBRANCH   8   9
ENDBRANCH   1   8
TORSDOF 8
ENDMDL
MODEL 9
REMARK VINA RESULT:    -4.576      3.771      6.053
REMARK INTER + INTRA:          -7.224
REMARK INTER:                  -6.632
REMARK INTRA:                  -0.592
REMARK UNBOUND:                -0.508
REMARK SMILES O=C([O-])CCCCCCCC(=O)[O-]
REMARK SMILES IDX 7 1 6 2 5 3 4 4 2 5 1 6 3 7 8 8 9 9 10 10 11 11 12 12 13 13
REMARK H PARENT
REMARK Flexibility Score: inf
ROOT
ATOM      1  C   UNL     1     102.749  22.275 195.541  1.00  0.00     0.000 C 
ENDROOT
BRANCH   1   2
ATOM      2  C   UNL     1     102.630  22.443 194.016  1.00  0.00     0.000 C 
BRANCH   2   3
ATOM      3  C   UNL     1     103.993  22.456 193.302  1.00  0.00     0.006 C 
BRANCH   3   4
ATOM      4  C   UNL     1     105.198  22.439 194.260  1.00  0.00     0.053 C 
BRANCH   4   5
ATOM      5  C   UNL     1     106.124  21.292 193.997  1.00  0.00     0.041 C 
ATOM      6  O   UNL     1     106.676  20.690 194.956  1.00  0.00    -0.550 OA
ATOM      7  O   UNL     1     106.353  20.861 192.695  1.00  0.00    -0.550 OA
ENDBRANCH   4   5
ENDBRANCH   3   4
ENDBRANCH   2   3
ENDBRANCH   1   2
BRANCH   1   8
ATOM      8  C   UNL     1     101.817  23.221 196.314  1.00  0.00     0.000 C 
BRANCH   8   9
ATOM      9  C   UNL     1     102.532  23.944 197.464  1.00  0.00     0.006 C 
BRANCH   9  10
ATOM     10  C   UNL     1     103.247  25.201 196.961  1.00  0.00     0.053 C 
BRANCH  10  11
ATOM     11  C   UNL     1     104.709  25.132 197.269  1.00  0.00     0.041 C 
ATOM     12  O   UNL     1     105.264  24.018 197.461  1.00  0.00    -0.550 OA
ATOM     13  O   UNL     1     105.469  26.294 197.296  1.00  0.00    -0.550 OA
ENDBRANCH  10  11
ENDBRANCH   9  10
ENDBRANCH   8   9
ENDBRANCH   1   8
TORSDOF 8
ENDMDL
