MODEL 1
REMARK VINA RESULT:    -4.067      0.000      0.000
REMARK INTER + INTRA:          -5.152
REMARK INTER:                  -4.899
REMARK INTRA:                  -0.253
REMARK UNBOUND:                -0.253
REMARK SMILES NC(=O)C[C@@H]([NH3+])C(=O)[O-]
REMARK SMILES IDX 4 1 5 2 6 3 7 7 8 8 9 9 2 10 3 11 1 12
REMARK H PARENT 6 4 6 5 6 6 1 13 1 14
REMARK Flexibility Score: inf
ROOT
ATOM      1  C   UNL     1      -2.266  62.269  37.617  1.00  0.00     0.171 C 
ENDROOT
BRANCH   1   2
ATOM      2  C   UNL     1      -1.849  62.617  36.174  1.00  0.00     0.237 C 
BRANCH   2   3
ATOM      3  N   UNL     1      -1.255  61.459  35.491  1.00  0.00    -0.350 N 
ATOM      4  H   UNL     1      -1.499  60.581  36.006  1.00  0.00     0.345 HD
ATOM      5  H   UNL     1      -0.214  61.550  35.445  1.00  0.00     0.345 HD
ATOM      6  H   UNL     1      -1.637  61.379  34.522  1.00  0.00     0.345 HD
ENDBRANCH   2   3
BRANCH   2   7
ATOM      7  C   UNL     1      -3.042  63.119  35.405  1.00  0.00     0.100 C 
ATOM      8  O   UNL     1      -4.211  62.881  35.811  1.00  0.00    -0.544 OA
ATOM      9  O   UNL     1      -2.858  63.867  34.248  1.00  0.00    -0.544 OA
ENDBRANCH   2   7
ENDBRANCH   1   2
BRANCH   1  10
ATOM     10  C   UNL     1      -1.338  61.264  38.237  1.00  0.00     0.223 C 
ATOM     11  O   UNL     1      -1.422  60.051  37.908  1.00  0.00    -0.275 OA
ATOM     12  N   UNL     1      -0.386  61.667  39.221  1.00  0.00    -0.369 N 
ATOM     13  H   UNL     1       0.250  60.963  39.657  1.00  0.00     0.159 HD
ATOM     14  H   UNL     1      -0.319  62.664  39.523  1.00  0.00     0.159 HD
ENDBRANCH   1  10
TORSDOF 4
ENDMDL
MODEL 2
REMARK VINA RESULT:    -4.051      1.988      2.144
REMARK INTER + INTRA:          -5.133
REMARK INTER:                  -4.731
REMARK INTRA:                  -0.402
REMARK UNBOUND:                -0.253
REMARK SMILES NC(=O)C[C@@H]([NH3+])C(=O)[O-]
REMARK SMILES IDX 4 1 5 2 6 3 7 7 8 8 9 9 2 10 3 11 1 12
REMARK H PARENT 6 4 6 5 6 6 1 13 1 14
REMARK Flexibility Score: inf
ROOT
ATOM      1  C   UNL     1      -1.535  61.355  36.548  1.00  0.00     0.171 C 
ENDROOT
BRANCH   1   2
ATOM      2  C   UNL     1      -3.041  61.167  36.274  1.00  0.00     0.237 C 
BRANCH   2   3
ATOM      3  N   UNL     1      -3.404  59.745  36.209  1.00  0.00    -0.350 N 
ATOM      4  H   UNL     1      -4.431  59.649  36.034  1.00  0.00     0.345 HD
ATOM      5  H   UNL     1      -3.162  59.260  37.104  1.00  0.00     0.345 HD
ATOM      6  H   UNL     1      -2.900  59.282  35.419  1.00  0.00     0.345 HD
ENDBRANCH   2   3
BRANCH   2   7
ATOM      7  C   UNL     1      -3.845  61.863  37.340  1.00  0.00     0.100 C 
ATOM      8  O   UNL     1      -4.842  61.296  37.860  1.00  0.00    -0.544 OA
ATOM      9  O   UNL     1      -3.478  63.133  37.768  1.00  0.00    -0.544 OA
ENDBRANCH   2   7
ENDBRANCH   1   2
BRANCH   1  10
ATOM     10  C   UNL     1      -1.144  60.812  37.892  1.00  0.00     0.223 C 
ATOM     11  O   UNL     1      -1.228  59.575  38.115  1.00  0.00    -0.275 OA
ATOM     12  N   UNL     1      -0.711  61.690  38.931  1.00  0.00    -0.369 N 
ATOM     13  H   UNL     1      -0.449  61.309  39.868  1.00  0.00     0.159 HD
ATOM     14  H   UNL     1      -0.657  62.720  38.772  1.00  0.00     0.159 HD
ENDBRANCH   1  10
TORSDOF 4
ENDMDL
MODEL 3
REMARK VINA RESULT:    -4.031      4.925      6.948
REMARK INTER + INTRA:          -5.109
REMARK INTER:                  -4.855
REMARK INTRA:                  -0.254
REMARK UNBOUND:                -0.253
REMARK SMILES NC(=O)C[C@@H]([NH3+])C(=O)[O-]
REMARK SMILES IDX 4 1 5 2 6 3 7 7 8 8 9 9 2 10 3 11 1 12
REMARK H PARENT 6 4 6 5 6 6 1 13 1 14
REMARK Flexibility Score: inf
ROOT
ATOM      1  C   UNL     1      -1.608  62.772  30.236  1.00  0.00     0.171 C 
ENDROOT
BRANCH   1   2
ATOM      2  C   UNL     1      -1.807  63.219  31.698  1.00  0.00     0.237 C 
BRANCH   2   3
ATOM      3  N   UNL     1      -2.946  64.138  31.831  1.00  0.00    -0.350 N 
ATOM      4  H   UNL     1      -3.069  64.678  30.943  1.00  0.00     0.345 HD
ATOM      5  H   UNL     1      -2.794  64.805  32.621  1.00  0.00     0.345 HD
ATOM      6  H   UNL     1      -3.824  63.597  32.000  1.00  0.00     0.345 HD
ENDBRANCH   2   3
BRANCH   2   7
ATOM      7  C   UNL     1      -2.005  62.012  32.578  1.00  0.00     0.100 C 
ATOM      8  O   UNL     1      -1.031  61.507  33.197  1.00  0.00    -0.544 OA
ATOM      9  O   UNL     1      -3.271  61.461  32.725  1.00  0.00    -0.544 OA
ENDBRANCH   2   7
ENDBRANCH   1   2
BRANCH   1  10
ATOM     10  C   UNL     1      -0.901  63.821  29.426  1.00  0.00     0.223 C 
ATOM     11  O   UNL     1      -1.174  65.038  29.604  1.00  0.00    -0.275 OA
ATOM     12  N   UNL     1       0.053  63.448  28.431  1.00  0.00    -0.369 N 
ATOM     13  H   UNL     1       0.535  64.179  27.864  1.00  0.00     0.159 HD
ATOM     14  H   UNL     1       0.274  62.443  28.254  1.00  0.00     0.159 HD
ENDBRANCH   1  10
TORSDOF 4
ENDMDL
MODEL 4
REMARK VINA RESULT:    -4.021     14.302     15.645
REMARK INTER + INTRA:          -5.097
REMARK INTER:                  -4.671
REMARK INTRA:                  -0.426
REMARK UNBOUND:                -0.253
REMARK SMILES NC(=O)C[C@@H]([NH3+])C(=O)[O-]
REMARK SMILES IDX 4 1 5 2 6 3 7 7 8 8 9 9 2 10 3 11 1 12
REMARK H PARENT 6 4 6 5 6 6 1 13 1 14
REMARK Flexibility Score: inf
ROOT
ATOM      1  C   UNL     1      10.821  55.613  42.733  1.00  0.00     0.171 C 
ENDROOT
BRANCH   1   2
ATOM      2  C   UNL     1      10.254  54.338  42.076  1.00  0.00     0.237 C 
BRANCH   2   3
ATOM      3  N   UNL     1       9.000  54.613  41.361  1.00  0.00    -0.350 N 
ATOM      4  H   UNL     1       9.211  55.047  40.432  1.00  0.00     0.345 HD
ATOM      5  H   UNL     1       8.393  55.261  41.913  1.00  0.00     0.345 HD
ATOM      6  H   UNL     1       8.484  53.721  41.187  1.00  0.00     0.345 HD
ENDBRANCH   2   3
BRANCH   2   7
ATOM      7  C   UNL     1      11.273  53.751  41.136  1.00  0.00     0.100 C 
ATOM      8  O   UNL     1      11.835  52.657  41.406  1.00  0.00    -0.544 OA
ATOM      9  O   UNL     1      11.586  54.410  39.953  1.00  0.00    -0.544 OA
ENDBRANCH   2   7
ENDBRANCH   1   2
BRANCH   1  10
ATOM     10  C   UNL     1      10.498  56.841  41.933  1.00  0.00     0.223 C 
ATOM     11  O   UNL     1       9.337  57.329  41.979  1.00  0.00    -0.275 OA
ATOM     12  N   UNL     1      11.484  57.441  41.093  1.00  0.00    -0.369 N 
ATOM     13  H   UNL     1      11.252  58.289  40.530  1.00  0.00     0.159 HD
ATOM     14  H   UNL     1      12.444  57.036  41.025  1.00  0.00     0.159 HD
ENDBRANCH   1  10
TORSDOF 4
ENDMDL
MODEL 5
REMARK VINA RESULT:    -4.004     10.423     11.332
REMARK INTER + INTRA:          -5.076
REMARK INTER:                  -4.830
REMARK INTRA:                  -0.246
REMARK UNBOUND:                -0.253
REMARK SMILES NC(=O)C[C@@H]([NH3+])C(=O)[O-]
REMARK SMILES IDX 4 1 5 2 6 3 7 7 8 8 9 9 2 10 3 11 1 12
REMARK H PARENT 6 4 6 5 6 6 1 13 1 14
REMARK Flexibility Score: inf
ROOT
ATOM      1  C   UNL     1       7.534  66.243  33.512  1.00  0.00     0.171 C 
ENDROOT
BRANCH   1   2
ATOM      2  C   UNL     1       7.601  64.719  33.280  1.00  0.00     0.237 C 
BRANCH   2   3
ATOM      3  N   UNL     1       8.655  64.368  32.318  1.00  0.00    -0.350 N 
ATOM      4  H   UNL     1       8.932  65.215  31.770  1.00  0.00     0.345 HD
ATOM      5  H   UNL     1       8.323  63.627  31.659  1.00  0.00     0.345 HD
ATOM      6  H   UNL     1       9.502  64.024  32.824  1.00  0.00     0.345 HD
ENDBRANCH   2   3
BRANCH   2   7
ATOM      7  C   UNL     1       7.834  64.013  34.589  1.00  0.00     0.100 C 
ATOM      8  O   UNL     1       6.959  63.238  35.061  1.00  0.00    -0.544 OA
ATOM      9  O   UNL     1       9.026  64.201  35.277  1.00  0.00    -0.544 OA
ENDBRANCH   2   7
ENDBRANCH   1   2
BRANCH   1  10
ATOM     10  C   UNL     1       6.873  66.951  32.364  1.00  0.00     0.223 C 
ATOM     11  O   UNL     1       7.129  66.598  31.182  1.00  0.00    -0.275 OA
ATOM     12  N   UNL     1       5.985  68.043  32.600  1.00  0.00    -0.369 N 
ATOM     13  H   UNL     1       5.536  68.540  31.799  1.00  0.00     0.159 HD
ATOM     14  H   UNL     1       5.781  68.364  33.572  1.00  0.00     0.159 HD
ENDBRANCH   1  10
TORSDOF 4
ENDMDL
MODEL 6
REMARK VINA RESULT:    -4.002     11.525     12.408
REMARK INTER + INTRA:          -5.074
REMARK INTER:                  -4.685
REMARK INTRA:                  -0.389
REMARK UNBOUND:                -0.253
REMARK SMILES NC(=O)C[C@@H]([NH3+])C(=O)[O-]
REMARK SMILES IDX 4 1 5 2 6 3 7 7 8 8 9 9 2 10 3 11 1 12
REMARK H PARENT 6 4 6 5 6 6 1 13 1 14
REMARK Flexibility Score: inf
ROOT
ATOM      1  C   UNL     1       7.238  65.373  32.700  1.00  0.00     0.171 C 
ENDROOT
BRANCH   1   2
ATOM      2  C   UNL     1       8.762  65.146  32.643  1.00  0.00     0.237 C 
BRANCH   2   3
ATOM      3  N   UNL     1       9.210  64.842  31.277  1.00  0.00    -0.350 N 
ATOM      4  H   UNL     1       9.349  65.731  30.744  1.00  0.00     0.345 HD
ATOM      5  H   UNL     1       8.506  64.250  30.780  1.00  0.00     0.345 HD
ATOM      6  H   UNL     1      10.126  64.339  31.304  1.00  0.00     0.345 HD
ENDBRANCH   2   3
BRANCH   2   7
ATOM      7  C   UNL     1       9.479  66.362  33.169  1.00  0.00     0.100 C 
ATOM      8  O   UNL     1      10.463  66.841  32.545  1.00  0.00    -0.544 OA
ATOM      9  O   UNL     1       9.045  66.972  34.339  1.00  0.00    -0.544 OA
ENDBRANCH   2   7
ENDBRANCH   1   2
BRANCH   1  10
ATOM     10  C   UNL     1       6.832  66.612  31.955  1.00  0.00     0.223 C 
ATOM     11  O   UNL     1       7.015  66.680  30.710  1.00  0.00    -0.275 OA
ATOM     12  N   UNL     1       6.272  67.726  32.650  1.00  0.00    -0.369 N 
ATOM     13  H   UNL     1       6.001  68.589  32.130  1.00  0.00     0.159 HD
ATOM     14  H   UNL     1       6.136  67.696  33.685  1.00  0.00     0.159 HD
ENDBRANCH   1  10
TORSDOF 4
ENDMDL
MODEL 7
REMARK VINA RESULT:    -3.981     10.030     11.189
REMARK INTER + INTRA:          -5.049
REMARK INTER:                  -4.642
REMARK INTRA:                  -0.407
REMARK UNBOUND:                -0.253
REMARK SMILES NC(=O)C[C@@H]([NH3+])C(=O)[O-]
REMARK SMILES IDX 4 1 5 2 6 3 7 7 8 8 9 9 2 10 3 11 1 12
REMARK H PARENT 6 4 6 5 6 6 1 13 1 14
REMARK Flexibility Score: inf
ROOT
ATOM      1  C   UNL     1       7.219  60.032  35.732  1.00  0.00     0.171 C 
ENDROOT
BRANCH   1   2
ATOM      2  C   UNL     1       8.713  60.324  35.975  1.00  0.00     0.237 C 
BRANCH   2   3
ATOM      3  N   UNL     1       8.990  60.567  37.398  1.00  0.00    -0.350 N 
ATOM      4  H   UNL     1       8.090  60.639  37.926  1.00  0.00     0.345 HD
ATOM      5  H   UNL     1       9.533  61.452  37.524  1.00  0.00     0.345 HD
ATOM      6  H   UNL     1       9.533  59.769  37.798  1.00  0.00     0.345 HD
ENDBRANCH   2   3
BRANCH   2   7
ATOM      7  C   UNL     1       9.547  59.176  35.471  1.00  0.00     0.100 C 
ATOM      8  O   UNL     1      10.485  58.711  36.171  1.00  0.00    -0.544 OA
ATOM      9  O   UNL     1       9.271  58.610  34.232  1.00  0.00    -0.544 OA
ENDBRANCH   2   7
ENDBRANCH   1   2
BRANCH   1  10
ATOM     10  C   UNL     1       6.781  58.768  36.414  1.00  0.00     0.223 C 
ATOM     11  O   UNL     1       6.774  58.707  37.672  1.00  0.00    -0.275 OA
ATOM     12  N   UNL     1       6.407  57.622  35.648  1.00  0.00    -0.369 N 
ATOM     13  H   UNL     1       6.114  56.742  36.126  1.00  0.00     0.159 HD
ATOM     14  H   UNL     1       6.431  57.648  34.605  1.00  0.00     0.159 HD
ENDBRANCH   1  10
TORSDOF 4
ENDMDL
MODEL 8
REMARK VINA RESULT:    -3.963      6.950      7.553
REMARK INTER + INTRA:          -5.027
REMARK INTER:                  -4.656
REMARK INTRA:                  -0.371
REMARK UNBOUND:                -0.253
REMARK SMILES NC(=O)C[C@@H]([NH3+])C(=O)[O-]
REMARK SMILES IDX 4 1 5 2 6 3 7 7 8 8 9 9 2 10 3 11 1 12
REMARK H PARENT 6 4 6 5 6 6 1 13 1 14
REMARK Flexibility Score: inf
ROOT
ATOM      1  C   UNL     1      -1.538  63.582  30.941  1.00  0.00     0.171 C 
ENDROOT
BRANCH   1   2
ATOM      2  C   UNL     1      -3.065  63.789  30.980  1.00  0.00     0.237 C 
BRANCH   2   3
ATOM      3  N   UNL     1      -3.415  65.217  30.991  1.00  0.00    -0.350 N 
ATOM      4  H   UNL     1      -4.083  65.423  30.213  1.00  0.00     0.345 HD
ATOM      5  H   UNL     1      -2.560  65.808  30.876  1.00  0.00     0.345 HD
ATOM      6  H   UNL     1      -3.886  65.463  31.891  1.00  0.00     0.345 HD
ENDBRANCH   2   3
BRANCH   2   7
ATOM      7  C   UNL     1      -3.704  63.104  29.801  1.00  0.00     0.100 C 
ATOM      8  O   UNL     1      -4.698  63.621  29.225  1.00  0.00    -0.544 OA
ATOM      9  O   UNL     1      -3.186  61.904  29.332  1.00  0.00    -0.544 OA
ENDBRANCH   2   7
ENDBRANCH   1   2
BRANCH   1  10
ATOM     10  C   UNL     1      -0.926  64.190  29.712  1.00  0.00     0.223 C 
ATOM     11  O   UNL     1      -1.012  65.432  29.521  1.00  0.00    -0.275 OA
ATOM     12  N   UNL     1      -0.278  63.368  28.741  1.00  0.00    -0.369 N 
ATOM     13  H   UNL     1       0.137  63.793  27.883  1.00  0.00     0.159 HD
ATOM     14  H   UNL     1      -0.218  62.334  28.872  1.00  0.00     0.159 HD
ENDBRANCH   1  10
TORSDOF 4
ENDMDL
MODEL 9
REMARK VINA RESULT:    -3.940     10.078     10.754
REMARK INTER + INTRA:          -5.000
REMARK INTER:                  -4.732
REMARK INTRA:                  -0.267
REMARK UNBOUND:                -0.253
REMARK SMILES NC(=O)C[C@@H]([NH3+])C(=O)[O-]
REMARK SMILES IDX 4 1 5 2 6 3 7 7 8 8 9 9 2 10 3 11 1 12
REMARK H PARENT 6 4 6 5 6 6 1 13 1 14
REMARK Flexibility Score: inf
ROOT
ATOM      1  C   UNL     1       8.215  59.086  35.089  1.00  0.00     0.171 C 
ENDROOT
BRANCH   1   2
ATOM      2  C   UNL     1       7.767  60.425  34.468  1.00  0.00     0.237 C 
BRANCH   2   3
ATOM      3  N   UNL     1       7.185  61.320  35.479  1.00  0.00    -0.350 N 
ATOM      4  H   UNL     1       7.557  62.289  35.350  1.00  0.00     0.345 HD
ATOM      5  H   UNL     1       7.416  60.988  36.444  1.00  0.00     0.345 HD
ATOM      6  H   UNL     1       6.147  61.358  35.367  1.00  0.00     0.345 HD
ENDBRANCH   2   3
BRANCH   2   7
ATOM      7  C   UNL     1       8.937  61.092  33.794  1.00  0.00     0.100 C 
ATOM      8  O   UNL     1       8.752  61.906  32.851  1.00  0.00    -0.544 OA
ATOM      9  O   UNL     1      10.231  60.822  34.223  1.00  0.00    -0.544 OA
ENDBRANCH   2   7
ENDBRANCH   1   2
BRANCH   1  10
ATOM     10  C   UNL     1       7.186  58.543  36.039  1.00  0.00     0.223 C 
ATOM     11  O   UNL     1       7.120  58.995  37.213  1.00  0.00    -0.275 OA
ATOM     12  N   UNL     1       6.306  57.495  35.634  1.00  0.00    -0.369 N 
ATOM     13  H   UNL     1       5.600  57.113  36.300  1.00  0.00     0.159 HD
ATOM     14  H   UNL     1       6.363  57.093  34.672  1.00  0.00     0.159 HD
ENDBRANCH   1  10
TORSDOF 4
ENDMDL
