MODEL 1
REMARK VINA RESULT:    -4.772      0.000      0.000
REMARK INTER + INTRA:          -4.772
REMARK INTER:                  -4.772
REMARK INTRA:                   0.000
REMARK UNBOUND:                 0.000
REMARK SMILES CC1=CC(=O)[C@H]2C[C@@H]1C2(C)C
REMARK SMILES IDX 1 1 2 2 3 3 4 4 5 5 6 6 7 7 8 8 9 9 10 10 11 11
REMARK H PARENT
REMARK Flexibility Score: inf
ROOT
ATOM      1  C   UNL     1       5.995 -13.976  21.980  1.00  0.00     0.040 C 
ATOM      2  C   UNL     1       6.650 -15.015  22.836  1.00  0.00    -0.066 C 
ATOM      3  C   UNL     1       6.152 -15.374  24.052  1.00  0.00     0.047 C 
ATOM      4  C   UNL     1       6.918 -16.427  24.795  1.00  0.00     0.159 C 
ATOM      5  O   UNL     1       6.584 -16.814  25.945  1.00  0.00    -0.295 OA
ATOM      6  C   UNL     1       8.130 -16.998  24.060  1.00  0.00     0.067 C 
ATOM      7  C   UNL     1       7.613 -17.261  22.628  1.00  0.00     0.021 C 
ATOM      8  C   UNL     1       7.901 -15.770  22.343  1.00  0.00     0.022 C 
ATOM      9  C   UNL     1       8.961 -15.815  23.482  1.00  0.00    -0.019 C 
ATOM     10  C   UNL     1       9.149 -14.547  24.362  1.00  0.00     0.012 C 
ATOM     11  C   UNL     1      10.354 -16.266  22.975  1.00  0.00     0.012 C 
ENDROOT
TORSDOF 0
ENDMDL
MODEL 2
REMARK VINA RESULT:    -4.647      1.689      2.805
REMARK INTER + INTRA:          -4.647
REMARK INTER:                  -4.647
REMARK INTRA:                   0.000
REMARK UNBOUND:                 0.000
REMARK SMILES CC1=CC(=O)[C@H]2C[C@@H]1C2(C)C
REMARK SMILES IDX 1 1 2 2 3 3 4 4 5 5 6 6 7 7 8 8 9 9 10 10 11 11
REMARK H PARENT
REMARK Flexibility Score: inf
ROOT
ATOM      1  C   UNL     1       6.013 -13.950  22.122  1.00  0.00     0.040 C 
ATOM      2  C   UNL     1       7.056 -14.834  22.729  1.00  0.00    -0.066 C 
ATOM      3  C   UNL     1       7.588 -15.896  22.060  1.00  0.00     0.047 C 
ATOM      4  C   UNL     1       8.622 -16.692  22.797  1.00  0.00     0.159 C 
ATOM      5  O   UNL     1       9.157 -17.719  22.304  1.00  0.00    -0.295 OA
ATOM      6  C   UNL     1       8.984 -16.169  24.188  1.00  0.00     0.067 C 
ATOM      7  C   UNL     1       9.154 -14.647  23.985  1.00  0.00     0.021 C 
ATOM      8  C   UNL     1       7.620 -14.542  24.134  1.00  0.00     0.022 C 
ATOM      9  C   UNL     1       7.667 -15.861  24.958  1.00  0.00    -0.019 C 
ATOM     10  C   UNL     1       6.481 -16.857  24.819  1.00  0.00     0.012 C 
ATOM     11  C   UNL     1       7.913 -15.606  26.467  1.00  0.00     0.012 C 
ENDROOT
TORSDOF 0
ENDMDL
MODEL 3
REMARK VINA RESULT:    -4.624      1.797      3.029
REMARK INTER + INTRA:          -4.624
REMARK INTER:                  -4.624
REMARK INTRA:                   0.000
REMARK UNBOUND:                 0.000
REMARK SMILES CC1=CC(=O)[C@H]2C[C@@H]1C2(C)C
REMARK SMILES IDX 1 1 2 2 3 3 4 4 5 5 6 6 7 7 8 8 9 9 10 10 11 11
REMARK H PARENT
REMARK Flexibility Score: inf
ROOT
ATOM      1  C   UNL     1       8.703 -17.979  21.918  1.00  0.00     0.040 C 
ATOM      2  C   UNL     1       7.978 -16.845  22.571  1.00  0.00    -0.066 C 
ATOM      3  C   UNL     1       7.452 -15.810  21.857  1.00  0.00     0.047 C 
ATOM      4  C   UNL     1       6.755 -14.746  22.649  1.00  0.00     0.159 C 
ATOM      5  O   UNL     1       6.265 -13.720  22.110  1.00  0.00    -0.295 OA
ATOM      6  C   UNL     1       6.678 -14.995  24.155  1.00  0.00     0.067 C 
ATOM      7  C   UNL     1       6.250 -16.474  24.272  1.00  0.00     0.021 C 
ATOM      8  C   UNL     1       7.743 -16.831  24.095  1.00  0.00     0.022 C 
ATOM      9  C   UNL     1       8.087 -15.421  24.659  1.00  0.00    -0.019 C 
ATOM     10  C   UNL     1       9.330 -14.684  24.085  1.00  0.00     0.012 C 
ATOM     11  C   UNL     1       8.187 -15.413  26.206  1.00  0.00     0.012 C 
ENDROOT
TORSDOF 0
ENDMDL
MODEL 4
REMARK VINA RESULT:    -4.577      2.188      3.731
REMARK INTER + INTRA:          -4.577
REMARK INTER:                  -4.577
REMARK INTRA:                   0.000
REMARK UNBOUND:                 0.000
REMARK SMILES CC1=CC(=O)[C@H]2C[C@@H]1C2(C)C
REMARK SMILES IDX 1 1 2 2 3 3 4 4 5 5 6 6 7 7 8 8 9 9 10 10 11 11
REMARK H PARENT
REMARK Flexibility Score: inf
ROOT
ATOM      1  C   UNL     1      10.789 -14.515  23.628  1.00  0.00     0.040 C 
ATOM      2  C   UNL     1      10.027 -15.359  24.600  1.00  0.00    -0.066 C 
ATOM      3  C   UNL     1      10.642 -16.255  25.423  1.00  0.00     0.047 C 
ATOM      4  C   UNL     1       9.748 -17.032  26.342  1.00  0.00     0.159 C 
ATOM      5  O   UNL     1      10.190 -17.918  27.119  1.00  0.00    -0.295 OA
ATOM      6  C   UNL     1       8.264 -16.673  26.270  1.00  0.00     0.067 C 
ATOM      7  C   UNL     1       8.249 -15.128  26.274  1.00  0.00     0.021 C 
ATOM      8  C   UNL     1       8.500 -15.208  24.751  1.00  0.00     0.022 C 
ATOM      9  C   UNL     1       7.840 -16.618  24.774  1.00  0.00    -0.019 C 
ATOM     10  C   UNL     1       8.393 -17.704  23.810  1.00  0.00     0.012 C 
ATOM     11  C   UNL     1       6.301 -16.551  24.600  1.00  0.00     0.012 C 
ENDROOT
TORSDOF 0
ENDMDL
MODEL 5
REMARK VINA RESULT:    -4.416      1.344      2.183
REMARK INTER + INTRA:          -4.416
REMARK INTER:                  -4.416
REMARK INTRA:                   0.000
REMARK UNBOUND:                 0.000
REMARK SMILES CC1=CC(=O)[C@H]2C[C@@H]1C2(C)C
REMARK SMILES IDX 1 1 2 2 3 3 4 4 5 5 6 6 7 7 8 8 9 9 10 10 11 11
REMARK H PARENT
REMARK Flexibility Score: inf
ROOT
ATOM      1  C   UNL     1       6.463 -13.562  22.460  1.00  0.00     0.040 C 
ATOM      2  C   UNL     1       6.944 -14.631  23.390  1.00  0.00    -0.066 C 
ATOM      3  C   UNL     1       7.806 -14.370  24.414  1.00  0.00     0.047 C 
ATOM      4  C   UNL     1       8.201 -15.542  25.261  1.00  0.00     0.159 C 
ATOM      5  O   UNL     1       9.022 -15.438  26.209  1.00  0.00    -0.295 OA
ATOM      6  C   UNL     1       7.537 -16.869  24.894  1.00  0.00     0.067 C 
ATOM      7  C   UNL     1       6.049 -16.504  24.696  1.00  0.00     0.021 C 
ATOM      8  C   UNL     1       6.434 -16.080  23.261  1.00  0.00     0.022 C 
ATOM      9  C   UNL     1       7.637 -17.063  23.354  1.00  0.00    -0.019 C 
ATOM     10  C   UNL     1       8.964 -16.670  22.645  1.00  0.00     0.012 C 
ATOM     11  C   UNL     1       7.260 -18.501  22.915  1.00  0.00     0.012 C 
ENDROOT
TORSDOF 0
ENDMDL
MODEL 6
REMARK VINA RESULT:    -4.388      1.549      2.746
REMARK INTER + INTRA:          -4.388
REMARK INTER:                  -4.388
REMARK INTRA:                   0.000
REMARK UNBOUND:                 0.000
REMARK SMILES CC1=CC(=O)[C@H]2C[C@@H]1C2(C)C
REMARK SMILES IDX 1 1 2 2 3 3 4 4 5 5 6 6 7 7 8 8 9 9 10 10 11 11
REMARK H PARENT
REMARK Flexibility Score: inf
ROOT
ATOM      1  C   UNL     1      10.109 -14.509  23.972  1.00  0.00     0.040 C 
ATOM      2  C   UNL     1       8.817 -15.262  23.942  1.00  0.00    -0.066 C 
ATOM      3  C   UNL     1       7.613 -14.635  23.818  1.00  0.00     0.047 C 
ATOM      4  C   UNL     1       6.404 -15.521  23.805  1.00  0.00     0.159 C 
ATOM      5  O   UNL     1       5.235 -15.060  23.738  1.00  0.00    -0.295 OA
ATOM      6  C   UNL     1       6.689 -17.021  23.878  1.00  0.00     0.067 C 
ATOM      7  C   UNL     1       7.836 -17.236  22.866  1.00  0.00     0.021 C 
ATOM      8  C   UNL     1       8.798 -16.803  23.995  1.00  0.00     0.022 C 
ATOM      9  C   UNL     1       7.721 -17.273  25.016  1.00  0.00    -0.019 C 
ATOM     10  C   UNL     1       7.567 -16.476  26.341  1.00  0.00     0.012 C 
ATOM     11  C   UNL     1       7.856 -18.777  25.365  1.00  0.00     0.012 C 
ENDROOT
TORSDOF 0
ENDMDL
MODEL 7
REMARK VINA RESULT:    -4.346      1.292      3.154
REMARK INTER + INTRA:          -4.346
REMARK INTER:                  -4.346
REMARK INTRA:                   0.000
REMARK UNBOUND:                 0.000
REMARK SMILES CC1=CC(=O)[C@H]2C[C@@H]1C2(C)C
REMARK SMILES IDX 1 1 2 2 3 3 4 4 5 5 6 6 7 7 8 8 9 9 10 10 11 11
REMARK H PARENT
REMARK Flexibility Score: inf
ROOT
ATOM      1  C   UNL     1       7.666 -18.937  23.520  1.00  0.00     0.040 C 
ATOM      2  C   UNL     1       7.754 -17.507  23.949  1.00  0.00    -0.066 C 
ATOM      3  C   UNL     1       8.042 -17.149  25.232  1.00  0.00     0.047 C 
ATOM      4  C   UNL     1       8.093 -15.678  25.514  1.00  0.00     0.159 C 
ATOM      5  O   UNL     1       8.307 -15.222  26.667  1.00  0.00    -0.295 OA
ATOM      6  C   UNL     1       7.869 -14.771  24.303  1.00  0.00     0.067 C 
ATOM      7  C   UNL     1       8.748 -15.395  23.197  1.00  0.00     0.021 C 
ATOM      8  C   UNL     1       7.575 -16.363  22.930  1.00  0.00     0.022 C 
ATOM      9  C   UNL     1       6.623 -15.285  23.525  1.00  0.00    -0.019 C 
ATOM     10  C   UNL     1       5.389 -15.762  24.340  1.00  0.00     0.012 C 
ATOM     11  C   UNL     1       6.138 -14.272  22.456  1.00  0.00     0.012 C 
ENDROOT
TORSDOF 0
ENDMDL
MODEL 8
REMARK VINA RESULT:    -4.339      4.669      5.906
REMARK INTER + INTRA:          -4.339
REMARK INTER:                  -4.339
REMARK INTRA:                   0.000
REMARK UNBOUND:                 0.000
REMARK SMILES CC1=CC(=O)[C@H]2C[C@@H]1C2(C)C
REMARK SMILES IDX 1 1 2 2 3 3 4 4 5 5 6 6 7 7 8 8 9 9 10 10 11 11
REMARK H PARENT
REMARK Flexibility Score: inf
ROOT
ATOM      1  C   UNL     1       7.589 -20.747  25.008  1.00  0.00     0.040 C 
ATOM      2  C   UNL     1       7.878 -20.944  23.553  1.00  0.00    -0.066 C 
ATOM      3  C   UNL     1       8.586 -22.013  23.091  1.00  0.00     0.047 C 
ATOM      4  C   UNL     1       8.798 -22.074  21.608  1.00  0.00     0.159 C 
ATOM      5  O   UNL     1       9.471 -22.988  21.064  1.00  0.00    -0.295 OA
ATOM      6  C   UNL     1       8.141 -20.952  20.805  1.00  0.00     0.067 C 
ATOM      7  C   UNL     1       6.717 -20.851  21.395  1.00  0.00     0.021 C 
ATOM      8  C   UNL     1       7.331 -19.961  22.498  1.00  0.00     0.022 C 
ATOM      9  C   UNL     1       8.463 -19.595  21.495  1.00  0.00    -0.019 C 
ATOM     10  C   UNL     1       9.897 -19.374  22.053  1.00  0.00     0.012 C 
ATOM     11  C   UNL     1       8.094 -18.380  20.606  1.00  0.00     0.012 C 
ENDROOT
TORSDOF 0
ENDMDL
