MODEL 1
REMARK VINA RESULT:    -3.364      0.000      0.000
REMARK INTER + INTRA:          -3.735
REMARK INTER:                  -3.561
REMARK INTRA:                  -0.174
REMARK UNBOUND:                -0.174
REMARK SMILES CC(C)[C@@H]1CC[C@H](C)CC1=O
REMARK SMILES IDX 8 1 7 2 6 3 5 4 4 5 10 6 11 7 9 8 2 9 1 10 3 11
REMARK H PARENT
REMARK Flexibility Score: inf
ROOT
ATOM      1  C   UNL     1      -8.205  22.911  14.801  1.00  0.00     0.008 C 
ATOM      2  C   UNL     1      -9.090  22.189  13.772  1.00  0.00    -0.007 C 
ATOM      3  C   UNL     1      -9.450  23.105  12.579  1.00  0.00     0.004 C 
ATOM      4  C   UNL     1      -8.257  23.371  11.637  1.00  0.00     0.012 C 
ATOM      5  C   UNL     1      -7.623  22.056  11.122  1.00  0.00     0.058 C 
ATOM      6  C   UNL     1      -7.316  21.192  12.334  1.00  0.00     0.136 C 
ATOM      7  O   UNL     1      -6.180  20.824  12.596  1.00  0.00    -0.299 OA
ATOM      8  C   UNL     1      -8.437  20.882  13.283  1.00  0.00     0.079 C 
ENDROOT
BRANCH   5   9
ATOM      9  C   UNL     1      -6.375  22.289  10.210  1.00  0.00    -0.007 C 
ATOM     10  C   UNL     1      -6.772  22.273   8.721  1.00  0.00     0.008 C 
ATOM     11  C   UNL     1      -5.660  23.618  10.509  1.00  0.00     0.008 C 
ENDBRANCH   5   9
TORSDOF 1
ENDMDL
MODEL 2
REMARK VINA RESULT:    -3.097      1.377      4.129
REMARK INTER + INTRA:          -3.452
REMARK INTER:                  -3.274
REMARK INTRA:                  -0.178
REMARK UNBOUND:                -0.174
REMARK SMILES CC(C)[C@@H]1CC[C@H](C)CC1=O
REMARK SMILES IDX 8 1 7 2 6 3 5 4 4 5 10 6 11 7 9 8 2 9 1 10 3 11
REMARK H PARENT
REMARK Flexibility Score: inf
ROOT
ATOM      1  C   UNL     1      -8.729  22.056  10.084  1.00  0.00     0.008 C 
ATOM      2  C   UNL     1      -7.479  22.675  10.731  1.00  0.00    -0.007 C 
ATOM      3  C   UNL     1      -7.811  23.982  11.489  1.00  0.00     0.004 C 
ATOM      4  C   UNL     1      -8.593  23.742  12.796  1.00  0.00     0.012 C 
ATOM      5  C   UNL     1      -7.858  22.757  13.738  1.00  0.00     0.058 C 
ATOM      6  C   UNL     1      -7.539  21.509  12.933  1.00  0.00     0.136 C 
ATOM      7  O   UNL     1      -7.965  20.407  13.249  1.00  0.00    -0.299 OA
ATOM      8  C   UNL     1      -6.766  21.670  11.656  1.00  0.00     0.079 C 
ENDROOT
BRANCH   5   9
ATOM      9  C   UNL     1      -8.653  22.448  15.049  1.00  0.00    -0.007 C 
ATOM     10  C   UNL     1      -8.118  23.287  16.226  1.00  0.00     0.008 C 
ATOM     11  C   UNL     1     -10.162  22.715  14.907  1.00  0.00     0.008 C 
ENDBRANCH   5   9
TORSDOF 1
ENDMDL
MODEL 3
REMARK VINA RESULT:    -3.089      2.877      4.489
REMARK INTER + INTRA:          -3.444
REMARK INTER:                  -3.278
REMARK INTRA:                  -0.166
REMARK UNBOUND:                -0.174
REMARK SMILES CC(C)[C@@H]1CC[C@H](C)CC1=O
REMARK SMILES IDX 8 1 7 2 6 3 5 4 4 5 10 6 11 7 9 8 2 9 1 10 3 11
REMARK H PARENT
REMARK Flexibility Score: inf
ROOT
ATOM      1  C   UNL     1     -10.215  21.092  11.901  1.00  0.00     0.008 C 
ATOM      2  C   UNL     1      -9.249  20.390  12.870  1.00  0.00    -0.007 C 
ATOM      3  C   UNL     1      -7.837  21.022  12.835  1.00  0.00     0.004 C 
ATOM      4  C   UNL     1      -7.781  22.414  13.498  1.00  0.00     0.012 C 
ATOM      5  C   UNL     1      -8.311  22.384  14.952  1.00  0.00     0.058 C 
ATOM      6  C   UNL     1      -9.683  21.733  14.924  1.00  0.00     0.136 C 
ATOM      7  O   UNL     1     -10.686  22.319  15.305  1.00  0.00    -0.299 OA
ATOM      8  C   UNL     1      -9.806  20.370  14.307  1.00  0.00     0.079 C 
ENDROOT
BRANCH   5   9
ATOM      9  C   UNL     1      -8.320  23.792  15.634  1.00  0.00    -0.007 C 
ATOM     10  C   UNL     1      -7.474  23.782  16.922  1.00  0.00     0.008 C 
ATOM     11  C   UNL     1      -7.790  24.903  14.711  1.00  0.00     0.008 C 
ENDBRANCH   5   9
TORSDOF 1
ENDMDL
MODEL 4
REMARK VINA RESULT:    -3.072      3.946      5.266
REMARK INTER + INTRA:          -3.425
REMARK INTER:                  -3.247
REMARK INTRA:                  -0.179
REMARK UNBOUND:                -0.174
REMARK SMILES CC(C)[C@@H]1CC[C@H](C)CC1=O
REMARK SMILES IDX 8 1 7 2 6 3 5 4 4 5 10 6 11 7 9 8 2 9 1 10 3 11
REMARK H PARENT
REMARK Flexibility Score: inf
ROOT
ATOM      1  C   UNL     1      -5.464  25.069  11.679  1.00  0.00     0.008 C 
ATOM      2  C   UNL     1      -4.964  23.690  11.218  1.00  0.00    -0.007 C 
ATOM      3  C   UNL     1      -5.611  23.262   9.879  1.00  0.00     0.004 C 
ATOM      4  C   UNL     1      -5.082  24.061   8.670  1.00  0.00     0.012 C 
ATOM      5  C   UNL     1      -3.539  23.990   8.559  1.00  0.00     0.058 C 
ATOM      6  C   UNL     1      -2.966  24.395   9.907  1.00  0.00     0.136 C 
ATOM      7  O   UNL     1      -2.220  25.356  10.032  1.00  0.00    -0.299 OA
ATOM      8  C   UNL     1      -3.427  23.648  11.124  1.00  0.00     0.079 C 
ENDROOT
BRANCH   5   9
ATOM      9  C   UNL     1      -2.965  24.836   7.376  1.00  0.00    -0.007 C 
ATOM     10  C   UNL     1      -2.662  23.942   6.158  1.00  0.00     0.008 C 
ATOM     11  C   UNL     1      -3.920  25.959   6.931  1.00  0.00     0.008 C 
ENDBRANCH   5   9
TORSDOF 1
ENDMDL
MODEL 5
REMARK VINA RESULT:    -3.064      1.673      2.503
REMARK INTER + INTRA:          -3.417
REMARK INTER:                  -3.267
REMARK INTRA:                  -0.150
REMARK UNBOUND:                -0.174
REMARK SMILES CC(C)[C@@H]1CC[C@H](C)CC1=O
REMARK SMILES IDX 8 1 7 2 6 3 5 4 4 5 10 6 11 7 9 8 2 9 1 10 3 11
REMARK H PARENT
REMARK Flexibility Score: inf
ROOT
ATOM      1  C   UNL     1     -10.574  22.200  14.098  1.00  0.00     0.008 C 
ATOM      2  C   UNL     1      -9.218  21.679  14.602  1.00  0.00    -0.007 C 
ATOM      3  C   UNL     1      -8.621  20.616  13.649  1.00  0.00     0.004 C 
ATOM      4  C   UNL     1      -8.105  21.213  12.324  1.00  0.00     0.012 C 
ATOM      5  C   UNL     1      -7.079  22.348  12.561  1.00  0.00     0.058 C 
ATOM      6  C   UNL     1      -7.712  23.342  13.519  1.00  0.00     0.136 C 
ATOM      7  O   UNL     1      -7.893  24.512  13.212  1.00  0.00    -0.299 OA
ATOM      8  C   UNL     1      -8.222  22.830  14.834  1.00  0.00     0.079 C 
ENDROOT
BRANCH   5   9
ATOM      9  C   UNL     1      -6.578  23.013  11.237  1.00  0.00    -0.007 C 
ATOM     10  C   UNL     1      -5.091  23.403  11.347  1.00  0.00     0.008 C 
ATOM     11  C   UNL     1      -6.753  22.100  10.010  1.00  0.00     0.008 C 
ENDBRANCH   5   9
TORSDOF 1
ENDMDL
MODEL 6
REMARK VINA RESULT:    -3.017      1.625      4.262
REMARK INTER + INTRA:          -3.367
REMARK INTER:                  -3.208
REMARK INTRA:                  -0.159
REMARK UNBOUND:                -0.174
REMARK SMILES CC(C)[C@@H]1CC[C@H](C)CC1=O
REMARK SMILES IDX 8 1 7 2 6 3 5 4 4 5 10 6 11 7 9 8 2 9 1 10 3 11
REMARK H PARENT
REMARK Flexibility Score: inf
ROOT
ATOM      1  C   UNL     1      -6.398  24.738   8.902  1.00  0.00     0.008 C 
ATOM      2  C   UNL     1      -5.716  23.390   9.189  1.00  0.00    -0.007 C 
ATOM      3  C   UNL     1      -5.077  23.358  10.598  1.00  0.00     0.004 C 
ATOM      4  C   UNL     1      -6.119  23.280  11.733  1.00  0.00     0.012 C 
ATOM      5  C   UNL     1      -7.077  22.076  11.558  1.00  0.00     0.058 C 
ATOM      6  C   UNL     1      -7.650  22.149  10.153  1.00  0.00     0.136 C 
ATOM      7  O   UNL     1      -8.852  22.247   9.948  1.00  0.00    -0.299 OA
ATOM      8  C   UNL     1      -6.690  22.212   9.001  1.00  0.00     0.079 C 
ENDROOT
BRANCH   5   9
ATOM      9  C   UNL     1      -8.182  22.000  12.663  1.00  0.00    -0.007 C 
ATOM     10  C   UNL     1      -8.363  20.553  13.159  1.00  0.00     0.008 C 
ATOM     11  C   UNL     1      -7.872  22.897  13.875  1.00  0.00     0.008 C 
ENDBRANCH   5   9
TORSDOF 1
ENDMDL
MODEL 7
REMARK VINA RESULT:    -2.966     10.924     12.262
REMARK INTER + INTRA:          -3.314
REMARK INTER:                  -3.145
REMARK INTRA:                  -0.169
REMARK UNBOUND:                -0.174
REMARK SMILES CC(C)[C@@H]1CC[C@H](C)CC1=O
REMARK SMILES IDX 8 1 7 2 6 3 5 4 4 5 10 6 11 7 9 8 2 9 1 10 3 11
REMARK H PARENT
REMARK Flexibility Score: inf
ROOT
ATOM      1  C   UNL     1       1.178  26.276  17.322  1.00  0.00     0.008 C 
ATOM      2  C   UNL     1       1.545  26.199  15.831  1.00  0.00    -0.007 C 
ATOM      3  C   UNL     1       2.916  26.855  15.542  1.00  0.00     0.004 C 
ATOM      4  C   UNL     1       4.107  26.025  16.064  1.00  0.00     0.012 C 
ATOM      5  C   UNL     1       4.087  24.577  15.517  1.00  0.00     0.058 C 
ATOM      6  C   UNL     1       2.713  23.998  15.808  1.00  0.00     0.136 C 
ATOM      7  O   UNL     1       2.563  23.001  16.500  1.00  0.00    -0.299 OA
ATOM      8  C   UNL     1       1.510  24.749  15.314  1.00  0.00     0.079 C 
ENDROOT
BRANCH   5   9
ATOM      9  C   UNL     1       5.250  23.691  16.074  1.00  0.00    -0.007 C 
ATOM     10  C   UNL     1       6.185  23.238  14.937  1.00  0.00     0.008 C 
ATOM     11  C   UNL     1       6.092  24.416  17.139  1.00  0.00     0.008 C 
ENDBRANCH   5   9
TORSDOF 1
ENDMDL
MODEL 8
REMARK VINA RESULT:    -2.951      2.349      5.290
REMARK INTER + INTRA:          -3.297
REMARK INTER:                  -3.120
REMARK INTRA:                  -0.177
REMARK UNBOUND:                -0.174
REMARK SMILES CC(C)[C@@H]1CC[C@H](C)CC1=O
REMARK SMILES IDX 8 1 7 2 6 3 5 4 4 5 10 6 11 7 9 8 2 9 1 10 3 11
REMARK H PARENT
REMARK Flexibility Score: inf
ROOT
ATOM      1  C   UNL     1      -3.336  23.651   7.720  1.00  0.00     0.008 C 
ATOM      2  C   UNL     1      -3.898  24.895   8.428  1.00  0.00    -0.007 C 
ATOM      3  C   UNL     1      -5.445  24.921   8.403  1.00  0.00     0.004 C 
ATOM      4  C   UNL     1      -6.083  23.875   9.340  1.00  0.00     0.012 C 
ATOM      5  C   UNL     1      -5.574  24.015  10.796  1.00  0.00     0.058 C 
ATOM      6  C   UNL     1      -4.056  24.008  10.751  1.00  0.00     0.136 C 
ATOM      7  O   UNL     1      -3.394  23.161  11.335  1.00  0.00    -0.299 OA
ATOM      8  C   UNL     1      -3.370  25.011   9.870  1.00  0.00     0.079 C 
ENDROOT
BRANCH   5   9
ATOM      9  C   UNL     1      -6.159  22.932  11.761  1.00  0.00    -0.007 C 
ATOM     10  C   UNL     1      -7.267  23.530  12.649  1.00  0.00     0.008 C 
ATOM     11  C   UNL     1      -6.736  21.718  11.012  1.00  0.00     0.008 C 
ENDBRANCH   5   9
TORSDOF 1
ENDMDL
