MODEL 1
REMARK VINA RESULT:    -3.793      0.000      0.000
REMARK INTER + INTRA:          -3.904
REMARK INTER:                  -3.904
REMARK INTRA:                   0.000
REMARK UNBOUND:                 0.000
REMARK SMILES Cc1cccc(O)c1C
REMARK SMILES IDX 1 1 2 2 8 3 6 4 5 5 4 6 3 7 9 8 7 9
REMARK H PARENT 7 10
REMARK Flexibility Score: inf
ROOT
ATOM      1  C   UNL     1       6.961   9.345   7.539  1.00  0.00     0.045 C 
ATOM      2  C   UNL     1       7.110  10.844   7.566  1.00  0.00    -0.045 A 
ATOM      3  C   UNL     1       8.323  11.475   7.190  1.00  0.00    -0.006 A 
ATOM      4  C   UNL     1       8.404  12.886   7.213  1.00  0.00     0.118 A 
ATOM      5  C   UNL     1       7.307  13.644   7.642  1.00  0.00     0.046 A 
ATOM      6  C   UNL     1       6.129  13.018   8.041  1.00  0.00     0.004 A 
ATOM      7  C   UNL     1       6.029  11.628   8.003  1.00  0.00     0.004 A 
ATOM      8  C   UNL     1       9.502  10.659   6.716  1.00  0.00     0.048 C 
ENDROOT
BRANCH   4   9
ATOM      9  O   UNL     1       9.571  13.533   6.808  1.00  0.00    -0.508 OA
ATOM     10  H   UNL     1       9.955  14.314   7.327  1.00  0.00     0.293 HD
ENDBRANCH   4   9
TORSDOF 1
ENDMDL
MODEL 2
REMARK VINA RESULT:    -3.778      0.849      2.593
REMARK INTER + INTRA:          -3.889
REMARK INTER:                  -3.889
REMARK INTRA:                   0.000
REMARK UNBOUND:                 0.000
REMARK SMILES Cc1cccc(O)c1C
REMARK SMILES IDX 1 1 2 2 8 3 6 4 5 5 4 6 3 7 9 8 7 9
REMARK H PARENT 7 10
REMARK Flexibility Score: inf
ROOT
ATOM      1  C   UNL     1       5.548  11.380   8.462  1.00  0.00     0.045 C 
ATOM      2  C   UNL     1       6.921  11.417   7.842  1.00  0.00    -0.045 A 
ATOM      3  C   UNL     1       7.587  12.643   7.587  1.00  0.00    -0.006 A 
ATOM      4  C   UNL     1       8.882  12.623   7.023  1.00  0.00     0.118 A 
ATOM      5  C   UNL     1       9.479  11.402   6.683  1.00  0.00     0.046 A 
ATOM      6  C   UNL     1       8.808  10.202   6.905  1.00  0.00     0.004 A 
ATOM      7  C   UNL     1       7.539  10.207   7.481  1.00  0.00     0.004 A 
ATOM      8  C   UNL     1       6.948  13.959   7.964  1.00  0.00     0.048 C 
ENDROOT
BRANCH   4   9
ATOM      9  O   UNL     1       9.575  13.812   6.802  1.00  0.00    -0.508 OA
ATOM     10  H   UNL     1       9.605  14.548   7.498  1.00  0.00     0.293 HD
ENDBRANCH   4   9
TORSDOF 1
ENDMDL
MODEL 3
REMARK VINA RESULT:    -3.767      1.203      1.677
REMARK INTER + INTRA:          -3.877
REMARK INTER:                  -3.877
REMARK INTRA:                   0.000
REMARK UNBOUND:                 0.000
REMARK SMILES Cc1cccc(O)c1C
REMARK SMILES IDX 1 1 2 2 8 3 6 4 5 5 4 6 3 7 9 8 7 9
REMARK H PARENT 7 10
REMARK Flexibility Score: inf
ROOT
ATOM      1  C   UNL     1       4.517  10.328   7.652  1.00  0.00     0.045 C 
ATOM      2  C   UNL     1       5.516  11.455   7.700  1.00  0.00    -0.045 A 
ATOM      3  C   UNL     1       6.912  11.207   7.721  1.00  0.00    -0.006 A 
ATOM      4  C   UNL     1       7.809  12.299   7.744  1.00  0.00     0.118 A 
ATOM      5  C   UNL     1       7.315  13.610   7.789  1.00  0.00     0.046 A 
ATOM      6  C   UNL     1       5.943  13.847   7.802  1.00  0.00     0.004 A 
ATOM      7  C   UNL     1       5.048  12.779   7.757  1.00  0.00     0.004 A 
ATOM      8  C   UNL     1       7.446   9.794   7.661  1.00  0.00     0.048 C 
ENDROOT
BRANCH   4   9
ATOM      9  O   UNL     1       9.186  12.084   7.722  1.00  0.00    -0.508 OA
ATOM     10  H   UNL     1       9.845  12.831   7.910  1.00  0.00     0.293 HD
ENDBRANCH   4   9
TORSDOF 1
ENDMDL
MODEL 4
REMARK VINA RESULT:    -3.592      1.260      2.938
REMARK INTER + INTRA:          -3.697
REMARK INTER:                  -3.697
REMARK INTRA:                   0.000
REMARK UNBOUND:                 0.000
REMARK SMILES Cc1cccc(O)c1C
REMARK SMILES IDX 1 1 2 2 8 3 6 4 5 5 4 6 3 7 9 8 7 9
REMARK H PARENT 7 10
REMARK Flexibility Score: inf
ROOT
ATOM      1  C   UNL     1       3.740  11.436   7.744  1.00  0.00     0.045 C 
ATOM      2  C   UNL     1       5.240  11.290   7.711  1.00  0.00    -0.045 A 
ATOM      3  C   UNL     1       6.094  12.422   7.716  1.00  0.00    -0.006 A 
ATOM      4  C   UNL     1       7.495  12.231   7.705  1.00  0.00     0.118 A 
ATOM      5  C   UNL     1       8.025  10.935   7.648  1.00  0.00     0.046 A 
ATOM      6  C   UNL     1       7.181   9.828   7.611  1.00  0.00     0.004 A 
ATOM      7  C   UNL     1       5.798  10.002   7.642  1.00  0.00     0.004 A 
ATOM      8  C   UNL     1       5.524  13.819   7.789  1.00  0.00     0.048 C 
ENDROOT
BRANCH   4   9
ATOM      9  O   UNL     1       8.357  13.326   7.752  1.00  0.00    -0.508 OA
ATOM     10  H   UNL     1       8.924  13.592   6.955  1.00  0.00     0.293 HD
ENDBRANCH   4   9
TORSDOF 1
ENDMDL
MODEL 5
REMARK VINA RESULT:    -3.552      9.921     11.118
REMARK INTER + INTRA:          -3.656
REMARK INTER:                  -3.656
REMARK INTRA:                   0.000
REMARK UNBOUND:                 0.000
REMARK SMILES Cc1cccc(O)c1C
REMARK SMILES IDX 1 1 2 2 8 3 6 4 5 5 4 6 3 7 9 8 7 9
REMARK H PARENT 7 10
REMARK Flexibility Score: inf
ROOT
ATOM      1  C   UNL     1      15.525   5.914   8.964  1.00  0.00     0.045 C 
ATOM      2  C   UNL     1      15.588   6.253  10.431  1.00  0.00    -0.045 A 
ATOM      3  C   UNL     1      16.252   5.411  11.358  1.00  0.00    -0.006 A 
ATOM      4  C   UNL     1      16.302   5.784  12.720  1.00  0.00     0.118 A 
ATOM      5  C   UNL     1      15.663   6.956  13.149  1.00  0.00     0.046 A 
ATOM      6  C   UNL     1      14.985   7.763  12.239  1.00  0.00     0.004 A 
ATOM      7  C   UNL     1      14.946   7.416  10.890  1.00  0.00     0.004 A 
ATOM      8  C   UNL     1      16.951   4.154  10.895  1.00  0.00     0.048 C 
ENDROOT
BRANCH   4   9
ATOM      9  O   UNL     1      16.985   4.995  13.645  1.00  0.00    -0.508 OA
ATOM     10  H   UNL     1      17.810   4.466  13.387  1.00  0.00     0.293 HD
ENDBRANCH   4   9
TORSDOF 1
ENDMDL
MODEL 6
REMARK VINA RESULT:    -3.461      2.239      3.079
REMARK INTER + INTRA:          -3.562
REMARK INTER:                  -3.562
REMARK INTRA:                   0.000
REMARK UNBOUND:                 0.000
REMARK SMILES Cc1cccc(O)c1C
REMARK SMILES IDX 1 1 2 2 8 3 6 4 5 5 4 6 3 7 9 8 7 9
REMARK H PARENT 7 10
REMARK Flexibility Score: inf
ROOT
ATOM      1  C   UNL     1       8.998  11.214   7.855  1.00  0.00     0.045 C 
ATOM      2  C   UNL     1       7.614  11.811   7.806  1.00  0.00    -0.045 A 
ATOM      3  C   UNL     1       6.460  10.995   7.690  1.00  0.00    -0.006 A 
ATOM      4  C   UNL     1       5.184  11.602   7.669  1.00  0.00     0.118 A 
ATOM      5  C   UNL     1       5.071  12.998   7.720  1.00  0.00     0.046 A 
ATOM      6  C   UNL     1       6.210  13.796   7.800  1.00  0.00     0.004 A 
ATOM      7  C   UNL     1       7.473  13.208   7.844  1.00  0.00     0.004 A 
ATOM      8  C   UNL     1       6.580   9.490   7.647  1.00  0.00     0.048 C 
ENDROOT
BRANCH   4   9
ATOM      9  O   UNL     1       4.031  10.821   7.599  1.00  0.00    -0.508 OA
ATOM     10  H   UNL     1       3.296  10.893   8.293  1.00  0.00     0.293 HD
ENDBRANCH   4   9
TORSDOF 1
ENDMDL
MODEL 7
REMARK VINA RESULT:    -3.451      2.099      3.761
REMARK INTER + INTRA:          -3.552
REMARK INTER:                  -3.552
REMARK INTRA:                   0.000
REMARK UNBOUND:                 0.000
REMARK SMILES Cc1cccc(O)c1C
REMARK SMILES IDX 1 1 2 2 8 3 6 4 5 5 4 6 3 7 9 8 7 9
REMARK H PARENT 7 10
REMARK Flexibility Score: inf
ROOT
ATOM      1  C   UNL     1       5.588  14.009   7.822  1.00  0.00     0.045 C 
ATOM      2  C   UNL     1       6.434  12.764   7.755  1.00  0.00    -0.045 A 
ATOM      3  C   UNL     1       5.850  11.475   7.679  1.00  0.00    -0.006 A 
ATOM      4  C   UNL     1       6.688  10.339   7.596  1.00  0.00     0.118 A 
ATOM      5  C   UNL     1       8.081  10.493   7.631  1.00  0.00     0.046 A 
ATOM      6  C   UNL     1       8.649  11.760   7.739  1.00  0.00     0.004 A 
ATOM      7  C   UNL     1       7.833  12.889   7.799  1.00  0.00     0.004 A 
ATOM      8  C   UNL     1       4.349  11.309   7.629  1.00  0.00     0.048 C 
ENDROOT
BRANCH   4   9
ATOM      9  O   UNL     1       6.140   9.063   7.478  1.00  0.00    -0.508 OA
ATOM     10  H   UNL     1       5.729   8.739   6.610  1.00  0.00     0.293 HD
ENDBRANCH   4   9
TORSDOF 1
ENDMDL
MODEL 8
REMARK VINA RESULT:    -3.379      1.929      3.095
REMARK INTER + INTRA:          -3.478
REMARK INTER:                  -3.478
REMARK INTRA:                   0.000
REMARK UNBOUND:                 0.000
REMARK SMILES Cc1cccc(O)c1C
REMARK SMILES IDX 1 1 2 2 8 3 6 4 5 5 4 6 3 7 9 8 7 9
REMARK H PARENT 7 10
REMARK Flexibility Score: inf
ROOT
ATOM      1  C   UNL     1       5.556   9.590   7.796  1.00  0.00     0.045 C 
ATOM      2  C   UNL     1       6.098  10.996   7.775  1.00  0.00    -0.045 A 
ATOM      3  C   UNL     1       5.236  12.121   7.728  1.00  0.00    -0.006 A 
ATOM      4  C   UNL     1       5.794  13.420   7.731  1.00  0.00     0.118 A 
ATOM      5  C   UNL     1       7.185  13.585   7.739  1.00  0.00     0.046 A 
ATOM      6  C   UNL     1       8.027  12.476   7.752  1.00  0.00     0.004 A 
ATOM      7  C   UNL     1       7.490  11.190   7.771  1.00  0.00     0.004 A 
ATOM      8  C   UNL     1       3.736  11.944   7.732  1.00  0.00     0.048 C 
ENDROOT
BRANCH   4   9
ATOM      9  O   UNL     1       4.968  14.543   7.728  1.00  0.00    -0.508 OA
ATOM     10  H   UNL     1       5.047  15.261   7.016  1.00  0.00     0.293 HD
ENDBRANCH   4   9
TORSDOF 1
ENDMDL
MODEL 9
REMARK VINA RESULT:    -3.335     10.772     11.637
REMARK INTER + INTRA:          -3.433
REMARK INTER:                  -3.433
REMARK INTRA:                   0.000
REMARK UNBOUND:                 0.000
REMARK SMILES Cc1cccc(O)c1C
REMARK SMILES IDX 1 1 2 2 8 3 6 4 5 5 4 6 3 7 9 8 7 9
REMARK H PARENT 7 10
REMARK Flexibility Score: inf
ROOT
ATOM      1  C   UNL     1      16.864  13.233  -1.112  1.00  0.00     0.045 C 
ATOM      2  C   UNL     1      15.460  13.647  -1.468  1.00  0.00    -0.045 A 
ATOM      3  C   UNL     1      14.379  12.731  -1.406  1.00  0.00    -0.006 A 
ATOM      4  C   UNL     1      13.077  13.175  -1.730  1.00  0.00     0.118 A 
ATOM      5  C   UNL     1      12.871  14.496  -2.148  1.00  0.00     0.046 A 
ATOM      6  C   UNL     1      13.941  15.383  -2.239  1.00  0.00     0.004 A 
ATOM      7  C   UNL     1      15.227  14.963  -1.901  1.00  0.00     0.004 A 
ATOM      8  C   UNL     1      14.598  11.309  -0.944  1.00  0.00     0.048 C 
ENDROOT
BRANCH   4   9
ATOM      9  O   UNL     1      11.990  12.306  -1.637  1.00  0.00    -0.508 OA
ATOM     10  H   UNL     1      11.833  11.737  -0.812  1.00  0.00     0.293 HD
ENDBRANCH   4   9
TORSDOF 1
ENDMDL
