MODEL 1
REMARK VINA RESULT:    -6.558      0.000      0.000
REMARK INTER + INTRA:          -7.978
REMARK INTER:                  -7.708
REMARK INTRA:                  -0.270
REMARK UNBOUND:                -0.270
REMARK SMILES O=c1cc(-c2ccc(O)c(O)c2)oc2cc(O)cc(O)c12
REMARK SMILES IDX 4 1 3 2 2 3 1 4 21 5 19 6 18 7 16 8 15 9 14 10 13 11 5 12
REMARK SMILES IDX 6 13 7 14 8 15 12 16 10 17 9 18 11 20 20 22 17 24
REMARK H PARENT 9 19 11 21 20 23 17 25
REMARK Flexibility Score: inf
ROOT
ATOM      1  C   UNL     1      -6.804 -23.893  35.906  1.00  0.00     0.138 A 
ATOM      2  C   UNL     1      -5.412 -23.915  36.086  1.00  0.00     0.100 A 
ATOM      3  C   UNL     1      -4.726 -22.716  36.286  1.00  0.00     0.197 A 
ATOM      4  O   UNL     1      -3.476 -22.746  36.445  1.00  0.00    -0.289 OA
ATOM      5  C   UNL     1      -5.440 -21.501  36.303  1.00  0.00     0.107 A 
ATOM      6  C   UNL     1      -4.823 -20.243  36.502  1.00  0.00     0.134 A 
ATOM      7  C   UNL     1      -5.604 -19.078  36.498  1.00  0.00     0.093 A 
ATOM      8  C   UNL     1      -6.988 -19.148  36.301  1.00  0.00     0.123 A 
ATOM      9  C   UNL     1      -7.600 -20.388  36.105  1.00  0.00     0.094 A 
ATOM     10  C   UNL     1      -6.840 -21.560  36.105  1.00  0.00     0.146 A 
ATOM     11  O   UNL     1      -7.448 -22.727  35.918  1.00  0.00    -0.456 OA
ENDROOT
BRANCH   1  12
ATOM     12  C   UNL     1      -7.586 -25.136  35.687  1.00  0.00     0.021 A 
ATOM     13  C   UNL     1      -8.632 -25.459  36.566  1.00  0.00     0.016 A 
ATOM     14  C   UNL     1      -9.377 -26.625  36.384  1.00  0.00     0.051 A 
ATOM     15  C   UNL     1      -9.091 -27.499  35.332  1.00  0.00     0.157 A 
ATOM     16  C   UNL     1      -7.286 -26.023  34.636  1.00  0.00     0.062 A 
ATOM     17  C   UNL     1      -8.028 -27.197  34.449  1.00  0.00     0.158 A 
BRANCH  15  18
ATOM     18  O   UNL     1      -9.878 -28.646  35.203  1.00  0.00    -0.504 OA
ATOM     19  H   UNL     1      -9.631 -29.546  35.589  1.00  0.00     0.293 HD
ENDBRANCH  15  18
BRANCH  17  20
ATOM     20  O   UNL     1      -7.673 -28.030  33.385  1.00  0.00    -0.504 OA
ATOM     21  H   UNL     1      -7.092 -28.850  33.480  1.00  0.00     0.293 HD
ENDBRANCH  17  20
ENDBRANCH   1  12
BRANCH   6  22
ATOM     22  O   UNL     1      -3.445 -20.143  36.700  1.00  0.00    -0.507 OA
ATOM     23  H   UNL     1      -2.827 -20.934  36.560  1.00  0.00     0.293 HD
ENDBRANCH   6  22
BRANCH   8  24
ATOM     24  O   UNL     1      -7.764 -17.991  36.299  1.00  0.00    -0.508 OA
ATOM     25  H   UNL     1      -8.693 -17.975  36.704  1.00  0.00     0.293 HD
ENDBRANCH   8  24
TORSDOF 5
ENDMDL
MODEL 2
REMARK VINA RESULT:    -6.333      2.290      3.716
REMARK INTER + INTRA:          -7.713
REMARK INTER:                  -7.416
REMARK INTRA:                  -0.298
REMARK UNBOUND:                -0.270
REMARK SMILES O=c1cc(-c2ccc(O)c(O)c2)oc2cc(O)cc(O)c12
REMARK SMILES IDX 4 1 3 2 2 3 1 4 21 5 19 6 18 7 16 8 15 9 14 10 13 11 5 12
REMARK SMILES IDX 6 13 7 14 8 15 12 16 10 17 9 18 11 20 20 22 17 24
REMARK H PARENT 9 19 11 21 20 23 17 25
REMARK Flexibility Score: inf
ROOT
ATOM      1  C   UNL     1      -6.379 -21.938  34.951  1.00  0.00     0.138 A 
ATOM      2  C   UNL     1      -7.156 -20.965  35.600  1.00  0.00     0.100 A 
ATOM      3  C   UNL     1      -6.774 -19.624  35.533  1.00  0.00     0.197 A 
ATOM      4  O   UNL     1      -7.477 -18.757  36.119  1.00  0.00    -0.289 OA
ATOM      5  C   UNL     1      -5.614 -19.267  34.817  1.00  0.00     0.107 A 
ATOM      6  C   UNL     1      -5.158 -17.932  34.697  1.00  0.00     0.134 A 
ATOM      7  C   UNL     1      -3.988 -17.660  33.972  1.00  0.00     0.093 A 
ATOM      8  C   UNL     1      -3.268 -18.696  33.365  1.00  0.00     0.123 A 
ATOM      9  C   UNL     1      -3.716 -20.014  33.481  1.00  0.00     0.094 A 
ATOM     10  C   UNL     1      -4.878 -20.306  34.199  1.00  0.00     0.146 A 
ATOM     11  O   UNL     1      -5.283 -21.568  34.292  1.00  0.00    -0.456 OA
ENDROOT
BRANCH   1  12
ATOM     12  C   UNL     1      -6.736 -23.379  34.990  1.00  0.00     0.021 A 
ATOM     13  C   UNL     1      -5.903 -24.314  34.357  1.00  0.00     0.016 A 
ATOM     14  C   UNL     1      -6.220 -25.674  34.375  1.00  0.00     0.051 A 
ATOM     15  C   UNL     1      -7.377 -26.129  35.014  1.00  0.00     0.157 A 
ATOM     16  C   UNL     1      -7.909 -23.834  35.621  1.00  0.00     0.062 A 
ATOM     17  C   UNL     1      -8.235 -25.196  35.641  1.00  0.00     0.158 A 
BRANCH  15  18
ATOM     18  O   UNL     1      -7.633 -27.502  35.000  1.00  0.00    -0.504 OA
ATOM     19  H   UNL     1      -7.150 -28.160  34.406  1.00  0.00     0.293 HD
ENDBRANCH  15  18
BRANCH  17  20
ATOM     20  O   UNL     1      -9.417 -25.574  36.285  1.00  0.00    -0.504 OA
ATOM     21  H   UNL     1     -10.087 -26.223  35.899  1.00  0.00     0.293 HD
ENDBRANCH  17  20
ENDBRANCH   1  12
BRANCH   6  22
ATOM     22  O   UNL     1      -5.855 -16.879  35.293  1.00  0.00    -0.507 OA
ATOM     23  H   UNL     1      -6.305 -16.981  36.195  1.00  0.00     0.293 HD
ENDBRANCH   6  22
BRANCH   8  24
ATOM     24  O   UNL     1      -2.107 -18.426  32.644  1.00  0.00    -0.508 OA
ATOM     25  H   UNL     1      -1.705 -19.109  32.014  1.00  0.00     0.293 HD
ENDBRANCH   8  24
TORSDOF 5
ENDMDL
MODEL 3
REMARK VINA RESULT:    -6.207      2.746      7.764
REMARK INTER + INTRA:          -7.565
REMARK INTER:                  -7.288
REMARK INTRA:                  -0.277
REMARK UNBOUND:                -0.270
REMARK SMILES O=c1cc(-c2ccc(O)c(O)c2)oc2cc(O)cc(O)c12
REMARK SMILES IDX 4 1 3 2 2 3 1 4 21 5 19 6 18 7 16 8 15 9 14 10 13 11 5 12
REMARK SMILES IDX 6 13 7 14 8 15 12 16 10 17 9 18 11 20 20 22 17 24
REMARK H PARENT 9 19 11 21 20 23 17 25
REMARK Flexibility Score: inf
ROOT
ATOM      1  C   UNL     1      -4.974 -20.769  34.873  1.00  0.00     0.138 A 
ATOM      2  C   UNL     1      -6.330 -20.407  34.821  1.00  0.00     0.100 A 
ATOM      3  C   UNL     1      -7.310 -21.391  34.955  1.00  0.00     0.197 A 
ATOM      4  O   UNL     1      -8.524 -21.056  34.905  1.00  0.00    -0.289 OA
ATOM      5  C   UNL     1      -6.925 -22.735  35.138  1.00  0.00     0.107 A 
ATOM      6  C   UNL     1      -7.854 -23.793  35.284  1.00  0.00     0.134 A 
ATOM      7  C   UNL     1      -7.389 -25.106  35.456  1.00  0.00     0.093 A 
ATOM      8  C   UNL     1      -6.017 -25.378  35.485  1.00  0.00     0.123 A 
ATOM      9  C   UNL     1      -5.098 -24.336  35.342  1.00  0.00     0.094 A 
ATOM     10  C   UNL     1      -5.540 -23.023  35.169  1.00  0.00     0.146 A 
ATOM     11  O   UNL     1      -4.645 -22.049  35.037  1.00  0.00    -0.456 OA
ENDROOT
BRANCH   1  12
ATOM     12  C   UNL     1      -3.889 -19.765  34.735  1.00  0.00     0.021 A 
ATOM     13  C   UNL     1      -2.817 -19.778  35.641  1.00  0.00     0.016 A 
ATOM     14  C   UNL     1      -1.788 -18.840  35.535  1.00  0.00     0.051 A 
ATOM     15  C   UNL     1      -1.809 -17.866  34.533  1.00  0.00     0.157 A 
ATOM     16  C   UNL     1      -3.920 -18.775  33.735  1.00  0.00     0.062 A 
ATOM     17  C   UNL     1      -2.892 -17.830  33.624  1.00  0.00     0.158 A 
BRANCH  15  18
ATOM     18  O   UNL     1      -0.746 -16.962  34.479  1.00  0.00    -0.504 OA
ATOM     19  H   UNL     1      -0.615 -16.205  35.135  1.00  0.00     0.293 HD
ENDBRANCH  15  18
BRANCH  17  20
ATOM     20  O   UNL     1      -2.990 -16.877  32.608  1.00  0.00    -0.504 OA
ATOM     21  H   UNL     1      -2.198 -16.397  32.205  1.00  0.00     0.293 HD
ENDBRANCH  17  20
ENDBRANCH   1  12
BRANCH   6  22
ATOM     22  O   UNL     1      -9.228 -23.551  35.258  1.00  0.00    -0.507 OA
ATOM     23  H   UNL     1      -9.873 -24.189  34.805  1.00  0.00     0.293 HD
ENDBRANCH   6  22
BRANCH   8  24
ATOM     24  O   UNL     1      -5.556 -26.682  35.656  1.00  0.00    -0.508 OA
ATOM     25  H   UNL     1      -6.004 -27.322  36.301  1.00  0.00     0.293 HD
ENDBRANCH   8  24
TORSDOF 5
ENDMDL
MODEL 4
REMARK VINA RESULT:    -6.051      1.778      2.819
REMARK INTER + INTRA:          -7.381
REMARK INTER:                  -7.118
REMARK INTRA:                  -0.264
REMARK UNBOUND:                -0.270
REMARK SMILES O=c1cc(-c2ccc(O)c(O)c2)oc2cc(O)cc(O)c12
REMARK SMILES IDX 4 1 3 2 2 3 1 4 21 5 19 6 18 7 16 8 15 9 14 10 13 11 5 12
REMARK SMILES IDX 6 13 7 14 8 15 12 16 10 17 9 18 11 20 20 22 17 24
REMARK H PARENT 9 19 11 21 20 23 17 25
REMARK Flexibility Score: inf
ROOT
ATOM      1  C   UNL     1      -6.633 -23.628  34.981  1.00  0.00     0.138 A 
ATOM      2  C   UNL     1      -7.102 -22.587  34.163  1.00  0.00     0.100 A 
ATOM      3  C   UNL     1      -6.376 -21.398  34.080  1.00  0.00     0.197 A 
ATOM      4  O   UNL     1      -6.806 -20.469  33.344  1.00  0.00    -0.289 OA
ATOM      5  C   UNL     1      -5.184 -21.258  34.820  1.00  0.00     0.107 A 
ATOM      6  C   UNL     1      -4.388 -20.089  34.791  1.00  0.00     0.134 A 
ATOM      7  C   UNL     1      -3.218 -20.026  35.562  1.00  0.00     0.093 A 
ATOM      8  C   UNL     1      -2.830 -21.109  36.359  1.00  0.00     0.123 A 
ATOM      9  C   UNL     1      -3.613 -22.265  36.389  1.00  0.00     0.094 A 
ATOM     10  C   UNL     1      -4.782 -22.347  35.629  1.00  0.00     0.146 A 
ATOM     11  O   UNL     1      -5.509 -23.460  35.675  1.00  0.00    -0.456 OA
ENDROOT
BRANCH   1  12
ATOM     12  C   UNL     1      -7.364 -24.914  35.109  1.00  0.00     0.021 A 
ATOM     13  C   UNL     1      -8.202 -25.125  36.215  1.00  0.00     0.016 A 
ATOM     14  C   UNL     1      -8.895 -26.328  36.361  1.00  0.00     0.051 A 
ATOM     15  C   UNL     1      -8.760 -27.349  35.416  1.00  0.00     0.157 A 
ATOM     16  C   UNL     1      -7.215 -25.947  34.164  1.00  0.00     0.062 A 
ATOM     17  C   UNL     1      -7.905 -27.158  34.306  1.00  0.00     0.158 A 
BRANCH  15  18
ATOM     18  O   UNL     1      -9.485 -28.525  35.618  1.00  0.00    -0.504 OA
ATOM     19  H   UNL     1     -10.102 -28.934  34.931  1.00  0.00     0.293 HD
ENDBRANCH  15  18
BRANCH  17  20
ATOM     20  O   UNL     1      -7.708 -28.139  33.330  1.00  0.00    -0.504 OA
ATOM     21  H   UNL     1      -7.706 -29.131  33.518  1.00  0.00     0.293 HD
ENDBRANCH  17  20
ENDBRANCH   1  12
BRANCH   6  22
ATOM     22  O   UNL     1      -4.751 -18.992  34.006  1.00  0.00    -0.507 OA
ATOM     23  H   UNL     1      -4.058 -18.367  33.612  1.00  0.00     0.293 HD
ENDBRANCH   6  22
BRANCH   8  24
ATOM     24  O   UNL     1      -1.668 -21.047  37.125  1.00  0.00    -0.508 OA
ATOM     25  H   UNL     1      -1.318 -21.857  37.623  1.00  0.00     0.293 HD
ENDBRANCH   8  24
TORSDOF 5
ENDMDL
MODEL 5
REMARK VINA RESULT:    -6.007      1.866      2.421
REMARK INTER + INTRA:          -7.330
REMARK INTER:                  -7.060
REMARK INTRA:                  -0.270
REMARK UNBOUND:                -0.270
REMARK SMILES O=c1cc(-c2ccc(O)c(O)c2)oc2cc(O)cc(O)c12
REMARK SMILES IDX 4 1 3 2 2 3 1 4 21 5 19 6 18 7 16 8 15 9 14 10 13 11 5 12
REMARK SMILES IDX 6 13 7 14 8 15 12 16 10 17 9 18 11 20 20 22 17 24
REMARK H PARENT 9 19 11 21 20 23 17 25
REMARK Flexibility Score: inf
ROOT
ATOM      1  C   UNL     1      -5.772 -23.420  35.792  1.00  0.00     0.138 A 
ATOM      2  C   UNL     1      -4.572 -23.543  36.512  1.00  0.00     0.100 A 
ATOM      3  C   UNL     1      -3.641 -22.504  36.476  1.00  0.00     0.197 A 
ATOM      4  O   UNL     1      -2.566 -22.624  37.125  1.00  0.00    -0.289 OA
ATOM      5  C   UNL     1      -3.917 -21.348  35.718  1.00  0.00     0.107 A 
ATOM      6  C   UNL     1      -3.029 -20.249  35.631  1.00  0.00     0.134 A 
ATOM      7  C   UNL     1      -3.375 -19.138  34.848  1.00  0.00     0.093 A 
ATOM      8  C   UNL     1      -4.590 -19.104  34.154  1.00  0.00     0.123 A 
ATOM      9  C   UNL     1      -5.469 -20.187  34.239  1.00  0.00     0.094 A 
ATOM     10  C   UNL     1      -5.142 -21.303  35.013  1.00  0.00     0.146 A 
ATOM     11  O   UNL     1      -5.997 -22.319  35.078  1.00  0.00    -0.456 OA
ENDROOT
BRANCH   1  12
ATOM     12  C   UNL     1      -6.798 -24.493  35.791  1.00  0.00     0.021 A 
ATOM     13  C   UNL     1      -6.548 -25.688  35.097  1.00  0.00     0.016 A 
ATOM     14  C   UNL     1      -7.500 -26.708  35.076  1.00  0.00     0.051 A 
ATOM     15  C   UNL     1      -8.723 -26.558  35.736  1.00  0.00     0.157 A 
ATOM     16  C   UNL     1      -8.036 -24.335  36.444  1.00  0.00     0.062 A 
ATOM     17  C   UNL     1      -8.997 -25.354  36.425  1.00  0.00     0.158 A 
BRANCH  15  18
ATOM     18  O   UNL     1      -9.629 -27.620  35.681  1.00  0.00    -0.504 OA
ATOM     19  H   UNL     1     -10.121 -27.984  36.484  1.00  0.00     0.293 HD
ENDBRANCH  15  18
BRANCH  17  20
ATOM     20  O   UNL     1     -10.202 -25.125  37.093  1.00  0.00    -0.504 OA
ATOM     21  H   UNL     1     -10.972 -24.599  36.705  1.00  0.00     0.293 HD
ENDBRANCH  17  20
ENDBRANCH   1  12
BRANCH   6  22
ATOM     22  O   UNL     1      -1.810 -20.255  36.311  1.00  0.00    -0.507 OA
ATOM     23  H   UNL     1      -1.245 -19.419  36.399  1.00  0.00     0.293 HD
ENDBRANCH   6  22
BRANCH   8  24
ATOM     24  O   UNL     1      -4.934 -18.000  33.378  1.00  0.00    -0.508 OA
ATOM     25  H   UNL     1      -4.817 -18.003  32.371  1.00  0.00     0.293 HD
ENDBRANCH   8  24
TORSDOF 5
ENDMDL
MODEL 6
REMARK VINA RESULT:    -5.981      1.055      1.718
REMARK INTER + INTRA:          -7.300
REMARK INTER:                  -7.006
REMARK INTRA:                  -0.294
REMARK UNBOUND:                -0.270
REMARK SMILES O=c1cc(-c2ccc(O)c(O)c2)oc2cc(O)cc(O)c12
REMARK SMILES IDX 4 1 3 2 2 3 1 4 21 5 19 6 18 7 16 8 15 9 14 10 13 11 5 12
REMARK SMILES IDX 6 13 7 14 8 15 12 16 10 17 9 18 11 20 20 22 17 24
REMARK H PARENT 9 19 11 21 20 23 17 25
REMARK Flexibility Score: inf
ROOT
ATOM      1  C   UNL     1      -6.300 -23.102  35.914  1.00  0.00     0.138 A 
ATOM      2  C   UNL     1      -4.912 -23.008  36.106  1.00  0.00     0.100 A 
ATOM      3  C   UNL     1      -4.330 -21.755  36.307  1.00  0.00     0.197 A 
ATOM      4  O   UNL     1      -3.084 -21.681  36.478  1.00  0.00    -0.289 OA
ATOM      5  C   UNL     1      -5.143 -20.604  36.313  1.00  0.00     0.107 A 
ATOM      6  C   UNL     1      -4.635 -19.298  36.513  1.00  0.00     0.134 A 
ATOM      7  C   UNL     1      -5.510 -18.202  36.498  1.00  0.00     0.093 A 
ATOM      8  C   UNL     1      -6.881 -18.387  36.288  1.00  0.00     0.123 A 
ATOM      9  C   UNL     1      -7.386 -19.675  36.092  1.00  0.00     0.094 A 
ATOM     10  C   UNL     1      -6.531 -20.779  36.103  1.00  0.00     0.146 A 
ATOM     11  O   UNL     1      -7.038 -21.994  35.915  1.00  0.00    -0.456 OA
ENDROOT
BRANCH   1  12
ATOM     12  C   UNL     1      -6.974 -24.407  35.693  1.00  0.00     0.021 A 
ATOM     13  C   UNL     1      -6.412 -25.332  34.800  1.00  0.00     0.016 A 
ATOM     14  C   UNL     1      -7.030 -26.563  34.571  1.00  0.00     0.051 A 
ATOM     15  C   UNL     1      -8.224 -26.893  35.217  1.00  0.00     0.157 A 
ATOM     16  C   UNL     1      -8.185 -24.732  36.333  1.00  0.00     0.062 A 
ATOM     17  C   UNL     1      -8.813 -25.964  36.106  1.00  0.00     0.158 A 
BRANCH  15  18
ATOM     18  O   UNL     1      -8.788 -28.143  34.948  1.00  0.00    -0.504 OA
ATOM     19  H   UNL     1      -8.817 -28.563  34.031  1.00  0.00     0.293 HD
ENDBRANCH  15  18
BRANCH  17  20
ATOM     20  O   UNL     1     -10.013 -26.217  36.775  1.00  0.00    -0.504 OA
ATOM     21  H   UNL     1     -10.556 -27.060  36.661  1.00  0.00     0.293 HD
ENDBRANCH  17  20
ENDBRANCH   1  12
BRANCH   6  22
ATOM     22  O   UNL     1      -3.271 -19.083  36.723  1.00  0.00    -0.507 OA
ATOM     23  H   UNL     1      -2.600 -19.841  36.682  1.00  0.00     0.293 HD
ENDBRANCH   6  22
BRANCH   8  24
ATOM     24  O   UNL     1      -7.751 -17.299  36.274  1.00  0.00    -0.508 OA
ATOM     25  H   UNL     1      -7.427 -16.360  36.478  1.00  0.00     0.293 HD
ENDBRANCH   8  24
TORSDOF 5
ENDMDL
MODEL 7
REMARK VINA RESULT:    -5.931      1.658      2.766
REMARK INTER + INTRA:          -7.241
REMARK INTER:                  -6.924
REMARK INTRA:                  -0.317
REMARK UNBOUND:                -0.270
REMARK SMILES O=c1cc(-c2ccc(O)c(O)c2)oc2cc(O)cc(O)c12
REMARK SMILES IDX 4 1 3 2 2 3 1 4 21 5 19 6 18 7 16 8 15 9 14 10 13 11 5 12
REMARK SMILES IDX 6 13 7 14 8 15 12 16 10 17 9 18 11 20 20 22 17 24
REMARK H PARENT 9 19 11 21 20 23 17 25
REMARK Flexibility Score: inf
ROOT
ATOM      1  C   UNL     1      -7.413 -23.141  35.472  1.00  0.00     0.138 A 
ATOM      2  C   UNL     1      -8.100 -22.097  36.111  1.00  0.00     0.100 A 
ATOM      3  C   UNL     1      -7.623 -20.790  35.998  1.00  0.00     0.197 A 
ATOM      4  O   UNL     1      -8.247 -19.859  36.577  1.00  0.00    -0.289 OA
ATOM      5  C   UNL     1      -6.459 -20.537  35.246  1.00  0.00     0.107 A 
ATOM      6  C   UNL     1      -5.910 -19.243  35.078  1.00  0.00     0.134 A 
ATOM      7  C   UNL     1      -4.743 -19.076  34.319  1.00  0.00     0.093 A 
ATOM      8  C   UNL     1      -4.116 -20.177  33.724  1.00  0.00     0.123 A 
ATOM      9  C   UNL     1      -4.655 -21.455  33.886  1.00  0.00     0.094 A 
ATOM     10  C   UNL     1      -5.816 -21.643  34.639  1.00  0.00     0.146 A 
ATOM     11  O   UNL     1      -6.310 -22.869  34.777  1.00  0.00    -0.456 OA
ENDROOT
BRANCH   1  12
ATOM     12  C   UNL     1      -7.872 -24.550  35.559  1.00  0.00     0.021 A 
ATOM     13  C   UNL     1      -8.862 -24.898  36.491  1.00  0.00     0.016 A 
ATOM     14  C   UNL     1      -9.305 -26.218  36.596  1.00  0.00     0.051 A 
ATOM     15  C   UNL     1      -8.766 -27.219  35.783  1.00  0.00     0.157 A 
ATOM     16  C   UNL     1      -7.317 -25.560  34.750  1.00  0.00     0.062 A 
ATOM     17  C   UNL     1      -7.755 -26.887  34.851  1.00  0.00     0.158 A 
BRANCH  15  18
ATOM     18  O   UNL     1      -9.257 -28.518  35.934  1.00  0.00    -0.504 OA
ATOM     19  H   UNL     1      -9.823 -28.820  36.714  1.00  0.00     0.293 HD
ENDBRANCH  15  18
BRANCH  17  20
ATOM     20  O   UNL     1      -7.158 -27.836  34.018  1.00  0.00    -0.504 OA
ATOM     21  H   UNL     1      -6.885 -27.656  33.062  1.00  0.00     0.293 HD
ENDBRANCH  17  20
ENDBRANCH   1  12
BRANCH   6  22
ATOM     22  O   UNL     1      -6.514 -18.127  35.661  1.00  0.00    -0.507 OA
ATOM     23  H   UNL     1      -6.045 -17.229  35.703  1.00  0.00     0.293 HD
ENDBRANCH   6  22
BRANCH   8  24
ATOM     24  O   UNL     1      -2.957 -20.011  32.969  1.00  0.00    -0.508 OA
ATOM     25  H   UNL     1      -2.309 -20.776  32.820  1.00  0.00     0.293 HD
ENDBRANCH   8  24
TORSDOF 5
ENDMDL
MODEL 8
REMARK VINA RESULT:    -5.871      2.175      7.197
REMARK INTER + INTRA:          -7.170
REMARK INTER:                  -6.886
REMARK INTRA:                  -0.284
REMARK UNBOUND:                -0.270
REMARK SMILES O=c1cc(-c2ccc(O)c(O)c2)oc2cc(O)cc(O)c12
REMARK SMILES IDX 4 1 3 2 2 3 1 4 21 5 19 6 18 7 16 8 15 9 14 10 13 11 5 12
REMARK SMILES IDX 6 13 7 14 8 15 12 16 10 17 9 18 11 20 20 22 17 24
REMARK H PARENT 9 19 11 21 20 23 17 25
REMARK Flexibility Score: inf
ROOT
ATOM      1  C   UNL     1      -6.532 -22.471  34.306  1.00  0.00     0.138 A 
ATOM      2  C   UNL     1      -6.665 -22.900  32.976  1.00  0.00     0.100 A 
ATOM      3  C   UNL     1      -6.914 -24.248  32.711  1.00  0.00     0.197 A 
ATOM      4  O   UNL     1      -7.031 -24.624  31.514  1.00  0.00    -0.289 OA
ATOM      5  C   UNL     1      -7.027 -25.157  33.782  1.00  0.00     0.107 A 
ATOM      6  C   UNL     1      -7.281 -26.538  33.601  1.00  0.00     0.134 A 
ATOM      7  C   UNL     1      -7.373 -27.380  34.720  1.00  0.00     0.093 A 
ATOM      8  C   UNL     1      -7.216 -26.867  36.013  1.00  0.00     0.123 A 
ATOM      9  C   UNL     1      -6.966 -25.505  36.194  1.00  0.00     0.094 A 
ATOM     10  C   UNL     1      -6.871 -24.650  35.094  1.00  0.00     0.146 A 
ATOM     11  O   UNL     1      -6.634 -23.358  35.294  1.00  0.00    -0.456 OA
ENDROOT
BRANCH   1  12
ATOM     12  C   UNL     1      -6.265 -21.051  34.648  1.00  0.00     0.021 A 
ATOM     13  C   UNL     1      -6.871 -20.486  35.781  1.00  0.00     0.016 A 
ATOM     14  C   UNL     1      -6.640 -19.152  36.119  1.00  0.00     0.051 A 
ATOM     15  C   UNL     1      -5.809 -18.349  35.332  1.00  0.00     0.157 A 
ATOM     16  C   UNL     1      -5.439 -20.240  33.846  1.00  0.00     0.062 A 
ATOM     17  C   UNL     1      -5.204 -18.899  34.178  1.00  0.00     0.158 A 
BRANCH  15  18
ATOM     18  O   UNL     1      -5.615 -17.024  35.729  1.00  0.00    -0.504 OA
ATOM     19  H   UNL     1      -5.008 -16.374  35.249  1.00  0.00     0.293 HD
ENDBRANCH  15  18
BRANCH  17  20
ATOM     20  O   UNL     1      -4.375 -18.155  33.335  1.00  0.00    -0.504 OA
ATOM     21  H   UNL     1      -4.295 -17.148  33.365  1.00  0.00     0.293 HD
ENDBRANCH  17  20
ENDBRANCH   1  12
BRANCH   6  22
ATOM     22  O   UNL     1      -7.441 -27.078  32.324  1.00  0.00    -0.507 OA
ATOM     23  H   UNL     1      -6.804 -26.854  31.568  1.00  0.00     0.293 HD
ENDBRANCH   6  22
BRANCH   8  24
ATOM     24  O   UNL     1      -7.307 -27.702  37.124  1.00  0.00    -0.508 OA
ATOM     25  H   UNL     1      -7.160 -28.702  37.048  1.00  0.00     0.293 HD
ENDBRANCH   8  24
TORSDOF 5
ENDMDL
