MODEL 1
REMARK VINA RESULT:    -6.282      0.000      0.000
REMARK INTER + INTRA:          -6.282
REMARK INTER:                  -6.282
REMARK INTRA:                   0.000
REMARK UNBOUND:                 0.000
REMARK SMILES O=c1ccc2ccc3occc3c2o1
REMARK SMILES IDX 6 1 7 2 8 3 12 4 11 5 10 6 9 7 13 8 5 9 4 10 3 11 2 12 1 13
REMARK SMILES IDX 14 14
REMARK H PARENT
REMARK Flexibility Score: inf
ROOT
ATOM      1  C   UNL     1       6.737  -1.992  50.039  1.00  0.00     0.016 A 
ATOM      2  C   UNL     1       6.153  -2.982  50.854  1.00  0.00     0.048 A 
ATOM      3  C   UNL     1       5.162  -3.789  50.297  1.00  0.00     0.137 A 
ATOM      4  C   UNL     1       4.754  -3.641  48.998  1.00  0.00     0.064 A 
ATOM      5  C   UNL     1       3.777  -4.585  48.776  1.00  0.00     0.054 A 
ATOM      6  C   UNL     1       3.657  -5.257  49.988  1.00  0.00     0.196 A 
ATOM      7  O   UNL     1       4.498  -4.758  50.877  1.00  0.00    -0.464 OA
ATOM      8  C   UNL     1       5.307  -2.675  48.160  1.00  0.00     0.149 A 
ATOM      9  C   UNL     1       6.318  -1.836  48.695  1.00  0.00     0.018 A 
ATOM     10  C   UNL     1       6.877  -0.864  47.860  1.00  0.00     0.019 A 
ATOM     11  C   UNL     1       6.427  -0.752  46.543  1.00  0.00     0.094 A 
ATOM     12  C   UNL     1       5.424  -1.618  46.089  1.00  0.00     0.336 A 
ATOM     13  O   UNL     1       5.009  -1.529  44.904  1.00  0.00    -0.246 OA
ATOM     14  O   UNL     1       4.906  -2.536  46.900  1.00  0.00    -0.422 OA
ENDROOT
TORSDOF 0
ENDMDL
MODEL 2
REMARK VINA RESULT:    -6.232      2.726      2.813
REMARK INTER + INTRA:          -6.232
REMARK INTER:                  -6.232
REMARK INTRA:                   0.000
REMARK UNBOUND:                 0.000
REMARK SMILES O=c1ccc2ccc3occc3c2o1
REMARK SMILES IDX 6 1 7 2 8 3 12 4 11 5 10 6 9 7 13 8 5 9 4 10 3 11 2 12 1 13
REMARK SMILES IDX 14 14
REMARK H PARENT
REMARK Flexibility Score: inf
ROOT
ATOM      1  C   UNL     1       8.608  -1.665  48.673  1.00  0.00     0.016 A 
ATOM      2  C   UNL     1       9.106  -2.873  49.199  1.00  0.00     0.048 A 
ATOM      3  C   UNL     1       8.561  -4.067  48.728  1.00  0.00     0.137 A 
ATOM      4  C   UNL     1       7.571  -4.087  47.783  1.00  0.00     0.064 A 
ATOM      5  C   UNL     1       7.269  -5.410  47.548  1.00  0.00     0.054 A 
ATOM      6  C   UNL     1       8.120  -6.118  48.390  1.00  0.00     0.196 A 
ATOM      7  O   UNL     1       8.880  -5.288  49.083  1.00  0.00    -0.464 OA
ATOM      8  C   UNL     1       7.052  -2.915  47.238  1.00  0.00     0.149 A 
ATOM      9  C   UNL     1       7.584  -1.681  47.695  1.00  0.00     0.018 A 
ATOM     10  C   UNL     1       7.067  -0.500  47.153  1.00  0.00     0.019 A 
ATOM     11  C   UNL     1       6.057  -0.573  46.192  1.00  0.00     0.094 A 
ATOM     12  C   UNL     1       5.584  -1.829  45.792  1.00  0.00     0.336 A 
ATOM     13  O   UNL     1       4.675  -1.910  44.926  1.00  0.00    -0.246 OA
ATOM     14  O   UNL     1       6.090  -2.941  46.320  1.00  0.00    -0.422 OA
ENDROOT
TORSDOF 0
ENDMDL
MODEL 3
REMARK VINA RESULT:    -6.168      1.896      4.540
REMARK INTER + INTRA:          -6.168
REMARK INTER:                  -6.168
REMARK INTRA:                   0.000
REMARK UNBOUND:                 0.000
REMARK SMILES O=c1ccc2ccc3occc3c2o1
REMARK SMILES IDX 6 1 7 2 8 3 12 4 11 5 10 6 9 7 13 8 5 9 4 10 3 11 2 12 1 13
REMARK SMILES IDX 14 14
REMARK H PARENT
REMARK Flexibility Score: inf
ROOT
ATOM      1  C   UNL     1       8.689  -3.453  49.004  1.00  0.00     0.016 A 
ATOM      2  C   UNL     1       8.881  -2.297  48.223  1.00  0.00     0.048 A 
ATOM      3  C   UNL     1       7.752  -1.589  47.812  1.00  0.00     0.137 A 
ATOM      4  C   UNL     1       6.486  -1.988  48.148  1.00  0.00     0.064 A 
ATOM      5  C   UNL     1       5.619  -1.077  47.589  1.00  0.00     0.054 A 
ATOM      6  C   UNL     1       6.441  -0.166  46.935  1.00  0.00     0.196 A 
ATOM      7  O   UNL     1       7.710  -0.499  47.086  1.00  0.00    -0.464 OA
ATOM      8  C   UNL     1       6.255  -3.124  48.920  1.00  0.00     0.149 A 
ATOM      9  C   UNL     1       7.382  -3.869  49.355  1.00  0.00     0.018 A 
ATOM     10  C   UNL     1       7.157  -5.011  50.129  1.00  0.00     0.019 A 
ATOM     11  C   UNL     1       5.848  -5.377  50.445  1.00  0.00     0.094 A 
ATOM     12  C   UNL     1       4.787  -4.591  49.978  1.00  0.00     0.336 A 
ATOM     13  O   UNL     1       3.601  -4.908  50.255  1.00  0.00    -0.246 OA
ATOM     14  O   UNL     1       5.023  -3.507  49.243  1.00  0.00    -0.422 OA
ENDROOT
TORSDOF 0
ENDMDL
MODEL 4
REMARK VINA RESULT:    -5.935      2.808      4.448
REMARK INTER + INTRA:          -5.935
REMARK INTER:                  -5.935
REMARK INTRA:                   0.000
REMARK UNBOUND:                 0.000
REMARK SMILES O=c1ccc2ccc3occc3c2o1
REMARK SMILES IDX 6 1 7 2 8 3 12 4 11 5 10 6 9 7 13 8 5 9 4 10 3 11 2 12 1 13
REMARK SMILES IDX 14 14
REMARK H PARENT
REMARK Flexibility Score: inf
ROOT
ATOM      1  C   UNL     1       7.731  -0.792  47.653  1.00  0.00     0.016 A 
ATOM      2  C   UNL     1       6.731  -0.398  46.743  1.00  0.00     0.048 A 
ATOM      3  C   UNL     1       5.973  -1.395  46.130  1.00  0.00     0.137 A 
ATOM      4  C   UNL     1       6.177  -2.723  46.391  1.00  0.00     0.064 A 
ATOM      5  C   UNL     1       5.270  -3.425  45.630  1.00  0.00     0.054 A 
ATOM      6  C   UNL     1       4.561  -2.448  44.942  1.00  0.00     0.196 A 
ATOM      7  O   UNL     1       5.003  -1.244  45.261  1.00  0.00    -0.464 OA
ATOM      8  C   UNL     1       7.156  -3.153  47.285  1.00  0.00     0.149 A 
ATOM      9  C   UNL     1       7.946  -2.165  47.927  1.00  0.00     0.018 A 
ATOM     10  C   UNL     1       8.930  -2.589  48.825  1.00  0.00     0.019 A 
ATOM     11  C   UNL     1       9.101  -3.955  49.058  1.00  0.00     0.094 A 
ATOM     12  C   UNL     1       8.281  -4.870  48.385  1.00  0.00     0.336 A 
ATOM     13  O   UNL     1       8.423  -6.104  48.585  1.00  0.00    -0.246 OA
ATOM     14  O   UNL     1       7.350  -4.445  47.535  1.00  0.00    -0.422 OA
ENDROOT
TORSDOF 0
ENDMDL
MODEL 5
REMARK VINA RESULT:    -5.757      8.542      9.846
REMARK INTER + INTRA:          -5.757
REMARK INTER:                  -5.757
REMARK INTRA:                   0.000
REMARK UNBOUND:                 0.000
REMARK SMILES O=c1ccc2ccc3occc3c2o1
REMARK SMILES IDX 6 1 7 2 8 3 12 4 11 5 10 6 9 7 13 8 5 9 4 10 3 11 2 12 1 13
REMARK SMILES IDX 14 14
REMARK H PARENT
REMARK Flexibility Score: inf
ROOT
ATOM      1  C   UNL     1       7.752   1.682  54.193  1.00  0.00     0.016 A 
ATOM      2  C   UNL     1       8.896   1.178  54.841  1.00  0.00     0.048 A 
ATOM      3  C   UNL     1       9.916   2.074  55.161  1.00  0.00     0.137 A 
ATOM      4  C   UNL     1       9.827   3.407  54.865  1.00  0.00     0.064 A 
ATOM      5  C   UNL     1      10.988   3.995  55.313  1.00  0.00     0.054 A 
ATOM      6  C   UNL     1      11.719   2.949  55.865  1.00  0.00     0.196 A 
ATOM      7  O   UNL     1      11.053   1.813  55.759  1.00  0.00    -0.464 OA
ATOM      8  C   UNL     1       8.712   3.944  54.225  1.00  0.00     0.149 A 
ATOM      9  C   UNL     1       7.655   3.061  53.884  1.00  0.00     0.018 A 
ATOM     10  C   UNL     1       6.533   3.593  53.241  1.00  0.00     0.019 A 
ATOM     11  C   UNL     1       6.490   4.959  52.960  1.00  0.00     0.094 A 
ATOM     12  C   UNL     1       7.573   5.767  53.328  1.00  0.00     0.336 A 
ATOM     13  O   UNL     1       7.548   7.001  53.081  1.00  0.00    -0.246 OA
ATOM     14  O   UNL     1       8.632   5.241  53.939  1.00  0.00    -0.422 OA
ENDROOT
TORSDOF 0
ENDMDL
MODEL 6
REMARK VINA RESULT:    -5.702      1.765      4.740
REMARK INTER + INTRA:          -5.702
REMARK INTER:                  -5.702
REMARK INTRA:                   0.000
REMARK UNBOUND:                 0.000
REMARK SMILES O=c1ccc2ccc3occc3c2o1
REMARK SMILES IDX 6 1 7 2 8 3 12 4 11 5 10 6 9 7 13 8 5 9 4 10 3 11 2 12 1 13
REMARK SMILES IDX 14 14
REMARK H PARENT
REMARK Flexibility Score: inf
ROOT
ATOM      1  C   UNL     1       5.109  -4.417  48.050  1.00  0.00     0.016 A 
ATOM      2  C   UNL     1       5.077  -3.827  46.772  1.00  0.00     0.048 A 
ATOM      3  C   UNL     1       5.456  -2.489  46.658  1.00  0.00     0.137 A 
ATOM      4  C   UNL     1       5.850  -1.754  47.743  1.00  0.00     0.064 A 
ATOM      5  C   UNL     1       6.151  -0.492  47.284  1.00  0.00     0.054 A 
ATOM      6  C   UNL     1       5.911  -0.552  45.915  1.00  0.00     0.196 A 
ATOM      7  O   UNL     1       5.497  -1.758  45.571  1.00  0.00    -0.464 OA
ATOM      8  C   UNL     1       5.895  -2.301  49.024  1.00  0.00     0.149 A 
ATOM      9  C   UNL     1       5.516  -3.660  49.176  1.00  0.00     0.018 A 
ATOM     10  C   UNL     1       5.559  -4.216  50.458  1.00  0.00     0.019 A 
ATOM     11  C   UNL     1       5.967  -3.425  51.534  1.00  0.00     0.094 A 
ATOM     12  C   UNL     1       6.326  -2.091  51.303  1.00  0.00     0.336 A 
ATOM     13  O   UNL     1       6.696  -1.366  52.262  1.00  0.00    -0.246 OA
ATOM     14  O   UNL     1       6.279  -1.582  50.074  1.00  0.00    -0.422 OA
ENDROOT
TORSDOF 0
ENDMDL
MODEL 7
REMARK VINA RESULT:    -5.514      7.952      9.478
REMARK INTER + INTRA:          -5.514
REMARK INTER:                  -5.514
REMARK INTRA:                   0.000
REMARK UNBOUND:                 0.000
REMARK SMILES O=c1ccc2ccc3occc3c2o1
REMARK SMILES IDX 6 1 7 2 8 3 12 4 11 5 10 6 9 7 13 8 5 9 4 10 3 11 2 12 1 13
REMARK SMILES IDX 14 14
REMARK H PARENT
REMARK Flexibility Score: inf
ROOT
ATOM      1  C   UNL     1       9.185   5.355  53.963  1.00  0.00     0.016 A 
ATOM      2  C   UNL     1      10.305   4.893  54.681  1.00  0.00     0.048 A 
ATOM      3  C   UNL     1      10.281   3.584  55.162  1.00  0.00     0.137 A 
ATOM      4  C   UNL     1       9.210   2.756  54.954  1.00  0.00     0.064 A 
ATOM      5  C   UNL     1       9.512   1.554  55.552  1.00  0.00     0.054 A 
ATOM      6  C   UNL     1      10.778   1.742  56.096  1.00  0.00     0.196 A 
ATOM      7  O   UNL     1      11.211   2.965  55.847  1.00  0.00    -0.464 OA
ATOM      8  C   UNL     1       8.084   3.176  54.249  1.00  0.00     0.149 A 
ATOM      9  C   UNL     1       8.075   4.502  53.745  1.00  0.00     0.018 A 
ATOM     10  C   UNL     1       6.948   4.930  53.037  1.00  0.00     0.019 A 
ATOM     11  C   UNL     1       5.881   4.049  52.851  1.00  0.00     0.094 A 
ATOM     12  C   UNL     1       5.965   2.755  53.379  1.00  0.00     0.336 A 
ATOM     13  O   UNL     1       5.012   1.949  53.220  1.00  0.00    -0.246 OA
ATOM     14  O   UNL     1       7.047   2.367  54.050  1.00  0.00    -0.422 OA
ENDROOT
TORSDOF 0
ENDMDL
MODEL 8
REMARK VINA RESULT:    -5.441     13.172     14.108
REMARK INTER + INTRA:          -5.441
REMARK INTER:                  -5.441
REMARK INTRA:                   0.000
REMARK UNBOUND:                 0.000
REMARK SMILES O=c1ccc2ccc3occc3c2o1
REMARK SMILES IDX 6 1 7 2 8 3 12 4 11 5 10 6 9 7 13 8 5 9 4 10 3 11 2 12 1 13
REMARK SMILES IDX 14 14
REMARK H PARENT
REMARK Flexibility Score: inf
ROOT
ATOM      1  C   UNL     1      -2.663   5.665  42.840  1.00  0.00     0.016 A 
ATOM      2  C   UNL     1      -3.086   4.518  42.141  1.00  0.00     0.048 A 
ATOM      3  C   UNL     1      -2.781   4.429  40.783  1.00  0.00     0.137 A 
ATOM      4  C   UNL     1      -2.092   5.415  40.130  1.00  0.00     0.064 A 
ATOM      5  C   UNL     1      -1.963   5.013  38.820  1.00  0.00     0.054 A 
ATOM      6  C   UNL     1      -2.600   3.778  38.769  1.00  0.00     0.196 A 
ATOM      7  O   UNL     1      -3.079   3.456  39.957  1.00  0.00    -0.464 OA
ATOM      8  C   UNL     1      -1.656   6.564  40.787  1.00  0.00     0.149 A 
ATOM      9  C   UNL     1      -1.950   6.688  42.169  1.00  0.00     0.018 A 
ATOM     10  C   UNL     1      -1.516   7.839  42.834  1.00  0.00     0.019 A 
ATOM     11  C   UNL     1      -0.817   8.817  42.125  1.00  0.00     0.094 A 
ATOM     12  C   UNL     1      -0.566   8.622  40.761  1.00  0.00     0.336 A 
ATOM     13  O   UNL     1       0.063   9.495  40.108  1.00  0.00    -0.246 OA
ATOM     14  O   UNL     1      -0.987   7.519  40.147  1.00  0.00    -0.422 OA
ENDROOT
TORSDOF 0
ENDMDL
MODEL 9
REMARK VINA RESULT:    -5.432      8.306      9.792
REMARK INTER + INTRA:          -5.432
REMARK INTER:                  -5.432
REMARK INTRA:                   0.000
REMARK UNBOUND:                 0.000
REMARK SMILES O=c1ccc2ccc3occc3c2o1
REMARK SMILES IDX 6 1 7 2 8 3 12 4 11 5 10 6 9 7 13 8 5 9 4 10 3 11 2 12 1 13
REMARK SMILES IDX 14 14
REMARK H PARENT
REMARK Flexibility Score: inf
ROOT
ATOM      1  C   UNL     1      10.005   4.797  54.514  1.00  0.00     0.016 A 
ATOM      2  C   UNL     1       9.036   5.536  53.809  1.00  0.00     0.048 A 
ATOM      3  C   UNL     1       7.837   4.901  53.483  1.00  0.00     0.137 A 
ATOM      4  C   UNL     1       7.590   3.600  53.831  1.00  0.00     0.064 A 
ATOM      5  C   UNL     1       6.332   3.294  53.363  1.00  0.00     0.054 A 
ATOM      6  C   UNL     1       5.893   4.461  52.748  1.00  0.00     0.196 A 
ATOM      7  O   UNL     1       6.814   5.404  52.836  1.00  0.00    -0.464 OA
ATOM      8  C   UNL     1       8.523   2.837  54.529  1.00  0.00     0.149 A 
ATOM      9  C   UNL     1       9.754   3.451  54.876  1.00  0.00     0.018 A 
ATOM     10  C   UNL     1      10.695   2.691  55.576  1.00  0.00     0.019 A 
ATOM     11  C   UNL     1      10.397   1.368  55.907  1.00  0.00     0.094 A 
ATOM     12  C   UNL     1       9.159   0.832  55.529  1.00  0.00     0.336 A 
ATOM     13  O   UNL     1       8.876  -0.359  55.820  1.00  0.00    -0.246 OA
ATOM     14  O   UNL     1       8.277   1.573  54.863  1.00  0.00    -0.422 OA
ENDROOT
TORSDOF 0
ENDMDL
