MODEL 1
REMARK VINA RESULT:    -8.104      0.000      0.000
REMARK INTER + INTRA:          -9.465
REMARK INTER:                  -9.763
REMARK INTRA:                   0.298
REMARK UNBOUND:                 0.298
REMARK SMILES O=c1c(O)c(-c2ccc(O)c(O)c2)oc2cc(O)cc(O)c12
REMARK SMILES IDX 5 1 3 2 2 3 1 4 22 5 20 6 19 7 17 8 16 9 15 10 14 11 6 12
REMARK SMILES IDX 7 13 8 14 9 15 13 16 11 17 10 18 12 20 4 22 21 24 18 26
REMARK H PARENT 10 19 12 21 4 23 21 25 18 27
REMARK Flexibility Score: inf
ROOT
ATOM      1  C   UNL     1      17.440  22.670  40.513  1.00  0.00     0.180 A 
ATOM      2  C   UNL     1      17.133  23.719  39.625  1.00  0.00     0.208 A 
ATOM      3  C   UNL     1      16.021  24.532  39.895  1.00  0.00     0.238 A 
ATOM      4  O   UNL     1      15.742  25.482  39.112  1.00  0.00    -0.285 OA
ATOM      5  C   UNL     1      15.226  24.272  41.031  1.00  0.00     0.111 A 
ATOM      6  C   UNL     1      14.088  25.042  41.372  1.00  0.00     0.134 A 
ATOM      7  C   UNL     1      13.343  24.714  42.515  1.00  0.00     0.093 A 
ATOM      8  C   UNL     1      13.715  23.632  43.322  1.00  0.00     0.123 A 
ATOM      9  C   UNL     1      14.838  22.872  42.990  1.00  0.00     0.094 A 
ATOM     10  C   UNL     1      15.594  23.183  41.856  1.00  0.00     0.146 A 
ATOM     11  O   UNL     1      16.660  22.446  41.567  1.00  0.00    -0.452 OA
ENDROOT
BRANCH   1  12
ATOM     12  C   UNL     1      18.607  21.783  40.308  1.00  0.00     0.025 A 
ATOM     13  C   UNL     1      18.574  20.428  40.685  1.00  0.00     0.016 A 
ATOM     14  C   UNL     1      19.679  19.604  40.459  1.00  0.00     0.051 A 
ATOM     15  C   UNL     1      20.827  20.117  39.842  1.00  0.00     0.157 A 
ATOM     16  C   UNL     1      19.754  22.285  39.670  1.00  0.00     0.062 A 
ATOM     17  C   UNL     1      20.864  21.459  39.444  1.00  0.00     0.158 A 
BRANCH  15  18
ATOM     18  O   UNL     1      21.933  19.298  39.617  1.00  0.00    -0.504 OA
ATOM     19  H   UNL     1      22.587  19.076  40.359  1.00  0.00     0.293 HD
ENDBRANCH  15  18
BRANCH  17  20
ATOM     20  O   UNL     1      22.005  21.964  38.824  1.00  0.00    -0.504 OA
ATOM     21  H   UNL     1      22.792  21.368  38.595  1.00  0.00     0.293 HD
ENDBRANCH  17  20
ENDBRANCH   1  12
BRANCH   2  22
ATOM     22  O   UNL     1      17.906  23.925  38.481  1.00  0.00    -0.502 OA
ATOM     23  H   UNL     1      17.536  24.366  37.646  1.00  0.00     0.293 HD
ENDBRANCH   2  22
BRANCH   6  24
ATOM     24  O   UNL     1      13.691  26.125  40.586  1.00  0.00    -0.507 OA
ATOM     25  H   UNL     1      12.714  26.317  40.398  1.00  0.00     0.293 HD
ENDBRANCH   6  24
BRANCH   8  26
ATOM     26  O   UNL     1      12.976  23.306  44.456  1.00  0.00    -0.508 OA
ATOM     27  H   UNL     1      13.131  22.441  44.959  1.00  0.00     0.293 HD
ENDBRANCH   8  26
TORSDOF 6
ENDMDL
MODEL 2
REMARK VINA RESULT:    -7.903      1.697      2.640
REMARK INTER + INTRA:          -9.222
REMARK INTER:                  -8.915
REMARK INTRA:                  -0.308
REMARK UNBOUND:                 0.298
REMARK SMILES O=c1c(O)c(-c2ccc(O)c(O)c2)oc2cc(O)cc(O)c12
REMARK SMILES IDX 5 1 3 2 2 3 1 4 22 5 20 6 19 7 17 8 16 9 15 10 14 11 6 12
REMARK SMILES IDX 7 13 8 14 9 15 13 16 11 17 10 18 12 20 4 22 21 24 18 26
REMARK H PARENT 10 19 12 21 4 23 21 25 18 27
REMARK Flexibility Score: inf
ROOT
ATOM      1  C   UNL     1      15.787  23.048  41.486  1.00  0.00     0.180 A 
ATOM      2  C   UNL     1      15.167  24.149  40.864  1.00  0.00     0.208 A 
ATOM      3  C   UNL     1      14.119  24.803  41.531  1.00  0.00     0.238 A 
ATOM      4  O   UNL     1      13.562  25.797  40.989  1.00  0.00    -0.285 OA
ATOM      5  C   UNL     1      13.697  24.337  42.794  1.00  0.00     0.111 A 
ATOM      6  C   UNL     1      12.649  24.938  43.530  1.00  0.00     0.134 A 
ATOM      7  C   UNL     1      12.282  24.409  44.777  1.00  0.00     0.093 A 
ATOM      8  C   UNL     1      12.944  23.291  45.300  1.00  0.00     0.123 A 
ATOM      9  C   UNL     1      13.980  22.697  44.578  1.00  0.00     0.094 A 
ATOM     10  C   UNL     1      14.361  23.210  43.335  1.00  0.00     0.146 A 
ATOM     11  O   UNL     1      15.354  22.628  42.671  1.00  0.00    -0.452 OA
ENDROOT
BRANCH   1  12
ATOM     12  C   UNL     1      16.910  22.319  40.855  1.00  0.00     0.025 A 
ATOM     13  C   UNL     1      18.222  22.824  40.886  1.00  0.00     0.016 A 
ATOM     14  C   UNL     1      19.270  22.106  40.305  1.00  0.00     0.051 A 
ATOM     15  C   UNL     1      19.025  20.868  39.696  1.00  0.00     0.157 A 
ATOM     16  C   UNL     1      16.675  21.067  40.261  1.00  0.00     0.062 A 
ATOM     17  C   UNL     1      17.726  20.347  39.677  1.00  0.00     0.158 A 
BRANCH  15  18
ATOM     18  O   UNL     1      20.067  20.150  39.112  1.00  0.00    -0.504 OA
ATOM     19  H   UNL     1      21.034  20.317  39.368  1.00  0.00     0.293 HD
ENDBRANCH  15  18
BRANCH  17  20
ATOM     20  O   UNL     1      17.486  19.112  39.077  1.00  0.00    -0.504 OA
ATOM     21  H   UNL     1      16.934  18.397  39.536  1.00  0.00     0.293 HD
ENDBRANCH  17  20
ENDBRANCH   1  12
BRANCH   2  22
ATOM     22  O   UNL     1      15.569  24.561  39.592  1.00  0.00    -0.502 OA
ATOM     23  H   UNL     1      14.974  24.467  38.777  1.00  0.00     0.293 HD
ENDBRANCH   2  22
BRANCH   6  24
ATOM     24  O   UNL     1      11.968  26.051  43.035  1.00  0.00    -0.507 OA
ATOM     25  H   UNL     1      11.727  26.836  43.628  1.00  0.00     0.293 HD
ENDBRANCH   6  24
BRANCH   8  26
ATOM     26  O   UNL     1      12.580  22.766  46.537  1.00  0.00    -0.508 OA
ATOM     27  H   UNL     1      11.756  22.186  46.645  1.00  0.00     0.293 HD
ENDBRANCH   8  26
TORSDOF 6
ENDMDL
MODEL 3
REMARK VINA RESULT:    -7.632      1.097      6.717
REMARK INTER + INTRA:          -8.896
REMARK INTER:                  -9.234
REMARK INTRA:                   0.339
REMARK UNBOUND:                 0.298
REMARK SMILES O=c1c(O)c(-c2ccc(O)c(O)c2)oc2cc(O)cc(O)c12
REMARK SMILES IDX 5 1 3 2 2 3 1 4 22 5 20 6 19 7 17 8 16 9 15 10 14 11 6 12
REMARK SMILES IDX 7 13 8 14 9 15 13 16 11 17 10 18 12 20 4 22 21 24 18 26
REMARK H PARENT 10 19 12 21 4 23 21 25 18 27
REMARK Flexibility Score: inf
ROOT
ATOM      1  C   UNL     1      16.290  23.362  40.900  1.00  0.00     0.180 A 
ATOM      2  C   UNL     1      16.769  24.211  39.885  1.00  0.00     0.208 A 
ATOM      3  C   UNL     1      17.901  23.822  39.152  1.00  0.00     0.238 A 
ATOM      4  O   UNL     1      18.334  24.570  38.232  1.00  0.00    -0.285 OA
ATOM      5  C   UNL     1      18.545  22.604  39.458  1.00  0.00     0.111 A 
ATOM      6  C   UNL     1      19.691  22.141  38.769  1.00  0.00     0.134 A 
ATOM      7  C   UNL     1      20.280  20.922  39.139  1.00  0.00     0.093 A 
ATOM      8  C   UNL     1      19.743  20.159  40.184  1.00  0.00     0.123 A 
ATOM      9  C   UNL     1      18.612  20.612  40.864  1.00  0.00     0.094 A 
ATOM     10  C   UNL     1      18.010  21.823  40.509  1.00  0.00     0.146 A 
ATOM     11  O   UNL     1      16.931  22.228  41.170  1.00  0.00    -0.452 OA
ENDROOT
BRANCH   1  12
ATOM     12  C   UNL     1      15.092  23.694  41.703  1.00  0.00     0.025 A 
ATOM     13  C   UNL     1      14.128  24.606  41.239  1.00  0.00     0.016 A 
ATOM     14  C   UNL     1      12.993  24.885  42.004  1.00  0.00     0.051 A 
ATOM     15  C   UNL     1      12.798  24.248  43.237  1.00  0.00     0.157 A 
ATOM     16  C   UNL     1      14.880  23.042  42.930  1.00  0.00     0.062 A 
ATOM     17  C   UNL     1      13.741  23.322  43.699  1.00  0.00     0.158 A 
BRANCH  15  18
ATOM     18  O   UNL     1      11.668  24.525  44.004  1.00  0.00    -0.504 OA
ATOM     19  H   UNL     1      11.308  25.469  44.095  1.00  0.00     0.293 HD
ENDBRANCH  15  18
BRANCH  17  20
ATOM     20  O   UNL     1      13.541  22.685  44.922  1.00  0.00    -0.504 OA
ATOM     21  H   UNL     1      13.681  23.169  45.801  1.00  0.00     0.293 HD
ENDBRANCH  17  20
ENDBRANCH   1  12
BRANCH   2  22
ATOM     22  O   UNL     1      16.144  25.435  39.635  1.00  0.00    -0.502 OA
ATOM     23  H   UNL     1      16.262  25.938  38.763  1.00  0.00     0.293 HD
ENDBRANCH   2  22
BRANCH   6  24
ATOM     24  O   UNL     1      20.251  22.879  37.725  1.00  0.00    -0.507 OA
ATOM     25  H   UNL     1      19.994  23.844  37.557  1.00  0.00     0.293 HD
ENDBRANCH   6  24
BRANCH   8  26
ATOM     26  O   UNL     1      20.327  18.950  40.551  1.00  0.00    -0.508 OA
ATOM     27  H   UNL     1      20.919  18.874  41.370  1.00  0.00     0.293 HD
ENDBRANCH   8  26
TORSDOF 6
ENDMDL
MODEL 4
REMARK VINA RESULT:    -7.387      1.574      6.963
REMARK INTER + INTRA:          -8.601
REMARK INTER:                  -9.008
REMARK INTRA:                   0.407
REMARK UNBOUND:                 0.298
REMARK SMILES O=c1c(O)c(-c2ccc(O)c(O)c2)oc2cc(O)cc(O)c12
REMARK SMILES IDX 5 1 3 2 2 3 1 4 22 5 20 6 19 7 17 8 16 9 15 10 14 11 6 12
REMARK SMILES IDX 7 13 8 14 9 15 13 16 11 17 10 18 12 20 4 22 21 24 18 26
REMARK H PARENT 10 19 12 21 4 23 21 25 18 27
REMARK Flexibility Score: inf
ROOT
ATOM      1  C   UNL     1      14.755  23.792  41.955  1.00  0.00     0.180 A 
ATOM      2  C   UNL     1      14.881  24.751  40.931  1.00  0.00     0.208 A 
ATOM      3  C   UNL     1      15.889  24.586  39.968  1.00  0.00     0.238 A 
ATOM      4  O   UNL     1      16.005  25.433  39.040  1.00  0.00    -0.285 OA
ATOM      5  C   UNL     1      16.762  23.482  40.053  1.00  0.00     0.111 A 
ATOM      6  C   UNL     1      17.803  23.245  39.125  1.00  0.00     0.134 A 
ATOM      7  C   UNL     1      18.636  22.126  39.284  1.00  0.00     0.093 A 
ATOM      8  C   UNL     1      18.446  21.242  40.353  1.00  0.00     0.123 A 
ATOM      9  C   UNL     1      17.419  21.472  41.270  1.00  0.00     0.094 A 
ATOM     10  C   UNL     1      16.578  22.579  41.128  1.00  0.00     0.146 A 
ATOM     11  O   UNL     1      15.605  22.770  42.012  1.00  0.00    -0.452 OA
ENDROOT
BRANCH   1  12
ATOM     12  C   UNL     1      13.706  23.885  42.995  1.00  0.00     0.025 A 
ATOM     13  C   UNL     1      12.622  24.772  42.866  1.00  0.00     0.016 A 
ATOM     14  C   UNL     1      11.632  24.825  43.850  1.00  0.00     0.051 A 
ATOM     15  C   UNL     1      11.703  23.986  44.970  1.00  0.00     0.157 A 
ATOM     16  C   UNL     1      13.761  23.032  44.110  1.00  0.00     0.062 A 
ATOM     17  C   UNL     1      12.767  23.085  45.098  1.00  0.00     0.158 A 
BRANCH  15  18
ATOM     18  O   UNL     1      10.719  24.038  45.955  1.00  0.00    -0.504 OA
ATOM     19  H   UNL     1      10.917  24.395  46.883  1.00  0.00     0.293 HD
ENDBRANCH  15  18
BRANCH  17  20
ATOM     20  O   UNL     1      12.832  22.247  46.209  1.00  0.00    -0.504 OA
ATOM     21  H   UNL     1      12.033  22.109  46.817  1.00  0.00     0.293 HD
ENDBRANCH  17  20
ENDBRANCH   1  12
BRANCH   2  22
ATOM     22  O   UNL     1      14.036  25.862  40.897  1.00  0.00    -0.502 OA
ATOM     23  H   UNL     1      13.758  26.360  41.735  1.00  0.00     0.293 HD
ENDBRANCH   2  22
BRANCH   6  24
ATOM     24  O   UNL     1      18.019  24.108  38.050  1.00  0.00    -0.507 OA
ATOM     25  H   UNL     1      17.532  24.992  37.971  1.00  0.00     0.293 HD
ENDBRANCH   6  24
BRANCH   8  26
ATOM     26  O   UNL     1      19.273  20.133  40.512  1.00  0.00    -0.508 OA
ATOM     27  H   UNL     1      19.446  19.488  39.750  1.00  0.00     0.293 HD
ENDBRANCH   8  26
TORSDOF 6
ENDMDL
MODEL 5
REMARK VINA RESULT:    -6.943      1.581      7.194
REMARK INTER + INTRA:          -8.066
REMARK INTER:                  -7.933
REMARK INTRA:                  -0.134
REMARK UNBOUND:                 0.298
REMARK SMILES O=c1c(O)c(-c2ccc(O)c(O)c2)oc2cc(O)cc(O)c12
REMARK SMILES IDX 5 1 3 2 2 3 1 4 22 5 20 6 19 7 17 8 16 9 15 10 14 11 6 12
REMARK SMILES IDX 7 13 8 14 9 15 13 16 11 17 10 18 12 20 4 22 21 24 18 26
REMARK H PARENT 10 19 12 21 4 23 21 25 18 27
REMARK Flexibility Score: inf
ROOT
ATOM      1  C   UNL     1      16.888  22.372  41.191  1.00  0.00     0.180 A 
ATOM      2  C   UNL     1      16.980  20.975  41.040  1.00  0.00     0.208 A 
ATOM      3  C   UNL     1      18.170  20.423  40.542  1.00  0.00     0.238 A 
ATOM      4  O   UNL     1      18.267  19.171  40.412  1.00  0.00    -0.285 OA
ATOM      5  C   UNL     1      19.238  21.273  40.185  1.00  0.00     0.111 A 
ATOM      6  C   UNL     1      20.468  20.797  39.673  1.00  0.00     0.134 A 
ATOM      7  C   UNL     1      21.480  21.708  39.333  1.00  0.00     0.093 A 
ATOM      8  C   UNL     1      21.282  23.085  39.495  1.00  0.00     0.123 A 
ATOM      9  C   UNL     1      20.071  23.558  40.000  1.00  0.00     0.094 A 
ATOM     10  C   UNL     1      19.052  22.666  40.347  1.00  0.00     0.146 A 
ATOM     11  O   UNL     1      17.911  23.144  40.831  1.00  0.00    -0.452 OA
ENDROOT
BRANCH   1  12
ATOM     12  C   UNL     1      15.675  23.028  41.727  1.00  0.00     0.025 A 
ATOM     13  C   UNL     1      14.901  23.897  40.938  1.00  0.00     0.016 A 
ATOM     14  C   UNL     1      13.746  24.485  41.459  1.00  0.00     0.051 A 
ATOM     15  C   UNL     1      13.341  24.205  42.770  1.00  0.00     0.157 A 
ATOM     16  C   UNL     1      15.251  22.734  43.034  1.00  0.00     0.062 A 
ATOM     17  C   UNL     1      14.092  23.324  43.558  1.00  0.00     0.158 A 
BRANCH  15  18
ATOM     18  O   UNL     1      12.190  24.792  43.295  1.00  0.00    -0.504 OA
ATOM     19  H   UNL     1      12.240  25.499  44.019  1.00  0.00     0.293 HD
ENDBRANCH  15  18
BRANCH  17  20
ATOM     20  O   UNL     1      13.683  23.041  44.860  1.00  0.00    -0.504 OA
ATOM     21  H   UNL     1      13.534  23.777  45.540  1.00  0.00     0.293 HD
ENDBRANCH  17  20
ENDBRANCH   1  12
BRANCH   2  22
ATOM     22  O   UNL     1      15.891  20.159  41.354  1.00  0.00    -0.502 OA
ATOM     23  H   UNL     1      15.398  20.225  42.236  1.00  0.00     0.293 HD
ENDBRANCH   2  22
BRANCH   6  24
ATOM     24  O   UNL     1      20.695  19.431  39.499  1.00  0.00    -0.507 OA
ATOM     25  H   UNL     1      20.444  18.754  40.208  1.00  0.00     0.293 HD
ENDBRANCH   6  24
BRANCH   8  26
ATOM     26  O   UNL     1      22.286  23.989  39.156  1.00  0.00    -0.508 OA
ATOM     27  H   UNL     1      22.760  24.543  39.860  1.00  0.00     0.293 HD
ENDBRANCH   8  26
TORSDOF 6
ENDMDL
MODEL 6
REMARK VINA RESULT:    -6.035      1.733      7.024
REMARK INTER + INTRA:          -6.973
REMARK INTER:                  -7.263
REMARK INTRA:                   0.290
REMARK UNBOUND:                 0.298
REMARK SMILES O=c1c(O)c(-c2ccc(O)c(O)c2)oc2cc(O)cc(O)c12
REMARK SMILES IDX 5 1 3 2 2 3 1 4 22 5 20 6 19 7 17 8 16 9 15 10 14 11 6 12
REMARK SMILES IDX 7 13 8 14 9 15 13 16 11 17 10 18 12 20 4 22 21 24 18 26
REMARK H PARENT 10 19 12 21 4 23 21 25 18 27
REMARK Flexibility Score: inf
ROOT
ATOM      1  C   UNL     1      16.539  23.037  40.920  1.00  0.00     0.180 A 
ATOM      2  C   UNL     1      17.129  21.760  40.961  1.00  0.00     0.208 A 
ATOM      3  C   UNL     1      18.248  21.504  40.154  1.00  0.00     0.238 A 
ATOM      4  O   UNL     1      18.792  20.365  40.190  1.00  0.00    -0.285 OA
ATOM      5  C   UNL     1      18.747  22.518  39.310  1.00  0.00     0.111 A 
ATOM      6  C   UNL     1      19.869  22.340  38.465  1.00  0.00     0.134 A 
ATOM      7  C   UNL     1      20.298  23.396  37.647  1.00  0.00     0.093 A 
ATOM      8  C   UNL     1      19.626  24.625  37.659  1.00  0.00     0.123 A 
ATOM      9  C   UNL     1      18.521  24.804  38.492  1.00  0.00     0.094 A 
ATOM     10  C   UNL     1      18.079  23.765  39.315  1.00  0.00     0.146 A 
ATOM     11  O   UNL     1      17.027  23.965  40.101  1.00  0.00    -0.452 OA
ENDROOT
BRANCH   1  12
ATOM     12  C   UNL     1      15.368  23.390  41.754  1.00  0.00     0.025 A 
ATOM     13  C   UNL     1      14.382  24.281  41.295  1.00  0.00     0.016 A 
ATOM     14  C   UNL     1      13.273  24.580  42.091  1.00  0.00     0.051 A 
ATOM     15  C   UNL     1      13.128  23.985  43.351  1.00  0.00     0.157 A 
ATOM     16  C   UNL     1      15.205  22.780  43.010  1.00  0.00     0.062 A 
ATOM     17  C   UNL     1      14.093  23.080  43.809  1.00  0.00     0.158 A 
BRANCH  15  18
ATOM     18  O   UNL     1      12.024  24.282  44.149  1.00  0.00    -0.504 OA
ATOM     19  H   UNL     1      11.095  24.374  43.755  1.00  0.00     0.293 HD
ENDBRANCH  15  18
BRANCH  17  20
ATOM     20  O   UNL     1      13.942  22.484  45.060  1.00  0.00    -0.504 OA
ATOM     21  H   UNL     1      14.358  22.886  45.892  1.00  0.00     0.293 HD
ENDBRANCH  17  20
ENDBRANCH   1  12
BRANCH   2  22
ATOM     22  O   UNL     1      16.586  20.757  41.768  1.00  0.00    -0.502 OA
ATOM     23  H   UNL     1      16.796  20.681  42.756  1.00  0.00     0.293 HD
ENDBRANCH   2  22
BRANCH   6  24
ATOM     24  O   UNL     1      20.557  21.127  38.430  1.00  0.00    -0.507 OA
ATOM     25  H   UNL     1      21.147  20.826  39.196  1.00  0.00     0.293 HD
ENDBRANCH   6  24
BRANCH   8  26
ATOM     26  O   UNL     1      20.052  25.673  36.847  1.00  0.00    -0.508 OA
ATOM     27  H   UNL     1      19.594  26.576  36.863  1.00  0.00     0.293 HD
ENDBRANCH   8  26
TORSDOF 6
ENDMDL
MODEL 7
REMARK VINA RESULT:    -5.317      1.431      7.452
REMARK INTER + INTRA:          -6.108
REMARK INTER:                  -6.632
REMARK INTRA:                   0.524
REMARK UNBOUND:                 0.298
REMARK SMILES O=c1c(O)c(-c2ccc(O)c(O)c2)oc2cc(O)cc(O)c12
REMARK SMILES IDX 5 1 3 2 2 3 1 4 22 5 20 6 19 7 17 8 16 9 15 10 14 11 6 12
REMARK SMILES IDX 7 13 8 14 9 15 13 16 11 17 10 18 12 20 4 22 21 24 18 26
REMARK H PARENT 10 19 12 21 4 23 21 25 18 27
REMARK Flexibility Score: inf
ROOT
ATOM      1  C   UNL     1      17.851  22.342  40.191  1.00  0.00     0.180 A 
ATOM      2  C   UNL     1      17.845  21.160  40.958  1.00  0.00     0.208 A 
ATOM      3  C   UNL     1      18.916  20.263  40.829  1.00  0.00     0.238 A 
ATOM      4  O   UNL     1      18.927  19.206  41.519  1.00  0.00    -0.285 OA
ATOM      5  C   UNL     1      19.963  20.550  39.928  1.00  0.00     0.111 A 
ATOM      6  C   UNL     1      21.077  19.698  39.738  1.00  0.00     0.134 A 
ATOM      7  C   UNL     1      22.073  20.050  38.814  1.00  0.00     0.093 A 
ATOM      8  C   UNL     1      21.975  21.238  38.079  1.00  0.00     0.123 A 
ATOM      9  C   UNL     1      20.879  22.081  38.264  1.00  0.00     0.094 A 
ATOM     10  C   UNL     1      19.877  21.749  39.181  1.00  0.00     0.146 A 
ATOM     11  O   UNL     1      18.847  22.573  39.341  1.00  0.00    -0.452 OA
ENDROOT
BRANCH   1  12
ATOM     12  C   UNL     1      16.767  23.345  40.285  1.00  0.00     0.025 A 
ATOM     13  C   UNL     1      16.661  24.399  39.360  1.00  0.00     0.016 A 
ATOM     14  C   UNL     1      15.616  25.320  39.454  1.00  0.00     0.051 A 
ATOM     15  C   UNL     1      14.654  25.196  40.465  1.00  0.00     0.157 A 
ATOM     16  C   UNL     1      15.787  23.213  41.284  1.00  0.00     0.062 A 
ATOM     17  C   UNL     1      14.738  24.138  41.379  1.00  0.00     0.158 A 
BRANCH  15  18
ATOM     18  O   UNL     1      13.610  26.114  40.564  1.00  0.00    -0.504 OA
ATOM     19  H   UNL     1      13.549  26.764  41.340  1.00  0.00     0.293 HD
ENDBRANCH  15  18
BRANCH  17  20
ATOM     20  O   UNL     1      13.775  24.012  42.379  1.00  0.00    -0.504 OA
ATOM     21  H   UNL     1      14.004  24.156  43.356  1.00  0.00     0.293 HD
ENDBRANCH  17  20
ENDBRANCH   1  12
BRANCH   2  22
ATOM     22  O   UNL     1      16.773  20.875  41.806  1.00  0.00    -0.502 OA
ATOM     23  H   UNL     1      16.714  21.240  42.750  1.00  0.00     0.293 HD
ENDBRANCH   2  22
BRANCH   6  24
ATOM     24  O   UNL     1      21.202  18.507  40.454  1.00  0.00    -0.507 OA
ATOM     25  H   UNL     1      21.151  17.604  40.000  1.00  0.00     0.293 HD
ENDBRANCH   6  24
BRANCH   8  26
ATOM     26  O   UNL     1      22.963  21.587  37.162  1.00  0.00    -0.508 OA
ATOM     27  H   UNL     1      23.912  21.242  37.248  1.00  0.00     0.293 HD
ENDBRANCH   8  26
TORSDOF 6
ENDMDL
