MODEL 1
REMARK VINA RESULT:    -4.732      0.000      0.000
REMARK INTER + INTRA:          -5.298
REMARK INTER:                  -5.147
REMARK INTRA:                  -0.151
REMARK UNBOUND:                -0.151
REMARK SMILES C[C@@H]1[C@H]2C3=CC[C@H]4[C@@]5(C)CC[C@@H](O)C(C)(C)[C@H]5CC[C@]4(C)[C@@]3(C)CC[C@@]2(C(=O)[O-])CC[C@@H]1C
REMARK SMILES IDX 26 1 30 2 25 3 3 4 31 5 24 6 4 7 2 8 32 9 22 10 5 11 1 12
REMARK SMILES IDX 33 13 23 14 20 15 6 16 7 17 19 18 21 19 8 20 18 21 17 22
REMARK SMILES IDX 10 23 9 24 14 25 11 26 12 27 15 28 16 29 27 30 28 31 29 32
REMARK SMILES IDX 13 33
REMARK H PARENT 13 34
REMARK Flexibility Score: inf
ROOT
ATOM      1  C   UNL     1       7.770  -6.430  -4.392  1.00  0.00     0.017 C 
ATOM      2  C   UNL     1       6.609  -6.979  -3.499  1.00  0.00     0.014 C 
ATOM      3  C   UNL     1       9.078  -6.536  -3.527  1.00  0.00     0.014 C 
ATOM      4  C   UNL     1       7.475  -4.938  -4.909  1.00  0.00     0.030 C 
ATOM      5  C   UNL     1       5.207  -6.786  -4.070  1.00  0.00     0.004 C 
ATOM      6  C   UNL     1      10.080  -5.420  -3.812  1.00  0.00     0.013 C 
ATOM      7  C   UNL     1       8.035  -3.886  -3.946  1.00  0.00    -0.063 C 
ATOM      8  C   UNL     1       5.973  -4.746  -5.412  1.00  0.00    -0.003 C 
ATOM      9  C   UNL     1       4.967  -5.297  -4.364  1.00  0.00    -0.011 C 
ATOM     10  C   UNL     1       9.529  -3.962  -3.585  1.00  0.00    -0.006 C 
ATOM     11  C   UNL     1       7.265  -2.867  -3.442  1.00  0.00    -0.027 C 
ATOM     12  C   UNL     1       5.745  -5.348  -6.807  1.00  0.00     0.008 C 
ATOM     13  C   UNL     1       3.496  -5.055  -4.733  1.00  0.00     0.008 C 
ATOM     14  C   UNL     1      10.302  -3.065  -4.625  1.00  0.00     0.017 C 
ATOM     15  C   UNL     1       9.680  -3.475  -2.054  1.00  0.00    -0.020 C 
ATOM     16  C   UNL     1       7.708  -1.885  -2.355  1.00  0.00     0.032 C 
ATOM     17  C   UNL     1       9.212  -1.974  -2.022  1.00  0.00     0.006 C 
ATOM     18  C   UNL     1      11.111  -3.548  -1.459  1.00  0.00     0.008 C 
ATOM     19  C   UNL     1       8.768  -4.358  -1.145  1.00  0.00     0.012 C 
ATOM     20  C   UNL     1       9.841  -0.978  -0.923  1.00  0.00    -0.025 C 
ATOM     21  C   UNL     1      11.129  -3.104   0.021  1.00  0.00     0.005 C 
ATOM     22  C   UNL     1      10.523  -1.690   0.334  1.00  0.00     0.003 C 
ATOM     23  C   UNL     1       8.777   0.059  -0.441  1.00  0.00     0.010 C 
ATOM     24  C   UNL     1      10.984  -0.144  -1.651  1.00  0.00     0.012 C 
ATOM     25  C   UNL     1       9.780  -1.543   1.732  1.00  0.00    -0.006 C 
ATOM     26  C   UNL     1       9.250   0.861   0.769  1.00  0.00     0.033 C 
ATOM     27  C   UNL     1       9.414  -0.021   2.022  1.00  0.00     0.120 C 
ATOM     28  C   UNL     1      10.747  -2.003   2.859  1.00  0.00     0.014 C 
ATOM     29  C   UNL     1       8.512  -2.440   1.877  1.00  0.00     0.014 C 
ENDROOT
BRANCH   1  30
ATOM     30  C   UNL     1       7.985  -7.358  -5.593  1.00  0.00     0.048 C 
ATOM     31  O   UNL     1       8.684  -6.982  -6.584  1.00  0.00    -0.550 OA
ATOM     32  O   UNL     1       7.517  -8.674  -5.553  1.00  0.00    -0.550 OA
ENDBRANCH   1  30
BRANCH  27  33
ATOM     33  O   UNL     1       8.195   0.067   2.768  1.00  0.00    -0.393 OA
ATOM     34  H   UNL     1       7.706   0.875   2.443  1.00  0.00     0.210 HD
ENDBRANCH  27  33
TORSDOF 2
ENDMDL
MODEL 2
REMARK VINA RESULT:    -4.619      3.198      8.376
REMARK INTER + INTRA:          -5.175
REMARK INTER:                  -5.023
REMARK INTRA:                  -0.152
REMARK UNBOUND:                -0.151
REMARK SMILES C[C@@H]1[C@H]2C3=CC[C@H]4[C@@]5(C)CC[C@@H](O)C(C)(C)[C@H]5CC[C@]4(C)[C@@]3(C)CC[C@@]2(C(=O)[O-])CC[C@@H]1C
REMARK SMILES IDX 26 1 30 2 25 3 3 4 31 5 24 6 4 7 2 8 32 9 22 10 5 11 1 12
REMARK SMILES IDX 33 13 23 14 20 15 6 16 7 17 19 18 21 19 8 20 18 21 17 22
REMARK SMILES IDX 10 23 9 24 14 25 11 26 12 27 15 28 16 29 27 30 28 31 29 32
REMARK SMILES IDX 13 33
REMARK H PARENT 13 34
REMARK Flexibility Score: inf
ROOT
ATOM      1  C   UNL     1       6.969  -1.264  -5.404  1.00  0.00     0.017 C 
ATOM      2  C   UNL     1       6.234  -0.598  -4.194  1.00  0.00     0.014 C 
ATOM      3  C   UNL     1       5.857  -1.607  -6.461  1.00  0.00     0.014 C 
ATOM      4  C   UNL     1       7.827  -2.545  -4.953  1.00  0.00     0.030 C 
ATOM      5  C   UNL     1       7.100  -0.362  -2.961  1.00  0.00     0.004 C 
ATOM      6  C   UNL     1       6.157  -2.872  -7.261  1.00  0.00     0.013 C 
ATOM      7  C   UNL     1       7.006  -3.836  -5.046  1.00  0.00    -0.063 C 
ATOM      8  C   UNL     1       8.649  -2.294  -3.609  1.00  0.00    -0.003 C 
ATOM      9  C   UNL     1       7.734  -1.687  -2.509  1.00  0.00    -0.011 C 
ATOM     10  C   UNL     1       6.346  -4.173  -6.395  1.00  0.00    -0.006 C 
ATOM     11  C   UNL     1       6.884  -4.707  -3.992  1.00  0.00    -0.027 C 
ATOM     12  C   UNL     1       9.909  -1.449  -3.845  1.00  0.00     0.008 C 
ATOM     13  C   UNL     1       8.430  -1.512  -1.152  1.00  0.00     0.008 C 
ATOM     14  C   UNL     1       7.371  -5.058  -7.201  1.00  0.00     0.017 C 
ATOM     15  C   UNL     1       4.947  -4.912  -6.074  1.00  0.00    -0.020 C 
ATOM     16  C   UNL     1       5.953  -5.920  -3.958  1.00  0.00     0.032 C 
ATOM     17  C   UNL     1       5.315  -6.245  -5.325  1.00  0.00     0.006 C 
ATOM     18  C   UNL     1       4.075  -5.274  -7.305  1.00  0.00     0.008 C 
ATOM     19  C   UNL     1       4.079  -3.988  -5.164  1.00  0.00     0.012 C 
ATOM     20  C   UNL     1       4.338  -7.519  -5.462  1.00  0.00    -0.025 C 
ATOM     21  C   UNL     1       2.744  -5.932  -6.879  1.00  0.00     0.005 C 
ATOM     22  C   UNL     1       2.852  -7.192  -5.949  1.00  0.00     0.003 C 
ATOM     23  C   UNL     1       4.300  -8.333  -4.131  1.00  0.00     0.010 C 
ATOM     24  C   UNL     1       4.977  -8.478  -6.559  1.00  0.00     0.012 C 
ATOM     25  C   UNL     1       1.691  -7.370  -4.879  1.00  0.00    -0.006 C 
ATOM     26  C   UNL     1       3.208  -9.401  -4.131  1.00  0.00     0.033 C 
ATOM     27  C   UNL     1       1.795  -8.787  -4.160  1.00  0.00     0.120 C 
ATOM     28  C   UNL     1       0.323  -7.333  -5.618  1.00  0.00     0.014 C 
ATOM     29  C   UNL     1       1.623  -6.231  -3.816  1.00  0.00     0.014 C 
ENDROOT
BRANCH   1  30
ATOM     30  C   UNL     1       7.889  -0.241  -6.080  1.00  0.00     0.048 C 
ATOM     31  O   UNL     1       8.780  -0.616  -6.903  1.00  0.00    -0.550 OA
ATOM     32  O   UNL     1       7.673   1.127  -5.892  1.00  0.00    -0.550 OA
ENDBRANCH   1  30
BRANCH  27  33
ATOM     33  O   UNL     1       1.341  -8.695  -2.805  1.00  0.00    -0.393 OA
ATOM     34  H   UNL     1       0.379  -8.428  -2.832  1.00  0.00     0.210 HD
ENDBRANCH  27  33
TORSDOF 2
ENDMDL
MODEL 3
REMARK VINA RESULT:    -4.580      3.115      7.941
REMARK INTER + INTRA:          -5.133
REMARK INTER:                  -4.984
REMARK INTRA:                  -0.149
REMARK UNBOUND:                -0.151
REMARK SMILES C[C@@H]1[C@H]2C3=CC[C@H]4[C@@]5(C)CC[C@@H](O)C(C)(C)[C@H]5CC[C@]4(C)[C@@]3(C)CC[C@@]2(C(=O)[O-])CC[C@@H]1C
REMARK SMILES IDX 26 1 30 2 25 3 3 4 31 5 24 6 4 7 2 8 32 9 22 10 5 11 1 12
REMARK SMILES IDX 33 13 23 14 20 15 6 16 7 17 19 18 21 19 8 20 18 21 17 22
REMARK SMILES IDX 10 23 9 24 14 25 11 26 12 27 15 28 16 29 27 30 28 31 29 32
REMARK SMILES IDX 13 33
REMARK H PARENT 13 34
REMARK Flexibility Score: inf
ROOT
ATOM      1  C   UNL     1       9.359   3.187  -2.079  1.00  0.00     0.017 C 
ATOM      2  C   UNL     1       9.302   3.539  -3.603  1.00  0.00     0.014 C 
ATOM      3  C   UNL     1      10.667   2.342  -1.870  1.00  0.00     0.014 C 
ATOM      4  C   UNL     1       8.031   2.426  -1.591  1.00  0.00     0.030 C 
ATOM      5  C   UNL     1       8.005   4.193  -4.068  1.00  0.00     0.004 C 
ATOM      6  C   UNL     1      10.532   1.286  -0.776  1.00  0.00     0.013 C 
ATOM      7  C   UNL     1       8.177   0.905  -1.705  1.00  0.00    -0.063 C 
ATOM      8  C   UNL     1       6.696   3.081  -2.170  1.00  0.00    -0.003 C 
ATOM      9  C   UNL     1       6.811   3.296  -3.705  1.00  0.00    -0.011 C 
ATOM     10  C   UNL     1       9.375   0.242  -1.002  1.00  0.00    -0.006 C 
ATOM     11  C   UNL     1       7.260   0.126  -2.366  1.00  0.00    -0.027 C 
ATOM     12  C   UNL     1       6.311   4.371  -1.432  1.00  0.00     0.008 C 
ATOM     13  C   UNL     1       5.525   3.829  -4.353  1.00  0.00     0.008 C 
ATOM     14  C   UNL     1       8.896  -0.160   0.444  1.00  0.00     0.017 C 
ATOM     15  C   UNL     1       9.836  -1.007  -1.914  1.00  0.00    -0.020 C 
ATOM     16  C   UNL     1       7.424  -1.365  -2.663  1.00  0.00     0.032 C 
ATOM     17  C   UNL     1       8.624  -2.008  -1.936  1.00  0.00     0.006 C 
ATOM     18  C   UNL     1      11.091  -1.776  -1.423  1.00  0.00     0.008 C 
ATOM     19  C   UNL     1      10.157  -0.496  -3.354  1.00  0.00     0.012 C 
ATOM     20  C   UNL     1       8.909  -3.583  -2.116  1.00  0.00    -0.025 C 
ATOM     21  C   UNL     1      11.468  -2.917  -2.394  1.00  0.00     0.005 C 
ATOM     22  C   UNL     1      10.338  -3.954  -2.728  1.00  0.00     0.003 C 
ATOM     23  C   UNL     1       7.776  -4.260  -2.950  1.00  0.00     0.010 C 
ATOM     24  C   UNL     1       8.851  -4.235  -0.665  1.00  0.00     0.012 C 
ATOM     25  C   UNL     1      10.354  -4.555  -4.199  1.00  0.00    -0.006 C 
ATOM     26  C   UNL     1       8.123  -5.692  -3.353  1.00  0.00     0.033 C 
ATOM     27  C   UNL     1       9.308  -5.746  -4.337  1.00  0.00     0.120 C 
ATOM     28  C   UNL     1      11.764  -5.150  -4.478  1.00  0.00     0.014 C 
ATOM     29  C   UNL     1      10.117  -3.497  -5.321  1.00  0.00     0.014 C 
ENDROOT
BRANCH   1  30
ATOM     30  C   UNL     1       9.550   4.466  -1.257  1.00  0.00     0.048 C 
ATOM     31  O   UNL     1       9.359   4.465  -0.002  1.00  0.00    -0.550 OA
ATOM     32  O   UNL     1      10.060   5.619  -1.863  1.00  0.00    -0.550 OA
ENDBRANCH   1  30
BRANCH  27  33
ATOM     33  O   UNL     1       8.763  -5.783  -5.660  1.00  0.00    -0.393 OA
ATOM     34  H   UNL     1       7.945  -6.356  -5.628  1.00  0.00     0.210 HD
ENDBRANCH  27  33
TORSDOF 2
ENDMDL
MODEL 4
REMARK VINA RESULT:    -4.569      1.284      1.498
REMARK INTER + INTRA:          -5.121
REMARK INTER:                  -4.980
REMARK INTRA:                  -0.141
REMARK UNBOUND:                -0.151
REMARK SMILES C[C@@H]1[C@H]2C3=CC[C@H]4[C@@]5(C)CC[C@@H](O)C(C)(C)[C@H]5CC[C@]4(C)[C@@]3(C)CC[C@@]2(C(=O)[O-])CC[C@@H]1C
REMARK SMILES IDX 26 1 30 2 25 3 3 4 31 5 24 6 4 7 2 8 32 9 22 10 5 11 1 12
REMARK SMILES IDX 33 13 23 14 20 15 6 16 7 17 19 18 21 19 8 20 18 21 17 22
REMARK SMILES IDX 10 23 9 24 14 25 11 26 12 27 15 28 16 29 27 30 28 31 29 32
REMARK SMILES IDX 13 33
REMARK H PARENT 13 34
REMARK Flexibility Score: inf
ROOT
ATOM      1  C   UNL     1       7.075  -4.998  -5.630  1.00  0.00     0.017 C 
ATOM      2  C   UNL     1       5.956  -5.711  -4.801  1.00  0.00     0.014 C 
ATOM      3  C   UNL     1       8.436  -5.350  -4.927  1.00  0.00     0.014 C 
ATOM      4  C   UNL     1       6.817  -3.416  -5.749  1.00  0.00     0.030 C 
ATOM      5  C   UNL     1       4.528  -5.342  -5.191  1.00  0.00     0.004 C 
ATOM      6  C   UNL     1       9.468  -4.229  -5.019  1.00  0.00     0.013 C 
ATOM      7  C   UNL     1       7.498  -2.646  -4.613  1.00  0.00    -0.063 C 
ATOM      8  C   UNL     1       5.294  -3.062  -6.066  1.00  0.00    -0.003 C 
ATOM      9  C   UNL     1       4.341  -3.820  -5.100  1.00  0.00    -0.011 C 
ATOM     10  C   UNL     1       9.009  -2.854  -4.406  1.00  0.00    -0.006 C 
ATOM     11  C   UNL     1       6.818  -1.756  -3.817  1.00  0.00    -0.027 C 
ATOM     12  C   UNL     1       4.935  -3.301  -7.540  1.00  0.00     0.008 C 
ATOM     13  C   UNL     1       2.861  -3.450  -5.277  1.00  0.00     0.008 C 
ATOM     14  C   UNL     1       9.747  -1.755  -5.261  1.00  0.00     0.017 C 
ATOM     15  C   UNL     1       9.295  -2.756  -2.820  1.00  0.00    -0.020 C 
ATOM     16  C   UNL     1       7.388  -1.082  -2.568  1.00  0.00     0.032 C 
ATOM     17  C   UNL     1       8.905  -1.294  -2.391  1.00  0.00     0.006 C 
ATOM     18  C   UNL     1      10.760  -3.016  -2.380  1.00  0.00     0.008 C 
ATOM     19  C   UNL     1       8.409  -3.805  -2.076  1.00  0.00     0.012 C 
ATOM     20  C   UNL     1       9.662  -0.614  -1.143  1.00  0.00    -0.025 C 
ATOM     21  C   UNL     1      10.908  -2.944  -0.844  1.00  0.00     0.005 C 
ATOM     22  C   UNL     1      10.398  -1.630  -0.153  1.00  0.00     0.003 C 
ATOM     23  C   UNL     1       8.689   0.307  -0.340  1.00  0.00     0.010 C 
ATOM     24  C   UNL     1      10.789   0.336  -1.742  1.00  0.00     0.012 C 
ATOM     25  C   UNL     1       9.768  -1.803   1.296  1.00  0.00    -0.006 C 
ATOM     26  C   UNL     1       9.289   0.777   0.984  1.00  0.00     0.033 C 
ATOM     27  C   UNL     1       9.499  -0.387   1.971  1.00  0.00     0.120 C 
ATOM     28  C   UNL     1      10.790  -2.552   2.197  1.00  0.00     0.014 C 
ATOM     29  C   UNL     1       8.471  -2.669   1.327  1.00  0.00     0.014 C 
ENDROOT
BRANCH   1  30
ATOM     30  C   UNL     1       7.155  -5.612  -7.031  1.00  0.00     0.048 C 
ATOM     31  O   UNL     1       7.880  -5.084  -7.930  1.00  0.00    -0.550 OA
ATOM     32  O   UNL     1       6.529  -6.834  -7.297  1.00  0.00    -0.550 OA
ENDBRANCH   1  30
BRANCH  27  33
ATOM     33  O   UNL     1       8.344  -0.445   2.815  1.00  0.00    -0.393 OA
ATOM     34  H   UNL     1       7.835   0.404   2.680  1.00  0.00     0.210 HD
ENDBRANCH  27  33
TORSDOF 2
ENDMDL
MODEL 5
REMARK VINA RESULT:    -4.519      3.491      5.431
REMARK INTER + INTRA:          -5.066
REMARK INTER:                  -4.915
REMARK INTRA:                  -0.151
REMARK UNBOUND:                -0.151
REMARK SMILES C[C@@H]1[C@H]2C3=CC[C@H]4[C@@]5(C)CC[C@@H](O)C(C)(C)[C@H]5CC[C@]4(C)[C@@]3(C)CC[C@@]2(C(=O)[O-])CC[C@@H]1C
REMARK SMILES IDX 26 1 30 2 25 3 3 4 31 5 24 6 4 7 2 8 32 9 22 10 5 11 1 12
REMARK SMILES IDX 33 13 23 14 20 15 6 16 7 17 19 18 21 19 8 20 18 21 17 22
REMARK SMILES IDX 10 23 9 24 14 25 11 26 12 27 15 28 16 29 27 30 28 31 29 32
REMARK SMILES IDX 13 33
REMARK H PARENT 13 34
REMARK Flexibility Score: inf
ROOT
ATOM      1  C   UNL     1       8.104  -3.315  -5.646  1.00  0.00     0.017 C 
ATOM      2  C   UNL     1       9.581  -3.641  -5.245  1.00  0.00     0.014 C 
ATOM      3  C   UNL     1       8.168  -2.040  -6.563  1.00  0.00     0.014 C 
ATOM      4  C   UNL     1       7.162  -3.120  -4.360  1.00  0.00     0.030 C 
ATOM      5  C   UNL     1       9.737  -4.731  -4.189  1.00  0.00     0.004 C 
ATOM      6  C   UNL     1       6.953  -1.128  -6.411  1.00  0.00     0.013 C 
ATOM      7  C   UNL     1       7.113  -1.656  -3.911  1.00  0.00    -0.063 C 
ATOM      8  C   UNL     1       7.417  -4.223  -3.236  1.00  0.00    -0.003 C 
ATOM      9  C   UNL     1       8.935  -4.358  -2.933  1.00  0.00    -0.011 C 
ATOM     10  C   UNL     1       6.701  -0.598  -4.950  1.00  0.00    -0.006 C 
ATOM     11  C   UNL     1       7.378  -1.273  -2.619  1.00  0.00    -0.027 C 
ATOM     12  C   UNL     1       6.775  -5.573  -3.587  1.00  0.00     0.008 C 
ATOM     13  C   UNL     1       9.253  -5.329  -1.787  1.00  0.00     0.008 C 
ATOM     14  C   UNL     1       5.139  -0.426  -4.839  1.00  0.00     0.017 C 
ATOM     15  C   UNL     1       7.536   0.745  -4.626  1.00  0.00    -0.020 C 
ATOM     16  C   UNL     1       7.512   0.174  -2.141  1.00  0.00     0.032 C 
ATOM     17  C   UNL     1       7.080   1.213  -3.196  1.00  0.00     0.006 C 
ATOM     18  C   UNL     1       7.327   1.926  -5.611  1.00  0.00     0.008 C 
ATOM     19  C   UNL     1       9.062   0.413  -4.639  1.00  0.00     0.012 C 
ATOM     20  C   UNL     1       7.127   2.781  -2.830  1.00  0.00    -0.025 C 
ATOM     21  C   UNL     1       8.208   3.138  -5.233  1.00  0.00     0.005 C 
ATOM     22  C   UNL     1       8.067   3.674  -3.765  1.00  0.00     0.003 C 
ATOM     23  C   UNL     1       7.507   2.990  -1.331  1.00  0.00     0.010 C 
ATOM     24  C   UNL     1       5.648   3.343  -3.001  1.00  0.00     0.012 C 
ATOM     25  C   UNL     1       9.391   4.255  -3.104  1.00  0.00    -0.006 C 
ATOM     26  C   UNL     1       7.802   4.451  -1.000  1.00  0.00     0.033 C 
ATOM     27  C   UNL     1       9.068   4.964  -1.716  1.00  0.00     0.120 C 
ATOM     28  C   UNL     1       9.979   5.343  -4.046  1.00  0.00     0.014 C 
ATOM     29  C   UNL     1      10.526   3.202  -2.920  1.00  0.00     0.014 C 
ENDROOT
BRANCH   1  30
ATOM     30  C   UNL     1       7.545  -4.437  -6.528  1.00  0.00     0.048 C 
ATOM     31  O   UNL     1       6.298  -4.526  -6.750  1.00  0.00    -0.550 OA
ATOM     32  O   UNL     1       8.416  -5.301  -7.198  1.00  0.00    -0.550 OA
ENDBRANCH   1  30
BRANCH  27  33
ATOM     33  O   UNL     1      10.163   4.809  -0.808  1.00  0.00    -0.393 OA
ATOM     34  H   UNL     1      10.229   5.652  -0.276  1.00  0.00     0.210 HD
ENDBRANCH  27  33
TORSDOF 2
ENDMDL
MODEL 6
REMARK VINA RESULT:    -4.515      3.140      5.247
REMARK INTER + INTRA:          -5.061
REMARK INTER:                  -4.913
REMARK INTRA:                  -0.149
REMARK UNBOUND:                -0.151
REMARK SMILES C[C@@H]1[C@H]2C3=CC[C@H]4[C@@]5(C)CC[C@@H](O)C(C)(C)[C@H]5CC[C@]4(C)[C@@]3(C)CC[C@@]2(C(=O)[O-])CC[C@@H]1C
REMARK SMILES IDX 26 1 30 2 25 3 3 4 31 5 24 6 4 7 2 8 32 9 22 10 5 11 1 12
REMARK SMILES IDX 33 13 23 14 20 15 6 16 7 17 19 18 21 19 8 20 18 21 17 22
REMARK SMILES IDX 10 23 9 24 14 25 11 26 12 27 15 28 16 29 27 30 28 31 29 32
REMARK SMILES IDX 13 33
REMARK H PARENT 13 34
REMARK Flexibility Score: inf
ROOT
ATOM      1  C   UNL     1       9.652  -1.827  -2.507  1.00  0.00     0.017 C 
ATOM      2  C   UNL     1       8.304  -2.549  -2.175  1.00  0.00     0.014 C 
ATOM      3  C   UNL     1      10.513  -1.875  -1.194  1.00  0.00     0.014 C 
ATOM      4  C   UNL     1       9.413  -0.334  -3.051  1.00  0.00     0.030 C 
ATOM      5  C   UNL     1       7.231  -2.445  -3.255  1.00  0.00     0.004 C 
ATOM      6  C   UNL     1      11.408  -0.651  -1.015  1.00  0.00     0.013 C 
ATOM      7  C   UNL     1       9.420   0.690  -1.911  1.00  0.00    -0.063 C 
ATOM      8  C   UNL     1       8.223  -0.246  -4.109  1.00  0.00    -0.003 C 
ATOM      9  C   UNL     1       6.955  -0.967  -3.573  1.00  0.00    -0.011 C 
ATOM     10  C   UNL     1      10.647   0.727  -0.982  1.00  0.00    -0.006 C 
ATOM     11  C   UNL     1       8.400   1.591  -1.726  1.00  0.00    -0.027 C 
ATOM     12  C   UNL     1       8.637  -0.757  -5.497  1.00  0.00     0.008 C 
ATOM     13  C   UNL     1       5.734  -0.836  -4.494  1.00  0.00     0.008 C 
ATOM     14  C   UNL     1      11.657   1.770  -1.594  1.00  0.00     0.017 C 
ATOM     15  C   UNL     1      10.120   1.108   0.495  1.00  0.00    -0.020 C 
ATOM     16  C   UNL     1       8.258   2.524  -0.522  1.00  0.00     0.032 C 
ATOM     17  C   UNL     1       9.506   2.552   0.385  1.00  0.00     0.006 C 
ATOM     18  C   UNL     1      11.196   1.124   1.613  1.00  0.00     0.008 C 
ATOM     19  C   UNL     1       9.033   0.076   0.932  1.00  0.00     0.012 C 
ATOM     20  C   UNL     1       9.528   3.515   1.675  1.00  0.00    -0.025 C 
ATOM     21  C   UNL     1      10.574   1.454   2.988  1.00  0.00     0.005 C 
ATOM     22  C   UNL     1       9.734   2.776   3.077  1.00  0.00     0.003 C 
ATOM     23  C   UNL     1       8.247   4.407   1.722  1.00  0.00     0.010 C 
ATOM     24  C   UNL     1      10.760   4.506   1.496  1.00  0.00     0.012 C 
ATOM     25  C   UNL     1       8.487   2.746   4.062  1.00  0.00    -0.006 C 
ATOM     26  C   UNL     1       8.105   5.156   3.046  1.00  0.00     0.033 C 
ATOM     27  C   UNL     1       7.860   4.200   4.230  1.00  0.00     0.120 C 
ATOM     28  C   UNL     1       8.975   2.294   5.468  1.00  0.00     0.014 C 
ATOM     29  C   UNL     1       7.379   1.725   3.656  1.00  0.00     0.014 C 
ENDROOT
BRANCH   1  30
ATOM     30  C   UNL     1      10.431  -2.635  -3.550  1.00  0.00     0.048 C 
ATOM     31  O   UNL     1      11.413  -2.119  -4.167  1.00  0.00    -0.550 OA
ATOM     32  O   UNL     1      10.146  -3.990  -3.742  1.00  0.00    -0.550 OA
ENDBRANCH   1  30
BRANCH  27  33
ATOM     33  O   UNL     1       6.445   4.115   4.425  1.00  0.00    -0.393 OA
ATOM     34  H   UNL     1       6.277   4.170   5.408  1.00  0.00     0.210 HD
ENDBRANCH  27  33
TORSDOF 2
ENDMDL
MODEL 7
REMARK VINA RESULT:    -4.333      7.169     10.155
REMARK INTER + INTRA:          -4.864
REMARK INTER:                  -4.713
REMARK INTRA:                  -0.151
REMARK UNBOUND:                -0.151
REMARK SMILES C[C@@H]1[C@H]2C3=CC[C@H]4[C@@]5(C)CC[C@@H](O)C(C)(C)[C@H]5CC[C@]4(C)[C@@]3(C)CC[C@@]2(C(=O)[O-])CC[C@@H]1C
REMARK SMILES IDX 26 1 30 2 25 3 3 4 31 5 24 6 4 7 2 8 32 9 22 10 5 11 1 12
REMARK SMILES IDX 33 13 23 14 20 15 6 16 7 17 19 18 21 19 8 20 18 21 17 22
REMARK SMILES IDX 10 23 9 24 14 25 11 26 12 27 15 28 16 29 27 30 28 31 29 32
REMARK SMILES IDX 13 33
REMARK H PARENT 13 34
REMARK Flexibility Score: inf
ROOT
ATOM      1  C   UNL     1       6.952   2.613  -4.121  1.00  0.00     0.017 C 
ATOM      2  C   UNL     1       7.028   2.197  -2.615  1.00  0.00     0.014 C 
ATOM      3  C   UNL     1       6.089   3.925  -4.173  1.00  0.00     0.014 C 
ATOM      4  C   UNL     1       6.364   1.434  -5.040  1.00  0.00     0.030 C 
ATOM      5  C   UNL     1       7.656   0.832  -2.352  1.00  0.00     0.004 C 
ATOM      6  C   UNL     1       5.255   4.047  -5.446  1.00  0.00     0.013 C 
ATOM      7  C   UNL     1       4.841   1.534  -5.181  1.00  0.00    -0.063 C 
ATOM      8  C   UNL     1       6.974   0.006  -4.676  1.00  0.00    -0.003 C 
ATOM      9  C   UNL     1       6.904  -0.248  -3.144  1.00  0.00    -0.011 C 
ATOM     10  C   UNL     1       4.251   2.859  -5.696  1.00  0.00    -0.006 C 
ATOM     11  C   UNL     1       4.007   0.478  -4.910  1.00  0.00    -0.027 C 
ATOM     12  C   UNL     1       8.394  -0.179  -5.229  1.00  0.00     0.008 C 
ATOM     13  C   UNL     1       7.380  -1.647  -2.727  1.00  0.00     0.008 C 
ATOM     14  C   UNL     1       4.141   2.737  -7.263  1.00  0.00     0.017 C 
ATOM     15  C   UNL     1       2.836   3.077  -4.951  1.00  0.00    -0.020 C 
ATOM     16  C   UNL     1       2.479   0.553  -4.868  1.00  0.00     0.032 C 
ATOM     17  C   UNL     1       1.914   1.886  -5.401  1.00  0.00     0.006 C 
ATOM     18  C   UNL     1       2.101   4.406  -5.271  1.00  0.00     0.008 C 
ATOM     19  C   UNL     1       3.062   3.049  -3.407  1.00  0.00     0.012 C 
ATOM     20  C   UNL     1       0.319   2.105  -5.458  1.00  0.00    -0.025 C 
ATOM     21  C   UNL     1       0.786   4.529  -4.470  1.00  0.00     0.005 C 
ATOM     22  C   UNL     1      -0.232   3.342  -4.610  1.00  0.00     0.003 C 
ATOM     23  C   UNL     1      -0.435   0.799  -5.053  1.00  0.00     0.010 C 
ATOM     24  C   UNL     1      -0.058   2.389  -6.977  1.00  0.00     0.012 C 
ATOM     25  C   UNL     1      -1.087   3.000  -3.314  1.00  0.00    -0.006 C 
ATOM     26  C   UNL     1      -1.932   1.026  -4.855  1.00  0.00     0.033 C 
ATOM     27  C   UNL     1      -2.226   1.940  -3.649  1.00  0.00     0.120 C 
ATOM     28  C   UNL     1      -1.797   4.296  -2.830  1.00  0.00     0.014 C 
ATOM     29  C   UNL     1      -0.237   2.511  -2.101  1.00  0.00     0.014 C 
ENDROOT
BRANCH   1  30
ATOM     30  C   UNL     1       8.346   3.008  -4.622  1.00  0.00     0.048 C 
ATOM     31  O   UNL     1       8.579   3.124  -5.864  1.00  0.00    -0.550 OA
ATOM     32  O   UNL     1       9.342   3.367  -3.708  1.00  0.00    -0.550 OA
ENDBRANCH   1  30
BRANCH  27  33
ATOM     33  O   UNL     1      -2.470   1.093  -2.521  1.00  0.00    -0.393 OA
ATOM     34  H   UNL     1      -3.185   1.527  -1.974  1.00  0.00     0.210 HD
ENDBRANCH  27  33
TORSDOF 2
ENDMDL
MODEL 8
REMARK VINA RESULT:    -4.252      2.849      4.930
REMARK INTER + INTRA:          -4.776
REMARK INTER:                  -4.628
REMARK INTRA:                  -0.148
REMARK UNBOUND:                -0.151
REMARK SMILES C[C@@H]1[C@H]2C3=CC[C@H]4[C@@]5(C)CC[C@@H](O)C(C)(C)[C@H]5CC[C@]4(C)[C@@]3(C)CC[C@@]2(C(=O)[O-])CC[C@@H]1C
REMARK SMILES IDX 26 1 30 2 25 3 3 4 31 5 24 6 4 7 2 8 32 9 22 10 5 11 1 12
REMARK SMILES IDX 33 13 23 14 20 15 6 16 7 17 19 18 21 19 8 20 18 21 17 22
REMARK SMILES IDX 10 23 9 24 14 25 11 26 12 27 15 28 16 29 27 30 28 31 29 32
REMARK SMILES IDX 13 33
REMARK H PARENT 13 34
REMARK Flexibility Score: inf
ROOT
ATOM      1  C   UNL     1      10.621  -5.488  -1.479  1.00  0.00     0.017 C 
ATOM      2  C   UNL     1      11.819  -5.554  -0.474  1.00  0.00     0.014 C 
ATOM      3  C   UNL     1      11.064  -4.516  -2.631  1.00  0.00     0.014 C 
ATOM      4  C   UNL     1       9.259  -5.033  -0.758  1.00  0.00     0.030 C 
ATOM      5  C   UNL     1      11.530  -6.290   0.830  1.00  0.00     0.004 C 
ATOM      6  C   UNL     1       9.907  -3.714  -3.220  1.00  0.00     0.013 C 
ATOM      7  C   UNL     1       9.075  -3.513  -0.807  1.00  0.00    -0.063 C 
ATOM      8  C   UNL     1       9.034  -5.754   0.647  1.00  0.00    -0.003 C 
ATOM      9  C   UNL     1      10.313  -5.660   1.525  1.00  0.00    -0.011 C 
ATOM     10  C   UNL     1       9.121  -2.826  -2.184  1.00  0.00    -0.006 C 
ATOM     11  C   UNL     1       8.828  -2.765   0.318  1.00  0.00    -0.027 C 
ATOM     12  C   UNL     1       8.547  -7.202   0.489  1.00  0.00     0.008 C 
ATOM     13  C   UNL     1      10.140  -6.243   2.935  1.00  0.00     0.008 C 
ATOM     14  C   UNL     1       7.642  -2.775  -2.724  1.00  0.00     0.017 C 
ATOM     15  C   UNL     1       9.796  -1.375  -1.975  1.00  0.00    -0.020 C 
ATOM     16  C   UNL     1       8.799  -1.237   0.369  1.00  0.00     0.032 C 
ATOM     17  C   UNL     1       8.833  -0.574  -1.024  1.00  0.00     0.006 C 
ATOM     18  C   UNL     1      10.012  -0.537  -3.263  1.00  0.00     0.008 C 
ATOM     19  C   UNL     1      11.200  -1.555  -1.315  1.00  0.00     0.012 C 
ATOM     20  C   UNL     1       8.771   1.031  -1.140  1.00  0.00    -0.025 C 
ATOM     21  C   UNL     1      10.705   0.808  -2.951  1.00  0.00     0.005 C 
ATOM     22  C   UNL     1      10.020   1.714  -1.868  1.00  0.00     0.003 C 
ATOM     23  C   UNL     1       8.546   1.680   0.262  1.00  0.00     0.010 C 
ATOM     24  C   UNL     1       7.487   1.385  -2.011  1.00  0.00     0.012 C 
ATOM     25  C   UNL     1      10.998   2.574  -0.957  1.00  0.00    -0.006 C 
ATOM     26  C   UNL     1       8.724   3.197   0.239  1.00  0.00     0.033 C 
ATOM     27  C   UNL     1      10.179   3.606  -0.063  1.00  0.00     0.120 C 
ATOM     28  C   UNL     1      11.930   3.409  -1.880  1.00  0.00     0.014 C 
ATOM     29  C   UNL     1      11.949   1.723  -0.062  1.00  0.00     0.014 C 
ENDROOT
BRANCH   1  30
ATOM     30  C   UNL     1      10.421  -6.857  -2.138  1.00  0.00     0.048 C 
ATOM     31  O   UNL     1       9.365  -7.111  -2.795  1.00  0.00    -0.550 OA
ATOM     32  O   UNL     1      11.456  -7.797  -2.129  1.00  0.00    -0.550 OA
ENDBRANCH   1  30
BRANCH  27  33
ATOM     33  O   UNL     1      10.834   3.810   1.193  1.00  0.00    -0.393 OA
ATOM     34  H   UNL     1      11.817   3.835   1.014  1.00  0.00     0.210 HD
ENDBRANCH  27  33
TORSDOF 2
ENDMDL
MODEL 9
REMARK VINA RESULT:    -4.225      2.428      8.259
REMARK INTER + INTRA:          -4.746
REMARK INTER:                  -4.600
REMARK INTRA:                  -0.146
REMARK UNBOUND:                -0.151
REMARK SMILES C[C@@H]1[C@H]2C3=CC[C@H]4[C@@]5(C)CC[C@@H](O)C(C)(C)[C@H]5CC[C@]4(C)[C@@]3(C)CC[C@@]2(C(=O)[O-])CC[C@@H]1C
REMARK SMILES IDX 26 1 30 2 25 3 3 4 31 5 24 6 4 7 2 8 32 9 22 10 5 11 1 12
REMARK SMILES IDX 33 13 23 14 20 15 6 16 7 17 19 18 21 19 8 20 18 21 17 22
REMARK SMILES IDX 10 23 9 24 14 25 11 26 12 27 15 28 16 29 27 30 28 31 29 32
REMARK SMILES IDX 13 33
REMARK H PARENT 13 34
REMARK Flexibility Score: inf
ROOT
ATOM      1  C   UNL     1      10.617   1.597  -0.530  1.00  0.00     0.017 C 
ATOM      2  C   UNL     1      10.726   2.741  -1.592  1.00  0.00     0.014 C 
ATOM      3  C   UNL     1      11.514   0.420  -1.058  1.00  0.00     0.014 C 
ATOM      4  C   UNL     1       9.092   1.162  -0.272  1.00  0.00     0.030 C 
ATOM      5  C   UNL     1       9.773   3.913  -1.380  1.00  0.00     0.004 C 
ATOM      6  C   UNL     1      10.976  -0.960  -0.686  1.00  0.00     0.013 C 
ATOM      7  C   UNL     1       8.667   0.019  -1.199  1.00  0.00    -0.063 C 
ATOM      8  C   UNL     1       8.108   2.411  -0.147  1.00  0.00    -0.003 C 
ATOM      9  C   UNL     1       8.325   3.403  -1.324  1.00  0.00    -0.011 C 
ATOM     10  C   UNL     1       9.519  -1.263  -1.200  1.00  0.00    -0.006 C 
ATOM     11  C   UNL     1       7.539   0.087  -1.980  1.00  0.00    -0.027 C 
ATOM     12  C   UNL     1       8.214   3.103   1.220  1.00  0.00     0.008 C 
ATOM     13  C   UNL     1       7.341   4.581  -1.328  1.00  0.00     0.008 C 
ATOM     14  C   UNL     1       8.896  -2.232  -0.125  1.00  0.00     0.017 C 
ATOM     15  C   UNL     1       9.502  -1.849  -2.704  1.00  0.00    -0.020 C 
ATOM     16  C   UNL     1       7.145  -0.937  -3.046  1.00  0.00     0.032 C 
ATOM     17  C   UNL     1       8.006  -2.217  -3.017  1.00  0.00     0.006 C 
ATOM     18  C   UNL     1      10.372  -3.110  -2.947  1.00  0.00     0.008 C 
ATOM     19  C   UNL     1      10.018  -0.750  -3.686  1.00  0.00     0.012 C 
ATOM     20  C   UNL     1       7.690  -3.409  -4.053  1.00  0.00    -0.025 C 
ATOM     21  C   UNL     1      10.319  -3.555  -4.426  1.00  0.00     0.005 C 
ATOM     22  C   UNL     1       8.891  -3.801  -5.032  1.00  0.00     0.003 C 
ATOM     23  C   UNL     1       6.404  -3.097  -4.882  1.00  0.00     0.010 C 
ATOM     24  C   UNL     1       7.365  -4.704  -3.188  1.00  0.00     0.012 C 
ATOM     25  C   UNL     1       8.713  -3.436  -6.568  1.00  0.00    -0.006 C 
ATOM     26  C   UNL     1       6.203  -4.073  -6.039  1.00  0.00     0.033 C 
ATOM     27  C   UNL     1       7.302  -3.937  -7.110  1.00  0.00     0.120 C 
ATOM     28  C   UNL     1       9.807  -4.180  -7.386  1.00  0.00     0.014 C 
ATOM     29  C   UNL     1       8.908  -1.923  -6.891  1.00  0.00     0.014 C 
ENDROOT
BRANCH   1  30
ATOM     30  C   UNL     1      11.253   2.051   0.789  1.00  0.00     0.048 C 
ATOM     31  O   UNL     1      11.089   1.377   1.852  1.00  0.00    -0.550 OA
ATOM     32  O   UNL     1      12.124   3.144   0.807  1.00  0.00    -0.550 OA
ENDBRANCH   1  30
BRANCH  27  33
ATOM     33  O   UNL     1       6.809  -3.048  -8.118  1.00  0.00    -0.393 OA
ATOM     34  H   UNL     1       7.439  -2.274  -8.165  1.00  0.00     0.210 HD
ENDBRANCH  27  33
TORSDOF 2
ENDMDL
