MODEL 1
REMARK VINA RESULT:    -3.582      0.000      0.000
REMARK INTER + INTRA:          -4.911
REMARK INTER:                  -5.048
REMARK INTRA:                   0.137
REMARK UNBOUND:                 0.137
REMARK SMILES CC1=CCC(=C(C)C)C(=O)CC(C)=CCC1
REMARK SMILES IDX 12 1 14 2 13 3 15 4 16 5 2 6 1 7 3 8 11 10 9 11 10 12 5 13
REMARK SMILES IDX 6 14 7 15 8 16 4 17
REMARK H PARENT
REMARK Flexibility Score: 60.00
ROOT
ATOM      1  C   UNL     1      86.639  36.882  24.311  1.00  0.00    -0.070 C 
ATOM      2  C   UNL     1      85.519  37.148  23.602  1.00  0.00    -0.027 C 
ATOM      3  C   UNL     1      87.568  35.814  23.789  1.00  0.00     0.039 C 
ENDROOT
BRANCH   2   4
ATOM      4  C   UNL     1      84.423  38.109  24.010  1.00  0.00     0.032 C 
BRANCH   4   5
ATOM      5  C   UNL     1      83.348  37.509  24.938  1.00  0.00     0.034 C 
BRANCH   5   6
ATOM      6  C   UNL     1      82.939  38.445  26.062  1.00  0.00    -0.077 C 
ATOM      7  C   UNL     1      82.110  39.652  25.702  1.00  0.00     0.039 C 
ATOM      8  C   UNL     1      83.326  38.303  27.353  1.00  0.00    -0.023 CG0
ATOM      9  G   UNL     1      84.137  37.168  27.945  1.00  0.00     0.000 G0
ENDBRANCH   5   6
ENDBRANCH   4   5
ENDBRANCH   2   4
BRANCH   1  10
ATOM     10  C   UNL     1      86.958  37.536  25.640  1.00  0.00     0.111 C 
BRANCH  10  11
ATOM     11  C   UNL     1      86.396  36.751  26.795  1.00  0.00     0.163 C 
ATOM     12  O   UNL     1      86.527  35.497  26.781  1.00  0.00    -0.294 OA
BRANCH  11  13
ATOM     13  C   UNL     1      85.642  37.395  27.911  1.00  0.00    -0.002 C 
ATOM     14  C   UNL     1      86.298  38.090  28.889  1.00  0.00    -0.069 C 
ATOM     15  C   UNL     1      85.583  38.617  30.114  1.00  0.00     0.039 C 
ATOM     16  C   UNL     1      87.783  38.364  28.795  1.00  0.00     0.039 C 
BRANCH  13  17
ATOM     17  C   UNL     1      84.139  37.164  27.961  1.00  0.00     0.066 CG0
ATOM     18  G   UNL     1      83.360  38.311  27.352  1.00  0.00     0.000 G0
ENDBRANCH  13  17
ENDBRANCH  11  13
ENDBRANCH  10  11
ENDBRANCH   1  10
TORSDOF 0
ENDMDL
MODEL 2
REMARK VINA RESULT:    -3.484      2.702      5.436
REMARK INTER + INTRA:          -4.772
REMARK INTER:                  -5.125
REMARK INTRA:                   0.352
REMARK UNBOUND:                 0.137
REMARK SMILES CC1=CCC(=C(C)C)C(=O)CC(C)=CCC1
REMARK SMILES IDX 12 1 14 2 13 3 15 4 16 5 2 6 1 7 3 8 11 10 9 11 10 12 5 13
REMARK SMILES IDX 6 14 7 15 8 16 4 17
REMARK H PARENT
REMARK Flexibility Score: 60.00
ROOT
ATOM      1  C   UNL     1      86.673  37.301  29.095  1.00  0.00    -0.070 C 
ATOM      2  C   UNL     1      86.644  36.112  29.737  1.00  0.00    -0.027 C 
ATOM      3  C   UNL     1      86.035  38.486  29.775  1.00  0.00     0.039 C 
ENDROOT
BRANCH   2   4
ATOM      4  C   UNL     1      87.142  34.795  29.182  1.00  0.00     0.032 C 
BRANCH   4   5
ATOM      5  C   UNL     1      86.095  33.992  28.384  1.00  0.00     0.034 C 
BRANCH   5   6
ATOM      6  C   UNL     1      86.683  33.264  27.189  1.00  0.00    -0.077 C 
ATOM      7  C   UNL     1      87.490  32.018  27.454  1.00  0.00     0.039 C 
ATOM      8  C   UNL     1      86.589  33.698  25.907  1.00  0.00    -0.023 CG0
ATOM      9  G   UNL     1      85.820  34.902  25.404  1.00  0.00     0.000 G0
ENDBRANCH   5   6
ENDBRANCH   4   5
ENDBRANCH   2   4
BRANCH   1  10
ATOM     10  C   UNL     1      87.231  37.478  27.698  1.00  0.00     0.111 C 
BRANCH  10  11
ATOM     11  C   UNL     1      86.227  37.091  26.645  1.00  0.00     0.163 C 
ATOM     12  O   UNL     1      85.043  37.505  26.773  1.00  0.00    -0.294 OA
BRANCH  11  13
ATOM     13  C   UNL     1      86.569  36.193  25.502  1.00  0.00    -0.002 C 
ATOM     14  C   UNL     1      87.476  36.580  24.555  1.00  0.00    -0.069 C 
ATOM     15  C   UNL     1      87.726  35.765  23.305  1.00  0.00     0.039 C 
ATOM     16  C   UNL     1      88.278  37.853  24.712  1.00  0.00     0.039 C 
BRANCH  13  17
ATOM     17  C   UNL     1      85.799  34.886  25.391  1.00  0.00     0.066 CG0
ATOM     18  G   UNL     1      86.588  33.706  25.920  1.00  0.00     0.000 G0
ENDBRANCH  13  17
ENDBRANCH  11  13
ENDBRANCH  10  11
ENDBRANCH   1  10
TORSDOF 0
ENDMDL
MODEL 3
REMARK VINA RESULT:    -3.468      2.173      3.241
REMARK INTER + INTRA:          -4.750
REMARK INTER:                  -4.945
REMARK INTRA:                   0.195
REMARK UNBOUND:                 0.137
REMARK SMILES CC1=CCC(=C(C)C)C(=O)CC(C)=CCC1
REMARK SMILES IDX 12 1 14 2 13 3 15 4 16 5 2 6 1 7 3 8 11 10 9 11 10 12 5 13
REMARK SMILES IDX 6 14 7 15 8 16 4 17
REMARK H PARENT
REMARK Flexibility Score: 60.00
ROOT
ATOM      1  C   UNL     1      89.242  38.803  26.411  1.00  0.00    -0.070 C 
ATOM      2  C   UNL     1      88.911  38.136  25.283  1.00  0.00    -0.027 C 
ATOM      3  C   UNL     1      90.704  38.899  26.770  1.00  0.00     0.039 C 
ENDROOT
BRANCH   2   4
ATOM      4  C   UNL     1      87.502  37.850  24.807  1.00  0.00     0.032 C 
BRANCH   4   5
ATOM      5  C   UNL     1      87.010  36.413  25.070  1.00  0.00     0.034 C 
BRANCH   5   6
ATOM      6  C   UNL     1      85.643  36.361  25.729  1.00  0.00    -0.077 C 
ATOM      7  C   UNL     1      84.432  36.336  24.831  1.00  0.00     0.039 C 
ATOM      8  C   UNL     1      85.438  36.403  27.069  1.00  0.00    -0.023 CG0
ATOM      9  G   UNL     1      86.494  36.411  28.155  1.00  0.00     0.000 G0
ENDBRANCH   5   6
ENDBRANCH   4   5
ENDBRANCH   2   4
BRANCH   1  10
ATOM     10  C   UNL     1      88.219  39.374  27.371  1.00  0.00     0.111 C 
BRANCH  10  11
ATOM     11  C   UNL     1      87.987  38.461  28.545  1.00  0.00     0.163 C 
ATOM     12  O   UNL     1      88.958  38.220  29.312  1.00  0.00    -0.294 OA
BRANCH  11  13
ATOM     13  C   UNL     1      86.676  37.789  28.792  1.00  0.00    -0.002 C 
ATOM     14  C   UNL     1      85.738  38.364  29.604  1.00  0.00    -0.069 C 
ATOM     15  C   UNL     1      84.470  37.639  29.999  1.00  0.00     0.039 C 
ATOM     16  C   UNL     1      85.925  39.761  30.152  1.00  0.00     0.039 C 
BRANCH  13  17
ATOM     17  C   UNL     1      86.475  36.410  28.182  1.00  0.00     0.066 CG0
ATOM     18  G   UNL     1      85.448  36.416  27.070  1.00  0.00     0.000 G0
ENDBRANCH  13  17
ENDBRANCH  11  13
ENDBRANCH  10  11
ENDBRANCH   1  10
TORSDOF 0
ENDMDL
MODEL 4
REMARK VINA RESULT:    -3.394      2.803      5.055
REMARK INTER + INTRA:          -4.646
REMARK INTER:                  -5.036
REMARK INTRA:                   0.390
REMARK UNBOUND:                 0.137
REMARK SMILES CC1=CCC(=C(C)C)C(=O)CC(C)=CCC1
REMARK SMILES IDX 12 1 14 2 13 3 15 4 16 5 2 6 1 7 3 8 11 10 9 11 10 12 5 13
REMARK SMILES IDX 6 14 7 15 8 16 4 17
REMARK H PARENT
REMARK Flexibility Score: 60.00
ROOT
ATOM      1  C   UNL     1      87.201  37.484  25.237  1.00  0.00    -0.070 C 
ATOM      2  C   UNL     1      87.477  37.665  26.548  1.00  0.00    -0.027 C 
ATOM      3  C   UNL     1      88.268  37.844  24.235  1.00  0.00     0.039 C 
ENDROOT
BRANCH   2   4
ATOM      4  C   UNL     1      86.509  37.455  27.692  1.00  0.00     0.032 C 
BRANCH   4   5
ATOM      5  C   UNL     1      85.598  36.219  27.551  1.00  0.00     0.034 C 
BRANCH   5   6
ATOM      6  C   UNL     1      86.333  34.908  27.770  1.00  0.00    -0.077 C 
ATOM      7  C   UNL     1      87.107  34.744  29.054  1.00  0.00     0.039 C 
ATOM      8  C   UNL     1      86.394  33.905  26.860  1.00  0.00    -0.023 CG0
ATOM      9  G   UNL     1      85.686  33.840  25.522  1.00  0.00     0.000 G0
ENDBRANCH   5   6
ENDBRANCH   4   5
ENDBRANCH   2   4
BRANCH   1  10
ATOM     10  C   UNL     1      85.850  37.026  24.728  1.00  0.00     0.111 C 
BRANCH  10  11
ATOM     11  C   UNL     1      85.967  35.797  23.867  1.00  0.00     0.163 C 
ATOM     12  O   UNL     1      85.553  35.862  22.678  1.00  0.00    -0.294 OA
BRANCH  11  13
ATOM     13  C   UNL     1      86.495  34.500  24.388  1.00  0.00    -0.002 C 
ATOM     14  C   UNL     1      87.594  33.916  23.824  1.00  0.00    -0.069 C 
ATOM     15  C   UNL     1      88.058  32.531  24.223  1.00  0.00     0.039 C 
ATOM     16  C   UNL     1      88.405  34.628  22.765  1.00  0.00     0.039 C 
BRANCH  13  17
ATOM     17  C   UNL     1      85.705  33.824  25.497  1.00  0.00     0.066 CG0
ATOM     18  G   UNL     1      86.404  33.912  26.838  1.00  0.00     0.000 G0
ENDBRANCH  13  17
ENDBRANCH  11  13
ENDBRANCH  10  11
ENDBRANCH   1  10
TORSDOF 0
ENDMDL
MODEL 5
REMARK VINA RESULT:    -3.386      2.403      3.942
REMARK INTER + INTRA:          -4.635
REMARK INTER:                  -4.825
REMARK INTRA:                   0.190
REMARK UNBOUND:                 0.137
REMARK SMILES CC1=CCC(=C(C)C)C(=O)CC(C)=CCC1
REMARK SMILES IDX 12 1 14 2 13 3 15 4 16 5 2 6 1 7 3 8 11 10 9 11 10 12 5 13
REMARK SMILES IDX 6 14 7 15 8 16 4 17
REMARK H PARENT
REMARK Flexibility Score: 60.00
ROOT
ATOM      1  C   UNL     1      86.268  36.350  24.341  1.00  0.00    -0.070 C 
ATOM      2  C   UNL     1      87.255  37.178  23.932  1.00  0.00    -0.027 C 
ATOM      3  C   UNL     1      85.032  36.247  23.484  1.00  0.00     0.039 C 
ENDROOT
BRANCH   2   4
ATOM      4  C   UNL     1      88.523  37.488  24.699  1.00  0.00     0.032 C 
BRANCH   4   5
ATOM      5  C   UNL     1      88.485  38.800  25.508  1.00  0.00     0.034 C 
BRANCH   5   6
ATOM      6  C   UNL     1      89.077  38.661  26.900  1.00  0.00    -0.077 C 
ATOM      7  C   UNL     1      90.572  38.794  27.042  1.00  0.00     0.039 C 
ATOM      8  C   UNL     1      88.358  38.358  28.009  1.00  0.00    -0.023 CG0
ATOM      9  G   UNL     1      86.855  38.198  28.109  1.00  0.00     0.000 G0
ENDBRANCH   5   6
ENDBRANCH   4   5
ENDBRANCH   2   4
BRANCH   1  10
ATOM     10  C   UNL     1      86.306  35.596  25.655  1.00  0.00     0.111 C 
BRANCH  10  11
ATOM     11  C   UNL     1      85.651  36.376  26.763  1.00  0.00     0.163 C 
ATOM     12  O   UNL     1      84.459  36.755  26.599  1.00  0.00    -0.294 OA
BRANCH  11  13
ATOM     13  C   UNL     1      86.377  36.763  28.009  1.00  0.00    -0.002 C 
ATOM     14  C   UNL     1      86.536  35.871  29.032  1.00  0.00    -0.069 C 
ATOM     15  C   UNL     1      87.125  36.278  30.365  1.00  0.00     0.039 C 
ATOM     16  C   UNL     1      86.126  34.423  28.881  1.00  0.00     0.039 C 
BRANCH  13  17
ATOM     17  C   UNL     1      86.840  38.207  28.122  1.00  0.00     0.066 CG0
ATOM     18  G   UNL     1      88.342  38.343  27.986  1.00  0.00     0.000 G0
ENDBRANCH  13  17
ENDBRANCH  11  13
ENDBRANCH  10  11
ENDBRANCH   1  10
TORSDOF 0
ENDMDL
MODEL 6
REMARK VINA RESULT:    -3.361      2.431      4.800
REMARK INTER + INTRA:          -4.599
REMARK INTER:                  -4.793
REMARK INTRA:                   0.194
REMARK UNBOUND:                 0.137
REMARK SMILES CC1=CCC(=C(C)C)C(=O)CC(C)=CCC1
REMARK SMILES IDX 12 1 14 2 13 3 15 4 16 5 2 6 1 7 3 8 11 10 9 11 10 12 5 13
REMARK SMILES IDX 6 14 7 15 8 16 4 17
REMARK H PARENT
REMARK Flexibility Score: 60.00
ROOT
ATOM      1  C   UNL     1      87.726  38.261  28.363  1.00  0.00    -0.070 C 
ATOM      2  C   UNL     1      88.496  38.841  27.415  1.00  0.00    -0.027 C 
ATOM      3  C   UNL     1      87.410  39.062  29.602  1.00  0.00     0.039 C 
ENDROOT
BRANCH   2   4
ATOM      4  C   UNL     1      88.999  38.170  26.154  1.00  0.00     0.032 C 
BRANCH   4   5
ATOM      5  C   UNL     1      87.985  38.133  24.993  1.00  0.00     0.034 C 
BRANCH   5   6
ATOM      6  C   UNL     1      87.867  36.764  24.347  1.00  0.00    -0.077 C 
ATOM      7  C   UNL     1      89.034  36.273  23.527  1.00  0.00     0.039 C 
ATOM      8  C   UNL     1      86.758  35.985  24.402  1.00  0.00    -0.023 CG0
ATOM      9  G   UNL     1      85.485  36.262  25.174  1.00  0.00     0.000 G0
ENDBRANCH   5   6
ENDBRANCH   4   5
ENDBRANCH   2   4
BRANCH   1  10
ATOM     10  C   UNL     1      87.246  36.827  28.283  1.00  0.00     0.111 C 
BRANCH  10  11
ATOM     11  C   UNL     1      85.873  36.733  27.674  1.00  0.00     0.163 C 
ATOM     12  O   UNL     1      84.971  37.493  28.121  1.00  0.00    -0.294 OA
BRANCH  11  13
ATOM     13  C   UNL     1      85.532  35.738  26.614  1.00  0.00    -0.002 C 
ATOM     14  C   UNL     1      85.376  34.415  26.920  1.00  0.00    -0.069 C 
ATOM     15  C   UNL     1      85.188  33.362  25.850  1.00  0.00     0.039 C 
ATOM     16  C   UNL     1      85.387  33.935  28.355  1.00  0.00     0.039 C 
BRANCH  13  17
ATOM     17  C   UNL     1      85.461  36.245  25.182  1.00  0.00     0.066 CG0
ATOM     18  G   UNL     1      86.739  35.978  24.413  1.00  0.00     0.000 G0
ENDBRANCH  13  17
ENDBRANCH  11  13
ENDBRANCH  10  11
ENDBRANCH   1  10
TORSDOF 0
ENDMDL
MODEL 7
REMARK VINA RESULT:    -3.109      2.736      4.948
REMARK INTER + INTRA:          -4.244
REMARK INTER:                  -4.488
REMARK INTRA:                   0.244
REMARK UNBOUND:                 0.137
REMARK SMILES CC1=CCC(=C(C)C)C(=O)CC(C)=CCC1
REMARK SMILES IDX 12 1 14 2 13 3 15 4 16 5 2 6 1 7 3 8 11 10 9 11 10 12 5 13
REMARK SMILES IDX 6 14 7 15 8 16 4 17
REMARK H PARENT
REMARK Flexibility Score: 60.00
ROOT
ATOM      1  C   UNL     1      86.855  37.322  24.892  1.00  0.00    -0.070 C 
ATOM      2  C   UNL     1      86.624  37.115  26.208  1.00  0.00    -0.027 C 
ATOM      3  C   UNL     1      88.282  37.527  24.450  1.00  0.00     0.039 C 
ENDROOT
BRANCH   2   4
ATOM      4  C   UNL     1      85.263  36.986  26.857  1.00  0.00     0.032 C 
BRANCH   4   5
ATOM      5  C   UNL     1      84.562  35.631  26.626  1.00  0.00     0.034 C 
BRANCH   5   6
ATOM      6  C   UNL     1      83.170  35.771  26.037  1.00  0.00    -0.077 C 
ATOM      7  C   UNL     1      82.111  36.425  26.888  1.00  0.00     0.039 C 
ATOM      8  C   UNL     1      82.801  35.288  24.825  1.00  0.00    -0.023 CG0
ATOM      9  G   UNL     1      83.691  34.618  23.799  1.00  0.00     0.000 G0
ENDBRANCH   5   6
ENDBRANCH   4   5
ENDBRANCH   2   4
BRANCH   1  10
ATOM     10  C   UNL     1      85.750  37.447  23.864  1.00  0.00     0.111 C 
BRANCH  10  11
ATOM     11  C   UNL     1      85.585  36.181  23.067  1.00  0.00     0.163 C 
ATOM     12  O   UNL     1      86.620  35.640  22.589  1.00  0.00    -0.294 OA
BRANCH  11  13
ATOM     13  C   UNL     1      84.247  35.585  22.776  1.00  0.00    -0.002 C 
ATOM     14  C   UNL     1      83.532  35.975  21.678  1.00  0.00    -0.069 C 
ATOM     15  C   UNL     1      82.111  35.509  21.442  1.00  0.00     0.039 C 
ATOM     16  C   UNL     1      84.129  36.899  20.641  1.00  0.00     0.039 C 
BRANCH  13  17
ATOM     17  C   UNL     1      83.685  34.607  23.797  1.00  0.00     0.066 CG0
ATOM     18  G   UNL     1      82.802  35.289  24.821  1.00  0.00     0.000 G0
ENDBRANCH  13  17
ENDBRANCH  11  13
ENDBRANCH  10  11
ENDBRANCH   1  10
TORSDOF 0
ENDMDL
MODEL 8
REMARK VINA RESULT:    -3.035      2.765      4.137
REMARK INTER + INTRA:          -4.140
REMARK INTER:                  -4.774
REMARK INTRA:                   0.634
REMARK UNBOUND:                 0.137
REMARK SMILES CC1=CCC(=C(C)C)C(=O)CC(C)=CCC1
REMARK SMILES IDX 12 1 14 2 13 3 15 4 16 5 2 6 1 7 3 8 11 10 9 11 10 12 5 13
REMARK SMILES IDX 6 14 7 15 8 16 4 17
REMARK H PARENT
REMARK Flexibility Score: 60.00
ROOT
ATOM      1  C   UNL     1      87.269  38.110  28.871  1.00  0.00    -0.070 C 
ATOM      2  C   UNL     1      86.699  39.039  29.671  1.00  0.00    -0.027 C 
ATOM      3  C   UNL     1      88.246  38.584  27.824  1.00  0.00     0.039 C 
ENDROOT
BRANCH   2   4
ATOM      4  C   UNL     1      85.630  38.775  30.710  1.00  0.00     0.032 C 
BRANCH   4   5
ATOM      5  C   UNL     1      84.358  39.634  30.562  1.00  0.00     0.034 C 
BRANCH   5   6
ATOM      6  C   UNL     1      83.549  39.295  29.323  1.00  0.00    -0.077 C 
ATOM      7  C   UNL     1      83.003  40.440  28.507  1.00  0.00     0.039 C 
ATOM      8  C   UNL     1      83.229  38.034  28.939  1.00  0.00    -0.023 CG0
ATOM      9  G   UNL     1      83.678  36.741  29.587  1.00  0.00     0.000 G0
ENDBRANCH   5   6
ENDBRANCH   4   5
ENDBRANCH   2   4
BRANCH   1  10
ATOM     10  C   UNL     1      86.906  36.640  28.914  1.00  0.00     0.111 C 
BRANCH  10  11
ATOM     11  C   UNL     1      85.701  36.339  28.064  1.00  0.00     0.163 C 
ATOM     12  O   UNL     1      85.769  36.583  26.829  1.00  0.00    -0.294 OA
BRANCH  11  13
ATOM     13  C   UNL     1      84.422  35.825  28.639  1.00  0.00    -0.002 C 
ATOM     14  C   UNL     1      83.916  34.616  28.249  1.00  0.00    -0.069 C 
ATOM     15  C   UNL     1      82.549  34.140  28.692  1.00  0.00     0.039 C 
ATOM     16  C   UNL     1      84.702  33.690  27.348  1.00  0.00     0.039 C 
BRANCH  13  17
ATOM     17  C   UNL     1      83.672  36.740  29.594  1.00  0.00     0.066 CG0
ATOM     18  G   UNL     1      83.221  38.023  28.928  1.00  0.00     0.000 G0
ENDBRANCH  13  17
ENDBRANCH  11  13
ENDBRANCH  10  11
ENDBRANCH   1  10
TORSDOF 0
ENDMDL
MODEL 9
REMARK VINA RESULT:    -3.009      1.621      4.111
REMARK INTER + INTRA:          -4.103
REMARK INTER:                  -4.305
REMARK INTRA:                   0.202
REMARK UNBOUND:                 0.137
REMARK SMILES CC1=CCC(=C(C)C)C(=O)CC(C)=CCC1
REMARK SMILES IDX 12 1 14 2 13 3 15 4 16 5 2 6 1 7 3 8 11 10 9 11 10 12 5 13
REMARK SMILES IDX 6 14 7 15 8 16 4 17
REMARK H PARENT
REMARK Flexibility Score: 60.00
ROOT
ATOM      1  C   UNL     1      87.578  37.896  28.185  1.00  0.00    -0.070 C 
ATOM      2  C   UNL     1      86.870  38.399  29.221  1.00  0.00    -0.027 C 
ATOM      3  C   UNL     1      88.823  38.630  27.757  1.00  0.00     0.039 C 
ENDROOT
BRANCH   2   4
ATOM      4  C   UNL     1      85.550  37.864  29.733  1.00  0.00     0.032 C 
BRANCH   4   5
ATOM      5  C   UNL     1      84.307  38.385  28.984  1.00  0.00     0.034 C 
BRANCH   5   6
ATOM      6  C   UNL     1      83.399  37.273  28.487  1.00  0.00    -0.077 C 
ATOM      7  C   UNL     1      82.585  36.523  29.511  1.00  0.00     0.039 C 
ATOM      8  C   UNL     1      83.324  36.867  27.196  1.00  0.00    -0.023 CG0
ATOM      9  G   UNL     1      84.030  37.479  26.003  1.00  0.00     0.000 G0
ENDBRANCH   5   6
ENDBRANCH   4   5
ENDBRANCH   2   4
BRANCH   1  10
ATOM     10  C   UNL     1      87.133  36.690  27.382  1.00  0.00     0.111 C 
BRANCH  10  11
ATOM     11  C   UNL     1      86.586  37.088  26.037  1.00  0.00     0.163 C 
ATOM     12  O   UNL     1      87.276  37.863  25.321  1.00  0.00    -0.294 OA
BRANCH  11  13
ATOM     13  C   UNL     1      85.241  36.651  25.557  1.00  0.00    -0.002 C 
ATOM     14  C   UNL     1      85.116  35.606  24.684  1.00  0.00    -0.069 C 
ATOM     15  C   UNL     1      83.788  35.241  24.058  1.00  0.00     0.039 C 
ATOM     16  C   UNL     1      86.309  34.760  24.297  1.00  0.00     0.039 C 
BRANCH  13  17
ATOM     17  C   UNL     1      84.042  37.473  26.004  1.00  0.00     0.066 CG0
ATOM     18  G   UNL     1      83.337  36.861  27.197  1.00  0.00     0.000 G0
ENDBRANCH  13  17
ENDBRANCH  11  13
ENDBRANCH  10  11
ENDBRANCH   1  10
TORSDOF 0
ENDMDL
