MODEL 1
REMARK VINA RESULT:    -5.206      0.000      0.000
REMARK INTER + INTRA:          -5.900
REMARK INTER:                  -5.815
REMARK INTRA:                  -0.086
REMARK UNBOUND:                -0.086
REMARK SMILES CCc1ccc(O)cc1O
REMARK SMILES IDX 3 1 9 2 8 3 6 4 5 5 4 6 2 7 1 8 10 9 7 11
REMARK H PARENT 10 10 7 12
REMARK Flexibility Score: inf
ROOT
ATOM      1  C   UNL     1       7.370 -11.986  -1.621  1.00  0.00    -0.006 A 
ATOM      2  C   UNL     1       8.143 -11.694  -0.480  1.00  0.00     0.122 A 
ATOM      3  C   UNL     1       8.150 -10.393   0.044  1.00  0.00     0.092 A 
ATOM      4  C   UNL     1       7.387  -9.386  -0.551  1.00  0.00     0.119 A 
ATOM      5  C   UNL     1       6.606  -9.679  -1.676  1.00  0.00     0.047 A 
ATOM      6  C   UNL     1       6.594 -10.972  -2.206  1.00  0.00     0.011 A 
ENDROOT
BRANCH   1   7
ATOM      7  C   UNL     1       7.320 -13.383  -2.187  1.00  0.00     0.036 C 
ATOM      8  C   UNL     1       7.224 -13.348  -3.709  1.00  0.00     0.009 C 
ENDBRANCH   1   7
BRANCH   2   9
ATOM      9  O   UNL     1       8.900 -12.695   0.131  1.00  0.00    -0.508 OA
ATOM     10  H   UNL     1       9.881 -12.827  -0.086  1.00  0.00     0.293 HD
ENDBRANCH   2   9
BRANCH   4  11
ATOM     11  O   UNL     1       7.406  -8.100  -0.016  1.00  0.00    -0.508 OA
ATOM     12  H   UNL     1       6.718  -7.405  -0.282  1.00  0.00     0.293 HD
ENDBRANCH   4  11
TORSDOF 3
ENDMDL
MODEL 2
REMARK VINA RESULT:    -5.114      1.709      3.342
REMARK INTER + INTRA:          -5.798
REMARK INTER:                  -5.695
REMARK INTRA:                  -0.103
REMARK UNBOUND:                -0.086
REMARK SMILES CCc1ccc(O)cc1O
REMARK SMILES IDX 3 1 9 2 8 3 6 4 5 5 4 6 2 7 1 8 10 9 7 11
REMARK H PARENT 10 10 7 12
REMARK Flexibility Score: inf
ROOT
ATOM      1  C   UNL     1       6.669 -12.537  -3.257  1.00  0.00    -0.006 A 
ATOM      2  C   UNL     1       6.749 -11.382  -2.452  1.00  0.00     0.122 A 
ATOM      3  C   UNL     1       7.467 -11.419  -1.248  1.00  0.00     0.092 A 
ATOM      4  C   UNL     1       8.112 -12.591  -0.844  1.00  0.00     0.119 A 
ATOM      5  C   UNL     1       8.046 -13.734  -1.650  1.00  0.00     0.047 A 
ATOM      6  C   UNL     1       7.332 -13.706  -2.851  1.00  0.00     0.011 A 
ENDROOT
BRANCH   1   7
ATOM      7  C   UNL     1       5.930 -12.516  -4.571  1.00  0.00     0.036 C 
ATOM      8  C   UNL     1       4.572 -13.197  -4.439  1.00  0.00     0.009 C 
ENDBRANCH   1   7
BRANCH   2   9
ATOM      9  O   UNL     1       6.119 -10.202  -2.851  1.00  0.00    -0.508 OA
ATOM     10  H   UNL     1       6.519  -9.293  -2.653  1.00  0.00     0.293 HD
ENDBRANCH   2   9
BRANCH   4  11
ATOM     11  O   UNL     1       8.821 -12.608   0.356  1.00  0.00    -0.508 OA
ATOM     12  H   UNL     1       9.720 -12.150   0.446  1.00  0.00     0.293 HD
ENDBRANCH   4  11
TORSDOF 3
ENDMDL
MODEL 3
REMARK VINA RESULT:    -5.045      1.981      4.161
REMARK INTER + INTRA:          -5.720
REMARK INTER:                  -5.620
REMARK INTRA:                  -0.100
REMARK UNBOUND:                -0.086
REMARK SMILES CCc1ccc(O)cc1O
REMARK SMILES IDX 3 1 9 2 8 3 6 4 5 5 4 6 2 7 1 8 10 9 7 11
REMARK H PARENT 10 10 7 12
REMARK Flexibility Score: inf
ROOT
ATOM      1  C   UNL     1       7.849 -11.506  -0.899  1.00  0.00    -0.006 A 
ATOM      2  C   UNL     1       7.347 -10.799  -2.010  1.00  0.00     0.122 A 
ATOM      3  C   UNL     1       6.960 -11.497  -3.163  1.00  0.00     0.092 A 
ATOM      4  C   UNL     1       7.057 -12.890  -3.214  1.00  0.00     0.119 A 
ATOM      5  C   UNL     1       7.542 -13.594  -2.105  1.00  0.00     0.047 A 
ATOM      6  C   UNL     1       7.932 -12.907  -0.953  1.00  0.00     0.011 A 
ENDROOT
BRANCH   1   7
ATOM      7  C   UNL     1       8.244 -10.784   0.365  1.00  0.00     0.036 C 
ATOM      8  C   UNL     1       9.761 -10.766   0.526  1.00  0.00     0.009 C 
ENDBRANCH   1   7
BRANCH   2   9
ATOM      9  O   UNL     1       7.232  -9.410  -1.966  1.00  0.00    -0.508 OA
ATOM     10  H   UNL     1       8.044  -8.807  -2.031  1.00  0.00     0.293 HD
ENDBRANCH   2   9
BRANCH   4  11
ATOM     11  O   UNL     1       6.667 -13.566  -4.369  1.00  0.00    -0.508 OA
ATOM     12  H   UNL     1       6.025 -13.151  -5.034  1.00  0.00     0.293 HD
ENDBRANCH   4  11
TORSDOF 3
ENDMDL
MODEL 4
REMARK VINA RESULT:    -4.877      3.078      4.633
REMARK INTER + INTRA:          -5.533
REMARK INTER:                  -5.432
REMARK INTRA:                  -0.100
REMARK UNBOUND:                -0.086
REMARK SMILES CCc1ccc(O)cc1O
REMARK SMILES IDX 3 1 9 2 8 3 6 4 5 5 4 6 2 7 1 8 10 9 7 11
REMARK H PARENT 10 10 7 12
REMARK Flexibility Score: inf
ROOT
ATOM      1  C   UNL     1       6.796 -13.273  -2.420  1.00  0.00    -0.006 A 
ATOM      2  C   UNL     1       5.413 -13.426  -2.199  1.00  0.00     0.122 A 
ATOM      3  C   UNL     1       4.527 -13.407  -3.285  1.00  0.00     0.092 A 
ATOM      4  C   UNL     1       5.006 -13.249  -4.588  1.00  0.00     0.119 A 
ATOM      5  C   UNL     1       6.382 -13.111  -4.810  1.00  0.00     0.047 A 
ATOM      6  C   UNL     1       7.272 -13.127  -3.734  1.00  0.00     0.011 A 
ENDROOT
BRANCH   1   7
ATOM      7  C   UNL     1       7.775 -13.319  -1.274  1.00  0.00     0.036 C 
ATOM      8  C   UNL     1       8.038 -11.919  -0.730  1.00  0.00     0.009 C 
ENDBRANCH   1   7
BRANCH   2   9
ATOM      9  O   UNL     1       4.923 -13.598  -0.904  1.00  0.00    -0.508 OA
ATOM     10  H   UNL     1       4.363 -14.403  -0.650  1.00  0.00     0.293 HD
ENDBRANCH   2   9
BRANCH   4  11
ATOM     11  O   UNL     1       4.109 -13.234  -5.655  1.00  0.00    -0.508 OA
ATOM     12  H   UNL     1       3.961 -14.052  -6.233  1.00  0.00     0.293 HD
ENDBRANCH   4  11
TORSDOF 3
ENDMDL
MODEL 5
REMARK VINA RESULT:    -4.826      3.045      4.417
REMARK INTER + INTRA:          -5.476
REMARK INTER:                  -5.370
REMARK INTRA:                  -0.106
REMARK UNBOUND:                -0.086
REMARK SMILES CCc1ccc(O)cc1O
REMARK SMILES IDX 3 1 9 2 8 3 6 4 5 5 4 6 2 7 1 8 10 9 7 11
REMARK H PARENT 10 10 7 12
REMARK Flexibility Score: inf
ROOT
ATOM      1  C   UNL     1       5.377 -13.153  -4.212  1.00  0.00    -0.006 A 
ATOM      2  C   UNL     1       4.846 -13.096  -2.908  1.00  0.00     0.122 A 
ATOM      3  C   UNL     1       5.699 -13.210  -1.801  1.00  0.00     0.092 A 
ATOM      4  C   UNL     1       7.076 -13.369  -1.982  1.00  0.00     0.119 A 
ATOM      5  C   UNL     1       7.606 -13.411  -3.277  1.00  0.00     0.047 A 
ATOM      6  C   UNL     1       6.763 -13.299  -4.385  1.00  0.00     0.011 A 
ENDROOT
BRANCH   1   7
ATOM      7  C   UNL     1       4.486 -13.002  -5.420  1.00  0.00     0.036 C 
ATOM      8  C   UNL     1       4.635 -11.613  -6.031  1.00  0.00     0.009 C 
ENDBRANCH   1   7
BRANCH   2   9
ATOM      9  O   UNL     1       3.475 -12.924  -2.715  1.00  0.00    -0.508 OA
ATOM     10  H   UNL     1       2.794 -13.315  -3.356  1.00  0.00     0.293 HD
ENDBRANCH   2   9
BRANCH   4  11
ATOM     11  O   UNL     1       7.908 -13.481  -0.869  1.00  0.00    -0.508 OA
ATOM     12  H   UNL     1       8.855 -13.833  -0.950  1.00  0.00     0.293 HD
ENDBRANCH   4  11
TORSDOF 3
ENDMDL
MODEL 6
REMARK VINA RESULT:    -4.679      1.527      2.128
REMARK INTER + INTRA:          -5.312
REMARK INTER:                  -5.205
REMARK INTRA:                  -0.107
REMARK UNBOUND:                -0.086
REMARK SMILES CCc1ccc(O)cc1O
REMARK SMILES IDX 3 1 9 2 8 3 6 4 5 5 4 6 2 7 1 8 10 9 7 11
REMARK H PARENT 10 10 7 12
REMARK Flexibility Score: inf
ROOT
ATOM      1  C   UNL     1       7.370 -12.555  -2.606  1.00  0.00    -0.006 A 
ATOM      2  C   UNL     1       7.988 -13.352  -1.621  1.00  0.00     0.122 A 
ATOM      3  C   UNL     1       8.517 -12.752  -0.469  1.00  0.00     0.092 A 
ATOM      4  C   UNL     1       8.425 -11.370  -0.285  1.00  0.00     0.119 A 
ATOM      5  C   UNL     1       7.799 -10.579  -1.256  1.00  0.00     0.047 A 
ATOM      6  C   UNL     1       7.270 -11.168  -2.407  1.00  0.00     0.011 A 
ENDROOT
BRANCH   1   7
ATOM      7  C   UNL     1       6.766 -13.177  -3.840  1.00  0.00     0.036 C 
ATOM      8  C   UNL     1       5.249 -13.272  -3.711  1.00  0.00     0.009 C 
ENDBRANCH   1   7
BRANCH   2   9
ATOM      9  O   UNL     1       8.073 -14.734  -1.788  1.00  0.00    -0.508 OA
ATOM     10  H   UNL     1       7.861 -15.375  -1.032  1.00  0.00     0.293 HD
ENDBRANCH   2   9
BRANCH   4  11
ATOM     11  O   UNL     1       8.957 -10.792   0.867  1.00  0.00    -0.508 OA
ATOM     12  H   UNL     1       8.656 -11.080   1.790  1.00  0.00     0.293 HD
ENDBRANCH   4  11
TORSDOF 3
ENDMDL
MODEL 7
REMARK VINA RESULT:    -4.633      2.426      3.617
REMARK INTER + INTRA:          -5.261
REMARK INTER:                  -5.174
REMARK INTRA:                  -0.087
REMARK UNBOUND:                -0.086
REMARK SMILES CCc1ccc(O)cc1O
REMARK SMILES IDX 3 1 9 2 8 3 6 4 5 5 4 6 2 7 1 8 10 9 7 11
REMARK H PARENT 10 10 7 12
REMARK Flexibility Score: inf
ROOT
ATOM      1  C   UNL     1       7.764 -12.239  -1.329  1.00  0.00    -0.006 A 
ATOM      2  C   UNL     1       7.629 -13.331  -2.209  1.00  0.00     0.122 A 
ATOM      3  C   UNL     1       6.789 -13.226  -3.327  1.00  0.00     0.092 A 
ATOM      4  C   UNL     1       6.093 -12.041  -3.581  1.00  0.00     0.119 A 
ATOM      5  C   UNL     1       6.238 -10.951  -2.715  1.00  0.00     0.047 A 
ATOM      6  C   UNL     1       7.071 -11.047  -1.598  1.00  0.00     0.011 A 
ENDROOT
BRANCH   1   7
ATOM      7  C   UNL     1       8.684 -12.313  -0.136  1.00  0.00     0.036 C 
ATOM      8  C   UNL     1       9.201 -10.927   0.237  1.00  0.00     0.009 C 
ENDBRANCH   1   7
BRANCH   2   9
ATOM      9  O   UNL     1       8.330 -14.514  -1.974  1.00  0.00    -0.508 OA
ATOM     10  H   UNL     1       9.060 -14.833  -2.599  1.00  0.00     0.293 HD
ENDBRANCH   2   9
BRANCH   4  11
ATOM     11  O   UNL     1       5.263 -11.956  -4.697  1.00  0.00    -0.508 OA
ATOM     12  H   UNL     1       4.916 -11.065  -5.032  1.00  0.00     0.293 HD
ENDBRANCH   4  11
TORSDOF 3
ENDMDL
MODEL 8
REMARK VINA RESULT:    -4.228      2.366      4.120
REMARK INTER + INTRA:          -4.808
REMARK INTER:                  -4.710
REMARK INTRA:                  -0.098
REMARK UNBOUND:                -0.086
REMARK SMILES CCc1ccc(O)cc1O
REMARK SMILES IDX 3 1 9 2 8 3 6 4 5 5 4 6 2 7 1 8 10 9 7 11
REMARK H PARENT 10 10 7 12
REMARK Flexibility Score: inf
ROOT
ATOM      1  C   UNL     1       7.086 -11.332  -1.131  1.00  0.00    -0.006 A 
ATOM      2  C   UNL     1       5.721 -11.182  -0.811  1.00  0.00     0.122 A 
ATOM      3  C   UNL     1       4.782 -12.093  -1.317  1.00  0.00     0.092 A 
ATOM      4  C   UNL     1       5.191 -13.155  -2.126  1.00  0.00     0.119 A 
ATOM      5  C   UNL     1       6.548 -13.314  -2.433  1.00  0.00     0.047 A 
ATOM      6  C   UNL     1       7.490 -12.410  -1.935  1.00  0.00     0.011 A 
ENDROOT
BRANCH   1   7
ATOM      7  C   UNL     1       8.120 -10.385  -0.577  1.00  0.00     0.036 C 
ATOM      8  C   UNL     1       9.133 -11.134   0.283  1.00  0.00     0.009 C 
ENDBRANCH   1   7
BRANCH   2   9
ATOM      9  O   UNL     1       5.303 -10.132   0.007  1.00  0.00    -0.508 OA
ATOM     10  H   UNL     1       5.691  -9.201  -0.082  1.00  0.00     0.293 HD
ENDBRANCH   2   9
BRANCH   4  11
ATOM     11  O   UNL     1       4.243 -14.051  -2.619  1.00  0.00    -0.508 OA
ATOM     12  H   UNL     1       3.301 -13.753  -2.845  1.00  0.00     0.293 HD
ENDBRANCH   4  11
TORSDOF 3
ENDMDL
MODEL 9
REMARK VINA RESULT:    -4.215      1.562      2.107
REMARK INTER + INTRA:          -4.794
REMARK INTER:                  -4.781
REMARK INTRA:                  -0.013
REMARK UNBOUND:                -0.086
REMARK SMILES CCc1ccc(O)cc1O
REMARK SMILES IDX 3 1 9 2 8 3 6 4 5 5 4 6 2 7 1 8 10 9 7 11
REMARK H PARENT 10 10 7 12
REMARK Flexibility Score: inf
ROOT
ATOM      1  C   UNL     1       7.209 -12.027  -1.169  1.00  0.00    -0.006 A 
ATOM      2  C   UNL     1       6.068 -11.211  -1.300  1.00  0.00     0.122 A 
ATOM      3  C   UNL     1       6.093  -9.894  -0.821  1.00  0.00     0.092 A 
ATOM      4  C   UNL     1       7.247  -9.380  -0.223  1.00  0.00     0.119 A 
ATOM      5  C   UNL     1       8.386 -10.185  -0.106  1.00  0.00     0.047 A 
ATOM      6  C   UNL     1       8.369 -11.499  -0.579  1.00  0.00     0.011 A 
ENDROOT
BRANCH   1   7
ATOM      7  C   UNL     1       7.220 -13.437  -1.703  1.00  0.00     0.036 C 
ATOM      8  C   UNL     1       7.379 -13.440  -3.220  1.00  0.00     0.009 C 
ENDBRANCH   1   7
BRANCH   2   9
ATOM      9  O   UNL     1       4.914 -11.709  -1.907  1.00  0.00    -0.508 OA
ATOM     10  H   UNL     1       4.727 -11.565  -2.893  1.00  0.00     0.293 HD
ENDBRANCH   2   9
BRANCH   4  11
ATOM     11  O   UNL     1       7.253  -8.068   0.247  1.00  0.00    -0.508 OA
ATOM     12  H   UNL     1       6.418  -7.493   0.224  1.00  0.00     0.293 HD
ENDBRANCH   4  11
TORSDOF 3
ENDMDL
