MODEL 1
REMARK VINA RESULT:    -6.926      0.000      0.000
REMARK INTER + INTRA:         -12.634
REMARK INTER:                 -10.368
REMARK INTRA:                  -2.266
REMARK UNBOUND:                -2.266
REMARK SMILES C=C(CC[C@H](C(=O)[O-])[C@H]1[C@H](O)C[C@]2(C)C3=C(CC[C@]12C)[C@]1(C)CC[C@H](OC(C)=O)C(C)(C)[C@H]1CC3)C(C)C
REMARK SMILES IDX 4 1 5 2 6 3 7 4 8 5 9 6 10 7 19 8 12 9 13 10 18 11 20 12
REMARK SMILES IDX 14 13 15 14 17 15 16 16 35 17 21 18 34 19 33 20 23 21 22 22
REMARK SMILES IDX 30 23 24 24 25 25 31 26 32 27 11 28 26 30 27 31 29 32 28 33
REMARK SMILES IDX 3 34 2 35 1 36 36 37 37 38 38 39
REMARK H PARENT 11 29
REMARK Flexibility Score: inf
ROOT
ATOM      1  C   UNL     1      20.999  16.081  10.919  1.00  0.00     0.014 C 
ENDROOT
BRANCH   1   2
ATOM      2  C   UNL     1      20.422  15.251   9.727  1.00  0.00     0.042 C 
BRANCH   2   3
ATOM      3  C   UNL     1      19.385  14.257  10.208  1.00  0.00     0.045 C 
ATOM      4  O   UNL     1      19.436  13.809  11.379  1.00  0.00    -0.550 OA
ATOM      5  O   UNL     1      18.337  13.878   9.378  1.00  0.00    -0.550 OA
ENDBRANCH   2   3
BRANCH   2   6
ATOM      6  C   UNL     1      21.534  14.486   8.921  1.00  0.00     0.033 C 
ATOM      7  C   UNL     1      21.609  13.003   9.331  1.00  0.00     0.119 C 
ATOM      8  C   UNL     1      21.512  14.480   7.328  1.00  0.00    -0.017 C 
ATOM      9  C   UNL     1      22.176  12.269   8.134  1.00  0.00     0.043 C 
ATOM     10  C   UNL     1      21.565  12.952   6.905  1.00  0.00    -0.003 C 
ATOM     11  C   UNL     1      22.808  15.183   6.839  1.00  0.00     0.012 C 
ATOM     12  C   UNL     1      20.295  15.219   6.686  1.00  0.00     0.013 C 
ATOM     13  C   UNL     1      20.143  12.357   6.668  1.00  0.00     0.017 C 
ATOM     14  C   UNL     1      22.428  12.640   5.658  1.00  0.00    -0.064 C 
ATOM     15  C   UNL     1      22.988  15.059   5.333  1.00  0.00     0.032 C 
ATOM     16  C   UNL     1      22.969  13.616   4.871  1.00  0.00    -0.064 C 
ATOM     17  C   UNL     1      22.808  11.187   5.395  1.00  0.00     0.032 C 
ATOM     18  C   UNL     1      23.643  13.252   3.526  1.00  0.00    -0.008 C 
ATOM     19  C   UNL     1      22.978  10.796   3.919  1.00  0.00     0.009 C 
ATOM     20  C   UNL     1      22.919  11.993   2.937  1.00  0.00     0.009 C 
ATOM     21  C   UNL     1      23.431  14.423   2.518  1.00  0.00     0.015 C 
ATOM     22  C   UNL     1      25.157  13.011   3.808  1.00  0.00     0.016 C 
ATOM     23  C   UNL     1      23.252  11.634   1.411  1.00  0.00     0.005 C 
ATOM     24  C   UNL     1      23.792  14.137   1.047  1.00  0.00     0.047 C 
ATOM     25  C   UNL     1      24.194  12.693   0.746  1.00  0.00     0.182 C 
ATOM     26  C   UNL     1      23.941  10.250   1.255  1.00  0.00     0.015 C 
ATOM     27  C   UNL     1      21.916  11.559   0.622  1.00  0.00     0.015 C 
BRANCH   7  28
ATOM     28  O   UNL     1      22.436  12.824  10.452  1.00  0.00    -0.393 OA
ATOM     29  H   UNL     1      22.408  13.672  10.962  1.00  0.00     0.210 HD
ENDBRANCH   7  28
BRANCH  25  30
ATOM     30  O   UNL     1      24.225  12.534  -0.677  1.00  0.00    -0.462 OA
BRANCH  30  31
ATOM     31  C   UNL     1      25.392  12.380  -1.433  1.00  0.00     0.302 C 
ATOM     32  O   UNL     1      25.390  12.566  -2.677  1.00  0.00    -0.253 OA
ATOM     33  C   UNL     1      26.650  11.955  -0.756  1.00  0.00     0.139 C 
ENDBRANCH  30  31
ENDBRANCH  25  30
ENDBRANCH   2   6
ENDBRANCH   1   2
BRANCH   1  34
ATOM     34  C   UNL     1      21.346  17.567  10.657  1.00  0.00     0.031 C 
BRANCH  34  35
ATOM     35  C   UNL     1      21.979  17.912   9.310  1.00  0.00    -0.075 C 
ATOM     36  C   UNL     1      23.317  18.021   9.164  1.00  0.00     0.008 C 
BRANCH  35  37
ATOM     37  C   UNL     1      21.077  18.286   8.135  1.00  0.00     0.008 C 
ATOM     38  C   UNL     1      19.847  19.072   8.595  1.00  0.00     0.012 C 
ATOM     39  C   UNL     1      21.851  19.071   7.064  1.00  0.00     0.012 C 
ENDBRANCH  35  37
ENDBRANCH  34  35
ENDBRANCH   1  34
TORSDOF 9
ENDMDL
MODEL 2
REMARK VINA RESULT:    -6.764      7.068     10.977
REMARK INTER + INTRA:         -12.391
REMARK INTER:                 -10.189
REMARK INTRA:                  -2.201
REMARK UNBOUND:                -2.266
REMARK SMILES C=C(CC[C@H](C(=O)[O-])[C@H]1[C@H](O)C[C@]2(C)C3=C(CC[C@]12C)[C@]1(C)CC[C@H](OC(C)=O)C(C)(C)[C@H]1CC3)C(C)C
REMARK SMILES IDX 4 1 5 2 6 3 7 4 8 5 9 6 10 7 19 8 12 9 13 10 18 11 20 12
REMARK SMILES IDX 14 13 15 14 17 15 16 16 35 17 21 18 34 19 33 20 23 21 22 22
REMARK SMILES IDX 30 23 24 24 25 25 31 26 32 27 11 28 26 30 27 31 29 32 28 33
REMARK SMILES IDX 3 34 2 35 1 36 36 37 37 38 38 39
REMARK H PARENT 11 29
REMARK Flexibility Score: inf
ROOT
ATOM      1  C   UNL     1       8.907  16.291   6.386  1.00  0.00     0.014 C 
ENDROOT
BRANCH   1   2
ATOM      2  C   UNL     1       9.902  17.202   7.174  1.00  0.00     0.042 C 
BRANCH   2   3
ATOM      3  C   UNL     1       9.379  18.620   7.277  1.00  0.00     0.045 C 
ATOM      4  O   UNL     1       8.609  19.073   6.395  1.00  0.00    -0.550 OA
ATOM      5  O   UNL     1       9.699  19.409   8.374  1.00  0.00    -0.550 OA
ENDBRANCH   2   3
BRANCH   2   6
ATOM      6  C   UNL     1      11.340  17.228   6.538  1.00  0.00     0.033 C 
ATOM      7  C   UNL     1      11.554  18.489   5.680  1.00  0.00     0.119 C 
ATOM      8  C   UNL     1      12.632  17.128   7.466  1.00  0.00    -0.017 C 
ATOM      9  C   UNL     1      13.048  18.739   5.674  1.00  0.00     0.043 C 
ATOM     10  C   UNL     1      13.531  18.377   7.083  1.00  0.00    -0.003 C 
ATOM     11  C   UNL     1      13.386  15.827   7.078  1.00  0.00     0.012 C 
ATOM     12  C   UNL     1      12.336  17.071   8.998  1.00  0.00     0.013 C 
ATOM     13  C   UNL     1      13.273  19.597   8.021  1.00  0.00     0.017 C 
ATOM     14  C   UNL     1      15.056  18.110   7.054  1.00  0.00    -0.064 C 
ATOM     15  C   UNL     1      14.741  15.730   7.764  1.00  0.00     0.032 C 
ATOM     16  C   UNL     1      15.610  16.941   7.488  1.00  0.00    -0.064 C 
ATOM     17  C   UNL     1      15.950  19.140   6.372  1.00  0.00     0.032 C 
ATOM     18  C   UNL     1      17.145  16.808   7.633  1.00  0.00    -0.008 C 
ATOM     19  C   UNL     1      17.369  19.279   6.946  1.00  0.00     0.009 C 
ATOM     20  C   UNL     1      17.728  18.213   8.012  1.00  0.00     0.009 C 
ATOM     21  C   UNL     1      17.464  15.841   8.814  1.00  0.00     0.015 C 
ATOM     22  C   UNL     1      17.699  16.260   6.283  1.00  0.00     0.016 C 
ATOM     23  C   UNL     1      19.251  18.238   8.508  1.00  0.00     0.005 C 
ATOM     24  C   UNL     1      18.930  15.793   9.286  1.00  0.00     0.047 C 
ATOM     25  C   UNL     1      19.862  16.800   8.614  1.00  0.00     0.182 C 
ATOM     26  C   UNL     1      20.177  19.058   7.568  1.00  0.00     0.015 C 
ATOM     27  C   UNL     1      19.303  18.929   9.899  1.00  0.00     0.015 C 
BRANCH   7  28
ATOM     28  O   UNL     1      11.085  18.301   4.370  1.00  0.00    -0.393 OA
ATOM     29  H   UNL     1      11.747  18.725   3.769  1.00  0.00     0.210 HD
ENDBRANCH   7  28
BRANCH  25  30
ATOM     30  O   UNL     1      21.093  16.816   9.347  1.00  0.00    -0.462 OA
BRANCH  30  31
ATOM     31  C   UNL     1      22.352  17.033   8.777  1.00  0.00     0.302 C 
ATOM     32  O   UNL     1      22.708  16.421   7.737  1.00  0.00    -0.253 OA
ATOM     33  C   UNL     1      23.298  17.979   9.434  1.00  0.00     0.139 C 
ENDBRANCH  30  31
ENDBRANCH  25  30
ENDBRANCH   2   6
ENDBRANCH   1   2
BRANCH   1  34
ATOM     34  C   UNL     1       8.643  14.869   6.939  1.00  0.00     0.031 C 
BRANCH  34  35
ATOM     35  C   UNL     1       9.854  13.960   7.142  1.00  0.00    -0.075 C 
ATOM     36  C   UNL     1      10.564  13.484   6.097  1.00  0.00     0.008 C 
BRANCH  35  37
ATOM     37  C   UNL     1      10.184  13.458   8.547  1.00  0.00     0.008 C 
ATOM     38  C   UNL     1      11.669  13.116   8.690  1.00  0.00     0.012 C 
ATOM     39  C   UNL     1       9.757  14.474   9.617  1.00  0.00     0.012 C 
ENDBRANCH  35  37
ENDBRANCH  34  35
ENDBRANCH   1  34
TORSDOF 9
ENDMDL
MODEL 3
REMARK VINA RESULT:    -6.686      2.526      3.661
REMARK INTER + INTRA:         -12.274
REMARK INTER:                 -10.756
REMARK INTRA:                  -1.518
REMARK UNBOUND:                -2.266
REMARK SMILES C=C(CC[C@H](C(=O)[O-])[C@H]1[C@H](O)C[C@]2(C)C3=C(CC[C@]12C)[C@]1(C)CC[C@H](OC(C)=O)C(C)(C)[C@H]1CC3)C(C)C
REMARK SMILES IDX 4 1 5 2 6 3 7 4 8 5 9 6 10 7 19 8 12 9 13 10 18 11 20 12
REMARK SMILES IDX 14 13 15 14 17 15 16 16 35 17 21 18 34 19 33 20 23 21 22 22
REMARK SMILES IDX 30 23 24 24 25 25 31 26 32 27 11 28 26 30 27 31 29 32 28 33
REMARK SMILES IDX 3 34 2 35 1 36 36 37 37 38 38 39
REMARK H PARENT 11 29
REMARK Flexibility Score: inf
ROOT
ATOM      1  C   UNL     1      19.574  18.708   7.709  1.00  0.00     0.014 C 
ENDROOT
BRANCH   1   2
ATOM      2  C   UNL     1      20.129  17.248   7.694  1.00  0.00     0.042 C 
BRANCH   2   3
ATOM      3  C   UNL     1      20.624  16.839   9.067  1.00  0.00     0.045 C 
ATOM      4  O   UNL     1      21.034  17.709   9.874  1.00  0.00    -0.550 OA
ATOM      5  O   UNL     1      20.573  15.509   9.465  1.00  0.00    -0.550 OA
ENDBRANCH   2   3
BRANCH   2   6
ATOM      6  C   UNL     1      21.286  17.046   6.649  1.00  0.00     0.033 C 
ATOM      7  C   UNL     1      22.658  16.936   7.340  1.00  0.00     0.119 C 
ATOM      8  C   UNL     1      21.237  15.830   5.620  1.00  0.00    -0.017 C 
ATOM      9  C   UNL     1      23.534  16.134   6.401  1.00  0.00     0.043 C 
ATOM     10  C   UNL     1      22.616  15.067   5.793  1.00  0.00    -0.003 C 
ATOM     11  C   UNL     1      21.170  16.431   4.189  1.00  0.00     0.012 C 
ATOM     12  C   UNL     1      20.016  14.873   5.794  1.00  0.00     0.013 C 
ATOM     13  C   UNL     1      22.509  13.879   6.799  1.00  0.00     0.017 C 
ATOM     14  C   UNL     1      23.244  14.530   4.484  1.00  0.00    -0.064 C 
ATOM     15  C   UNL     1      21.319  15.362   3.116  1.00  0.00     0.032 C 
ATOM     16  C   UNL     1      22.590  14.553   3.286  1.00  0.00    -0.064 C 
ATOM     17  C   UNL     1      24.707  14.099   4.515  1.00  0.00     0.032 C 
ATOM     18  C   UNL     1      23.177  13.816   2.059  1.00  0.00    -0.008 C 
ATOM     19  C   UNL     1      25.090  12.963   3.554  1.00  0.00     0.009 C 
ATOM     20  C   UNL     1      23.965  12.561   2.568  1.00  0.00     0.009 C 
ATOM     21  C   UNL     1      22.006  13.298   1.168  1.00  0.00     0.015 C 
ATOM     22  C   UNL     1      24.074  14.830   1.286  1.00  0.00     0.016 C 
ATOM     23  C   UNL     1      24.392  11.492   1.453  1.00  0.00     0.005 C 
ATOM     24  C   UNL     1      22.381  12.310   0.046  1.00  0.00     0.047 C 
ATOM     25  C   UNL     1      23.844  11.866   0.034  1.00  0.00     0.182 C 
ATOM     26  C   UNL     1      25.933  11.342   1.321  1.00  0.00     0.015 C 
ATOM     27  C   UNL     1      23.842  10.101   1.872  1.00  0.00     0.015 C 
BRANCH   7  28
ATOM     28  O   UNL     1      23.219  18.204   7.568  1.00  0.00    -0.393 OA
ATOM     29  H   UNL     1      22.857  18.521   8.433  1.00  0.00     0.210 HD
ENDBRANCH   7  28
BRANCH  25  30
ATOM     30  O   UNL     1      23.960  10.762  -0.870  1.00  0.00    -0.462 OA
BRANCH  30  31
ATOM     31  C   UNL     1      22.890  10.199  -1.576  1.00  0.00     0.302 C 
ATOM     32  O   UNL     1      22.458  10.729  -2.632  1.00  0.00    -0.253 OA
ATOM     33  C   UNL     1      22.233   8.970  -1.047  1.00  0.00     0.139 C 
ENDBRANCH  30  31
ENDBRANCH  25  30
ENDBRANCH   2   6
ENDBRANCH   1   2
BRANCH   1  34
ATOM     34  C   UNL     1      18.037  18.891   7.764  1.00  0.00     0.031 C 
BRANCH  34  35
ATOM     35  C   UNL     1      17.295  18.990   6.432  1.00  0.00    -0.075 C 
ATOM     36  C   UNL     1      16.212  19.782   6.282  1.00  0.00     0.008 C 
BRANCH  35  37
ATOM     37  C   UNL     1      17.696  18.064   5.284  1.00  0.00     0.008 C 
ATOM     38  C   UNL     1      16.885  16.766   5.297  1.00  0.00     0.012 C 
ATOM     39  C   UNL     1      17.565  18.770   3.926  1.00  0.00     0.012 C 
ENDBRANCH  35  37
ENDBRANCH  34  35
ENDBRANCH   1  34
TORSDOF 9
ENDMDL
MODEL 4
REMARK VINA RESULT:    -6.677      6.025     10.266
REMARK INTER + INTRA:         -12.260
REMARK INTER:                 -10.017
REMARK INTRA:                  -2.244
REMARK UNBOUND:                -2.266
REMARK SMILES C=C(CC[C@H](C(=O)[O-])[C@H]1[C@H](O)C[C@]2(C)C3=C(CC[C@]12C)[C@]1(C)CC[C@H](OC(C)=O)C(C)(C)[C@H]1CC3)C(C)C
REMARK SMILES IDX 4 1 5 2 6 3 7 4 8 5 9 6 10 7 19 8 12 9 13 10 18 11 20 12
REMARK SMILES IDX 14 13 15 14 17 15 16 16 35 17 21 18 34 19 33 20 23 21 22 22
REMARK SMILES IDX 30 23 24 24 25 25 31 26 32 27 11 28 26 30 27 31 29 32 28 33
REMARK SMILES IDX 3 34 2 35 1 36 36 37 37 38 38 39
REMARK H PARENT 11 29
REMARK Flexibility Score: inf
ROOT
ATOM      1  C   UNL     1      21.674  17.167   9.028  1.00  0.00     0.014 C 
ENDROOT
BRANCH   1   2
ATOM      2  C   UNL     1      20.680  17.230   7.825  1.00  0.00     0.042 C 
BRANCH   2   3
ATOM      3  C   UNL     1      21.085  18.306   6.838  1.00  0.00     0.045 C 
ATOM      4  O   UNL     1      21.747  19.300   7.226  1.00  0.00    -0.550 OA
ATOM      5  O   UNL     1      20.780  18.174   5.489  1.00  0.00    -0.550 OA
ENDBRANCH   2   3
BRANCH   2   6
ATOM      6  C   UNL     1      19.194  17.477   8.273  1.00  0.00     0.033 C 
ATOM      7  C   UNL     1      18.799  18.958   8.127  1.00  0.00     0.119 C 
ATOM      8  C   UNL     1      18.004  16.657   7.601  1.00  0.00    -0.017 C 
ATOM      9  C   UNL     1      17.295  18.972   7.947  1.00  0.00     0.043 C 
ATOM     10  C   UNL     1      16.973  17.746   7.085  1.00  0.00    -0.003 C 
ATOM     11  C   UNL     1      17.328  15.813   8.717  1.00  0.00     0.012 C 
ATOM     12  C   UNL     1      18.441  15.682   6.462  1.00  0.00     0.013 C 
ATOM     13  C   UNL     1      17.212  18.120   5.589  1.00  0.00     0.017 C 
ATOM     14  C   UNL     1      15.479  17.374   7.251  1.00  0.00    -0.064 C 
ATOM     15  C   UNL     1      16.053  15.141   8.228  1.00  0.00     0.032 C 
ATOM     16  C   UNL     1      15.066  16.137   7.653  1.00  0.00    -0.064 C 
ATOM     17  C   UNL     1      14.444  18.485   7.105  1.00  0.00     0.032 C 
ATOM     18  C   UNL     1      13.566  15.757   7.600  1.00  0.00    -0.008 C 
ATOM     19  C   UNL     1      13.077  18.056   6.551  1.00  0.00     0.009 C 
ATOM     20  C   UNL     1      12.905  16.523   6.403  1.00  0.00     0.009 C 
ATOM     21  C   UNL     1      13.438  14.232   7.302  1.00  0.00     0.015 C 
ATOM     22  C   UNL     1      12.940  16.122   8.980  1.00  0.00     0.016 C 
ATOM     23  C   UNL     1      11.436  16.044   5.980  1.00  0.00     0.005 C 
ATOM     24  C   UNL     1      12.029  13.718   6.944  1.00  0.00     0.047 C 
ATOM     25  C   UNL     1      10.959  14.801   6.804  1.00  0.00     0.182 C 
ATOM     26  C   UNL     1      10.364  17.153   6.165  1.00  0.00     0.015 C 
ATOM     27  C   UNL     1      11.454  15.688   4.467  1.00  0.00     0.015 C 
BRANCH   7  28
ATOM     28  O   UNL     1      19.161  19.699   9.264  1.00  0.00    -0.393 OA
ATOM     29  H   UNL     1      18.782  19.222  10.044  1.00  0.00     0.210 HD
ENDBRANCH   7  28
BRANCH  25  30
ATOM     30  O   UNL     1       9.803  14.201   6.209  1.00  0.00    -0.462 OA
BRANCH  30  31
ATOM     31  C   UNL     1       8.942  13.315   6.866  1.00  0.00     0.302 C 
ATOM     32  O   UNL     1       8.650  12.199   6.362  1.00  0.00    -0.253 OA
ATOM     33  C   UNL     1       8.337  13.714   8.168  1.00  0.00     0.139 C 
ENDBRANCH  30  31
ENDBRANCH  25  30
ENDBRANCH   2   6
ENDBRANCH   1   2
BRANCH   1  34
ATOM     34  C   UNL     1      21.117  16.704  10.397  1.00  0.00     0.031 C 
BRANCH  34  35
ATOM     35  C   UNL     1      20.657  15.251  10.510  1.00  0.00    -0.075 C 
ATOM     36  C   UNL     1      19.706  14.877  11.391  1.00  0.00     0.008 C 
BRANCH  35  37
ATOM     37  C   UNL     1      21.392  14.172   9.716  1.00  0.00     0.008 C 
ATOM     38  C   UNL     1      22.022  13.124  10.637  1.00  0.00     0.012 C 
ATOM     39  C   UNL     1      20.463  13.503   8.691  1.00  0.00     0.012 C 
ENDBRANCH  35  37
ENDBRANCH  34  35
ENDBRANCH   1  34
TORSDOF 9
ENDMDL
MODEL 5
REMARK VINA RESULT:    -6.642      3.760      9.794
REMARK INTER + INTRA:         -12.208
REMARK INTER:                  -9.986
REMARK INTRA:                  -2.222
REMARK UNBOUND:                -2.266
REMARK SMILES C=C(CC[C@H](C(=O)[O-])[C@H]1[C@H](O)C[C@]2(C)C3=C(CC[C@]12C)[C@]1(C)CC[C@H](OC(C)=O)C(C)(C)[C@H]1CC3)C(C)C
REMARK SMILES IDX 4 1 5 2 6 3 7 4 8 5 9 6 10 7 19 8 12 9 13 10 18 11 20 12
REMARK SMILES IDX 14 13 15 14 17 15 16 16 35 17 21 18 34 19 33 20 23 21 22 22
REMARK SMILES IDX 30 23 24 24 25 25 31 26 32 27 11 28 26 30 27 31 29 32 28 33
REMARK SMILES IDX 3 34 2 35 1 36 36 37 37 38 38 39
REMARK H PARENT 11 29
REMARK Flexibility Score: inf
ROOT
ATOM      1  C   UNL     1      25.848  12.035  -1.488  1.00  0.00     0.014 C 
ENDROOT
BRANCH   1   2
ATOM      2  C   UNL     1      25.013  12.847  -0.447  1.00  0.00     0.042 C 
BRANCH   2   3
ATOM      3  C   UNL     1      25.477  14.288  -0.380  1.00  0.00     0.045 C 
ATOM      4  O   UNL     1      26.648  14.590  -0.718  1.00  0.00    -0.550 OA
ATOM      5  O   UNL     1      24.596  15.293  -0.000  1.00  0.00    -0.550 OA
ENDBRANCH   2   3
BRANCH   2   6
ATOM      6  C   UNL     1      25.064  12.223   0.995  1.00  0.00     0.033 C 
ATOM      7  C   UNL     1      25.841  13.124   1.974  1.00  0.00     0.119 C 
ATOM      8  C   UNL     1      23.715  11.844   1.756  1.00  0.00    -0.017 C 
ATOM      9  C   UNL     1      25.298  12.806   3.351  1.00  0.00     0.043 C 
ATOM     10  C   UNL     1      23.794  12.578   3.159  1.00  0.00    -0.003 C 
ATOM     11  C   UNL     1      23.725  10.308   1.990  1.00  0.00     0.012 C 
ATOM     12  C   UNL     1      22.405  12.202   0.984  1.00  0.00     0.013 C 
ATOM     13  C   UNL     1      23.085  13.968   3.137  1.00  0.00     0.017 C 
ATOM     14  C   UNL     1      23.235  11.775   4.358  1.00  0.00    -0.064 C 
ATOM     15  C   UNL     1      22.578   9.862   2.883  1.00  0.00     0.032 C 
ATOM     16  C   UNL     1      22.567  10.594   4.210  1.00  0.00    -0.064 C 
ATOM     17  C   UNL     1      23.582  12.253   5.765  1.00  0.00     0.032 C 
ATOM     18  C   UNL     1      21.850   9.944   5.418  1.00  0.00    -0.008 C 
ATOM     19  C   UNL     1      22.526  11.976   6.845  1.00  0.00     0.009 C 
ATOM     20  C   UNL     1      21.351  11.085   6.369  1.00  0.00     0.009 C 
ATOM     21  C   UNL     1      20.589   9.180   4.910  1.00  0.00     0.015 C 
ATOM     22  C   UNL     1      22.864   8.977   6.102  1.00  0.00     0.016 C 
ATOM     23  C   UNL     1      20.322  10.651   7.517  1.00  0.00     0.005 C 
ATOM     24  C   UNL     1      19.599   8.695   5.987  1.00  0.00     0.047 C 
ATOM     25  C   UNL     1      19.922   9.140   7.413  1.00  0.00     0.182 C 
ATOM     26  C   UNL     1      20.885  10.876   8.947  1.00  0.00     0.015 C 
ATOM     27  C   UNL     1      19.050  11.535   7.395  1.00  0.00     0.015 C 
BRANCH   7  28
ATOM     28  O   UNL     1      27.220  12.865   1.920  1.00  0.00    -0.393 OA
ATOM     29  H   UNL     1      27.608  13.528   1.295  1.00  0.00     0.210 HD
ENDBRANCH   7  28
BRANCH  25  30
ATOM     30  O   UNL     1      18.782   8.852   8.231  1.00  0.00    -0.462 OA
BRANCH  30  31
ATOM     31  C   UNL     1      18.759   7.891   9.248  1.00  0.00     0.302 C 
ATOM     32  O   UNL     1      17.690   7.603   9.846  1.00  0.00    -0.253 OA
ATOM     33  C   UNL     1      20.029   7.222   9.650  1.00  0.00     0.139 C 
ENDBRANCH  30  31
ENDBRANCH  25  30
ENDBRANCH   2   6
ENDBRANCH   1   2
BRANCH   1  34
ATOM     34  C   UNL     1      25.077  11.304  -2.614  1.00  0.00     0.031 C 
BRANCH  34  35
ATOM     35  C   UNL     1      23.788  10.580  -2.224  1.00  0.00    -0.075 C 
ATOM     36  C   UNL     1      22.577  11.040  -2.601  1.00  0.00     0.008 C 
BRANCH  35  37
ATOM     37  C   UNL     1      23.860   9.393  -1.264  1.00  0.00     0.008 C 
ATOM     38  C   UNL     1      22.489   8.742  -1.068  1.00  0.00     0.012 C 
ATOM     39  C   UNL     1      24.890   8.355  -1.735  1.00  0.00     0.012 C 
ENDBRANCH  35  37
ENDBRANCH  34  35
ENDBRANCH   1  34
TORSDOF 9
ENDMDL
MODEL 6
REMARK VINA RESULT:    -6.590      6.660     10.291
REMARK INTER + INTRA:         -12.131
REMARK INTER:                  -9.740
REMARK INTRA:                  -2.391
REMARK UNBOUND:                -2.266
REMARK SMILES C=C(CC[C@H](C(=O)[O-])[C@H]1[C@H](O)C[C@]2(C)C3=C(CC[C@]12C)[C@]1(C)CC[C@H](OC(C)=O)C(C)(C)[C@H]1CC3)C(C)C
REMARK SMILES IDX 4 1 5 2 6 3 7 4 8 5 9 6 10 7 19 8 12 9 13 10 18 11 20 12
REMARK SMILES IDX 14 13 15 14 17 15 16 16 35 17 21 18 34 19 33 20 23 21 22 22
REMARK SMILES IDX 30 23 24 24 25 25 31 26 32 27 11 28 26 30 27 31 29 32 28 33
REMARK SMILES IDX 3 34 2 35 1 36 36 37 37 38 38 39
REMARK H PARENT 11 29
REMARK Flexibility Score: inf
ROOT
ATOM      1  C   UNL     1      10.179  18.596   4.694  1.00  0.00     0.014 C 
ENDROOT
BRANCH   1   2
ATOM      2  C   UNL     1      11.227  18.939   5.800  1.00  0.00     0.042 C 
BRANCH   2   3
ATOM      3  C   UNL     1      11.149  20.401   6.191  1.00  0.00     0.045 C 
ATOM      4  O   UNL     1      11.395  20.752   7.371  1.00  0.00    -0.550 OA
ATOM      5  O   UNL     1      10.862  21.370   5.237  1.00  0.00    -0.550 OA
ENDBRANCH   2   3
BRANCH   2   6
ATOM      6  C   UNL     1      12.701  18.601   5.370  1.00  0.00     0.033 C 
ATOM      7  C   UNL     1      13.459  19.861   4.911  1.00  0.00     0.119 C 
ATOM      8  C   UNL     1      13.686  17.865   6.385  1.00  0.00    -0.017 C 
ATOM      9  C   UNL     1      14.927  19.573   5.151  1.00  0.00     0.043 C 
ATOM     10  C   UNL     1      14.982  18.776   6.459  1.00  0.00    -0.003 C 
ATOM     11  C   UNL     1      14.068  16.497   5.756  1.00  0.00     0.012 C 
ATOM     12  C   UNL     1      13.085  17.591   7.800  1.00  0.00     0.013 C 
ATOM     13  C   UNL     1      14.926  19.782   7.651  1.00  0.00     0.017 C 
ATOM     14  C   UNL     1      16.325  18.011   6.542  1.00  0.00    -0.064 C 
ATOM     15  C   UNL     1      15.162  15.794   6.548  1.00  0.00     0.032 C 
ATOM     16  C   UNL     1      16.396  16.658   6.711  1.00  0.00    -0.064 C 
ATOM     17  C   UNL     1      17.610  18.787   6.272  1.00  0.00     0.032 C 
ATOM     18  C   UNL     1      17.755  15.975   6.997  1.00  0.00    -0.008 C 
ATOM     19  C   UNL     1      18.856  18.301   7.027  1.00  0.00     0.009 C 
ATOM     20  C   UNL     1      18.650  16.977   7.804  1.00  0.00     0.009 C 
ATOM     21  C   UNL     1      17.517  14.730   7.907  1.00  0.00     0.015 C 
ATOM     22  C   UNL     1      18.374  15.569   5.626  1.00  0.00     0.016 C 
ATOM     23  C   UNL     1      19.976  16.367   8.467  1.00  0.00     0.005 C 
ATOM     24  C   UNL     1      18.772  14.079   8.520  1.00  0.00     0.047 C 
ATOM     25  C   UNL     1      20.083  14.819   8.257  1.00  0.00     0.182 C 
ATOM     26  C   UNL     1      21.277  16.996   7.897  1.00  0.00     0.015 C 
ATOM     27  C   UNL     1      19.954  16.686   9.987  1.00  0.00     0.015 C 
BRANCH   7  28
ATOM     28  O   UNL     1      13.229  20.129   3.553  1.00  0.00    -0.393 OA
ATOM     29  H   UNL     1      14.119  20.211   3.126  1.00  0.00     0.210 HD
ENDBRANCH   7  28
BRANCH  25  30
ATOM     30  O   UNL     1      21.085  14.252   9.109  1.00  0.00    -0.462 OA
BRANCH  30  31
ATOM     31  C   UNL     1      21.797  13.082   8.826  1.00  0.00     0.302 C 
ATOM     32  O   UNL     1      22.167  12.307   9.747  1.00  0.00    -0.253 OA
ATOM     33  C   UNL     1      22.151  12.765   7.413  1.00  0.00     0.139 C 
ENDBRANCH  30  31
ENDBRANCH  25  30
ENDBRANCH   2   6
ENDBRANCH   1   2
BRANCH   1  34
ATOM     34  C   UNL     1       9.380  17.278   4.846  1.00  0.00     0.031 C 
BRANCH  34  35
ATOM     35  C   UNL     1      10.177  15.974   4.866  1.00  0.00    -0.075 C 
ATOM     36  C   UNL     1      10.875  15.555   3.790  1.00  0.00     0.008 C 
BRANCH  35  37
ATOM     37  C   UNL     1      10.065  15.050   6.078  1.00  0.00     0.008 C 
ATOM     38  C   UNL     1      11.321  14.192   6.251  1.00  0.00     0.012 C 
ATOM     39  C   UNL     1       9.770  15.843   7.360  1.00  0.00     0.012 C 
ENDBRANCH  35  37
ENDBRANCH  34  35
ENDBRANCH   1  34
TORSDOF 9
ENDMDL
MODEL 7
REMARK VINA RESULT:    -6.526      5.306      9.955
REMARK INTER + INTRA:         -12.035
REMARK INTER:                  -9.695
REMARK INTRA:                  -2.340
REMARK UNBOUND:                -2.266
REMARK SMILES C=C(CC[C@H](C(=O)[O-])[C@H]1[C@H](O)C[C@]2(C)C3=C(CC[C@]12C)[C@]1(C)CC[C@H](OC(C)=O)C(C)(C)[C@H]1CC3)C(C)C
REMARK SMILES IDX 4 1 5 2 6 3 7 4 8 5 9 6 10 7 19 8 12 9 13 10 18 11 20 12
REMARK SMILES IDX 14 13 15 14 17 15 16 16 35 17 21 18 34 19 33 20 23 21 22 22
REMARK SMILES IDX 30 23 24 24 25 25 31 26 32 27 11 28 26 30 27 31 29 32 28 33
REMARK SMILES IDX 3 34 2 35 1 36 36 37 37 38 38 39
REMARK H PARENT 11 29
REMARK Flexibility Score: inf
ROOT
ATOM      1  C   UNL     1      22.437  14.620   6.836  1.00  0.00     0.014 C 
ENDROOT
BRANCH   1   2
ATOM      2  C   UNL     1      21.341  14.652   7.949  1.00  0.00     0.042 C 
BRANCH   2   3
ATOM      3  C   UNL     1      21.556  13.541   8.957  1.00  0.00     0.045 C 
ATOM      4  O   UNL     1      21.155  13.677  10.139  1.00  0.00    -0.550 OA
ATOM      5  O   UNL     1      22.142  12.343   8.568  1.00  0.00    -0.550 OA
ENDBRANCH   2   3
BRANCH   2   6
ATOM      6  C   UNL     1      19.882  14.549   7.373  1.00  0.00     0.033 C 
ATOM      7  C   UNL     1      19.317  13.123   7.518  1.00  0.00     0.119 C 
ATOM      8  C   UNL     1      18.734  15.513   7.914  1.00  0.00    -0.017 C 
ATOM      9  C   UNL     1      17.811  13.276   7.560  1.00  0.00     0.043 C 
ATOM     10  C   UNL     1      17.549  14.557   8.360  1.00  0.00    -0.003 C 
ATOM     11  C   UNL     1      18.255  16.385   6.721  1.00  0.00     0.012 C 
ATOM     12  C   UNL     1      19.172  16.474   9.064  1.00  0.00     0.013 C 
ATOM     13  C   UNL     1      17.614  14.211   9.880  1.00  0.00     0.017 C 
ATOM     14  C   UNL     1      16.125  15.079   8.049  1.00  0.00    -0.064 C 
ATOM     15  C   UNL     1      17.022  17.204   7.075  1.00  0.00     0.032 C 
ATOM     16  C   UNL     1      15.885  16.339   7.581  1.00  0.00    -0.064 C 
ATOM     17  C   UNL     1      14.967  14.090   8.127  1.00  0.00     0.032 C 
ATOM     18  C   UNL     1      14.437  16.877   7.488  1.00  0.00    -0.008 C 
ATOM     19  C   UNL     1      13.611  14.680   8.544  1.00  0.00     0.009 C 
ATOM     20  C   UNL     1      13.594  16.226   8.638  1.00  0.00     0.009 C 
ATOM     21  C   UNL     1      14.449  18.417   7.737  1.00  0.00     0.015 C 
ATOM     22  C   UNL     1      13.899  16.534   6.066  1.00  0.00     0.016 C 
ATOM     23  C   UNL     1      12.155  16.873   8.914  1.00  0.00     0.005 C 
ATOM     24  C   UNL     1      13.079  19.088   7.952  1.00  0.00     0.047 C 
ATOM     25  C   UNL     1      11.890  18.131   8.020  1.00  0.00     0.182 C 
ATOM     26  C   UNL     1      10.989  15.878   8.659  1.00  0.00     0.015 C 
ATOM     27  C   UNL     1      12.077  17.275  10.413  1.00  0.00     0.015 C 
BRANCH   7  28
ATOM     28  O   UNL     1      19.696  12.311   6.438  1.00  0.00    -0.393 OA
ATOM     29  H   UNL     1      20.408  12.799   5.953  1.00  0.00     0.210 HD
ENDBRANCH   7  28
BRANCH  25  30
ATOM     30  O   UNL     1      10.758  18.870   8.493  1.00  0.00    -0.462 OA
BRANCH  30  31
ATOM     31  C   UNL     1       9.624  19.161   7.726  1.00  0.00     0.302 C 
ATOM     32  O   UNL     1       8.757  19.977   8.133  1.00  0.00    -0.253 OA
ATOM     33  C   UNL     1       9.426  18.467   6.422  1.00  0.00     0.139 C 
ENDBRANCH  30  31
ENDBRANCH  25  30
ENDBRANCH   2   6
ENDBRANCH   1   2
BRANCH   1  34
ATOM     34  C   UNL     1      23.177  15.943   6.519  1.00  0.00     0.031 C 
BRANCH  34  35
ATOM     35  C   UNL     1      22.321  17.188   6.291  1.00  0.00    -0.075 C 
ATOM     36  C   UNL     1      21.570  17.336   5.180  1.00  0.00     0.008 C 
BRANCH  35  37
ATOM     37  C   UNL     1      22.428  18.357   7.270  1.00  0.00     0.008 C 
ATOM     38  C   UNL     1      21.064  19.001   7.530  1.00  0.00     0.012 C 
ATOM     39  C   UNL     1      23.081  17.921   8.591  1.00  0.00     0.012 C 
ENDBRANCH  35  37
ENDBRANCH  34  35
ENDBRANCH   1  34
TORSDOF 9
ENDMDL
MODEL 8
REMARK VINA RESULT:    -6.492      5.587      8.031
REMARK INTER + INTRA:         -11.983
REMARK INTER:                 -10.595
REMARK INTRA:                  -1.388
REMARK UNBOUND:                -2.266
REMARK SMILES C=C(CC[C@H](C(=O)[O-])[C@H]1[C@H](O)C[C@]2(C)C3=C(CC[C@]12C)[C@]1(C)CC[C@H](OC(C)=O)C(C)(C)[C@H]1CC3)C(C)C
REMARK SMILES IDX 4 1 5 2 6 3 7 4 8 5 9 6 10 7 19 8 12 9 13 10 18 11 20 12
REMARK SMILES IDX 14 13 15 14 17 15 16 16 35 17 21 18 34 19 33 20 23 21 22 22
REMARK SMILES IDX 30 23 24 24 25 25 31 26 32 27 11 28 26 30 27 31 29 32 28 33
REMARK SMILES IDX 3 34 2 35 1 36 36 37 37 38 38 39
REMARK H PARENT 11 29
REMARK Flexibility Score: inf
ROOT
ATOM      1  C   UNL     1      12.160  18.779   5.811  1.00  0.00     0.014 C 
ENDROOT
BRANCH   1   2
ATOM      2  C   UNL     1      13.226  17.891   6.531  1.00  0.00     0.042 C 
BRANCH   2   3
ATOM      3  C   UNL     1      12.902  17.734   8.002  1.00  0.00     0.045 C 
ATOM      4  O   UNL     1      13.252  16.697   8.618  1.00  0.00    -0.550 OA
ATOM      5  O   UNL     1      12.269  18.757   8.696  1.00  0.00    -0.550 OA
ENDBRANCH   2   3
BRANCH   2   6
ATOM      6  C   UNL     1      14.688  18.451   6.383  1.00  0.00     0.033 C 
ATOM      7  C   UNL     1      15.126  19.222   7.642  1.00  0.00     0.119 C 
ATOM      8  C   UNL     1      15.897  17.468   6.050  1.00  0.00    -0.017 C 
ATOM      9  C   UNL     1      16.638  19.138   7.674  1.00  0.00     0.043 C 
ATOM     10  C   UNL     1      16.983  17.730   7.175  1.00  0.00    -0.003 C 
ATOM     11  C   UNL     1      16.481  17.893   4.676  1.00  0.00     0.012 C 
ATOM     12  C   UNL     1      15.507  15.958   5.958  1.00  0.00     0.013 C 
ATOM     13  C   UNL     1      16.846  16.737   8.370  1.00  0.00     0.017 C 
ATOM     14  C   UNL     1      18.454  17.699   6.694  1.00  0.00    -0.064 C 
ATOM     15  C   UNL     1      17.767  17.148   4.350  1.00  0.00     0.032 C 
ATOM     16  C   UNL     1      18.813  17.307   5.436  1.00  0.00    -0.064 C 
ATOM     17  C   UNL     1      19.523  18.273   7.618  1.00  0.00     0.032 C 
ATOM     18  C   UNL     1      20.303  17.094   5.077  1.00  0.00    -0.008 C 
ATOM     19  C   UNL     1      20.911  17.622   7.522  1.00  0.00     0.009 C 
ATOM     20  C   UNL     1      21.054  16.605   6.362  1.00  0.00     0.009 C 
ATOM     21  C   UNL     1      20.413  15.958   4.015  1.00  0.00     0.015 C 
ATOM     22  C   UNL     1      20.851  18.445   4.525  1.00  0.00     0.016 C 
ATOM     23  C   UNL     1      22.535  16.032   6.142  1.00  0.00     0.005 C 
ATOM     24  C   UNL     1      21.828  15.416   3.732  1.00  0.00     0.047 C 
ATOM     25  C   UNL     1      22.930  15.980   4.628  1.00  0.00     0.182 C 
ATOM     26  C   UNL     1      23.620  16.875   6.868  1.00  0.00     0.015 C 
ATOM     27  C   UNL     1      22.602  14.602   6.746  1.00  0.00     0.015 C 
BRANCH   7  28
ATOM     28  O   UNL     1      14.712  20.563   7.591  1.00  0.00    -0.393 OA
ATOM     29  H   UNL     1      15.120  20.954   6.779  1.00  0.00     0.210 HD
ENDBRANCH   7  28
BRANCH  25  30
ATOM     30  O   UNL     1      24.106  15.187   4.429  1.00  0.00    -0.462 OA
BRANCH  30  31
ATOM     31  C   UNL     1      24.262  14.243   3.409  1.00  0.00     0.302 C 
ATOM     32  O   UNL     1      24.519  14.598   2.229  1.00  0.00    -0.253 OA
ATOM     33  C   UNL     1      24.088  12.796   3.720  1.00  0.00     0.139 C 
ENDBRANCH  30  31
ENDBRANCH  25  30
ENDBRANCH   2   6
ENDBRANCH   1   2
BRANCH   1  34
ATOM     34  C   UNL     1      11.191  18.081   4.826  1.00  0.00     0.031 C 
BRANCH  34  35
ATOM     35  C   UNL     1      10.404  16.880   5.351  1.00  0.00    -0.075 C 
ATOM     36  C   UNL     1       9.588  16.982   6.421  1.00  0.00     0.008 C 
BRANCH  35  37
ATOM     37  C   UNL     1      10.655  15.501   4.743  1.00  0.00     0.008 C 
ATOM     38  C   UNL     1      10.737  15.563   3.216  1.00  0.00     0.012 C 
ATOM     39  C   UNL     1      11.920  14.855   5.327  1.00  0.00     0.012 C 
ENDBRANCH  35  37
ENDBRANCH  34  35
ENDBRANCH   1  34
TORSDOF 9
ENDMDL
MODEL 9
REMARK VINA RESULT:    -6.385      5.740     10.312
REMARK INTER + INTRA:         -11.824
REMARK INTER:                  -9.767
REMARK INTRA:                  -2.057
REMARK UNBOUND:                -2.266
REMARK SMILES C=C(CC[C@H](C(=O)[O-])[C@H]1[C@H](O)C[C@]2(C)C3=C(CC[C@]12C)[C@]1(C)CC[C@H](OC(C)=O)C(C)(C)[C@H]1CC3)C(C)C
REMARK SMILES IDX 4 1 5 2 6 3 7 4 8 5 9 6 10 7 19 8 12 9 13 10 18 11 20 12
REMARK SMILES IDX 14 13 15 14 17 15 16 16 35 17 21 18 34 19 33 20 23 21 22 22
REMARK SMILES IDX 30 23 24 24 25 25 31 26 32 27 11 28 26 30 27 31 29 32 28 33
REMARK SMILES IDX 3 34 2 35 1 36 36 37 37 38 38 39
REMARK H PARENT 11 29
REMARK Flexibility Score: inf
ROOT
ATOM      1  C   UNL     1      21.720  15.306   9.426  1.00  0.00     0.014 C 
ENDROOT
BRANCH   1   2
ATOM      2  C   UNL     1      20.985  16.126   8.318  1.00  0.00     0.042 C 
BRANCH   2   3
ATOM      3  C   UNL     1      21.877  17.220   7.767  1.00  0.00     0.045 C 
ATOM      4  O   UNL     1      22.775  17.722   8.485  1.00  0.00    -0.550 OA
ATOM      5  O   UNL     1      21.747  17.634   6.447  1.00  0.00    -0.550 OA
ENDBRANCH   2   3
BRANCH   2   6
ATOM      6  C   UNL     1      19.640  16.764   8.822  1.00  0.00     0.033 C 
ATOM      7  C   UNL     1      19.812  18.259   9.151  1.00  0.00     0.119 C 
ATOM      8  C   UNL     1      18.324  16.681   7.926  1.00  0.00    -0.017 C 
ATOM      9  C   UNL     1      18.442  18.882   8.986  1.00  0.00     0.043 C 
ATOM     10  C   UNL     1      17.811  18.174   7.780  1.00  0.00    -0.003 C 
ATOM     11  C   UNL     1      17.269  15.861   8.719  1.00  0.00     0.012 C 
ATOM     12  C   UNL     1      18.519  15.993   6.538  1.00  0.00     0.013 C 
ATOM     13  C   UNL     1      18.340  18.853   6.479  1.00  0.00     0.017 C 
ATOM     14  C   UNL     1      16.274  18.353   7.822  1.00  0.00    -0.064 C 
ATOM     15  C   UNL     1      15.906  15.886   8.044  1.00  0.00     0.032 C 
ATOM     16  C   UNL     1      15.407  17.298   7.813  1.00  0.00    -0.064 C 
ATOM     17  C   UNL     1      15.722  19.758   8.034  1.00  0.00     0.032 C 
ATOM     18  C   UNL     1      13.887  17.537   7.644  1.00  0.00    -0.008 C 
ATOM     19  C   UNL     1      14.366  20.051   7.374  1.00  0.00     0.009 C 
ATOM     20  C   UNL     1      13.683  18.808   6.750  1.00  0.00     0.009 C 
ATOM     21  C   UNL     1      13.265  16.328   6.880  1.00  0.00     0.015 C 
ATOM     22  C   UNL     1      13.273  17.686   9.069  1.00  0.00     0.016 C 
ATOM     23  C   UNL     1      12.200  19.055   6.198  1.00  0.00     0.005 C 
ATOM     24  C   UNL     1      11.817  16.504   6.380  1.00  0.00     0.047 C 
ATOM     25  C   UNL     1      11.222  17.895   6.589  1.00  0.00     0.182 C 
ATOM     26  C   UNL     1      11.574  20.376   6.724  1.00  0.00     0.015 C 
ATOM     27  C   UNL     1      12.267  19.179   4.651  1.00  0.00     0.015 C 
BRANCH   7  28
ATOM     28  O   UNL     1      20.278  18.443  10.463  1.00  0.00    -0.393 OA
ATOM     29  H   UNL     1      21.033  19.080  10.408  1.00  0.00     0.210 HD
ENDBRANCH   7  28
BRANCH  25  30
ATOM     30  O   UNL     1      10.007  17.971   5.835  1.00  0.00    -0.462 OA
BRANCH  30  31
ATOM     31  C   UNL     1       9.411  16.887   5.181  1.00  0.00     0.302 C 
ATOM     32  O   UNL     1       8.597  16.135   5.778  1.00  0.00    -0.253 OA
ATOM     33  C   UNL     1       9.772  16.600   3.764  1.00  0.00     0.139 C 
ENDBRANCH  30  31
ENDBRANCH  25  30
ENDBRANCH   2   6
ENDBRANCH   1   2
BRANCH   1  34
ATOM     34  C   UNL     1      21.259  13.847   9.665  1.00  0.00     0.031 C 
BRANCH  34  35
ATOM     35  C   UNL     1      19.922  13.643  10.376  1.00  0.00    -0.075 C 
ATOM     36  C   UNL     1      19.625  14.290  11.523  1.00  0.00     0.008 C 
BRANCH  35  37
ATOM     37  C   UNL     1      18.958  12.575   9.861  1.00  0.00     0.008 C 
ATOM     38  C   UNL     1      17.569  12.719  10.488  1.00  0.00     0.012 C 
ATOM     39  C   UNL     1      18.865  12.600   8.328  1.00  0.00     0.012 C 
ENDBRANCH  35  37
ENDBRANCH  34  35
ENDBRANCH   1  34
TORSDOF 9
ENDMDL
