MODEL 1
REMARK VINA RESULT:    -4.294      0.000      0.000
REMARK INTER + INTRA:          -6.806
REMARK INTER:                  -6.302
REMARK INTRA:                  -0.504
REMARK UNBOUND:                -0.504
REMARK SMILES O=C([O-])CCCCCCCC(=O)[O-]
REMARK SMILES IDX 7 1 6 2 5 3 4 4 2 5 1 6 3 7 8 8 9 9 10 10 11 11 12 12 13 13
REMARK H PARENT
REMARK Flexibility Score: inf
ROOT
ATOM      1  C   UNL     1      51.582  -2.647  11.756  1.00  0.00     0.000 C 
ENDROOT
BRANCH   1   2
ATOM      2  C   UNL     1      51.696  -3.017  10.268  1.00  0.00     0.000 C 
BRANCH   2   3
ATOM      3  C   UNL     1      52.740  -4.117  10.009  1.00  0.00     0.006 C 
BRANCH   3   4
ATOM      4  C   UNL     1      54.010  -3.565   9.345  1.00  0.00     0.053 C 
BRANCH   4   5
ATOM      5  C   UNL     1      54.357  -4.314   8.095  1.00  0.00     0.041 C 
ATOM      6  O   UNL     1      55.549  -4.650   7.869  1.00  0.00    -0.550 OA
ATOM      7  O   UNL     1      53.370  -4.617   7.167  1.00  0.00    -0.550 OA
ENDBRANCH   4   5
ENDBRANCH   3   4
ENDBRANCH   2   3
ENDBRANCH   1   2
BRANCH   1   8
ATOM      8  C   UNL     1      52.319  -3.641  12.671  1.00  0.00     0.000 C 
BRANCH   8   9
ATOM      9  C   UNL     1      53.522  -3.004  13.386  1.00  0.00     0.006 C 
BRANCH   9  10
ATOM     10  C   UNL     1      54.750  -3.923  13.410  1.00  0.00     0.053 C 
BRANCH  10  11
ATOM     11  C   UNL     1      55.942  -3.185  13.932  1.00  0.00     0.041 C 
ATOM     12  O   UNL     1      57.101  -3.650  13.760  1.00  0.00    -0.550 OA
ATOM     13  O   UNL     1      55.780  -1.960  14.566  1.00  0.00    -0.550 OA
ENDBRANCH  10  11
ENDBRANCH   9  10
ENDBRANCH   8   9
ENDBRANCH   1   8
TORSDOF 8
ENDMDL
MODEL 2
REMARK VINA RESULT:    -4.290      1.129      5.738
REMARK INTER + INTRA:          -6.801
REMARK INTER:                  -6.482
REMARK INTRA:                  -0.319
REMARK UNBOUND:                -0.504
REMARK SMILES O=C([O-])CCCCCCCC(=O)[O-]
REMARK SMILES IDX 7 1 6 2 5 3 4 4 2 5 1 6 3 7 8 8 9 9 10 10 11 11 12 12 13 13
REMARK H PARENT
REMARK Flexibility Score: inf
ROOT
ATOM      1  C   UNL     1      52.772  -3.129  11.424  1.00  0.00     0.000 C 
ENDROOT
BRANCH   1   2
ATOM      2  C   UNL     1      53.119  -3.179  12.922  1.00  0.00     0.000 C 
BRANCH   2   3
ATOM      3  C   UNL     1      54.591  -3.545  13.178  1.00  0.00     0.006 C 
BRANCH   3   4
ATOM      4  C   UNL     1      55.296  -2.518  14.075  1.00  0.00     0.053 C 
BRANCH   4   5
ATOM      5  C   UNL     1      56.774  -2.747  14.132  1.00  0.00     0.041 C 
ATOM      6  O   UNL     1      57.285  -3.735  13.542  1.00  0.00    -0.550 OA
ATOM      7  O   UNL     1      57.586  -1.888  14.861  1.00  0.00    -0.550 OA
ENDBRANCH   4   5
ENDBRANCH   3   4
ENDBRANCH   2   3
ENDBRANCH   1   2
BRANCH   1   8
ATOM      8  C   UNL     1      52.239  -4.473  10.896  1.00  0.00     0.000 C 
BRANCH   8   9
ATOM      9  C   UNL     1      52.440  -4.632   9.380  1.00  0.00     0.006 C 
BRANCH   9  10
ATOM     10  C   UNL     1      53.872  -4.306   8.935  1.00  0.00     0.053 C 
BRANCH  10  11
ATOM     11  C   UNL     1      53.892  -3.908   7.494  1.00  0.00     0.041 C 
ATOM     12  O   UNL     1      54.755  -4.394   6.714  1.00  0.00    -0.550 OA
ATOM     13  O   UNL     1      52.928  -3.040   6.998  1.00  0.00    -0.550 OA
ENDBRANCH  10  11
ENDBRANCH   9  10
ENDBRANCH   8   9
ENDBRANCH   1   8
TORSDOF 8
ENDMDL
MODEL 3
REMARK VINA RESULT:    -4.253      0.878      5.483
REMARK INTER + INTRA:          -6.745
REMARK INTER:                  -6.107
REMARK INTRA:                  -0.638
REMARK UNBOUND:                -0.504
REMARK SMILES O=C([O-])CCCCCCCC(=O)[O-]
REMARK SMILES IDX 7 1 6 2 5 3 4 4 2 5 1 6 3 7 8 8 9 9 10 10 11 11 12 12 13 13
REMARK H PARENT
REMARK Flexibility Score: inf
ROOT
ATOM      1  C   UNL     1      51.890  -3.821  11.362  1.00  0.00     0.000 C 
ENDROOT
BRANCH   1   2
ATOM      2  C   UNL     1      52.339  -3.433  12.781  1.00  0.00     0.000 C 
BRANCH   2   3
ATOM      3  C   UNL     1      53.703  -4.036  13.157  1.00  0.00     0.006 C 
BRANCH   3   4
ATOM      4  C   UNL     1      54.868  -3.104  12.797  1.00  0.00     0.053 C 
BRANCH   4   5
ATOM      5  C   UNL     1      55.900  -3.054  13.882  1.00  0.00     0.041 C 
ATOM      6  O   UNL     1      56.912  -3.801  13.827  1.00  0.00    -0.550 OA
ATOM      7  O   UNL     1      55.730  -2.206  14.967  1.00  0.00    -0.550 OA
ENDBRANCH   4   5
ENDBRANCH   3   4
ENDBRANCH   2   3
ENDBRANCH   1   2
BRANCH   1   8
ATOM      8  C   UNL     1      51.821  -2.612  10.413  1.00  0.00     0.000 C 
BRANCH   8   9
ATOM      9  C   UNL     1      53.054  -2.508   9.501  1.00  0.00     0.006 C 
BRANCH   9  10
ATOM     10  C   UNL     1      53.744  -3.861   9.281  1.00  0.00     0.053 C 
BRANCH  10  11
ATOM     11  C   UNL     1      53.546  -4.325   7.873  1.00  0.00     0.041 C 
ATOM     12  O   UNL     1      52.402  -4.675   7.476  1.00  0.00    -0.550 OA
ATOM     13  O   UNL     1      54.612  -4.323   6.983  1.00  0.00    -0.550 OA
ENDBRANCH  10  11
ENDBRANCH   9  10
ENDBRANCH   8   9
ENDBRANCH   1   8
TORSDOF 8
ENDMDL
MODEL 4
REMARK VINA RESULT:    -4.079      2.431      6.516
REMARK INTER + INTRA:          -6.490
REMARK INTER:                  -6.150
REMARK INTRA:                  -0.341
REMARK UNBOUND:                -0.504
REMARK SMILES O=C([O-])CCCCCCCC(=O)[O-]
REMARK SMILES IDX 7 1 6 2 5 3 4 4 2 5 1 6 3 7 8 8 9 9 10 10 11 11 12 12 13 13
REMARK H PARENT
REMARK Flexibility Score: inf
ROOT
ATOM      1  C   UNL     1      55.113  -3.696  13.809  1.00  0.00     0.000 C 
ENDROOT
BRANCH   1   2
ATOM      2  C   UNL     1      56.619  -3.410  13.680  1.00  0.00     0.000 C 
BRANCH   2   3
ATOM      3  C   UNL     1      57.100  -2.314  14.647  1.00  0.00     0.006 C 
BRANCH   3   4
ATOM      4  C   UNL     1      55.989  -1.312  14.986  1.00  0.00     0.053 C 
BRANCH   4   5
ATOM      5  C   UNL     1      55.930  -1.019  16.454  1.00  0.00     0.041 C 
ATOM      6  O   UNL     1      56.992  -0.859  17.110  1.00  0.00    -0.550 OA
ATOM      7  O   UNL     1      54.704  -0.950  17.102  1.00  0.00    -0.550 OA
ENDBRANCH   4   5
ENDBRANCH   3   4
ENDBRANCH   2   3
ENDBRANCH   1   2
BRANCH   1   8
ATOM      8  C   UNL     1      54.323  -3.275  12.558  1.00  0.00     0.000 C 
BRANCH   8   9
ATOM      9  C   UNL     1      52.830  -3.053  12.851  1.00  0.00     0.006 C 
BRANCH   9  10
ATOM     10  C   UNL     1      51.935  -4.117  12.200  1.00  0.00     0.053 C 
BRANCH  10  11
ATOM     11  C   UNL     1      52.122  -4.119  10.716  1.00  0.00     0.041 C 
ATOM     12  O   UNL     1      52.520  -5.160  10.128  1.00  0.00    -0.550 OA
ATOM     13  O   UNL     1      51.809  -2.987   9.974  1.00  0.00    -0.550 OA
ENDBRANCH  10  11
ENDBRANCH   9  10
ENDBRANCH   8   9
ENDBRANCH   1   8
TORSDOF 8
ENDMDL
MODEL 5
REMARK VINA RESULT:    -4.066      9.268     11.918
REMARK INTER + INTRA:          -6.471
REMARK INTER:                  -6.007
REMARK INTRA:                  -0.464
REMARK UNBOUND:                -0.504
REMARK SMILES O=C([O-])CCCCCCCC(=O)[O-]
REMARK SMILES IDX 7 1 6 2 5 3 4 4 2 5 1 6 3 7 8 8 9 9 10 10 11 11 12 12 13 13
REMARK H PARENT
REMARK Flexibility Score: inf
ROOT
ATOM      1  C   UNL     1      59.572  -4.352  22.297  1.00  0.00     0.000 C 
ENDROOT
BRANCH   1   2
ATOM      2  C   UNL     1      58.835  -4.330  20.947  1.00  0.00     0.000 C 
BRANCH   2   3
ATOM      3  C   UNL     1      57.635  -3.367  20.941  1.00  0.00     0.006 C 
BRANCH   3   4
ATOM      4  C   UNL     1      58.044  -1.935  20.573  1.00  0.00     0.053 C 
BRANCH   4   5
ATOM      5  C   UNL     1      57.531  -1.537  19.223  1.00  0.00     0.041 C 
ATOM      6  O   UNL     1      58.325  -1.429  18.251  1.00  0.00    -0.550 OA
ATOM      7  O   UNL     1      56.183  -1.258  19.043  1.00  0.00    -0.550 OA
ENDBRANCH   4   5
ENDBRANCH   3   4
ENDBRANCH   2   3
ENDBRANCH   1   2
BRANCH   1   8
ATOM      8  C   UNL     1      61.041  -3.911  22.175  1.00  0.00     0.000 C 
BRANCH   8   9
ATOM      9  C   UNL     1      61.578  -4.037  20.740  1.00  0.00     0.006 C 
BRANCH   9  10
ATOM     10  C   UNL     1      62.833  -4.915  20.653  1.00  0.00     0.053 C 
BRANCH  10  11
ATOM     11  C   UNL     1      63.923  -4.354  21.509  1.00  0.00     0.041 C 
ATOM     12  O   UNL     1      64.472  -3.262  21.202  1.00  0.00    -0.550 OA
ATOM     13  O   UNL     1      64.300  -5.009  22.674  1.00  0.00    -0.550 OA
ENDBRANCH  10  11
ENDBRANCH   9  10
ENDBRANCH   8   9
ENDBRANCH   1   8
TORSDOF 8
ENDMDL
MODEL 6
REMARK VINA RESULT:    -4.064      3.651      5.318
REMARK INTER + INTRA:          -6.468
REMARK INTER:                  -6.231
REMARK INTRA:                  -0.237
REMARK UNBOUND:                -0.504
REMARK SMILES O=C([O-])CCCCCCCC(=O)[O-]
REMARK SMILES IDX 7 1 6 2 5 3 4 4 2 5 1 6 3 7 8 8 9 9 10 10 11 11 12 12 13 13
REMARK H PARENT
REMARK Flexibility Score: inf
ROOT
ATOM      1  C   UNL     1      56.980  -2.857  14.222  1.00  0.00     0.000 C 
ENDROOT
BRANCH   1   2
ATOM      2  C   UNL     1      55.812  -3.778  13.833  1.00  0.00     0.000 C 
BRANCH   2   3
ATOM      3  C   UNL     1      54.539  -2.998  13.461  1.00  0.00     0.006 C 
BRANCH   3   4
ATOM      4  C   UNL     1      53.419  -3.921  12.963  1.00  0.00     0.053 C 
BRANCH   4   5
ATOM      5  C   UNL     1      52.227  -3.148  12.491  1.00  0.00     0.041 C 
ATOM      6  O   UNL     1      52.369  -1.987  12.026  1.00  0.00    -0.550 OA
ATOM      7  O   UNL     1      50.955  -3.697  12.590  1.00  0.00    -0.550 OA
ENDBRANCH   4   5
ENDBRANCH   3   4
ENDBRANCH   2   3
ENDBRANCH   1   2
BRANCH   1   8
ATOM      8  C   UNL     1      56.527  -1.653  15.067  1.00  0.00     0.000 C 
BRANCH   8   9
ATOM      9  C   UNL     1      57.597  -1.204  16.075  1.00  0.00     0.006 C 
BRANCH   9  10
ATOM     10  C   UNL     1      56.993  -0.628  17.363  1.00  0.00     0.053 C 
BRANCH  10  11
ATOM     11  C   UNL     1      57.837  -0.992  18.543  1.00  0.00     0.041 C 
ATOM     12  O   UNL     1      58.668  -1.936  18.461  1.00  0.00    -0.550 OA
ATOM     13  O   UNL     1      57.743  -0.259  19.718  1.00  0.00    -0.550 OA
ENDBRANCH  10  11
ENDBRANCH   9  10
ENDBRANCH   8   9
ENDBRANCH   1   8
TORSDOF 8
ENDMDL
MODEL 7
REMARK VINA RESULT:    -4.051      8.379     10.320
REMARK INTER + INTRA:          -6.450
REMARK INTER:                  -5.797
REMARK INTRA:                  -0.653
REMARK UNBOUND:                -0.504
REMARK SMILES O=C([O-])CCCCCCCC(=O)[O-]
REMARK SMILES IDX 7 1 6 2 5 3 4 4 2 5 1 6 3 7 8 8 9 9 10 10 11 11 12 12 13 13
REMARK H PARENT
REMARK Flexibility Score: inf
ROOT
ATOM      1  C   UNL     1      57.632  -2.870  21.302  1.00  0.00     0.000 C 
ENDROOT
BRANCH   1   2
ATOM      2  C   UNL     1      56.196  -2.524  20.874  1.00  0.00     0.000 C 
BRANCH   2   3
ATOM      3  C   UNL     1      56.097  -1.152  20.185  1.00  0.00     0.006 C 
BRANCH   3   4
ATOM      4  C   UNL     1      57.425  -0.728  19.544  1.00  0.00     0.053 C 
BRANCH   4   5
ATOM      5  C   UNL     1      57.485  -1.089  18.091  1.00  0.00     0.041 C 
ATOM      6  O   UNL     1      58.504  -1.661  17.623  1.00  0.00    -0.550 OA
ATOM      7  O   UNL     1      56.429  -0.767  17.249  1.00  0.00    -0.550 OA
ENDBRANCH   4   5
ENDBRANCH   3   4
ENDBRANCH   2   3
ENDBRANCH   1   2
BRANCH   1   8
ATOM      8  C   UNL     1      58.067  -4.270  20.831  1.00  0.00     0.000 C 
BRANCH   8   9
ATOM      9  C   UNL     1      59.321  -4.230  19.942  1.00  0.00     0.006 C 
BRANCH   9  10
ATOM     10  C   UNL     1      60.425  -3.333  20.517  1.00  0.00     0.053 C 
BRANCH  10  11
ATOM     11  C   UNL     1      61.553  -4.166  21.040  1.00  0.00     0.041 C 
ATOM     12  O   UNL     1      62.469  -4.551  20.265  1.00  0.00    -0.550 OA
ATOM     13  O   UNL     1      61.620  -4.475  22.392  1.00  0.00    -0.550 OA
ENDBRANCH  10  11
ENDBRANCH   9  10
ENDBRANCH   8   9
ENDBRANCH   1   8
TORSDOF 8
ENDMDL
MODEL 8
REMARK VINA RESULT:    -4.015      8.941     11.188
REMARK INTER + INTRA:          -6.396
REMARK INTER:                  -5.852
REMARK INTRA:                  -0.544
REMARK UNBOUND:                -0.504
REMARK SMILES O=C([O-])CCCCCCCC(=O)[O-]
REMARK SMILES IDX 7 1 6 2 5 3 4 4 2 5 1 6 3 7 8 8 9 9 10 10 11 11 12 12 13 13
REMARK H PARENT
REMARK Flexibility Score: inf
ROOT
ATOM      1  C   UNL     1      57.718  -2.931  21.275  1.00  0.00     0.000 C 
ENDROOT
BRANCH   1   2
ATOM      2  C   UNL     1      58.260  -4.193  20.584  1.00  0.00     0.000 C 
BRANCH   2   3
ATOM      3  C   UNL     1      59.739  -4.061  20.180  1.00  0.00     0.006 C 
BRANCH   3   4
ATOM      4  C   UNL     1      60.623  -3.619  21.354  1.00  0.00     0.053 C 
BRANCH   4   5
ATOM      5  C   UNL     1      61.960  -4.293  21.330  1.00  0.00     0.041 C 
ATOM      6  O   UNL     1      62.630  -4.408  22.390  1.00  0.00    -0.550 OA
ATOM      7  O   UNL     1      62.481  -4.766  20.133  1.00  0.00    -0.550 OA
ENDBRANCH   4   5
ENDBRANCH   3   4
ENDBRANCH   2   3
ENDBRANCH   1   2
BRANCH   1   8
ATOM      8  C   UNL     1      56.246  -2.651  20.925  1.00  0.00     0.000 C 
BRANCH   8   9
ATOM      9  C   UNL     1      56.093  -1.571  19.842  1.00  0.00     0.006 C 
BRANCH   9  10
ATOM     10  C   UNL     1      57.322  -0.658  19.737  1.00  0.00     0.053 C 
BRANCH  10  11
ATOM     11  C   UNL     1      57.858  -0.664  18.341  1.00  0.00     0.041 C 
ATOM     12  O   UNL     1      58.474  -1.671  17.902  1.00  0.00    -0.550 OA
ATOM     13  O   UNL     1      57.635   0.423  17.506  1.00  0.00    -0.550 OA
ENDBRANCH  10  11
ENDBRANCH   9  10
ENDBRANCH   8   9
ENDBRANCH   1   8
TORSDOF 8
ENDMDL
MODEL 9
REMARK VINA RESULT:    -3.969      1.872      5.986
REMARK INTER + INTRA:          -6.330
REMARK INTER:                  -5.971
REMARK INTRA:                  -0.359
REMARK UNBOUND:                -0.504
REMARK SMILES O=C([O-])CCCCCCCC(=O)[O-]
REMARK SMILES IDX 7 1 6 2 5 3 4 4 2 5 1 6 3 7 8 8 9 9 10 10 11 11 12 12 13 13
REMARK H PARENT
REMARK Flexibility Score: inf
ROOT
ATOM      1  C   UNL     1      54.282  -2.919  13.001  1.00  0.00     0.000 C 
ENDROOT
BRANCH   1   2
ATOM      2  C   UNL     1      55.491  -3.518  13.738  1.00  0.00     0.000 C 
BRANCH   2   3
ATOM      3  C   UNL     1      56.337  -2.451  14.456  1.00  0.00     0.006 C 
BRANCH   3   4
ATOM      4  C   UNL     1      55.469  -1.357  15.092  1.00  0.00     0.053 C 
BRANCH   4   5
ATOM      5  C   UNL     1      55.828   0.006  14.584  1.00  0.00     0.041 C 
ATOM      6  O   UNL     1      56.917   0.541  14.921  1.00  0.00    -0.550 OA
ATOM      7  O   UNL     1      54.948   0.697  13.762  1.00  0.00    -0.550 OA
ENDBRANCH   4   5
ENDBRANCH   3   4
ENDBRANCH   2   3
ENDBRANCH   1   2
BRANCH   1   8
ATOM      8  C   UNL     1      53.058  -3.853  13.017  1.00  0.00     0.000 C 
BRANCH   8   9
ATOM      9  C   UNL     1      52.649  -4.313  11.609  1.00  0.00     0.006 C 
BRANCH   9  10
ATOM     10  C   UNL     1      53.397  -3.561  10.500  1.00  0.00     0.053 C 
BRANCH  10  11
ATOM     11  C   UNL     1      53.277  -4.294   9.202  1.00  0.00     0.041 C 
ATOM     12  O   UNL     1      54.306  -4.542   8.517  1.00  0.00    -0.550 OA
ATOM     13  O   UNL     1      52.038  -4.749   8.771  1.00  0.00    -0.550 OA
ENDBRANCH  10  11
ENDBRANCH   9  10
ENDBRANCH   8   9
ENDBRANCH   1   8
TORSDOF 8
ENDMDL
