MODEL 1
REMARK VINA RESULT:    -5.285      0.000      0.000
REMARK INTER + INTRA:          -6.480
REMARK INTER:                  -6.211
REMARK INTRA:                  -0.269
REMARK UNBOUND:                -0.269
REMARK SMILES O=C([O-])C=Cc1ccc(O)c(O)c1
REMARK SMILES IDX 6 1 13 2 7 3 11 4 8 5 9 6 5 7 4 8 2 9 1 10 3 11 12 12 10 14
REMARK H PARENT 12 13 10 15
REMARK Flexibility Score: inf
ROOT
ATOM      1  C   UNL     1      -6.897 -25.685  34.907  1.00  0.00    -0.022 A 
ATOM      2  C   UNL     1      -7.894 -25.528  35.881  1.00  0.00     0.058 A 
ATOM      3  C   UNL     1      -6.927 -26.811  34.068  1.00  0.00     0.012 A 
ATOM      4  C   UNL     1      -8.940 -26.453  35.985  1.00  0.00     0.157 A 
ATOM      5  C   UNL     1      -7.969 -27.736  34.167  1.00  0.00     0.051 A 
ATOM      6  C   UNL     1      -8.980 -27.561  35.120  1.00  0.00     0.157 A 
ENDROOT
BRANCH   1   7
ATOM      7  C   UNL     1      -5.778 -24.722  34.856  1.00  0.00     0.010 C 
ATOM      8  C   UNL     1      -5.662 -23.711  33.982  1.00  0.00     0.025 C 
BRANCH   8   9
ATOM      9  C   UNL     1      -6.711 -23.265  33.047  1.00  0.00     0.064 C 
ATOM     10  O   UNL     1      -7.412 -22.261  33.342  1.00  0.00    -0.545 OA
ATOM     11  O   UNL     1      -6.993 -23.968  31.882  1.00  0.00    -0.545 OA
ENDBRANCH   8   9
ENDBRANCH   1   7
BRANCH   4  12
ATOM     12  O   UNL     1      -9.925 -26.256  36.951  1.00  0.00    -0.504 OA
ATOM     13  H   UNL     1     -10.714 -26.883  37.050  1.00  0.00     0.293 HD
ENDBRANCH   4  12
BRANCH   6  14
ATOM     14  O   UNL     1     -10.020 -28.485  35.217  1.00  0.00    -0.504 OA
ATOM     15  H   UNL     1     -10.888 -28.362  34.709  1.00  0.00     0.293 HD
ENDBRANCH   6  14
TORSDOF 4
ENDMDL
MODEL 2
REMARK VINA RESULT:    -5.137      1.155      4.985
REMARK INTER + INTRA:          -6.307
REMARK INTER:                  -6.036
REMARK INTRA:                  -0.271
REMARK UNBOUND:                -0.269
REMARK SMILES O=C([O-])C=Cc1ccc(O)c(O)c1
REMARK SMILES IDX 6 1 13 2 7 3 11 4 8 5 9 6 5 7 4 8 2 9 1 10 3 11 12 12 10 14
REMARK H PARENT 12 13 10 15
REMARK Flexibility Score: inf
ROOT
ATOM      1  C   UNL     1      -6.395 -25.314  34.920  1.00  0.00    -0.022 A 
ATOM      2  C   UNL     1      -6.584 -25.272  33.530  1.00  0.00     0.058 A 
ATOM      3  C   UNL     1      -6.264 -24.111  35.632  1.00  0.00     0.012 A 
ATOM      4  C   UNL     1      -6.695 -24.046  32.864  1.00  0.00     0.157 A 
ATOM      5  C   UNL     1      -6.375 -22.885  34.971  1.00  0.00     0.051 A 
ATOM      6  C   UNL     1      -6.595 -22.845  33.588  1.00  0.00     0.157 A 
ENDROOT
BRANCH   1   7
ATOM      7  C   UNL     1      -6.228 -26.621  35.588  1.00  0.00     0.010 C 
ATOM      8  C   UNL     1      -7.224 -27.375  36.078  1.00  0.00     0.025 C 
BRANCH   8   9
ATOM      9  C   UNL     1      -8.663 -27.131  35.871  1.00  0.00     0.064 C 
ATOM     10  O   UNL     1      -9.264 -27.741  34.948  1.00  0.00    -0.545 OA
ATOM     11  O   UNL     1      -9.356 -26.191  36.624  1.00  0.00    -0.545 OA
ENDBRANCH   8   9
ENDBRANCH   1   7
BRANCH   4  12
ATOM     12  O   UNL     1      -6.902 -24.041  31.485  1.00  0.00    -0.504 OA
ATOM     13  H   UNL     1      -7.220 -24.863  30.986  1.00  0.00     0.293 HD
ENDBRANCH   4  12
BRANCH   6  14
ATOM     14  O   UNL     1      -6.707 -21.621  32.931  1.00  0.00    -0.504 OA
ATOM     15  H   UNL     1      -6.511 -21.530  31.941  1.00  0.00     0.293 HD
ENDBRANCH   6  14
TORSDOF 4
ENDMDL
MODEL 3
REMARK VINA RESULT:    -5.117      1.502      4.492
REMARK INTER + INTRA:          -6.283
REMARK INTER:                  -6.047
REMARK INTRA:                  -0.236
REMARK UNBOUND:                -0.269
REMARK SMILES O=C([O-])C=Cc1ccc(O)c(O)c1
REMARK SMILES IDX 6 1 13 2 7 3 11 4 8 5 9 6 5 7 4 8 2 9 1 10 3 11 12 12 10 14
REMARK H PARENT 12 13 10 15
REMARK Flexibility Score: inf
ROOT
ATOM      1  C   UNL     1      -6.463 -25.015  34.975  1.00  0.00    -0.022 A 
ATOM      2  C   UNL     1      -7.433 -24.065  35.329  1.00  0.00     0.058 A 
ATOM      3  C   UNL     1      -5.727 -24.837  33.791  1.00  0.00     0.012 A 
ATOM      4  C   UNL     1      -7.631 -22.923  34.544  1.00  0.00     0.157 A 
ATOM      5  C   UNL     1      -5.922 -23.698  33.005  1.00  0.00     0.051 A 
ATOM      6  C   UNL     1      -6.869 -22.736  33.378  1.00  0.00     0.157 A 
ENDROOT
BRANCH   1   7
ATOM      7  C   UNL     1      -6.312 -26.235  35.793  1.00  0.00     0.010 C 
ATOM      8  C   UNL     1      -7.076 -27.334  35.698  1.00  0.00     0.025 C 
BRANCH   8   9
ATOM      9  C   UNL     1      -8.070 -27.594  34.640  1.00  0.00     0.064 C 
ATOM     10  O   UNL     1      -9.281 -27.737  34.956  1.00  0.00    -0.545 OA
ATOM     11  O   UNL     1      -7.693 -27.756  33.313  1.00  0.00    -0.545 OA
ENDBRANCH   8   9
ENDBRANCH   1   7
BRANCH   4  12
ATOM     12  O   UNL     1      -8.590 -21.990  34.936  1.00  0.00    -0.504 OA
ATOM     13  H   UNL     1      -9.463 -22.266  35.371  1.00  0.00     0.293 HD
ENDBRANCH   4  12
BRANCH   6  14
ATOM     14  O   UNL     1      -7.061 -21.600  32.592  1.00  0.00    -0.504 OA
ATOM     15  H   UNL     1      -6.922 -21.619  31.589  1.00  0.00     0.293 HD
ENDBRANCH   6  14
TORSDOF 4
ENDMDL
MODEL 4
REMARK VINA RESULT:    -5.085      1.130      2.009
REMARK INTER + INTRA:          -6.246
REMARK INTER:                  -6.028
REMARK INTRA:                  -0.218
REMARK UNBOUND:                -0.269
REMARK SMILES O=C([O-])C=Cc1ccc(O)c(O)c1
REMARK SMILES IDX 6 1 13 2 7 3 11 4 8 5 9 6 5 7 4 8 2 9 1 10 3 11 12 12 10 14
REMARK H PARENT 12 13 10 15
REMARK Flexibility Score: inf
ROOT
ATOM      1  C   UNL     1      -7.041 -25.207  35.351  1.00  0.00    -0.022 A 
ATOM      2  C   UNL     1      -6.984 -26.134  34.299  1.00  0.00     0.058 A 
ATOM      3  C   UNL     1      -8.013 -25.365  36.353  1.00  0.00     0.012 A 
ATOM      4  C   UNL     1      -7.848 -27.235  34.272  1.00  0.00     0.157 A 
ATOM      5  C   UNL     1      -8.877 -26.462  36.330  1.00  0.00     0.051 A 
ATOM      6  C   UNL     1      -8.797 -27.403  35.295  1.00  0.00     0.157 A 
ENDROOT
BRANCH   1   7
ATOM      7  C   UNL     1      -6.153 -24.027  35.325  1.00  0.00     0.010 C 
ATOM      8  C   UNL     1      -6.269 -22.986  34.487  1.00  0.00     0.025 C 
BRANCH   8   9
ATOM      9  C   UNL     1      -7.405 -22.742  33.578  1.00  0.00     0.064 C 
ATOM     10  O   UNL     1      -8.447 -22.197  34.029  1.00  0.00    -0.545 OA
ATOM     11  O   UNL     1      -7.379 -23.163  32.254  1.00  0.00    -0.545 OA
ENDBRANCH   8   9
ENDBRANCH   1   7
BRANCH   4  12
ATOM     12  O   UNL     1      -7.750 -28.147  33.222  1.00  0.00    -0.504 OA
ATOM     13  H   UNL     1      -8.540 -28.703  32.918  1.00  0.00     0.293 HD
ENDBRANCH   4  12
BRANCH   6  14
ATOM     14  O   UNL     1      -9.659 -28.498  35.275  1.00  0.00    -0.504 OA
ATOM     15  H   UNL     1     -10.643 -28.403  35.498  1.00  0.00     0.293 HD
ENDBRANCH   6  14
TORSDOF 4
ENDMDL
MODEL 5
REMARK VINA RESULT:    -4.955      2.369      4.701
REMARK INTER + INTRA:          -6.094
REMARK INTER:                  -5.817
REMARK INTRA:                  -0.277
REMARK UNBOUND:                -0.269
REMARK SMILES O=C([O-])C=Cc1ccc(O)c(O)c1
REMARK SMILES IDX 6 1 13 2 7 3 11 4 8 5 9 6 5 7 4 8 2 9 1 10 3 11 12 12 10 14
REMARK H PARENT 12 13 10 15
REMARK Flexibility Score: inf
ROOT
ATOM      1  C   UNL     1      -6.740 -22.867  33.456  1.00  0.00    -0.022 A 
ATOM      2  C   UNL     1      -7.304 -22.052  34.449  1.00  0.00     0.058 A 
ATOM      3  C   UNL     1      -7.423 -23.042  32.241  1.00  0.00     0.012 A 
ATOM      4  C   UNL     1      -8.508 -21.375  34.216  1.00  0.00     0.157 A 
ATOM      5  C   UNL     1      -8.624 -22.369  32.004  1.00  0.00     0.051 A 
ATOM      6  C   UNL     1      -9.169 -21.531  32.985  1.00  0.00     0.157 A 
ENDROOT
BRANCH   1   7
ATOM      7  C   UNL     1      -5.498 -23.610  33.750  1.00  0.00     0.010 C 
ATOM      8  C   UNL     1      -5.433 -24.811  34.344  1.00  0.00     0.025 C 
BRANCH   8   9
ATOM      9  C   UNL     1      -6.585 -25.684  34.636  1.00  0.00     0.064 C 
ATOM     10  O   UNL     1      -7.032 -25.742  35.812  1.00  0.00    -0.545 OA
ATOM     11  O   UNL     1      -7.145 -26.498  33.659  1.00  0.00    -0.545 OA
ENDBRANCH   8   9
ENDBRANCH   1   7
BRANCH   4  12
ATOM     12  O   UNL     1      -9.030 -20.558  35.217  1.00  0.00    -0.504 OA
ATOM     13  H   UNL     1      -9.030 -20.834  36.192  1.00  0.00     0.293 HD
ENDBRANCH   4  12
BRANCH   6  14
ATOM     14  O   UNL     1     -10.367 -20.858  32.746  1.00  0.00    -0.504 OA
ATOM     15  H   UNL     1     -11.262 -21.325  32.824  1.00  0.00     0.293 HD
ENDBRANCH   6  14
TORSDOF 4
ENDMDL
MODEL 6
REMARK VINA RESULT:    -4.804      4.435      7.233
REMARK INTER + INTRA:          -5.915
REMARK INTER:                  -5.714
REMARK INTRA:                  -0.201
REMARK UNBOUND:                -0.269
REMARK SMILES O=C([O-])C=Cc1ccc(O)c(O)c1
REMARK SMILES IDX 6 1 13 2 7 3 11 4 8 5 9 6 5 7 4 8 2 9 1 10 3 11 12 12 10 14
REMARK H PARENT 12 13 10 15
REMARK Flexibility Score: inf
ROOT
ATOM      1  C   UNL     1      -6.767 -20.678  34.809  1.00  0.00    -0.022 A 
ATOM      2  C   UNL     1      -5.809 -20.550  33.793  1.00  0.00     0.058 A 
ATOM      3  C   UNL     1      -6.982 -19.605  35.690  1.00  0.00     0.012 A 
ATOM      4  C   UNL     1      -5.109 -19.350  33.621  1.00  0.00     0.157 A 
ATOM      5  C   UNL     1      -6.286 -18.405  35.522  1.00  0.00     0.051 A 
ATOM      6  C   UNL     1      -5.352 -18.270  34.487  1.00  0.00     0.157 A 
ENDROOT
BRANCH   1   7
ATOM      7  C   UNL     1      -7.451 -21.973  34.999  1.00  0.00     0.010 C 
ATOM      8  C   UNL     1      -8.514 -22.401  34.300  1.00  0.00     0.025 C 
BRANCH   8   9
ATOM      9  C   UNL     1      -9.067 -21.746  33.100  1.00  0.00     0.064 C 
ATOM     10  O   UNL     1     -10.175 -21.153  33.179  1.00  0.00    -0.545 OA
ATOM     11  O   UNL     1      -8.429 -21.828  31.869  1.00  0.00    -0.545 OA
ENDBRANCH   8   9
ENDBRANCH   1   7
BRANCH   4  12
ATOM     12  O   UNL     1      -4.177 -19.251  32.588  1.00  0.00    -0.504 OA
ATOM     13  H   UNL     1      -3.249 -18.873  32.736  1.00  0.00     0.293 HD
ENDBRANCH   4  12
BRANCH   6  14
ATOM     14  O   UNL     1      -4.660 -17.071  34.320  1.00  0.00    -0.504 OA
ATOM     15  H   UNL     1      -5.037 -16.314  33.763  1.00  0.00     0.293 HD
ENDBRANCH   6  14
TORSDOF 4
ENDMDL
MODEL 7
REMARK VINA RESULT:    -4.789      1.944      2.459
REMARK INTER + INTRA:          -5.898
REMARK INTER:                  -5.633
REMARK INTRA:                  -0.264
REMARK UNBOUND:                -0.269
REMARK SMILES O=C([O-])C=Cc1ccc(O)c(O)c1
REMARK SMILES IDX 6 1 13 2 7 3 11 4 8 5 9 6 5 7 4 8 2 9 1 10 3 11 12 12 10 14
REMARK H PARENT 12 13 10 15
REMARK Flexibility Score: inf
ROOT
ATOM      1  C   UNL     1      -7.607 -23.653  35.119  1.00  0.00    -0.022 A 
ATOM      2  C   UNL     1      -8.570 -24.331  35.881  1.00  0.00     0.058 A 
ATOM      3  C   UNL     1      -6.698 -24.393  34.345  1.00  0.00     0.012 A 
ATOM      4  C   UNL     1      -8.664 -25.727  35.832  1.00  0.00     0.157 A 
ATOM      5  C   UNL     1      -6.788 -25.786  34.293  1.00  0.00     0.051 A 
ATOM      6  C   UNL     1      -7.770 -26.459  35.030  1.00  0.00     0.157 A 
ENDROOT
BRANCH   1   7
ATOM      7  C   UNL     1      -7.498 -22.184  35.231  1.00  0.00     0.010 C 
ATOM      8  C   UNL     1      -8.041 -21.298  34.383  1.00  0.00     0.025 C 
BRANCH   8   9
ATOM      9  C   UNL     1      -8.994 -21.620  33.305  1.00  0.00     0.064 C 
ATOM     10  O   UNL     1      -8.556 -22.035  32.200  1.00  0.00    -0.545 OA
ATOM     11  O   UNL     1     -10.359 -21.409  33.455  1.00  0.00    -0.545 OA
ENDBRANCH   8   9
ENDBRANCH   1   7
BRANCH   4  12
ATOM     12  O   UNL     1      -9.646 -26.367  36.586  1.00  0.00    -0.504 OA
ATOM     13  H   UNL     1     -10.602 -26.033  36.619  1.00  0.00     0.293 HD
ENDBRANCH   4  12
BRANCH   6  14
ATOM     14  O   UNL     1      -7.859 -27.849  34.975  1.00  0.00    -0.504 OA
ATOM     15  H   UNL     1      -7.037 -28.429  34.856  1.00  0.00     0.293 HD
ENDBRANCH   6  14
TORSDOF 4
ENDMDL
MODEL 8
REMARK VINA RESULT:    -4.623      2.702      5.250
REMARK INTER + INTRA:          -5.702
REMARK INTER:                  -5.476
REMARK INTRA:                  -0.227
REMARK UNBOUND:                -0.269
REMARK SMILES O=C([O-])C=Cc1ccc(O)c(O)c1
REMARK SMILES IDX 6 1 13 2 7 3 11 4 8 5 9 6 5 7 4 8 2 9 1 10 3 11 12 12 10 14
REMARK H PARENT 12 13 10 15
REMARK Flexibility Score: inf
ROOT
ATOM      1  C   UNL     1      -7.108 -22.693  33.468  1.00  0.00    -0.022 A 
ATOM      2  C   UNL     1      -8.417 -22.186  33.486  1.00  0.00     0.058 A 
ATOM      3  C   UNL     1      -6.114 -22.054  34.228  1.00  0.00     0.012 A 
ATOM      4  C   UNL     1      -8.745 -21.090  34.292  1.00  0.00     0.157 A 
ATOM      5  C   UNL     1      -6.437 -20.960  35.034  1.00  0.00     0.051 A 
ATOM      6  C   UNL     1      -7.751 -20.475  35.074  1.00  0.00     0.157 A 
ENDROOT
BRANCH   1   7
ATOM      7  C   UNL     1      -6.780 -23.817  32.568  1.00  0.00     0.010 C 
ATOM      8  C   UNL     1      -6.460 -25.059  32.962  1.00  0.00     0.025 C 
BRANCH   8   9
ATOM      9  C   UNL     1      -6.563 -25.572  34.341  1.00  0.00     0.064 C 
ATOM     10  O   UNL     1      -5.563 -25.494  35.103  1.00  0.00    -0.545 OA
ATOM     11  O   UNL     1      -7.713 -26.202  34.798  1.00  0.00    -0.545 OA
ENDBRANCH   8   9
ENDBRANCH   1   7
BRANCH   4  12
ATOM     12  O   UNL     1     -10.059 -20.624  34.301  1.00  0.00    -0.504 OA
ATOM     13  H   UNL     1     -10.354 -19.836  33.737  1.00  0.00     0.293 HD
ENDBRANCH   4  12
BRANCH   6  14
ATOM     14  O   UNL     1      -8.071 -19.384  35.880  1.00  0.00    -0.504 OA
ATOM     15  H   UNL     1      -8.781 -18.714  35.609  1.00  0.00     0.293 HD
ENDBRANCH   6  14
TORSDOF 4
ENDMDL
