MODEL 1
REMARK VINA RESULT:    -4.348      0.000      0.000
REMARK INTER + INTRA:          -9.128
REMARK INTER:                  -7.399
REMARK INTRA:                  -1.729
REMARK UNBOUND:                -1.729
REMARK SMILES CCCCCCCCCCCCCC(=O)[O-]
REMARK SMILES IDX 8 1 9 2 10 3 11 4 12 5 13 6 14 7 15 8 16 9 7 10 6 11 5 12
REMARK SMILES IDX 4 13 3 14 2 15 1 16
REMARK H PARENT
REMARK Flexibility Score: inf
ROOT
ATOM      1  C   UNL     1      17.108 -32.234  23.723  1.00  0.00     0.000 C 
ENDROOT
BRANCH   1   2
ATOM      2  C   UNL     1      15.816 -32.886  24.238  1.00  0.00     0.000 C 
BRANCH   2   3
ATOM      3  C   UNL     1      15.245 -33.919  23.243  1.00  0.00     0.000 C 
BRANCH   3   4
ATOM      4  C   UNL     1      16.301 -34.505  22.289  1.00  0.00     0.000 C 
BRANCH   4   5
ATOM      5  C   UNL     1      16.060 -34.123  20.823  1.00  0.00     0.006 C 
BRANCH   5   6
ATOM      6  C   UNL     1      15.913 -35.371  19.947  1.00  0.00     0.053 C 
BRANCH   6   7
ATOM      7  C   UNL     1      17.254 -35.967  19.657  1.00  0.00     0.041 C 
ATOM      8  O   UNL     1      17.426 -37.212  19.743  1.00  0.00    -0.550 OA
ATOM      9  O   UNL     1      18.302 -35.155  19.243  1.00  0.00    -0.550 OA
ENDBRANCH   6   7
ENDBRANCH   5   6
ENDBRANCH   4   5
ENDBRANCH   3   4
ENDBRANCH   2   3
ENDBRANCH   1   2
BRANCH   1  10
ATOM     10  C   UNL     1      16.902 -30.739  23.454  1.00  0.00     0.000 C 
BRANCH  10  11
ATOM     11  C   UNL     1      16.574 -30.487  21.975  1.00  0.00    -0.000 C 
BRANCH  11  12
ATOM     12  C   UNL     1      15.159 -29.923  21.769  1.00  0.00    -0.000 C 
BRANCH  12  13
ATOM     13  C   UNL     1      14.150 -30.997  21.333  1.00  0.00    -0.000 C 
BRANCH  13  14
ATOM     14  C   UNL     1      12.910 -30.982  22.238  1.00  0.00    -0.000 C 
BRANCH  14  15
ATOM     15  C   UNL     1      13.176 -30.312  23.595  1.00  0.00    -0.003 C 
ATOM     16  C   UNL     1      12.334 -29.054  23.809  1.00  0.00     0.004 C 
ENDBRANCH  14  15
ENDBRANCH  13  14
ENDBRANCH  12  13
ENDBRANCH  11  12
ENDBRANCH  10  11
ENDBRANCH   1  10
TORSDOF 12
ENDMDL
MODEL 2
REMARK VINA RESULT:    -4.317      4.222      6.561
REMARK INTER + INTRA:          -9.074
REMARK INTER:                  -7.607
REMARK INTRA:                  -1.467
REMARK UNBOUND:                -1.729
REMARK SMILES CCCCCCCCCCCCCC(=O)[O-]
REMARK SMILES IDX 8 1 9 2 10 3 11 4 12 5 13 6 14 7 15 8 16 9 7 10 6 11 5 12
REMARK SMILES IDX 4 13 3 14 2 15 1 16
REMARK H PARENT
REMARK Flexibility Score: inf
ROOT
ATOM      1  C   UNL     1      14.715 -33.633  21.237  1.00  0.00     0.000 C 
ENDROOT
BRANCH   1   2
ATOM      2  C   UNL     1      13.899 -32.554  20.507  1.00  0.00     0.000 C 
BRANCH   2   3
ATOM      3  C   UNL     1      13.812 -31.241  21.314  1.00  0.00     0.000 C 
BRANCH   3   4
ATOM      4  C   UNL     1      14.062 -31.426  22.821  1.00  0.00     0.000 C 
BRANCH   4   5
ATOM      5  C   UNL     1      13.299 -30.411  23.683  1.00  0.00     0.006 C 
BRANCH   5   6
ATOM      6  C   UNL     1      13.682 -28.976  23.308  1.00  0.00     0.053 C 
BRANCH   6   7
ATOM      7  C   UNL     1      12.750 -28.000  23.954  1.00  0.00     0.041 C 
ATOM      8  O   UNL     1      11.557 -28.324  24.189  1.00  0.00    -0.550 OA
ATOM      9  O   UNL     1      13.213 -26.750  24.344  1.00  0.00    -0.550 OA
ENDBRANCH   6   7
ENDBRANCH   5   6
ENDBRANCH   4   5
ENDBRANCH   3   4
ENDBRANCH   2   3
ENDBRANCH   1   2
BRANCH   1  10
ATOM     10  C   UNL     1      15.374 -34.594  20.241  1.00  0.00     0.000 C 
BRANCH  10  11
ATOM     11  C   UNL     1      16.867 -34.772  20.555  1.00  0.00    -0.000 C 
BRANCH  11  12
ATOM     12  C   UNL     1      17.766 -33.866  19.699  1.00  0.00    -0.000 C 
BRANCH  12  13
ATOM     13  C   UNL     1      18.807 -33.104  20.532  1.00  0.00    -0.000 C 
BRANCH  13  14
ATOM     14  C   UNL     1      18.126 -32.253  21.614  1.00  0.00    -0.000 C 
BRANCH  14  15
ATOM     15  C   UNL     1      17.568 -30.931  21.062  1.00  0.00    -0.003 C 
ATOM     16  C   UNL     1      17.296 -29.900  22.158  1.00  0.00     0.004 C 
ENDBRANCH  14  15
ENDBRANCH  13  14
ENDBRANCH  12  13
ENDBRANCH  11  12
ENDBRANCH  10  11
ENDBRANCH   1  10
TORSDOF 12
ENDMDL
MODEL 3
REMARK VINA RESULT:    -4.312      1.200      3.014
REMARK INTER + INTRA:          -9.066
REMARK INTER:                  -7.165
REMARK INTRA:                  -1.901
REMARK UNBOUND:                -1.729
REMARK SMILES CCCCCCCCCCCCCC(=O)[O-]
REMARK SMILES IDX 8 1 9 2 10 3 11 4 12 5 13 6 14 7 15 8 16 9 7 10 6 11 5 12
REMARK SMILES IDX 4 13 3 14 2 15 1 16
REMARK H PARENT
REMARK Flexibility Score: inf
ROOT
ATOM      1  C   UNL     1      13.620 -31.678  23.245  1.00  0.00     0.000 C 
ENDROOT
BRANCH   1   2
ATOM      2  C   UNL     1      13.895 -32.672  24.383  1.00  0.00     0.000 C 
BRANCH   2   3
ATOM      3  C   UNL     1      14.888 -33.778  23.966  1.00  0.00     0.000 C 
BRANCH   3   4
ATOM      4  C   UNL     1      15.196 -33.793  22.459  1.00  0.00     0.000 C 
BRANCH   4   5
ATOM      5  C   UNL     1      16.466 -34.584  22.116  1.00  0.00     0.006 C 
BRANCH   5   6
ATOM      6  C   UNL     1      16.451 -35.038  20.653  1.00  0.00     0.053 C 
BRANCH   6   7
ATOM      7  C   UNL     1      17.602 -34.440  19.908  1.00  0.00     0.041 C 
ATOM      8  O   UNL     1      18.292 -35.152  19.131  1.00  0.00    -0.550 OA
ATOM      9  O   UNL     1      17.882 -33.086  20.031  1.00  0.00    -0.550 OA
ENDBRANCH   6   7
ENDBRANCH   5   6
ENDBRANCH   4   5
ENDBRANCH   3   4
ENDBRANCH   2   3
ENDBRANCH   1   2
BRANCH   1  10
ATOM     10  C   UNL     1      13.566 -30.239  23.771  1.00  0.00     0.000 C 
BRANCH  10  11
ATOM     11  C   UNL     1      14.163 -29.258  22.752  1.00  0.00    -0.000 C 
BRANCH  11  12
ATOM     12  C   UNL     1      15.136 -29.937  21.775  1.00  0.00    -0.000 C 
BRANCH  12  13
ATOM     13  C   UNL     1      16.606 -29.600  22.070  1.00  0.00    -0.000 C 
BRANCH  13  14
ATOM     14  C   UNL     1      17.359 -30.838  22.580  1.00  0.00    -0.000 C 
BRANCH  14  15
ATOM     15  C   UNL     1      17.372 -30.930  24.114  1.00  0.00    -0.003 C 
ATOM     16  C   UNL     1      18.196 -32.111  24.628  1.00  0.00     0.004 C 
ENDBRANCH  14  15
ENDBRANCH  13  14
ENDBRANCH  12  13
ENDBRANCH  11  12
ENDBRANCH  10  11
ENDBRANCH   1  10
TORSDOF 12
ENDMDL
MODEL 4
REMARK VINA RESULT:    -4.261      3.472      6.215
REMARK INTER + INTRA:          -8.980
REMARK INTER:                  -7.168
REMARK INTRA:                  -1.812
REMARK UNBOUND:                -1.729
REMARK SMILES CCCCCCCCCCCCCC(=O)[O-]
REMARK SMILES IDX 8 1 9 2 10 3 11 4 12 5 13 6 14 7 15 8 16 9 7 10 6 11 5 12
REMARK SMILES IDX 4 13 3 14 2 15 1 16
REMARK H PARENT
REMARK Flexibility Score: inf
ROOT
ATOM      1  C   UNL     1      15.713 -35.464  20.270  1.00  0.00     0.000 C 
ENDROOT
BRANCH   1   2
ATOM      2  C   UNL     1      15.397 -33.999  19.937  1.00  0.00     0.000 C 
BRANCH   2   3
ATOM      3  C   UNL     1      14.611 -33.299  21.067  1.00  0.00     0.000 C 
BRANCH   3   4
ATOM      4  C   UNL     1      15.140 -33.618  22.475  1.00  0.00     0.000 C 
BRANCH   4   5
ATOM      5  C   UNL     1      14.425 -32.824  23.577  1.00  0.00     0.006 C 
BRANCH   5   6
ATOM      6  C   UNL     1      14.625 -31.318  23.384  1.00  0.00     0.053 C 
BRANCH   6   7
ATOM      7  C   UNL     1      13.304 -30.616  23.345  1.00  0.00     0.041 C 
ATOM      8  O   UNL     1      12.377 -31.051  22.614  1.00  0.00    -0.550 OA
ATOM      9  O   UNL     1      13.080 -29.510  24.155  1.00  0.00    -0.550 OA
ENDBRANCH   6   7
ENDBRANCH   5   6
ENDBRANCH   4   5
ENDBRANCH   3   4
ENDBRANCH   2   3
ENDBRANCH   1   2
BRANCH   1  10
ATOM     10  C   UNL     1      16.939 -35.955  19.492  1.00  0.00     0.000 C 
BRANCH  10  11
ATOM     11  C   UNL     1      17.865 -36.787  20.392  1.00  0.00    -0.000 C 
BRANCH  11  12
ATOM     12  C   UNL     1      18.132 -36.117  21.749  1.00  0.00    -0.000 C 
BRANCH  12  13
ATOM     13  C   UNL     1      19.276 -35.093  21.690  1.00  0.00    -0.000 C 
BRANCH  13  14
ATOM     14  C   UNL     1      18.750 -33.671  21.936  1.00  0.00    -0.000 C 
BRANCH  14  15
ATOM     15  C   UNL     1      18.763 -32.808  20.664  1.00  0.00    -0.003 C 
ATOM     16  C   UNL     1      18.001 -31.493  20.833  1.00  0.00     0.004 C 
ENDBRANCH  14  15
ENDBRANCH  13  14
ENDBRANCH  12  13
ENDBRANCH  11  12
ENDBRANCH  10  11
ENDBRANCH   1  10
TORSDOF 12
ENDMDL
MODEL 5
REMARK VINA RESULT:    -4.261      1.990      2.606
REMARK INTER + INTRA:          -8.979
REMARK INTER:                  -7.603
REMARK INTRA:                  -1.375
REMARK UNBOUND:                -1.729
REMARK SMILES CCCCCCCCCCCCCC(=O)[O-]
REMARK SMILES IDX 8 1 9 2 10 3 11 4 12 5 13 6 14 7 15 8 16 9 7 10 6 11 5 12
REMARK SMILES IDX 4 13 3 14 2 15 1 16
REMARK H PARENT
REMARK Flexibility Score: inf
ROOT
ATOM      1  C   UNL     1      17.445 -30.770  21.213  1.00  0.00     0.000 C 
ENDROOT
BRANCH   1   2
ATOM      2  C   UNL     1      18.202 -31.772  22.097  1.00  0.00     0.000 C 
BRANCH   2   3
ATOM      3  C   UNL     1      18.921 -32.857  21.267  1.00  0.00     0.000 C 
BRANCH   3   4
ATOM      4  C   UNL     1      18.146 -33.285  20.008  1.00  0.00     0.000 C 
BRANCH   4   5
ATOM      5  C   UNL     1      17.924 -34.801  19.928  1.00  0.00     0.006 C 
BRANCH   5   6
ATOM      6  C   UNL     1      16.456 -35.126  19.636  1.00  0.00     0.053 C 
BRANCH   6   7
ATOM      7  C   UNL     1      15.566 -34.490  20.656  1.00  0.00     0.041 C 
ATOM      8  O   UNL     1      15.733 -34.731  21.881  1.00  0.00    -0.550 OA
ATOM      9  O   UNL     1      14.584 -33.592  20.260  1.00  0.00    -0.550 OA
ENDBRANCH   6   7
ENDBRANCH   5   6
ENDBRANCH   4   5
ENDBRANCH   3   4
ENDBRANCH   2   3
ENDBRANCH   1   2
BRANCH   1  10
ATOM     10  C   UNL     1      16.030 -30.521  21.747  1.00  0.00     0.000 C 
BRANCH  10  11
ATOM     11  C   UNL     1      15.766 -31.351  23.012  1.00  0.00    -0.000 C 
BRANCH  11  12
ATOM     12  C   UNL     1      14.267 -31.510  23.314  1.00  0.00    -0.000 C 
BRANCH  12  13
ATOM     13  C   UNL     1      13.373 -30.980  22.182  1.00  0.00    -0.000 C 
BRANCH  13  14
ATOM     14  C   UNL     1      12.348 -29.971  22.721  1.00  0.00    -0.000 C 
BRANCH  14  15
ATOM     15  C   UNL     1      12.776 -29.354  24.063  1.00  0.00    -0.003 C 
ATOM     16  C   UNL     1      12.804 -27.825  24.028  1.00  0.00     0.004 C 
ENDBRANCH  14  15
ENDBRANCH  13  14
ENDBRANCH  12  13
ENDBRANCH  11  12
ENDBRANCH  10  11
ENDBRANCH   1  10
TORSDOF 12
ENDMDL
MODEL 6
REMARK VINA RESULT:    -4.245      1.633      2.877
REMARK INTER + INTRA:          -8.951
REMARK INTER:                  -6.957
REMARK INTRA:                  -1.994
REMARK UNBOUND:                -1.729
REMARK SMILES CCCCCCCCCCCCCC(=O)[O-]
REMARK SMILES IDX 8 1 9 2 10 3 11 4 12 5 13 6 14 7 15 8 16 9 7 10 6 11 5 12
REMARK SMILES IDX 4 13 3 14 2 15 1 16
REMARK H PARENT
REMARK Flexibility Score: inf
ROOT
ATOM      1  C   UNL     1      17.568 -31.250  22.909  1.00  0.00     0.000 C 
ENDROOT
BRANCH   1   2
ATOM      2  C   UNL     1      17.552 -30.906  21.412  1.00  0.00     0.000 C 
BRANCH   2   3
ATOM      3  C   UNL     1      18.049 -32.077  20.538  1.00  0.00     0.000 C 
BRANCH   3   4
ATOM      4  C   UNL     1      19.159 -32.912  21.199  1.00  0.00     0.000 C 
BRANCH   4   5
ATOM      5  C   UNL     1      18.870 -34.419  21.173  1.00  0.00     0.006 C 
BRANCH   5   6
ATOM      6  C   UNL     1      17.982 -34.787  19.981  1.00  0.00     0.053 C 
BRANCH   6   7
ATOM      7  C   UNL     1      17.656 -36.247  20.003  1.00  0.00     0.041 C 
ATOM      8  O   UNL     1      17.331 -36.840  18.941  1.00  0.00    -0.550 OA
ATOM      9  O   UNL     1      17.759 -36.965  21.188  1.00  0.00    -0.550 OA
ENDBRANCH   6   7
ENDBRANCH   5   6
ENDBRANCH   4   5
ENDBRANCH   3   4
ENDBRANCH   2   3
ENDBRANCH   1   2
BRANCH   1  10
ATOM     10  C   UNL     1      16.247 -30.857  23.580  1.00  0.00     0.000 C 
BRANCH  10  11
ATOM     11  C   UNL     1      15.489 -29.821  22.738  1.00  0.00    -0.000 C 
BRANCH  11  12
ATOM     12  C   UNL     1      13.993 -30.147  22.600  1.00  0.00    -0.000 C 
BRANCH  12  13
ATOM     13  C   UNL     1      13.722 -31.657  22.506  1.00  0.00    -0.000 C 
BRANCH  13  14
ATOM     14  C   UNL     1      13.753 -32.128  21.045  1.00  0.00    -0.000 C 
BRANCH  14  15
ATOM     15  C   UNL     1      14.641 -33.366  20.843  1.00  0.00    -0.003 C 
ATOM     16  C   UNL     1      15.098 -33.988  22.163  1.00  0.00     0.004 C 
ENDBRANCH  14  15
ENDBRANCH  13  14
ENDBRANCH  12  13
ENDBRANCH  11  12
ENDBRANCH  10  11
ENDBRANCH   1  10
TORSDOF 12
ENDMDL
MODEL 7
REMARK VINA RESULT:    -4.203      1.616      2.491
REMARK INTER + INTRA:          -8.881
REMARK INTER:                  -7.889
REMARK INTRA:                  -0.992
REMARK UNBOUND:                -1.729
REMARK SMILES CCCCCCCCCCCCCC(=O)[O-]
REMARK SMILES IDX 8 1 9 2 10 3 11 4 12 5 13 6 14 7 15 8 16 9 7 10 6 11 5 12
REMARK SMILES IDX 4 13 3 14 2 15 1 16
REMARK H PARENT
REMARK Flexibility Score: inf
ROOT
ATOM      1  C   UNL     1      15.689 -33.440  22.770  1.00  0.00     0.000 C 
ENDROOT
BRANCH   1   2
ATOM      2  C   UNL     1      17.051 -32.732  22.718  1.00  0.00     0.000 C 
BRANCH   2   3
ATOM      3  C   UNL     1      17.260 -31.961  21.397  1.00  0.00     0.000 C 
BRANCH   3   4
ATOM      4  C   UNL     1      18.505 -32.409  20.612  1.00  0.00     0.000 C 
BRANCH   4   5
ATOM      5  C   UNL     1      18.559 -33.926  20.391  1.00  0.00     0.006 C 
BRANCH   5   6
ATOM      6  C   UNL     1      17.730 -34.332  19.168  1.00  0.00     0.053 C 
BRANCH   6   7
ATOM      7  C   UNL     1      16.889 -35.530  19.481  1.00  0.00     0.041 C 
ATOM      8  O   UNL     1      15.740 -35.385  19.974  1.00  0.00    -0.550 OA
ATOM      9  O   UNL     1      17.354 -36.803  19.179  1.00  0.00    -0.550 OA
ENDBRANCH   6   7
ENDBRANCH   5   6
ENDBRANCH   4   5
ENDBRANCH   3   4
ENDBRANCH   2   3
ENDBRANCH   1   2
BRANCH   1  10
ATOM     10  C   UNL     1      15.025 -33.259  24.140  1.00  0.00     0.000 C 
BRANCH  10  11
ATOM     11  C   UNL     1      13.857 -32.265  24.058  1.00  0.00    -0.000 C 
BRANCH  11  12
ATOM     12  C   UNL     1      13.662 -31.695  22.644  1.00  0.00    -0.000 C 
BRANCH  12  13
ATOM     13  C   UNL     1      12.952 -30.332  22.646  1.00  0.00    -0.000 C 
BRANCH  13  14
ATOM     14  C   UNL     1      13.884 -29.230  23.171  1.00  0.00    -0.000 C 
BRANCH  14  15
ATOM     15  C   UNL     1      13.116 -28.063  23.811  1.00  0.00    -0.003 C 
ATOM     16  C   UNL     1      11.627 -28.361  23.989  1.00  0.00     0.004 C 
ENDBRANCH  14  15
ENDBRANCH  13  14
ENDBRANCH  12  13
ENDBRANCH  11  12
ENDBRANCH  10  11
ENDBRANCH   1  10
TORSDOF 12
ENDMDL
MODEL 8
REMARK VINA RESULT:    -4.189      3.833      6.103
REMARK INTER + INTRA:          -8.856
REMARK INTER:                  -7.045
REMARK INTRA:                  -1.811
REMARK UNBOUND:                -1.729
REMARK SMILES CCCCCCCCCCCCCC(=O)[O-]
REMARK SMILES IDX 8 1 9 2 10 3 11 4 12 5 13 6 14 7 15 8 16 9 7 10 6 11 5 12
REMARK SMILES IDX 4 13 3 14 2 15 1 16
REMARK H PARENT
REMARK Flexibility Score: inf
ROOT
ATOM      1  C   UNL     1      17.442 -30.995  24.065  1.00  0.00     0.000 C 
ENDROOT
BRANCH   1   2
ATOM      2  C   UNL     1      17.112 -30.375  22.699  1.00  0.00     0.000 C 
BRANCH   2   3
ATOM      3  C   UNL     1      15.735 -29.678  22.690  1.00  0.00     0.000 C 
BRANCH   3   4
ATOM      4  C   UNL     1      14.739 -30.294  21.692  1.00  0.00     0.000 C 
BRANCH   4   5
ATOM      5  C   UNL     1      13.443 -30.774  22.359  1.00  0.00     0.006 C 
BRANCH   5   6
ATOM      6  C   UNL     1      13.322 -30.221  23.783  1.00  0.00     0.053 C 
BRANCH   6   7
ATOM      7  C   UNL     1      12.412 -29.034  23.808  1.00  0.00     0.041 C 
ATOM      8  O   UNL     1      11.356 -29.031  23.123  1.00  0.00    -0.550 OA
ATOM      9  O   UNL     1      12.704 -27.951  24.627  1.00  0.00    -0.550 OA
ENDBRANCH   6   7
ENDBRANCH   5   6
ENDBRANCH   4   5
ENDBRANCH   3   4
ENDBRANCH   2   3
ENDBRANCH   1   2
BRANCH   1  10
ATOM     10  C   UNL     1      18.167 -32.335  23.903  1.00  0.00     0.000 C 
BRANCH  10  11
ATOM     11  C   UNL     1      17.691 -33.349  24.954  1.00  0.00    -0.000 C 
BRANCH  11  12
ATOM     12  C   UNL     1      16.390 -34.059  24.546  1.00  0.00    -0.000 C 
BRANCH  12  13
ATOM     13  C   UNL     1      16.410 -34.543  23.088  1.00  0.00    -0.000 C 
BRANCH  13  14
ATOM     14  C   UNL     1      15.196 -34.004  22.316  1.00  0.00    -0.000 C 
BRANCH  14  15
ATOM     15  C   UNL     1      15.498 -33.774  20.827  1.00  0.00    -0.003 C 
ATOM     16  C   UNL     1      16.964 -33.427  20.567  1.00  0.00     0.004 C 
ENDBRANCH  14  15
ENDBRANCH  13  14
ENDBRANCH  12  13
ENDBRANCH  11  12
ENDBRANCH  10  11
ENDBRANCH   1  10
TORSDOF 12
ENDMDL
MODEL 9
REMARK VINA RESULT:    -4.180      3.317      6.313
REMARK INTER + INTRA:          -8.841
REMARK INTER:                  -7.362
REMARK INTRA:                  -1.479
REMARK UNBOUND:                -1.729
REMARK SMILES CCCCCCCCCCCCCC(=O)[O-]
REMARK SMILES IDX 8 1 9 2 10 3 11 4 12 5 13 6 14 7 15 8 16 9 7 10 6 11 5 12
REMARK SMILES IDX 4 13 3 14 2 15 1 16
REMARK H PARENT
REMARK Flexibility Score: inf
ROOT
ATOM      1  C   UNL     1      15.318 -34.381  20.285  1.00  0.00     0.000 C 
ENDROOT
BRANCH   1   2
ATOM      2  C   UNL     1      15.342 -34.079  21.791  1.00  0.00     0.000 C 
BRANCH   2   3
ATOM      3  C   UNL     1      16.258 -32.884  22.132  1.00  0.00     0.000 C 
BRANCH   3   4
ATOM      4  C   UNL     1      15.964 -32.254  23.505  1.00  0.00     0.000 C 
BRANCH   4   5
ATOM      5  C   UNL     1      15.067 -31.013  23.414  1.00  0.00     0.006 C 
BRANCH   5   6
ATOM      6  C   UNL     1      13.594 -31.386  23.610  1.00  0.00     0.053 C 
BRANCH   6   7
ATOM      7  C   UNL     1      12.763 -30.838  22.493  1.00  0.00     0.041 C 
ATOM      8  O   UNL     1      12.788 -31.384  21.358  1.00  0.00    -0.550 OA
ATOM      9  O   UNL     1      11.922 -29.756  22.718  1.00  0.00    -0.550 OA
ENDBRANCH   6   7
ENDBRANCH   5   6
ENDBRANCH   4   5
ENDBRANCH   3   4
ENDBRANCH   2   3
ENDBRANCH   1   2
BRANCH   1  10
ATOM     10  C   UNL     1      16.716 -34.748  19.773  1.00  0.00     0.000 C 
BRANCH  10  11
ATOM     11  C   UNL     1      16.837 -36.261  19.540  1.00  0.00    -0.000 C 
BRANCH  11  12
ATOM     12  C   UNL     1      17.666 -36.963  20.627  1.00  0.00    -0.000 C 
BRANCH  12  13
ATOM     13  C   UNL     1      18.529 -35.986  21.440  1.00  0.00    -0.000 C 
BRANCH  13  14
ATOM     14  C   UNL     1      18.605 -36.419  22.912  1.00  0.00    -0.000 C 
BRANCH  14  15
ATOM     15  C   UNL     1      18.206 -35.294  23.880  1.00  0.00    -0.003 C 
ATOM     16  C   UNL     1      17.276 -35.776  24.995  1.00  0.00     0.004 C 
ENDBRANCH  14  15
ENDBRANCH  13  14
ENDBRANCH  12  13
ENDBRANCH  11  12
ENDBRANCH  10  11
ENDBRANCH   1  10
TORSDOF 12
ENDMDL
