MODEL 1
REMARK VINA RESULT:    -2.550      0.000      0.000
REMARK INTER + INTRA:          -2.550
REMARK INTER:                  -2.550
REMARK INTRA:                   0.000
REMARK UNBOUND:                 0.000
REMARK SMILES CC(=O)[O-]
REMARK SMILES IDX 1 1 2 2 3 3 4 4
REMARK H PARENT
REMARK Flexibility Score: inf
ROOT
ATOM      1  C   UNL     1      64.982 149.851   4.268  1.00  0.00     0.063 C 
ATOM      2  C   UNL     1      64.589 151.260   3.979  1.00  0.00     0.038 C 
ATOM      3  O   UNL     1      65.252 152.214   4.465  1.00  0.00    -0.550 OA
ATOM      4  O   UNL     1      63.459 151.525   3.216  1.00  0.00    -0.550 OA
ENDROOT
TORSDOF 0
ENDMDL
MODEL 2
REMARK VINA RESULT:    -2.550      1.388      2.030
REMARK INTER + INTRA:          -2.550
REMARK INTER:                  -2.550
REMARK INTRA:                   0.000
REMARK UNBOUND:                 0.000
REMARK SMILES CC(=O)[O-]
REMARK SMILES IDX 1 1 2 2 3 3 4 4
REMARK H PARENT
REMARK Flexibility Score: inf
ROOT
ATOM      1  C   UNL     1      65.067 152.304   4.833  1.00  0.00     0.063 C 
ATOM      2  C   UNL     1      64.469 151.308   3.898  1.00  0.00     0.038 C 
ATOM      3  O   UNL     1      63.461 151.616   3.207  1.00  0.00    -0.550 OA
ATOM      4  O   UNL     1      64.987 150.022   3.825  1.00  0.00    -0.550 OA
ENDROOT
TORSDOF 0
ENDMDL
MODEL 3
REMARK VINA RESULT:    -2.537      1.723      1.973
REMARK INTER + INTRA:          -2.537
REMARK INTER:                  -2.537
REMARK INTRA:                   0.000
REMARK UNBOUND:                 0.000
REMARK SMILES CC(=O)[O-]
REMARK SMILES IDX 1 1 2 2 3 3 4 4
REMARK H PARENT
REMARK Flexibility Score: inf
ROOT
ATOM      1  C   UNL     1      63.871 151.482   3.544  1.00  0.00     0.063 C 
ATOM      2  C   UNL     1      64.787 150.582   4.302  1.00  0.00     0.038 C 
ATOM      3  O   UNL     1      65.208 150.921   5.439  1.00  0.00    -0.550 OA
ATOM      4  O   UNL     1      65.222 149.392   3.733  1.00  0.00    -0.550 OA
ENDROOT
TORSDOF 0
ENDMDL
MODEL 4
REMARK VINA RESULT:    -2.447      2.492      2.680
REMARK INTER + INTRA:          -2.447
REMARK INTER:                  -2.447
REMARK INTRA:                   0.000
REMARK UNBOUND:                 0.000
REMARK SMILES CC(=O)[O-]
REMARK SMILES IDX 1 1 2 2 3 3 4 4
REMARK H PARENT
REMARK Flexibility Score: inf
ROOT
ATOM      1  C   UNL     1      64.993 151.164   5.256  1.00  0.00     0.063 C 
ATOM      2  C   UNL     1      64.895 149.703   4.974  1.00  0.00     0.038 C 
ATOM      3  O   UNL     1      64.489 148.914   5.867  1.00  0.00    -0.550 OA
ATOM      4  O   UNL     1      65.302 149.202   3.745  1.00  0.00    -0.550 OA
ENDROOT
TORSDOF 0
ENDMDL
MODEL 5
REMARK VINA RESULT:    -2.416      2.256      2.455
REMARK INTER + INTRA:          -2.416
REMARK INTER:                  -2.416
REMARK INTRA:                   0.000
REMARK UNBOUND:                 0.000
REMARK SMILES CC(=O)[O-]
REMARK SMILES IDX 1 1 2 2 3 3 4 4
REMARK H PARENT
REMARK Flexibility Score: inf
ROOT
ATOM      1  C   UNL     1      64.940 151.287   4.266  1.00  0.00     0.063 C 
ATOM      2  C   UNL     1      64.670 150.255   5.308  1.00  0.00     0.038 C 
ATOM      3  O   UNL     1      65.456 149.282   5.453  1.00  0.00    -0.550 OA
ATOM      4  O   UNL     1      63.522 150.334   6.085  1.00  0.00    -0.550 OA
ENDROOT
TORSDOF 0
ENDMDL
MODEL 6
REMARK VINA RESULT:    -2.322      5.038      5.517
REMARK INTER + INTRA:          -2.322
REMARK INTER:                  -2.322
REMARK INTRA:                   0.000
REMARK UNBOUND:                 0.000
REMARK SMILES CC(=O)[O-]
REMARK SMILES IDX 1 1 2 2 3 3 4 4
REMARK H PARENT
REMARK Flexibility Score: inf
ROOT
ATOM      1  C   UNL     1      61.204 152.296   1.989  1.00  0.00     0.063 C 
ATOM      2  C   UNL     1      60.468 153.361   1.250  1.00  0.00     0.038 C 
ATOM      3  O   UNL     1      59.260 153.596   1.517  1.00  0.00    -0.550 OA
ATOM      4  O   UNL     1      61.096 154.061   0.228  1.00  0.00    -0.550 OA
ENDROOT
TORSDOF 0
ENDMDL
MODEL 7
REMARK VINA RESULT:    -2.315     17.830     18.204
REMARK INTER + INTRA:          -2.315
REMARK INTER:                  -2.315
REMARK INTRA:                   0.000
REMARK UNBOUND:                 0.000
REMARK SMILES CC(=O)[O-]
REMARK SMILES IDX 1 1 2 2 3 3 4 4
REMARK H PARENT
REMARK Flexibility Score: inf
ROOT
ATOM      1  C   UNL     1      69.467 139.790 -10.183  1.00  0.00     0.063 C 
ATOM      2  C   UNL     1      69.792 139.513  -8.754  1.00  0.00     0.038 C 
ATOM      3  O   UNL     1      69.598 140.398  -7.879  1.00  0.00    -0.550 OA
ATOM      4  O   UNL     1      70.360 138.299  -8.391  1.00  0.00    -0.550 OA
ENDROOT
TORSDOF 0
ENDMDL
MODEL 8
REMARK VINA RESULT:    -2.294      1.785      2.274
REMARK INTER + INTRA:          -2.294
REMARK INTER:                  -2.294
REMARK INTRA:                   0.000
REMARK UNBOUND:                 0.000
REMARK SMILES CC(=O)[O-]
REMARK SMILES IDX 1 1 2 2 3 3 4 4
REMARK H PARENT
REMARK Flexibility Score: inf
ROOT
ATOM      1  C   UNL     1      65.033 149.511   4.324  1.00  0.00     0.063 C 
ATOM      2  C   UNL     1      64.576 150.472   5.368  1.00  0.00     0.038 C 
ATOM      3  O   UNL     1      63.561 150.213   6.066  1.00  0.00    -0.550 OA
ATOM      4  O   UNL     1      65.238 151.681   5.538  1.00  0.00    -0.550 OA
ENDROOT
TORSDOF 0
ENDMDL
MODEL 9
REMARK VINA RESULT:    -2.280     17.652     18.042
REMARK INTER + INTRA:          -2.280
REMARK INTER:                  -2.280
REMARK INTRA:                   0.000
REMARK UNBOUND:                 0.000
REMARK SMILES CC(=O)[O-]
REMARK SMILES IDX 1 1 2 2 3 3 4 4
REMARK H PARENT
REMARK Flexibility Score: inf
ROOT
ATOM      1  C   UNL     1      69.754 139.500  -9.285  1.00  0.00     0.063 C 
ATOM      2  C   UNL     1      69.983 138.925  -7.929  1.00  0.00     0.038 C 
ATOM      3  O   UNL     1      70.632 137.854  -7.798  1.00  0.00    -0.550 OA
ATOM      4  O   UNL     1      69.436 139.540  -6.810  1.00  0.00    -0.550 OA
ENDROOT
TORSDOF 0
ENDMDL
