MODEL 1
REMARK VINA RESULT:    -4.254      0.000      0.000
REMARK INTER + INTRA:         -10.067
REMARK INTER:                  -7.735
REMARK INTRA:                  -2.332
REMARK UNBOUND:                -2.332
REMARK SMILES CCCCCCCCCCCCCC[C@@H](C)C(=O)[O-]
REMARK SMILES IDX 9 1 10 2 11 3 12 4 13 5 14 6 15 7 16 8 17 9 18 10 19 11 8 12
REMARK SMILES IDX 7 13 6 14 5 15 4 16 3 17 2 18 1 19
REMARK H PARENT
REMARK Flexibility Score: inf
ROOT
ATOM      1  C   UNL     1       6.100  77.086  39.221  1.00  0.00     0.000 C 
ENDROOT
BRANCH   1   2
ATOM      2  C   UNL     1       5.217  75.923  38.735  1.00  0.00     0.000 C 
BRANCH   2   3
ATOM      3  C   UNL     1       5.680  75.244  37.432  1.00  0.00     0.000 C 
BRANCH   3   4
ATOM      4  C   UNL     1       7.211  75.148  37.318  1.00  0.00     0.000 C 
BRANCH   4   5
ATOM      5  C   UNL     1       7.707  73.728  36.999  1.00  0.00     0.001 C 
BRANCH   5   6
ATOM      6  C   UNL     1       6.733  72.570  37.316  1.00  0.00     0.009 C 
BRANCH   6   7
ATOM      7  C   UNL     1       6.921  71.826  38.665  1.00  0.00     0.032 C 
ATOM      8  C   UNL     1       8.389  71.741  39.111  1.00  0.00     0.014 C 
BRANCH   7   9
ATOM      9  C   UNL     1       6.017  72.345  39.752  1.00  0.00     0.044 C 
ATOM     10  O   UNL     1       4.822  71.960  39.843  1.00  0.00    -0.550 OA
ATOM     11  O   UNL     1       6.522  73.225  40.702  1.00  0.00    -0.550 OA
ENDBRANCH   7   9
ENDBRANCH   6   7
ENDBRANCH   5   6
ENDBRANCH   4   5
ENDBRANCH   3   4
ENDBRANCH   2   3
ENDBRANCH   1   2
BRANCH   1  12
ATOM     12  C   UNL     1       5.310  78.385  39.451  1.00  0.00     0.000 C 
BRANCH  12  13
ATOM     13  C   UNL     1       5.741  79.513  38.498  1.00  0.00    -0.000 C 
BRANCH  13  14
ATOM     14  C   UNL     1       6.077  79.002  37.089  1.00  0.00    -0.000 C 
BRANCH  14  15
ATOM     15  C   UNL     1       7.423  79.565  36.611  1.00  0.00    -0.000 C 
BRANCH  15  16
ATOM     16  C   UNL     1       8.438  78.466  36.254  1.00  0.00    -0.000 C 
BRANCH  16  17
ATOM     17  C   UNL     1       9.481  78.165  37.348  1.00  0.00    -0.000 C 
BRANCH  17  18
ATOM     18  C   UNL     1       9.646  79.298  38.383  1.00  0.00    -0.003 C 
ATOM     19  C   UNL     1       9.406  78.823  39.816  1.00  0.00     0.004 C 
ENDBRANCH  17  18
ENDBRANCH  16  17
ENDBRANCH  15  16
ENDBRANCH  14  15
ENDBRANCH  13  14
ENDBRANCH  12  13
ENDBRANCH   1  12
TORSDOF 14
ENDMDL
MODEL 2
REMARK VINA RESULT:    -4.173      4.208      7.378
REMARK INTER + INTRA:          -9.922
REMARK INTER:                  -8.109
REMARK INTRA:                  -1.813
REMARK UNBOUND:                -2.332
REMARK SMILES CCCCCCCCCCCCCC[C@@H](C)C(=O)[O-]
REMARK SMILES IDX 9 1 10 2 11 3 12 4 13 5 14 6 15 7 16 8 17 9 18 10 19 11 8 12
REMARK SMILES IDX 7 13 6 14 5 15 4 16 3 17 2 18 1 19
REMARK H PARENT
REMARK Flexibility Score: inf
ROOT
ATOM      1  C   UNL     1       9.680  78.374  37.273  1.00  0.00     0.000 C 
ENDROOT
BRANCH   1   2
ATOM      2  C   UNL     1       9.201  78.585  38.720  1.00  0.00     0.000 C 
BRANCH   2   3
ATOM      3  C   UNL     1       9.523  79.964  39.326  1.00  0.00     0.000 C 
BRANCH   3   4
ATOM      4  C   UNL     1      10.869  80.532  38.841  1.00  0.00     0.000 C 
BRANCH   4   5
ATOM      5  C   UNL     1      11.725  81.115  39.978  1.00  0.00     0.001 C 
BRANCH   5   6
ATOM      6  C   UNL     1      10.966  81.588  41.240  1.00  0.00     0.009 C 
BRANCH   6   7
ATOM      7  C   UNL     1      11.067  80.700  42.509  1.00  0.00     0.032 C 
ATOM      8  C   UNL     1      11.651  79.307  42.230  1.00  0.00     0.014 C 
BRANCH   7   9
ATOM      9  C   UNL     1      11.755  81.394  43.656  1.00  0.00     0.044 C 
ATOM     10  O   UNL     1      11.325  81.282  44.835  1.00  0.00    -0.550 OA
ATOM     11  O   UNL     1      12.910  82.129  43.421  1.00  0.00    -0.550 OA
ENDBRANCH   7   9
ENDBRANCH   6   7
ENDBRANCH   5   6
ENDBRANCH   4   5
ENDBRANCH   3   4
ENDBRANCH   2   3
ENDBRANCH   1   2
BRANCH   1  12
ATOM     12  C   UNL     1       8.522  78.198  36.277  1.00  0.00     0.000 C 
BRANCH  12  13
ATOM     13  C   UNL     1       7.539  79.381  36.302  1.00  0.00    -0.000 C 
BRANCH  13  14
ATOM     14  C   UNL     1       6.141  78.978  36.795  1.00  0.00    -0.000 C 
BRANCH  14  15
ATOM     15  C   UNL     1       5.641  79.952  37.873  1.00  0.00    -0.000 C 
BRANCH  15  16
ATOM     16  C   UNL     1       5.637  79.334  39.281  1.00  0.00    -0.000 C 
BRANCH  16  17
ATOM     17  C   UNL     1       5.185  77.862  39.344  1.00  0.00    -0.000 C 
BRANCH  17  18
ATOM     18  C   UNL     1       6.323  76.874  39.675  1.00  0.00    -0.003 C 
ATOM     19  C   UNL     1       6.270  75.610  38.817  1.00  0.00     0.004 C 
ENDBRANCH  17  18
ENDBRANCH  16  17
ENDBRANCH  15  16
ENDBRANCH  14  15
ENDBRANCH  13  14
ENDBRANCH  12  13
ENDBRANCH   1  12
TORSDOF 14
ENDMDL
MODEL 3
REMARK VINA RESULT:    -4.170      2.482      6.076
REMARK INTER + INTRA:          -9.916
REMARK INTER:                  -7.608
REMARK INTRA:                  -2.307
REMARK UNBOUND:                -2.332
REMARK SMILES CCCCCCCCCCCCCC[C@@H](C)C(=O)[O-]
REMARK SMILES IDX 9 1 10 2 11 3 12 4 13 5 14 6 15 7 16 8 17 9 18 10 19 11 8 12
REMARK SMILES IDX 7 13 6 14 5 15 4 16 3 17 2 18 1 19
REMARK H PARENT
REMARK Flexibility Score: inf
ROOT
ATOM      1  C   UNL     1       6.589  76.502  39.477  1.00  0.00     0.000 C 
ENDROOT
BRANCH   1   2
ATOM      2  C   UNL     1       5.753  77.715  39.923  1.00  0.00     0.000 C 
BRANCH   2   3
ATOM      3  C   UNL     1       5.843  78.950  39.007  1.00  0.00     0.000 C 
BRANCH   3   4
ATOM      4  C   UNL     1       5.986  78.583  37.520  1.00  0.00     0.000 C 
BRANCH   4   5
ATOM      5  C   UNL     1       7.032  79.437  36.783  1.00  0.00     0.001 C 
BRANCH   5   6
ATOM      6  C   UNL     1       8.265  78.687  36.226  1.00  0.00     0.009 C 
BRANCH   6   7
ATOM      7  C   UNL     1       9.157  77.924  37.240  1.00  0.00     0.032 C 
ATOM      8  C   UNL     1      10.286  77.123  36.572  1.00  0.00     0.014 C 
BRANCH   7   9
ATOM      9  C   UNL     1       9.657  78.802  38.358  1.00  0.00     0.044 C 
ATOM     10  O   UNL     1       9.383  78.543  39.560  1.00  0.00    -0.550 OA
ATOM     11  O   UNL     1      10.474  79.887  38.065  1.00  0.00    -0.550 OA
ENDBRANCH   7   9
ENDBRANCH   6   7
ENDBRANCH   5   6
ENDBRANCH   4   5
ENDBRANCH   3   4
ENDBRANCH   2   3
ENDBRANCH   1   2
BRANCH   1  12
ATOM     12  C   UNL     1       5.733  75.259  39.179  1.00  0.00     0.000 C 
BRANCH  12  13
ATOM     13  C   UNL     1       5.766  74.863  37.694  1.00  0.00    -0.000 C 
BRANCH  13  14
ATOM     14  C   UNL     1       7.196  74.717  37.152  1.00  0.00    -0.000 C 
BRANCH  14  15
ATOM     15  C   UNL     1       7.483  73.260  36.757  1.00  0.00    -0.000 C 
BRANCH  15  16
ATOM     16  C   UNL     1       8.388  72.534  37.767  1.00  0.00    -0.000 C 
BRANCH  16  17
ATOM     17  C   UNL     1       7.663  71.987  39.012  1.00  0.00    -0.000 C 
BRANCH  17  18
ATOM     18  C   UNL     1       6.415  71.141  38.686  1.00  0.00    -0.003 C 
ATOM     19  C   UNL     1       5.191  71.566  39.498  1.00  0.00     0.004 C 
ENDBRANCH  17  18
ENDBRANCH  16  17
ENDBRANCH  15  16
ENDBRANCH  14  15
ENDBRANCH  13  14
ENDBRANCH  12  13
ENDBRANCH   1  12
TORSDOF 14
ENDMDL
MODEL 4
REMARK VINA RESULT:    -4.125      1.464      2.074
REMARK INTER + INTRA:          -9.834
REMARK INTER:                  -7.827
REMARK INTRA:                  -2.007
REMARK UNBOUND:                -2.332
REMARK SMILES CCCCCCCCCCCCCC[C@@H](C)C(=O)[O-]
REMARK SMILES IDX 9 1 10 2 11 3 12 4 13 5 14 6 15 7 16 8 17 9 18 10 19 11 8 12
REMARK SMILES IDX 7 13 6 14 5 15 4 16 3 17 2 18 1 19
REMARK H PARENT
REMARK Flexibility Score: inf
ROOT
ATOM      1  C   UNL     1       6.236  76.381  39.659  1.00  0.00     0.000 C 
ENDROOT
BRANCH   1   2
ATOM      2  C   UNL     1       4.893  76.029  38.995  1.00  0.00     0.000 C 
BRANCH   2   3
ATOM      3  C   UNL     1       4.998  75.343  37.620  1.00  0.00     0.000 C 
BRANCH   3   4
ATOM      4  C   UNL     1       6.436  75.311  37.076  1.00  0.00     0.000 C 
BRANCH   4   5
ATOM      5  C   UNL     1       6.893  73.904  36.654  1.00  0.00     0.001 C 
BRANCH   5   6
ATOM      6  C   UNL     1       8.410  73.617  36.738  1.00  0.00     0.009 C 
BRANCH   6   7
ATOM      7  C   UNL     1       8.847  72.190  37.162  1.00  0.00     0.032 C 
ATOM      8  C   UNL     1      10.366  72.049  37.342  1.00  0.00     0.014 C 
BRANCH   7   9
ATOM      9  C   UNL     1       8.075  71.667  38.345  1.00  0.00     0.044 C 
ATOM     10  O   UNL     1       8.395  71.984  39.521  1.00  0.00    -0.550 OA
ATOM     11  O   UNL     1       6.961  70.863  38.137  1.00  0.00    -0.550 OA
ENDBRANCH   7   9
ENDBRANCH   6   7
ENDBRANCH   5   6
ENDBRANCH   4   5
ENDBRANCH   3   4
ENDBRANCH   2   3
ENDBRANCH   1   2
BRANCH   1  12
ATOM     12  C   UNL     1       6.361  77.875  40.007  1.00  0.00     0.000 C 
BRANCH  12  13
ATOM     13  C   UNL     1       5.329  78.740  39.264  1.00  0.00    -0.000 C 
BRANCH  13  14
ATOM     14  C   UNL     1       5.976  79.677  38.233  1.00  0.00    -0.000 C 
BRANCH  14  15
ATOM     15  C   UNL     1       6.167  78.959  36.888  1.00  0.00    -0.000 C 
BRANCH  15  16
ATOM     16  C   UNL     1       7.529  79.261  36.239  1.00  0.00    -0.000 C 
BRANCH  16  17
ATOM     17  C   UNL     1       8.740  79.147  37.185  1.00  0.00    -0.000 C 
BRANCH  17  18
ATOM     18  C   UNL     1       9.268  77.707  37.353  1.00  0.00    -0.003 C 
ATOM     19  C   UNL     1      10.205  77.291  36.218  1.00  0.00     0.004 C 
ENDBRANCH  17  18
ENDBRANCH  16  17
ENDBRANCH  15  16
ENDBRANCH  14  15
ENDBRANCH  13  14
ENDBRANCH  12  13
ENDBRANCH   1  12
TORSDOF 14
ENDMDL
MODEL 5
REMARK VINA RESULT:    -4.116      1.398      2.963
REMARK INTER + INTRA:          -9.817
REMARK INTER:                  -7.481
REMARK INTRA:                  -2.336
REMARK UNBOUND:                -2.332
REMARK SMILES CCCCCCCCCCCCCC[C@@H](C)C(=O)[O-]
REMARK SMILES IDX 9 1 10 2 11 3 12 4 13 5 14 6 15 7 16 8 17 9 18 10 19 11 8 12
REMARK SMILES IDX 7 13 6 14 5 15 4 16 3 17 2 18 1 19
REMARK H PARENT
REMARK Flexibility Score: inf
ROOT
ATOM      1  C   UNL     1       7.106  76.243  38.160  1.00  0.00     0.000 C 
ENDROOT
BRANCH   1   2
ATOM      2  C   UNL     1       5.623  76.202  37.752  1.00  0.00     0.000 C 
BRANCH   2   3
ATOM      3  C   UNL     1       4.619  76.143  38.920  1.00  0.00     0.000 C 
BRANCH   3   4
ATOM      4  C   UNL     1       3.776  74.856  38.919  1.00  0.00     0.000 C 
BRANCH   4   5
ATOM      5  C   UNL     1       4.231  73.835  37.863  1.00  0.00     0.001 C 
BRANCH   5   6
ATOM      6  C   UNL     1       4.748  72.478  38.395  1.00  0.00     0.009 C 
BRANCH   6   7
ATOM      7  C   UNL     1       6.208  72.082  38.046  1.00  0.00     0.032 C 
ATOM      8  C   UNL     1       6.734  72.768  36.775  1.00  0.00     0.014 C 
BRANCH   7   9
ATOM      9  C   UNL     1       7.150  72.229  39.212  1.00  0.00     0.044 C 
ATOM     10  O   UNL     1       8.153  71.477  39.336  1.00  0.00    -0.550 OA
ATOM     11  O   UNL     1       6.940  73.241  40.141  1.00  0.00    -0.550 OA
ENDBRANCH   7   9
ENDBRANCH   6   7
ENDBRANCH   5   6
ENDBRANCH   4   5
ENDBRANCH   3   4
ENDBRANCH   2   3
ENDBRANCH   1   2
BRANCH   1  12
ATOM     12  C   UNL     1       8.061  76.272  36.955  1.00  0.00     0.000 C 
BRANCH  12  13
ATOM     13  C   UNL     1       9.036  77.460  37.004  1.00  0.00    -0.000 C 
BRANCH  13  14
ATOM     14  C   UNL     1       8.445  78.737  36.388  1.00  0.00    -0.000 C 
BRANCH  14  15
ATOM     15  C   UNL     1       7.874  79.655  37.480  1.00  0.00    -0.000 C 
BRANCH  15  16
ATOM     16  C   UNL     1       6.399  80.021  37.241  1.00  0.00    -0.000 C 
BRANCH  16  17
ATOM     17  C   UNL     1       5.478  79.840  38.464  1.00  0.00    -0.000 C 
BRANCH  17  18
ATOM     18  C   UNL     1       6.234  79.533  39.774  1.00  0.00    -0.003 C 
ATOM     19  C   UNL     1       5.290  79.277  40.949  1.00  0.00     0.004 C 
ENDBRANCH  17  18
ENDBRANCH  16  17
ENDBRANCH  15  16
ENDBRANCH  14  15
ENDBRANCH  13  14
ENDBRANCH  12  13
ENDBRANCH   1  12
TORSDOF 14
ENDMDL
MODEL 6
REMARK VINA RESULT:    -4.105      3.723      7.110
REMARK INTER + INTRA:          -9.798
REMARK INTER:                  -7.976
REMARK INTRA:                  -1.822
REMARK UNBOUND:                -2.332
REMARK SMILES CCCCCCCCCCCCCC[C@@H](C)C(=O)[O-]
REMARK SMILES IDX 9 1 10 2 11 3 12 4 13 5 14 6 15 7 16 8 17 9 18 10 19 11 8 12
REMARK SMILES IDX 7 13 6 14 5 15 4 16 3 17 2 18 1 19
REMARK H PARENT
REMARK Flexibility Score: inf
ROOT
ATOM      1  C   UNL     1       7.466  79.267  36.118  1.00  0.00     0.000 C 
ENDROOT
BRANCH   1   2
ATOM      2  C   UNL     1       8.308  78.089  36.642  1.00  0.00     0.000 C 
BRANCH   2   3
ATOM      3  C   UNL     1       9.657  78.475  37.278  1.00  0.00     0.000 C 
BRANCH   3   4
ATOM      4  C   UNL     1       9.601  79.814  38.033  1.00  0.00     0.000 C 
BRANCH   4   5
ATOM      5  C   UNL     1      10.232  79.746  39.434  1.00  0.00     0.001 C 
BRANCH   5   6
ATOM      6  C   UNL     1      11.381  80.740  39.722  1.00  0.00     0.009 C 
BRANCH   6   7
ATOM      7  C   UNL     1      11.288  81.584  41.021  1.00  0.00     0.032 C 
ATOM      8  C   UNL     1       9.848  81.980  41.385  1.00  0.00     0.014 C 
BRANCH   7   9
ATOM      9  C   UNL     1      12.024  80.962  42.179  1.00  0.00     0.044 C 
ATOM     10  O   UNL     1      11.903  79.736  42.443  1.00  0.00    -0.550 OA
ATOM     11  O   UNL     1      12.891  81.739  42.939  1.00  0.00    -0.550 OA
ENDBRANCH   7   9
ENDBRANCH   6   7
ENDBRANCH   5   6
ENDBRANCH   4   5
ENDBRANCH   3   4
ENDBRANCH   2   3
ENDBRANCH   1   2
BRANCH   1  12
ATOM     12  C   UNL     1       6.055  79.315  36.728  1.00  0.00     0.000 C 
BRANCH  12  13
ATOM     13  C   UNL     1       6.008  80.118  38.039  1.00  0.00    -0.000 C 
BRANCH  13  14
ATOM     14  C   UNL     1       5.229  79.395  39.148  1.00  0.00    -0.000 C 
BRANCH  14  15
ATOM     15  C   UNL     1       6.165  78.502  39.977  1.00  0.00    -0.000 C 
BRANCH  15  16
ATOM     16  C   UNL     1       6.143  77.032  39.525  1.00  0.00    -0.000 C 
BRANCH  16  17
ATOM     17  C   UNL     1       4.739  76.451  39.268  1.00  0.00    -0.000 C 
BRANCH  17  18
ATOM     18  C   UNL     1       4.680  75.459  38.088  1.00  0.00    -0.003 C 
ATOM     19  C   UNL     1       6.019  75.336  37.359  1.00  0.00     0.004 C 
ENDBRANCH  17  18
ENDBRANCH  16  17
ENDBRANCH  15  16
ENDBRANCH  14  15
ENDBRANCH  13  14
ENDBRANCH  12  13
ENDBRANCH   1  12
TORSDOF 14
ENDMDL
MODEL 7
REMARK VINA RESULT:    -4.081      4.855      7.791
REMARK INTER + INTRA:          -9.754
REMARK INTER:                  -7.914
REMARK INTRA:                  -1.840
REMARK UNBOUND:                -2.332
REMARK SMILES CCCCCCCCCCCCCC[C@@H](C)C(=O)[O-]
REMARK SMILES IDX 9 1 10 2 11 3 12 4 13 5 14 6 15 7 16 8 17 9 18 10 19 11 8 12
REMARK SMILES IDX 7 13 6 14 5 15 4 16 3 17 2 18 1 19
REMARK H PARENT
REMARK Flexibility Score: inf
ROOT
ATOM      1  C   UNL     1       9.619  78.877  38.821  1.00  0.00     0.000 C 
ENDROOT
BRANCH   1   2
ATOM      2  C   UNL     1      10.402  80.199  38.906  1.00  0.00     0.000 C 
BRANCH   2   3
ATOM      3  C   UNL     1       9.914  81.186  39.983  1.00  0.00     0.000 C 
BRANCH   3   4
ATOM      4  C   UNL     1       8.785  80.609  40.856  1.00  0.00     0.000 C 
BRANCH   4   5
ATOM      5  C   UNL     1       8.546  81.413  42.145  1.00  0.00     0.001 C 
BRANCH   5   6
ATOM      6  C   UNL     1       9.706  82.318  42.619  1.00  0.00     0.009 C 
BRANCH   6   7
ATOM      7  C   UNL     1      10.579  81.806  43.796  1.00  0.00     0.032 C 
ATOM      8  C   UNL     1       9.938  80.636  44.561  1.00  0.00     0.014 C 
BRANCH   7   9
ATOM      9  C   UNL     1      12.001  81.519  43.391  1.00  0.00     0.044 C 
ATOM     10  O   UNL     1      12.273  80.590  42.585  1.00  0.00    -0.550 OA
ATOM     11  O   UNL     1      13.027  82.323  43.874  1.00  0.00    -0.550 OA
ENDBRANCH   7   9
ENDBRANCH   6   7
ENDBRANCH   5   6
ENDBRANCH   4   5
ENDBRANCH   3   4
ENDBRANCH   2   3
ENDBRANCH   1   2
BRANCH   1  12
ATOM     12  C   UNL     1       9.720  78.207  37.440  1.00  0.00     0.000 C 
BRANCH  12  13
ATOM     13  C   UNL     1       8.341  77.892  36.835  1.00  0.00    -0.000 C 
BRANCH  13  14
ATOM     14  C   UNL     1       7.756  79.074  36.048  1.00  0.00    -0.000 C 
BRANCH  14  15
ATOM     15  C   UNL     1       6.364  79.447  36.578  1.00  0.00    -0.000 C 
BRANCH  15  16
ATOM     16  C   UNL     1       6.412  80.127  37.958  1.00  0.00    -0.000 C 
BRANCH  16  17
ATOM     17  C   UNL     1       5.249  79.765  38.901  1.00  0.00    -0.000 C 
BRANCH  17  18
ATOM     18  C   UNL     1       5.660  78.855  40.078  1.00  0.00    -0.003 C 
ATOM     19  C   UNL     1       5.159  79.377  41.425  1.00  0.00     0.004 C 
ENDBRANCH  17  18
ENDBRANCH  16  17
ENDBRANCH  15  16
ENDBRANCH  14  15
ENDBRANCH  13  14
ENDBRANCH  12  13
ENDBRANCH   1  12
TORSDOF 14
ENDMDL
MODEL 8
REMARK VINA RESULT:    -4.054      4.305      7.852
REMARK INTER + INTRA:          -9.704
REMARK INTER:                  -7.821
REMARK INTRA:                  -1.882
REMARK UNBOUND:                -2.332
REMARK SMILES CCCCCCCCCCCCCC[C@@H](C)C(=O)[O-]
REMARK SMILES IDX 9 1 10 2 11 3 12 4 13 5 14 6 15 7 16 8 17 9 18 10 19 11 8 12
REMARK SMILES IDX 7 13 6 14 5 15 4 16 3 17 2 18 1 19
REMARK H PARENT
REMARK Flexibility Score: inf
ROOT
ATOM      1  C   UNL     1       9.290  78.796  39.427  1.00  0.00     0.000 C 
ENDROOT
BRANCH   1   2
ATOM      2  C   UNL     1       9.261  80.051  40.317  1.00  0.00     0.000 C 
BRANCH   2   3
ATOM      3  C   UNL     1      10.235  81.172  39.908  1.00  0.00     0.000 C 
BRANCH   3   4
ATOM      4  C   UNL     1      11.702  80.834  40.223  1.00  0.00     0.000 C 
BRANCH   4   5
ATOM      5  C   UNL     1      11.914  80.341  41.665  1.00  0.00     0.001 C 
BRANCH   5   6
ATOM      6  C   UNL     1      12.480  81.371  42.670  1.00  0.00     0.009 C 
BRANCH   6   7
ATOM      7  C   UNL     1      11.733  81.539  44.019  1.00  0.00     0.032 C 
ATOM      8  C   UNL     1      12.367  82.596  44.936  1.00  0.00     0.014 C 
BRANCH   7   9
ATOM      9  C   UNL     1      10.250  81.740  43.848  1.00  0.00     0.044 C 
ATOM     10  O   UNL     1       9.421  80.998  44.438  1.00  0.00    -0.550 OA
ATOM     11  O   UNL     1       9.786  82.790  43.065  1.00  0.00    -0.550 OA
ENDBRANCH   7   9
ENDBRANCH   6   7
ENDBRANCH   5   6
ENDBRANCH   4   5
ENDBRANCH   3   4
ENDBRANCH   2   3
ENDBRANCH   1   2
BRANCH   1  12
ATOM     12  C   UNL     1       9.579  79.113  37.950  1.00  0.00     0.000 C 
BRANCH  12  13
ATOM     13  C   UNL     1       8.588  78.428  36.995  1.00  0.00    -0.000 C 
BRANCH  13  14
ATOM     14  C   UNL     1       7.519  79.391  36.459  1.00  0.00    -0.000 C 
BRANCH  14  15
ATOM     15  C   UNL     1       6.142  79.063  37.055  1.00  0.00    -0.000 C 
BRANCH  15  16
ATOM     16  C   UNL     1       5.846  79.848  38.345  1.00  0.00    -0.000 C 
BRANCH  16  17
ATOM     17  C   UNL     1       5.542  78.978  39.580  1.00  0.00    -0.000 C 
BRANCH  17  18
ATOM     18  C   UNL     1       5.251  77.500  39.246  1.00  0.00    -0.003 C 
ATOM     19  C   UNL     1       6.413  76.577  39.613  1.00  0.00     0.004 C 
ENDBRANCH  17  18
ENDBRANCH  16  17
ENDBRANCH  15  16
ENDBRANCH  14  15
ENDBRANCH  13  14
ENDBRANCH  12  13
ENDBRANCH   1  12
TORSDOF 14
ENDMDL
MODEL 9
REMARK VINA RESULT:    -4.040      1.827      3.537
REMARK INTER + INTRA:          -9.679
REMARK INTER:                  -7.455
REMARK INTRA:                  -2.224
REMARK UNBOUND:                -2.332
REMARK SMILES CCCCCCCCCCCCCC[C@@H](C)C(=O)[O-]
REMARK SMILES IDX 9 1 10 2 11 3 12 4 13 5 14 6 15 7 16 8 17 9 18 10 19 11 8 12
REMARK SMILES IDX 7 13 6 14 5 15 4 16 3 17 2 18 1 19
REMARK H PARENT
REMARK Flexibility Score: inf
ROOT
ATOM      1  C   UNL     1       6.413  80.266  37.686  1.00  0.00     0.000 C 
ENDROOT
BRANCH   1   2
ATOM      2  C   UNL     1       5.318  79.846  38.683  1.00  0.00     0.000 C 
BRANCH   2   3
ATOM      3  C   UNL     1       5.827  79.294  40.028  1.00  0.00     0.000 C 
BRANCH   3   4
ATOM      4  C   UNL     1       6.067  77.775  39.998  1.00  0.00     0.000 C 
BRANCH   4   5
ATOM      5  C   UNL     1       4.952  76.999  39.277  1.00  0.00     0.001 C 
BRANCH   5   6
ATOM      6  C   UNL     1       5.399  75.821  38.380  1.00  0.00     0.009 C 
BRANCH   6   7
ATOM      7  C   UNL     1       6.481  74.863  38.946  1.00  0.00     0.032 C 
ATOM      8  C   UNL     1       5.972  73.988  40.102  1.00  0.00     0.014 C 
BRANCH   7   9
ATOM      9  C   UNL     1       7.170  74.059  37.874  1.00  0.00     0.044 C 
ATOM     10  O   UNL     1       7.337  72.817  38.000  1.00  0.00    -0.550 OA
ATOM     11  O   UNL     1       7.585  74.686  36.706  1.00  0.00    -0.550 OA
ENDBRANCH   7   9
ENDBRANCH   6   7
ENDBRANCH   5   6
ENDBRANCH   4   5
ENDBRANCH   3   4
ENDBRANCH   2   3
ENDBRANCH   1   2
BRANCH   1  12
ATOM     12  C   UNL     1       6.495  79.343  36.459  1.00  0.00     0.000 C 
BRANCH  12  13
ATOM     13  C   UNL     1       7.591  78.273  36.599  1.00  0.00    -0.000 C 
BRANCH  13  14
ATOM     14  C   UNL     1       8.949  78.866  37.002  1.00  0.00    -0.000 C 
BRANCH  14  15
ATOM     15  C   UNL     1       9.418  78.290  38.347  1.00  0.00    -0.000 C 
BRANCH  15  16
ATOM     16  C   UNL     1       9.533  79.359  39.447  1.00  0.00    -0.000 C 
BRANCH  16  17
ATOM     17  C   UNL     1      10.176  80.686  38.999  1.00  0.00    -0.000 C 
BRANCH  17  18
ATOM     18  C   UNL     1      11.539  80.975  39.663  1.00  0.00    -0.003 C 
ATOM     19  C   UNL     1      11.693  80.272  41.012  1.00  0.00     0.004 C 
ENDBRANCH  17  18
ENDBRANCH  16  17
ENDBRANCH  15  16
ENDBRANCH  14  15
ENDBRANCH  13  14
ENDBRANCH  12  13
ENDBRANCH   1  12
TORSDOF 14
ENDMDL
