MODEL 1
REMARK VINA RESULT:    -4.251      0.000      0.000
REMARK INTER + INTRA:         -10.218
REMARK INTER:                  -7.979
REMARK INTRA:                  -2.239
REMARK UNBOUND:                -2.239
REMARK SMILES CCCCCCCCC=CCCCCCCCC(=O)[O-]
REMARK SMILES IDX 10 1 9 2 11 3 12 4 13 5 14 6 15 7 16 8 17 9 18 10 19 11
REMARK SMILES IDX 20 12 8 13 7 14 6 15 5 16 4 17 3 18 2 19 1 20
REMARK H PARENT
REMARK Flexibility Score: inf
ROOT
ATOM      1  C   UNL     1      99.086   0.528 -27.512  1.00  0.00    -0.031 C 
ATOM      2  C   UNL     1      99.748   1.322 -28.367  1.00  0.00    -0.031 C 
ENDROOT
BRANCH   1   3
ATOM      3  C   UNL     1      99.658   0.176 -26.165  1.00  0.00     0.027 C 
BRANCH   3   4
ATOM      4  C   UNL     1      98.728  -0.782 -25.406  1.00  0.00     0.004 C 
BRANCH   4   5
ATOM      5  C   UNL     1      98.342  -0.255 -24.013  1.00  0.00     0.000 C 
BRANCH   5   6
ATOM      6  C   UNL     1      96.858   0.129 -23.859  1.00  0.00     0.000 C 
BRANCH   6   7
ATOM      7  C   UNL     1      95.898  -1.079 -23.919  1.00  0.00     0.000 C 
BRANCH   7   8
ATOM      8  C   UNL     1      96.349  -2.224 -22.997  1.00  0.00     0.006 C 
BRANCH   8   9
ATOM      9  C   UNL     1      96.720  -3.489 -23.781  1.00  0.00     0.053 C 
BRANCH   9  10
ATOM     10  C   UNL     1      97.306  -4.539 -22.888  1.00  0.00     0.041 C 
ATOM     11  O   UNL     1      98.041  -4.209 -21.920  1.00  0.00    -0.550 OA
ATOM     12  O   UNL     1      97.068  -5.884 -23.143  1.00  0.00    -0.550 OA
ENDBRANCH   9  10
ENDBRANCH   8   9
ENDBRANCH   7   8
ENDBRANCH   6   7
ENDBRANCH   5   6
ENDBRANCH   4   5
ENDBRANCH   3   4
ENDBRANCH   1   3
BRANCH   2  13
ATOM     13  C   UNL     1      99.162   1.716 -29.697  1.00  0.00     0.027 C 
BRANCH  13  14
ATOM     14  C   UNL     1      98.894   3.225 -29.769  1.00  0.00     0.004 C 
BRANCH  14  15
ATOM     15  C   UNL     1     100.116   4.050 -29.334  1.00  0.00     0.000 C 
BRANCH  15  16
ATOM     16  C   UNL     1      99.791   5.068 -28.224  1.00  0.00     0.000 C 
BRANCH  16  17
ATOM     17  C   UNL     1      98.468   4.820 -27.476  1.00  0.00    -0.000 C 
BRANCH  17  18
ATOM     18  C   UNL     1      98.671   4.134 -26.113  1.00  0.00    -0.000 C 
BRANCH  18  19
ATOM     19  C   UNL     1      97.465   3.272 -25.704  1.00  0.00    -0.003 C 
ATOM     20  C   UNL     1      96.432   3.132 -26.821  1.00  0.00     0.004 C 
ENDBRANCH  18  19
ENDBRANCH  17  18
ENDBRANCH  16  17
ENDBRANCH  15  16
ENDBRANCH  14  15
ENDBRANCH  13  14
ENDBRANCH   2  13
TORSDOF 15
ENDMDL
MODEL 2
REMARK VINA RESULT:    -4.234      1.537      3.490
REMARK INTER + INTRA:         -10.187
REMARK INTER:                  -7.977
REMARK INTRA:                  -2.210
REMARK UNBOUND:                -2.239
REMARK SMILES CCCCCCCCC=CCCCCCCCC(=O)[O-]
REMARK SMILES IDX 10 1 9 2 11 3 12 4 13 5 14 6 15 7 16 8 17 9 18 10 19 11
REMARK SMILES IDX 20 12 8 13 7 14 6 15 5 16 4 17 3 18 2 19 1 20
REMARK H PARENT
REMARK Flexibility Score: inf
ROOT
ATOM      1  C   UNL     1      98.134   2.819 -29.483  1.00  0.00    -0.031 C 
ATOM      2  C   UNL     1      98.836   3.961 -29.546  1.00  0.00    -0.031 C 
ENDROOT
BRANCH   1   3
ATOM      3  C   UNL     1      98.508   1.620 -30.311  1.00  0.00     0.027 C 
BRANCH   3   4
ATOM      4  C   UNL     1      98.928   0.443 -29.418  1.00  0.00     0.004 C 
BRANCH   4   5
ATOM      5  C   UNL     1      99.330   0.888 -28.000  1.00  0.00     0.000 C 
BRANCH   5   6
ATOM      6  C   UNL     1      98.983  -0.119 -26.887  1.00  0.00     0.000 C 
BRANCH   6   7
ATOM      7  C   UNL     1      99.836   0.053 -25.611  1.00  0.00     0.000 C 
BRANCH   7   8
ATOM      8  C   UNL     1      99.197  -0.633 -24.392  1.00  0.00     0.006 C 
BRANCH   8   9
ATOM      9  C   UNL     1      97.671  -0.732 -24.514  1.00  0.00     0.053 C 
BRANCH   9  10
ATOM     10  C   UNL     1      97.158  -2.032 -23.975  1.00  0.00     0.041 C 
ATOM     11  O   UNL     1      97.959  -2.887 -23.515  1.00  0.00    -0.550 OA
ATOM     12  O   UNL     1      95.797  -2.312 -24.009  1.00  0.00    -0.550 OA
ENDBRANCH   9  10
ENDBRANCH   8   9
ENDBRANCH   7   8
ENDBRANCH   6   7
ENDBRANCH   5   6
ENDBRANCH   4   5
ENDBRANCH   3   4
ENDBRANCH   1   3
BRANCH   2  13
ATOM     13  C   UNL     1      98.494   5.149 -28.687  1.00  0.00     0.027 C 
BRANCH  13  14
ATOM     14  C   UNL     1      97.814   4.721 -27.380  1.00  0.00     0.004 C 
BRANCH  14  15
ATOM     15  C   UNL     1      98.831   4.253 -26.325  1.00  0.00     0.000 C 
BRANCH  15  16
ATOM     16  C   UNL     1      98.222   3.289 -25.289  1.00  0.00     0.000 C 
BRANCH  16  17
ATOM     17  C   UNL     1      96.871   2.668 -25.687  1.00  0.00    -0.000 C 
BRANCH  17  18
ATOM     18  C   UNL     1      95.772   2.900 -24.635  1.00  0.00    -0.000 C 
BRANCH  18  19
ATOM     19  C   UNL     1      94.367   2.966 -25.257  1.00  0.00    -0.003 C 
ATOM     20  C   UNL     1      94.204   4.134 -26.228  1.00  0.00     0.004 C 
ENDBRANCH  18  19
ENDBRANCH  17  18
ENDBRANCH  16  17
ENDBRANCH  15  16
ENDBRANCH  14  15
ENDBRANCH  13  14
ENDBRANCH   2  13
TORSDOF 15
ENDMDL
MODEL 3
REMARK VINA RESULT:    -4.218      3.215      6.497
REMARK INTER + INTRA:         -10.157
REMARK INTER:                  -7.690
REMARK INTRA:                  -2.467
REMARK UNBOUND:                -2.239
REMARK SMILES CCCCCCCCC=CCCCCCCCC(=O)[O-]
REMARK SMILES IDX 10 1 9 2 11 3 12 4 13 5 14 6 15 7 16 8 17 9 18 10 19 11
REMARK SMILES IDX 20 12 8 13 7 14 6 15 5 16 4 17 3 18 2 19 1 20
REMARK H PARENT
REMARK Flexibility Score: inf
ROOT
ATOM      1  C   UNL     1     100.063   1.335 -28.182  1.00  0.00    -0.031 C 
ATOM      2  C   UNL     1      99.029   0.553 -27.834  1.00  0.00    -0.031 C 
ENDROOT
BRANCH   1   3
ATOM      3  C   UNL     1     100.114   2.018 -29.522  1.00  0.00     0.027 C 
BRANCH   3   4
ATOM      4  C   UNL     1      99.575   3.453 -29.429  1.00  0.00     0.004 C 
BRANCH   4   5
ATOM      5  C   UNL     1      99.956   4.146 -28.109  1.00  0.00     0.000 C 
BRANCH   5   6
ATOM      6  C   UNL     1      98.763   4.690 -27.300  1.00  0.00     0.000 C 
BRANCH   6   7
ATOM      7  C   UNL     1      98.547   3.964 -25.954  1.00  0.00     0.000 C 
BRANCH   7   8
ATOM      8  C   UNL     1      97.199   3.226 -25.905  1.00  0.00     0.006 C 
BRANCH   8   9
ATOM      9  C   UNL     1      96.343   3.497 -27.149  1.00  0.00     0.053 C 
BRANCH   9  10
ATOM     10  C   UNL     1      94.886   3.283 -26.873  1.00  0.00     0.041 C 
ATOM     11  O   UNL     1      94.490   3.055 -25.700  1.00  0.00    -0.550 OA
ATOM     12  O   UNL     1      93.969   3.304 -27.917  1.00  0.00    -0.550 OA
ENDBRANCH   9  10
ENDBRANCH   8   9
ENDBRANCH   7   8
ENDBRANCH   6   7
ENDBRANCH   5   6
ENDBRANCH   4   5
ENDBRANCH   3   4
ENDBRANCH   1   3
BRANCH   2  13
ATOM     13  C   UNL     1      98.949  -0.096 -26.478  1.00  0.00     0.027 C 
BRANCH  13  14
ATOM     14  C   UNL     1     100.064   0.402 -25.549  1.00  0.00     0.004 C 
BRANCH  14  15
ATOM     15  C   UNL     1      99.687   0.258 -24.065  1.00  0.00     0.000 C 
BRANCH  15  16
ATOM     16  C   UNL     1      98.241   0.699 -23.767  1.00  0.00     0.000 C 
BRANCH  16  17
ATOM     17  C   UNL     1      97.445  -0.244 -22.846  1.00  0.00    -0.000 C 
BRANCH  17  18
ATOM     18  C   UNL     1      98.206  -1.539 -22.513  1.00  0.00    -0.000 C 
BRANCH  18  19
ATOM     19  C   UNL     1      97.710  -2.739 -23.337  1.00  0.00    -0.003 C 
ATOM     20  C   UNL     1      96.291  -2.547 -23.869  1.00  0.00     0.004 C 
ENDBRANCH  18  19
ENDBRANCH  17  18
ENDBRANCH  16  17
ENDBRANCH  15  16
ENDBRANCH  14  15
ENDBRANCH  13  14
ENDBRANCH   2  13
TORSDOF 15
ENDMDL
MODEL 4
REMARK VINA RESULT:    -4.212      5.101      7.094
REMARK INTER + INTRA:         -10.146
REMARK INTER:                  -8.141
REMARK INTRA:                  -2.005
REMARK UNBOUND:                -2.239
REMARK SMILES CCCCCCCCC=CCCCCCCCC(=O)[O-]
REMARK SMILES IDX 10 1 9 2 11 3 12 4 13 5 14 6 15 7 16 8 17 9 18 10 19 11
REMARK SMILES IDX 20 12 8 13 7 14 6 15 5 16 4 17 3 18 2 19 1 20
REMARK H PARENT
REMARK Flexibility Score: inf
ROOT
ATOM      1  C   UNL     1      98.654   3.757 -25.727  1.00  0.00    -0.031 C 
ATOM      2  C   UNL     1      98.464   4.501 -26.827  1.00  0.00    -0.031 C 
ENDROOT
BRANCH   1   3
ATOM      3  C   UNL     1      97.497   3.157 -24.975  1.00  0.00     0.027 C 
BRANCH   3   4
ATOM      4  C   UNL     1      96.317   2.872 -25.916  1.00  0.00     0.004 C 
BRANCH   4   5
ATOM      5  C   UNL     1      94.978   3.392 -25.363  1.00  0.00     0.000 C 
BRANCH   5   6
ATOM      6  C   UNL     1      94.211   4.333 -26.312  1.00  0.00     0.000 C 
BRANCH   6   7
ATOM      7  C   UNL     1      92.972   4.988 -25.664  1.00  0.00     0.000 C 
BRANCH   7   8
ATOM      8  C   UNL     1      91.695   4.163 -25.893  1.00  0.00     0.006 C 
BRANCH   8   9
ATOM      9  C   UNL     1      90.559   5.003 -26.490  1.00  0.00     0.053 C 
BRANCH   9  10
ATOM     10  C   UNL     1      90.942   5.588 -27.815  1.00  0.00     0.041 C 
ATOM     11  O   UNL     1      91.161   6.824 -27.922  1.00  0.00    -0.550 OA
ATOM     12  O   UNL     1      91.027   4.774 -28.938  1.00  0.00    -0.550 OA
ENDBRANCH   9  10
ENDBRANCH   8   9
ENDBRANCH   7   8
ENDBRANCH   6   7
ENDBRANCH   5   6
ENDBRANCH   4   5
ENDBRANCH   3   4
ENDBRANCH   1   3
BRANCH   2  13
ATOM     13  C   UNL     1      99.619   5.067 -27.610  1.00  0.00     0.027 C 
BRANCH  13  14
ATOM     14  C   UNL     1      99.498   4.741 -29.104  1.00  0.00     0.004 C 
BRANCH  14  15
ATOM     15  C   UNL     1      98.168   4.044 -29.438  1.00  0.00     0.000 C 
BRANCH  15  16
ATOM     16  C   UNL     1      98.357   2.604 -29.952  1.00  0.00     0.000 C 
BRANCH  16  17
ATOM     17  C   UNL     1      98.450   1.525 -28.858  1.00  0.00    -0.000 C 
BRANCH  17  18
ATOM     18  C   UNL     1      99.901   1.139 -28.520  1.00  0.00    -0.000 C 
BRANCH  18  19
ATOM     19  C   UNL     1     100.125   0.965 -27.009  1.00  0.00    -0.003 C 
ATOM     20  C   UNL     1      99.141  -0.017 -26.373  1.00  0.00     0.004 C 
ENDBRANCH  18  19
ENDBRANCH  17  18
ENDBRANCH  16  17
ENDBRANCH  15  16
ENDBRANCH  14  15
ENDBRANCH  13  14
ENDBRANCH   2  13
TORSDOF 15
ENDMDL
MODEL 5
REMARK VINA RESULT:    -4.194      2.580      5.587
REMARK INTER + INTRA:         -10.110
REMARK INTER:                  -7.867
REMARK INTRA:                  -2.243
REMARK UNBOUND:                -2.239
REMARK SMILES CCCCCCCCC=CCCCCCCCC(=O)[O-]
REMARK SMILES IDX 10 1 9 2 11 3 12 4 13 5 14 6 15 7 16 8 17 9 18 10 19 11
REMARK SMILES IDX 20 12 8 13 7 14 6 15 5 16 4 17 3 18 2 19 1 20
REMARK H PARENT
REMARK Flexibility Score: inf
ROOT
ATOM      1  C   UNL     1      98.068   4.534 -27.454  1.00  0.00    -0.031 C 
ATOM      2  C   UNL     1      98.639   4.127 -26.311  1.00  0.00    -0.031 C 
ENDROOT
BRANCH   1   3
ATOM      3  C   UNL     1      98.892   5.038 -28.608  1.00  0.00     0.027 C 
BRANCH   3   4
ATOM      4  C   UNL     1      99.451   3.872 -29.437  1.00  0.00     0.004 C 
BRANCH   4   5
ATOM      5  C   UNL     1      98.384   2.812 -29.764  1.00  0.00     0.000 C 
BRANCH   5   6
ATOM      6  C   UNL     1      98.704   1.396 -29.248  1.00  0.00     0.000 C 
BRANCH   6   7
ATOM      7  C   UNL     1     100.125   1.260 -28.658  1.00  0.00     0.000 C 
BRANCH   7   8
ATOM      8  C   UNL     1     100.101   1.019 -27.140  1.00  0.00     0.006 C 
BRANCH   8   9
ATOM      9  C   UNL     1      98.983   0.055 -26.722  1.00  0.00     0.053 C 
BRANCH   9  10
ATOM     10  C   UNL     1      99.140  -0.389 -25.300  1.00  0.00     0.041 C 
ATOM     11  O   UNL     1      99.048   0.447 -24.362  1.00  0.00    -0.550 OA
ATOM     12  O   UNL     1      99.419  -1.719 -25.011  1.00  0.00    -0.550 OA
ENDBRANCH   9  10
ENDBRANCH   8   9
ENDBRANCH   7   8
ENDBRANCH   6   7
ENDBRANCH   5   6
ENDBRANCH   4   5
ENDBRANCH   3   4
ENDBRANCH   1   3
BRANCH   2  13
ATOM     13  C   UNL     1      97.825   3.578 -25.170  1.00  0.00     0.027 C 
BRANCH  13  14
ATOM     14  C   UNL     1      96.653   2.726 -25.675  1.00  0.00     0.004 C 
BRANCH  14  15
ATOM     15  C   UNL     1      95.733   2.271 -24.528  1.00  0.00     0.000 C 
BRANCH  15  16
ATOM     16  C   UNL     1      94.723   3.353 -24.103  1.00  0.00     0.000 C 
BRANCH  16  17
ATOM     17  C   UNL     1      93.250   3.034 -24.418  1.00  0.00    -0.000 C 
BRANCH  17  18
ATOM     18  C   UNL     1      92.748   3.727 -25.697  1.00  0.00    -0.000 C 
BRANCH  18  19
ATOM     19  C   UNL     1      93.661   4.883 -26.136  1.00  0.00    -0.003 C 
ATOM     20  C   UNL     1      93.039   6.256 -25.889  1.00  0.00     0.004 C 
ENDBRANCH  18  19
ENDBRANCH  17  18
ENDBRANCH  16  17
ENDBRANCH  15  16
ENDBRANCH  14  15
ENDBRANCH  13  14
ENDBRANCH   2  13
TORSDOF 15
ENDMDL
MODEL 6
REMARK VINA RESULT:    -4.128      4.398      7.341
REMARK INTER + INTRA:          -9.987
REMARK INTER:                  -7.792
REMARK INTRA:                  -2.195
REMARK UNBOUND:                -2.239
REMARK SMILES CCCCCCCCC=CCCCCCCCC(=O)[O-]
REMARK SMILES IDX 10 1 9 2 11 3 12 4 13 5 14 6 15 7 16 8 17 9 18 10 19 11
REMARK SMILES IDX 20 12 8 13 7 14 6 15 5 16 4 17 3 18 2 19 1 20
REMARK H PARENT
REMARK Flexibility Score: inf
ROOT
ATOM      1  C   UNL     1      95.999   3.366 -26.015  1.00  0.00    -0.031 C 
ATOM      2  C   UNL     1      94.830   3.076 -25.425  1.00  0.00    -0.031 C 
ENDROOT
BRANCH   1   3
ATOM      3  C   UNL     1      97.053   2.314 -26.229  1.00  0.00     0.027 C 
BRANCH   3   4
ATOM      4  C   UNL     1      98.446   2.845 -25.858  1.00  0.00     0.004 C 
BRANCH   4   5
ATOM      5  C   UNL     1      98.589   4.358 -26.106  1.00  0.00     0.000 C 
BRANCH   5   6
ATOM      6  C   UNL     1      99.326   4.730 -27.406  1.00  0.00     0.000 C 
BRANCH   6   7
ATOM      7  C   UNL     1      98.388   5.224 -28.529  1.00  0.00     0.000 C 
BRANCH   7   8
ATOM      8  C   UNL     1      98.100   4.126 -29.567  1.00  0.00     0.006 C 
BRANCH   8   9
ATOM      9  C   UNL     1      99.205   3.063 -29.610  1.00  0.00     0.053 C 
BRANCH   9  10
ATOM     10  C   UNL     1      98.641   1.688 -29.799  1.00  0.00     0.041 C 
ATOM     11  O   UNL     1      97.972   1.414 -30.830  1.00  0.00    -0.550 OA
ATOM     12  O   UNL     1      98.828   0.718 -28.822  1.00  0.00    -0.550 OA
ENDBRANCH   9  10
ENDBRANCH   8   9
ENDBRANCH   7   8
ENDBRANCH   6   7
ENDBRANCH   5   6
ENDBRANCH   4   5
ENDBRANCH   3   4
ENDBRANCH   1   3
BRANCH   2  13
ATOM     13  C   UNL     1      93.753   4.113 -25.248  1.00  0.00     0.027 C 
BRANCH  13  14
ATOM     14  C   UNL     1      93.906   5.260 -26.256  1.00  0.00     0.004 C 
BRANCH  14  15
ATOM     15  C   UNL     1      92.798   6.315 -26.102  1.00  0.00     0.000 C 
BRANCH  15  16
ATOM     16  C   UNL     1      91.761   6.269 -27.240  1.00  0.00     0.000 C 
BRANCH  16  17
ATOM     17  C   UNL     1      90.719   5.141 -27.132  1.00  0.00    -0.000 C 
BRANCH  17  18
ATOM     18  C   UNL     1      90.746   4.183 -28.337  1.00  0.00    -0.000 C 
BRANCH  18  19
ATOM     19  C   UNL     1      91.601   2.933 -28.074  1.00  0.00    -0.003 C 
ATOM     20  C   UNL     1      92.922   2.946 -28.842  1.00  0.00     0.004 C 
ENDBRANCH  18  19
ENDBRANCH  17  18
ENDBRANCH  16  17
ENDBRANCH  15  16
ENDBRANCH  14  15
ENDBRANCH  13  14
ENDBRANCH   2  13
TORSDOF 15
ENDMDL
MODEL 7
REMARK VINA RESULT:    -4.074      3.123      6.420
REMARK INTER + INTRA:          -9.886
REMARK INTER:                  -7.468
REMARK INTRA:                  -2.418
REMARK UNBOUND:                -2.239
REMARK SMILES CCCCCCCCC=CCCCCCCCC(=O)[O-]
REMARK SMILES IDX 10 1 9 2 11 3 12 4 13 5 14 6 15 7 16 8 17 9 18 10 19 11
REMARK SMILES IDX 20 12 8 13 7 14 6 15 5 16 4 17 3 18 2 19 1 20
REMARK H PARENT
REMARK Flexibility Score: inf
ROOT
ATOM      1  C   UNL     1      99.193   0.954 -28.029  1.00  0.00    -0.031 C 
ATOM      2  C   UNL     1     100.115   1.107 -27.066  1.00  0.00    -0.031 C 
ENDROOT
BRANCH   1   3
ATOM      3  C   UNL     1      99.256   1.741 -29.309  1.00  0.00     0.027 C 
BRANCH   3   4
ATOM      4  C   UNL     1      99.924   3.106 -29.084  1.00  0.00     0.004 C 
BRANCH   4   5
ATOM      5  C   UNL     1      98.919   4.271 -29.114  1.00  0.00     0.000 C 
BRANCH   5   6
ATOM      6  C   UNL     1      97.981   4.344 -27.895  1.00  0.00     0.000 C 
BRANCH   6   7
ATOM      7  C   UNL     1      98.724   4.327 -26.541  1.00  0.00     0.000 C 
BRANCH   7   8
ATOM      8  C   UNL     1      97.926   3.591 -25.452  1.00  0.00     0.006 C 
BRANCH   8   9
ATOM      9  C   UNL     1      96.741   2.806 -26.030  1.00  0.00     0.053 C 
BRANCH   9  10
ATOM     10  C   UNL     1      95.430   3.367 -25.570  1.00  0.00     0.041 C 
ATOM     11  O   UNL     1      94.710   4.027 -26.365  1.00  0.00    -0.550 OA
ATOM     12  O   UNL     1      95.019   3.189 -24.255  1.00  0.00    -0.550 OA
ENDBRANCH   9  10
ENDBRANCH   8   9
ENDBRANCH   7   8
ENDBRANCH   6   7
ENDBRANCH   5   6
ENDBRANCH   4   5
ENDBRANCH   3   4
ENDBRANCH   1   3
BRANCH   2  13
ATOM     13  C   UNL     1     100.085   0.289 -25.803  1.00  0.00     0.027 C 
BRANCH  13  14
ATOM     14  C   UNL     1      98.937  -0.729 -25.819  1.00  0.00     0.004 C 
BRANCH  14  15
ATOM     15  C   UNL     1      98.428  -1.048 -24.403  1.00  0.00     0.000 C 
BRANCH  15  16
ATOM     16  C   UNL     1      98.165   0.213 -23.559  1.00  0.00     0.000 C 
BRANCH  16  17
ATOM     17  C   UNL     1      96.711   0.395 -23.088  1.00  0.00    -0.000 C 
BRANCH  17  18
ATOM     18  C   UNL     1      95.730  -0.564 -23.787  1.00  0.00    -0.000 C 
BRANCH  18  19
ATOM     19  C   UNL     1      94.843  -1.326 -22.789  1.00  0.00    -0.003 C 
ATOM     20  C   UNL     1      93.355  -1.032 -22.975  1.00  0.00     0.004 C 
ENDBRANCH  18  19
ENDBRANCH  17  18
ENDBRANCH  16  17
ENDBRANCH  15  16
ENDBRANCH  14  15
ENDBRANCH  13  14
ENDBRANCH   2  13
TORSDOF 15
ENDMDL
MODEL 8
REMARK VINA RESULT:    -4.002      3.769      4.677
REMARK INTER + INTRA:          -9.750
REMARK INTER:                  -7.490
REMARK INTRA:                  -2.260
REMARK UNBOUND:                -2.239
REMARK SMILES CCCCCCCCC=CCCCCCCCC(=O)[O-]
REMARK SMILES IDX 10 1 9 2 11 3 12 4 13 5 14 6 15 7 16 8 17 9 18 10 19 11
REMARK SMILES IDX 20 12 8 13 7 14 6 15 5 16 4 17 3 18 2 19 1 20
REMARK H PARENT
REMARK Flexibility Score: inf
ROOT
ATOM      1  C   UNL     1      99.479   0.404 -26.696  1.00  0.00    -0.031 C 
ATOM      2  C   UNL     1      99.062   0.589 -27.958  1.00  0.00    -0.031 C 
ENDROOT
BRANCH   1   3
ATOM      3  C   UNL     1      98.652  -0.361 -25.700  1.00  0.00     0.027 C 
BRANCH   3   4
ATOM      4  C   UNL     1      98.954   0.097 -24.265  1.00  0.00     0.004 C 
BRANCH   4   5
ATOM      5  C   UNL     1      97.690   0.194 -23.394  1.00  0.00     0.000 C 
BRANCH   5   6
ATOM      6  C   UNL     1      96.455   0.768 -24.113  1.00  0.00     0.000 C 
BRANCH   6   7
ATOM      7  C   UNL     1      95.302   1.144 -23.157  1.00  0.00     0.000 C 
BRANCH   7   8
ATOM      8  C   UNL     1      94.191   1.931 -23.872  1.00  0.00     0.006 C 
BRANCH   8   9
ATOM      9  C   UNL     1      94.739   3.133 -24.651  1.00  0.00     0.053 C 
BRANCH   9  10
ATOM     10  C   UNL     1      93.657   4.113 -24.987  1.00  0.00     0.041 C 
ATOM     11  O   UNL     1      92.615   4.172 -24.283  1.00  0.00    -0.550 OA
ATOM     12  O   UNL     1      93.786   4.940 -26.096  1.00  0.00    -0.550 OA
ENDBRANCH   9  10
ENDBRANCH   8   9
ENDBRANCH   7   8
ENDBRANCH   6   7
ENDBRANCH   5   6
ENDBRANCH   4   5
ENDBRANCH   3   4
ENDBRANCH   1   3
BRANCH   2  13
ATOM     13  C   UNL     1      99.905   1.314 -28.973  1.00  0.00     0.027 C 
BRANCH  13  14
ATOM     14  C   UNL     1      99.038   2.009 -30.031  1.00  0.00     0.004 C 
BRANCH  14  15
ATOM     15  C   UNL     1      98.918   3.521 -29.776  1.00  0.00     0.000 C 
BRANCH  15  16
ATOM     16  C   UNL     1     100.088   4.086 -28.948  1.00  0.00     0.000 C 
BRANCH  16  17
ATOM     17  C   UNL     1      99.688   4.748 -27.617  1.00  0.00    -0.000 C 
BRANCH  17  18
ATOM     18  C   UNL     1      98.171   4.713 -27.362  1.00  0.00    -0.000 C 
BRANCH  18  19
ATOM     19  C   UNL     1      97.769   3.618 -26.360  1.00  0.00    -0.003 C 
ATOM     20  C   UNL     1      98.517   3.727 -25.032  1.00  0.00     0.004 C 
ENDBRANCH  18  19
ENDBRANCH  17  18
ENDBRANCH  16  17
ENDBRANCH  15  16
ENDBRANCH  14  15
ENDBRANCH  13  14
ENDBRANCH   2  13
TORSDOF 15
ENDMDL
MODEL 9
REMARK VINA RESULT:    -4.000      3.089      5.820
REMARK INTER + INTRA:          -9.747
REMARK INTER:                  -7.920
REMARK INTRA:                  -1.828
REMARK UNBOUND:                -2.239
REMARK SMILES CCCCCCCCC=CCCCCCCCC(=O)[O-]
REMARK SMILES IDX 10 1 9 2 11 3 12 4 13 5 14 6 15 7 16 8 17 9 18 10 19 11
REMARK SMILES IDX 20 12 8 13 7 14 6 15 5 16 4 17 3 18 2 19 1 20
REMARK H PARENT
REMARK Flexibility Score: inf
ROOT
ATOM      1  C   UNL     1      98.204   4.409 -27.281  1.00  0.00    -0.031 C 
ATOM      2  C   UNL     1      98.020   3.769 -26.116  1.00  0.00    -0.031 C 
ENDROOT
BRANCH   1   3
ATOM      3  C   UNL     1      99.561   4.906 -27.698  1.00  0.00     0.027 C 
BRANCH   3   4
ATOM      4  C   UNL     1     100.062   4.159 -28.943  1.00  0.00     0.004 C 
BRANCH   4   5
ATOM      5  C   UNL     1      99.038   3.142 -29.478  1.00  0.00     0.000 C 
BRANCH   5   6
ATOM      6  C   UNL     1      99.505   1.675 -29.437  1.00  0.00     0.000 C 
BRANCH   6   7
ATOM      7  C   UNL     1     100.125   1.261 -28.085  1.00  0.00     0.000 C 
BRANCH   7   8
ATOM      8  C   UNL     1      99.146   0.443 -27.226  1.00  0.00     0.006 C 
BRANCH   8   9
ATOM      9  C   UNL     1      99.748   0.055 -25.869  1.00  0.00     0.053 C 
BRANCH   9  10
ATOM     10  C   UNL     1      98.883   0.505 -24.733  1.00  0.00     0.041 C 
ATOM     11  O   UNL     1      99.333   1.311 -23.875  1.00  0.00    -0.550 OA
ATOM     12  O   UNL     1      97.591   0.012 -24.602  1.00  0.00    -0.550 OA
ENDBRANCH   9  10
ENDBRANCH   8   9
ENDBRANCH   7   8
ENDBRANCH   6   7
ENDBRANCH   5   6
ENDBRANCH   4   5
ENDBRANCH   3   4
ENDBRANCH   1   3
BRANCH   2  13
ATOM     13  C   UNL     1      96.675   3.229 -25.712  1.00  0.00     0.027 C 
BRANCH  13  14
ATOM     14  C   UNL     1      95.556   3.781 -26.607  1.00  0.00     0.004 C 
BRANCH  14  15
ATOM     15  C   UNL     1      94.175   3.236 -26.206  1.00  0.00     0.000 C 
BRANCH  15  16
ATOM     16  C   UNL     1      93.472   4.104 -25.145  1.00  0.00     0.000 C 
BRANCH  16  17
ATOM     17  C   UNL     1      93.098   5.526 -25.603  1.00  0.00    -0.000 C 
BRANCH  17  18
ATOM     18  C   UNL     1      91.739   5.586 -26.322  1.00  0.00    -0.000 C 
BRANCH  18  19
ATOM     19  C   UNL     1      91.849   6.173 -27.738  1.00  0.00    -0.003 C 
ATOM     20  C   UNL     1      91.872   5.099 -28.825  1.00  0.00     0.004 C 
ENDBRANCH  18  19
ENDBRANCH  17  18
ENDBRANCH  16  17
ENDBRANCH  15  16
ENDBRANCH  14  15
ENDBRANCH  13  14
ENDBRANCH   2  13
TORSDOF 15
ENDMDL
