MODEL 1
REMARK VINA RESULT:    -3.787      0.000      0.000
REMARK INTER + INTRA:          -5.461
REMARK INTER:                  -5.004
REMARK INTRA:                  -0.457
REMARK UNBOUND:                -0.457
REMARK SMILES C=C[C@H](O)CCCCC
REMARK SMILES IDX 6 1 7 2 8 3 9 4 5 5 3 6 2 7 1 8 4 9
REMARK H PARENT 4 10
REMARK Flexibility Score: inf
ROOT
ATOM      1  C   UNL     1     134.423 139.345 144.393  1.00  0.00     0.003 C 
ENDROOT
BRANCH   1   2
ATOM      2  C   UNL     1     134.263 139.548 142.882  1.00  0.00    -0.000 C 
BRANCH   2   3
ATOM      3  C   UNL     1     133.612 138.322 142.228  1.00  0.00    -0.003 C 
ATOM      4  C   UNL     1     133.378 138.551 140.738  1.00  0.00     0.004 C 
ENDBRANCH   2   3
ENDBRANCH   1   2
BRANCH   1   5
ATOM      5  C   UNL     1     135.414 138.207 144.693  1.00  0.00     0.036 C 
BRANCH   5   6
ATOM      6  C   UNL     1     136.885 138.612 144.456  1.00  0.00     0.136 C 
BRANCH   6   7
ATOM      7  C   UNL     1     137.591 137.647 143.539  1.00  0.00    -0.004 C 
ATOM      8  C   UNL     1     137.326 137.596 142.230  1.00  0.00     0.007 C 
ENDBRANCH   6   7
BRANCH   6   9
ATOM      9  O   UNL     1     137.576 138.678 145.677  1.00  0.00    -0.389 OA
ATOM     10  H   UNL     1     138.475 139.050 145.479  1.00  0.00     0.211 HD
ENDBRANCH   6   9
ENDBRANCH   5   6
ENDBRANCH   1   5
TORSDOF 6
ENDMDL
MODEL 2
REMARK VINA RESULT:    -3.509      1.779      2.576
REMARK INTER + INTRA:          -5.094
REMARK INTER:                  -4.900
REMARK INTRA:                  -0.193
REMARK UNBOUND:                -0.457
REMARK SMILES C=C[C@H](O)CCCCC
REMARK SMILES IDX 6 1 7 2 8 3 9 4 5 5 3 6 2 7 1 8 4 9
REMARK H PARENT 4 10
REMARK Flexibility Score: inf
ROOT
ATOM      1  C   UNL     1     134.388 138.242 142.190  1.00  0.00     0.003 C 
ENDROOT
BRANCH   1   2
ATOM      2  C   UNL     1     132.962 137.960 141.701  1.00  0.00    -0.000 C 
BRANCH   2   3
ATOM      3  C   UNL     1     132.852 138.156 140.184  1.00  0.00    -0.003 C 
ATOM      4  C   UNL     1     132.231 136.935 139.514  1.00  0.00     0.004 C 
ENDBRANCH   2   3
ENDBRANCH   1   2
BRANCH   1   5
ATOM      5  C   UNL     1     134.445 139.554 142.992  1.00  0.00     0.036 C 
BRANCH   5   6
ATOM      6  C   UNL     1     134.879 139.344 144.458  1.00  0.00     0.136 C 
BRANCH   6   7
ATOM      7  C   UNL     1     136.310 138.879 144.559  1.00  0.00    -0.004 C 
ATOM      8  C   UNL     1     136.677 137.907 145.399  1.00  0.00     0.007 C 
ENDBRANCH   6   7
BRANCH   6   9
ATOM      9  O   UNL     1     134.044 138.405 145.085  1.00  0.00    -0.389 OA
ATOM     10  H   UNL     1     133.297 138.914 145.497  1.00  0.00     0.211 HD
ENDBRANCH   6   9
ENDBRANCH   5   6
ENDBRANCH   1   5
TORSDOF 6
ENDMDL
MODEL 3
REMARK VINA RESULT:    -3.507     14.954     16.327
REMARK INTER + INTRA:          -5.091
REMARK INTER:                  -4.987
REMARK INTRA:                  -0.105
REMARK UNBOUND:                -0.457
REMARK SMILES C=C[C@H](O)CCCCC
REMARK SMILES IDX 6 1 7 2 8 3 9 4 5 5 3 6 2 7 1 8 4 9
REMARK H PARENT 4 10
REMARK Flexibility Score: inf
ROOT
ATOM      1  C   UNL     1     144.315 140.007 131.035  1.00  0.00     0.003 C 
ENDROOT
BRANCH   1   2
ATOM      2  C   UNL     1     143.043 139.663 130.252  1.00  0.00    -0.000 C 
BRANCH   2   3
ATOM      3  C   UNL     1     141.847 140.478 130.759  1.00  0.00    -0.003 C 
ATOM      4  C   UNL     1     141.086 141.118 129.603  1.00  0.00     0.004 C 
ENDBRANCH   2   3
ENDBRANCH   1   2
BRANCH   1   5
ATOM      5  C   UNL     1     145.545 140.014 130.110  1.00  0.00     0.036 C 
BRANCH   5   6
ATOM      6  C   UNL     1     146.872 140.210 130.875  1.00  0.00     0.136 C 
BRANCH   6   7
ATOM      7  C   UNL     1     147.869 141.006 130.072  1.00  0.00    -0.004 C 
ATOM      8  C   UNL     1     148.644 141.938 130.635  1.00  0.00     0.007 C 
ENDBRANCH   6   7
BRANCH   6   9
ATOM      9  O   UNL     1     147.434 138.966 131.206  1.00  0.00    -0.389 OA
ATOM     10  H   UNL     1     148.379 139.135 131.457  1.00  0.00     0.211 HD
ENDBRANCH   6   9
ENDBRANCH   5   6
ENDBRANCH   1   5
TORSDOF 6
ENDMDL
MODEL 4
REMARK VINA RESULT:    -3.494      2.491      4.443
REMARK INTER + INTRA:          -5.074
REMARK INTER:                  -4.836
REMARK INTRA:                  -0.238
REMARK UNBOUND:                -0.457
REMARK SMILES C=C[C@H](O)CCCCC
REMARK SMILES IDX 6 1 7 2 8 3 9 4 5 5 3 6 2 7 1 8 4 9
REMARK H PARENT 4 10
REMARK Flexibility Score: inf
ROOT
ATOM      1  C   UNL     1     134.191 139.308 142.917  1.00  0.00     0.003 C 
ENDROOT
BRANCH   1   2
ATOM      2  C   UNL     1     134.978 139.565 144.207  1.00  0.00    -0.000 C 
BRANCH   2   3
ATOM      3  C   UNL     1     135.585 138.265 144.749  1.00  0.00    -0.003 C 
ATOM      4  C   UNL     1     137.043 138.462 145.151  1.00  0.00     0.004 C 
ENDBRANCH   2   3
ENDBRANCH   1   2
BRANCH   1   5
ATOM      5  C   UNL     1     134.393 137.863 142.427  1.00  0.00     0.036 C 
BRANCH   5   6
ATOM      6  C   UNL     1     134.424 137.748 140.888  1.00  0.00     0.136 C 
BRANCH   6   7
ATOM      7  C   UNL     1     133.204 138.367 140.254  1.00  0.00    -0.004 C 
ATOM      8  C   UNL     1     132.148 137.632 139.893  1.00  0.00     0.007 C 
ENDBRANCH   6   7
BRANCH   6   9
ATOM      9  O   UNL     1     134.511 136.401 140.501  1.00  0.00    -0.389 OA
ATOM     10  H   UNL     1     134.664 135.874 141.328  1.00  0.00     0.211 HD
ENDBRANCH   6   9
ENDBRANCH   5   6
ENDBRANCH   1   5
TORSDOF 6
ENDMDL
MODEL 5
REMARK VINA RESULT:    -3.474      1.948      4.101
REMARK INTER + INTRA:          -5.049
REMARK INTER:                  -4.820
REMARK INTRA:                  -0.228
REMARK UNBOUND:                -0.457
REMARK SMILES C=C[C@H](O)CCCCC
REMARK SMILES IDX 6 1 7 2 8 3 9 4 5 5 3 6 2 7 1 8 4 9
REMARK H PARENT 4 10
REMARK Flexibility Score: inf
ROOT
ATOM      1  C   UNL     1     134.650 139.284 144.439  1.00  0.00     0.003 C 
ENDROOT
BRANCH   1   2
ATOM      2  C   UNL     1     135.638 138.121 144.584  1.00  0.00    -0.000 C 
BRANCH   2   3
ATOM      3  C   UNL     1     137.071 138.576 144.278  1.00  0.00    -0.003 C 
ATOM      4  C   UNL     1     137.611 137.891 143.027  1.00  0.00     0.004 C 
ENDBRANCH   2   3
ENDBRANCH   1   2
BRANCH   1   5
ATOM      5  C   UNL     1     134.263 139.497 142.965  1.00  0.00     0.036 C 
BRANCH   5   6
ATOM      6  C   UNL     1     133.862 138.187 142.252  1.00  0.00     0.136 C 
BRANCH   6   7
ATOM      7  C   UNL     1     133.493 138.424 140.810  1.00  0.00    -0.004 C 
ATOM      8  C   UNL     1     132.447 137.816 140.242  1.00  0.00     0.007 C 
ENDBRANCH   6   7
BRANCH   6   9
ATOM      9  O   UNL     1     132.779 137.584 142.913  1.00  0.00    -0.389 OA
ATOM     10  H   UNL     1     132.236 138.318 143.303  1.00  0.00     0.211 HD
ENDBRANCH   6   9
ENDBRANCH   5   6
ENDBRANCH   1   5
TORSDOF 6
ENDMDL
MODEL 6
REMARK VINA RESULT:    -3.432      0.969      1.167
REMARK INTER + INTRA:          -4.993
REMARK INTER:                  -4.486
REMARK INTRA:                  -0.507
REMARK UNBOUND:                -0.457
REMARK SMILES C=C[C@H](O)CCCCC
REMARK SMILES IDX 6 1 7 2 8 3 9 4 5 5 3 6 2 7 1 8 4 9
REMARK H PARENT 4 10
REMARK Flexibility Score: inf
ROOT
ATOM      1  C   UNL     1     135.313 139.274 144.087  1.00  0.00     0.003 C 
ENDROOT
BRANCH   1   2
ATOM      2  C   UNL     1     134.340 139.616 142.953  1.00  0.00    -0.000 C 
BRANCH   2   3
ATOM      3  C   UNL     1     133.684 138.349 142.391  1.00  0.00    -0.003 C 
ATOM      4  C   UNL     1     133.383 138.497 140.903  1.00  0.00     0.004 C 
ENDBRANCH   2   3
ENDBRANCH   1   2
BRANCH   1   5
ATOM      5  C   UNL     1     136.107 137.996 143.764  1.00  0.00     0.036 C 
BRANCH   5   6
ATOM      6  C   UNL     1     137.524 138.287 143.224  1.00  0.00     0.136 C 
BRANCH   6   7
ATOM      7  C   UNL     1     137.800 137.541 141.944  1.00  0.00    -0.004 C 
ATOM      8  C   UNL     1     136.860 136.808 141.339  1.00  0.00     0.007 C 
ENDBRANCH   6   7
BRANCH   6   9
ATOM      9  O   UNL     1     138.492 137.938 144.180  1.00  0.00    -0.389 OA
ATOM     10  H   UNL     1     138.815 138.785 144.585  1.00  0.00     0.211 HD
ENDBRANCH   6   9
ENDBRANCH   5   6
ENDBRANCH   1   5
TORSDOF 6
ENDMDL
MODEL 7
REMARK VINA RESULT:    -3.402     19.213     20.464
REMARK INTER + INTRA:          -4.953
REMARK INTER:                  -4.561
REMARK INTRA:                  -0.392
REMARK UNBOUND:                -0.457
REMARK SMILES C=C[C@H](O)CCCCC
REMARK SMILES IDX 6 1 7 2 8 3 9 4 5 5 3 6 2 7 1 8 4 9
REMARK H PARENT 4 10
REMARK Flexibility Score: inf
ROOT
ATOM      1  C   UNL     1     150.125 144.688 129.381  1.00  0.00     0.003 C 
ENDROOT
BRANCH   1   2
ATOM      2  C   UNL     1     149.795 143.243 128.989  1.00  0.00    -0.000 C 
BRANCH   2   3
ATOM      3  C   UNL     1     149.201 142.473 130.175  1.00  0.00    -0.003 C 
ATOM      4  C   UNL     1     149.749 142.993 131.500  1.00  0.00     0.004 C 
ENDBRANCH   2   3
ENDBRANCH   1   2
BRANCH   1   5
ATOM      5  C   UNL     1     149.158 145.676 128.705  1.00  0.00     0.036 C 
BRANCH   5   6
ATOM      6  C   UNL     1     148.423 146.584 129.714  1.00  0.00     0.136 C 
BRANCH   6   7
ATOM      7  C   UNL     1     149.383 147.272 130.652  1.00  0.00    -0.004 C 
ATOM      8  C   UNL     1     148.977 147.808 131.807  1.00  0.00     0.007 C 
ENDBRANCH   6   7
BRANCH   6   9
ATOM      9  O   UNL     1     147.502 145.836 130.464  1.00  0.00    -0.389 OA
ATOM     10  H   UNL     1     147.183 146.424 131.198  1.00  0.00     0.211 HD
ENDBRANCH   6   9
ENDBRANCH   5   6
ENDBRANCH   1   5
TORSDOF 6
ENDMDL
MODEL 8
REMARK VINA RESULT:    -3.372     12.984     14.100
REMARK INTER + INTRA:          -4.914
REMARK INTER:                  -4.394
REMARK INTRA:                  -0.520
REMARK UNBOUND:                -0.457
REMARK SMILES C=C[C@H](O)CCCCC
REMARK SMILES IDX 6 1 7 2 8 3 9 4 5 5 3 6 2 7 1 8 4 9
REMARK H PARENT 4 10
REMARK Flexibility Score: inf
ROOT
ATOM      1  C   UNL     1     147.908 141.544 138.557  1.00  0.00     0.003 C 
ENDROOT
BRANCH   1   2
ATOM      2  C   UNL     1     148.517 140.206 138.122  1.00  0.00    -0.000 C 
BRANCH   2   3
ATOM      3  C   UNL     1     149.946 140.052 138.655  1.00  0.00    -0.003 C 
ATOM      4  C   UNL     1     150.125 138.724 139.382  1.00  0.00     0.004 C 
ENDBRANCH   2   3
ENDBRANCH   1   2
BRANCH   1   5
ATOM      5  C   UNL     1     147.558 141.527 140.055  1.00  0.00     0.036 C 
BRANCH   5   6
ATOM      6  C   UNL     1     148.276 142.637 140.853  1.00  0.00     0.136 C 
BRANCH   6   7
ATOM      7  C   UNL     1     148.994 142.086 142.059  1.00  0.00    -0.004 C 
ATOM      8  C   UNL     1     149.034 140.775 142.317  1.00  0.00     0.007 C 
ENDBRANCH   6   7
BRANCH   6   9
ATOM      9  O   UNL     1     147.355 143.612 141.271  1.00  0.00    -0.389 OA
ATOM     10  H   UNL     1     147.740 144.045 142.077  1.00  0.00     0.211 HD
ENDBRANCH   6   9
ENDBRANCH   5   6
ENDBRANCH   1   5
TORSDOF 6
ENDMDL
MODEL 9
REMARK VINA RESULT:    -3.363     12.994     13.790
REMARK INTER + INTRA:          -4.902
REMARK INTER:                  -4.371
REMARK INTRA:                  -0.531
REMARK UNBOUND:                -0.457
REMARK SMILES C=C[C@H](O)CCCCC
REMARK SMILES IDX 6 1 7 2 8 3 9 4 5 5 3 6 2 7 1 8 4 9
REMARK H PARENT 4 10
REMARK Flexibility Score: inf
ROOT
ATOM      1  C   UNL     1     148.167 140.059 142.117  1.00  0.00     0.003 C 
ENDROOT
BRANCH   1   2
ATOM      2  C   UNL     1     149.373 139.114 142.096  1.00  0.00    -0.000 C 
BRANCH   2   3
ATOM      3  C   UNL     1     149.943 138.980 140.679  1.00  0.00    -0.003 C 
ATOM      4  C   UNL     1     149.064 138.084 139.813  1.00  0.00     0.004 C 
ENDBRANCH   2   3
ENDBRANCH   1   2
BRANCH   1   5
ATOM      5  C   UNL     1     148.619 141.529 142.052  1.00  0.00     0.036 C 
BRANCH   5   6
ATOM      6  C   UNL     1     147.806 142.364 141.040  1.00  0.00     0.136 C 
BRANCH   6   7
ATOM      7  C   UNL     1     148.305 142.177 139.630  1.00  0.00    -0.004 C 
ATOM      8  C   UNL     1     147.610 141.482 138.724  1.00  0.00     0.007 C 
ENDBRANCH   6   7
BRANCH   6   9
ATOM      9  O   UNL     1     147.866 143.728 141.373  1.00  0.00    -0.389 OA
ATOM     10  H   UNL     1     148.655 144.104 140.903  1.00  0.00     0.211 HD
ENDBRANCH   6   9
ENDBRANCH   5   6
ENDBRANCH   1   5
TORSDOF 6
ENDMDL
