MODEL 1
REMARK VINA RESULT:    -3.846      0.000      0.000
REMARK INTER + INTRA:          -4.713
REMARK INTER:                  -4.632
REMARK INTRA:                  -0.081
REMARK UNBOUND:                -0.081
REMARK SMILES CC[C@@H](C)[C@H]([NH3+])C(=O)[O-]
REMARK SMILES IDX 3 1 4 2 5 3 6 4 7 8 8 9 9 10 2 11 1 12
REMARK H PARENT 6 5 6 6 6 7
REMARK Flexibility Score: inf
ROOT
ATOM      1  C   UNL     1      23.890   1.292  18.349  1.00  0.00     0.050 C 
ATOM      2  C   UNL     1      24.272   2.730  18.750  1.00  0.00     0.014 C 
ENDROOT
BRANCH   1   3
ATOM      3  C   UNL     1      25.168   0.472  17.982  1.00  0.00     0.230 C 
BRANCH   3   4
ATOM      4  N   UNL     1      26.159   1.287  17.263  1.00  0.00    -0.350 N 
ATOM      5  H   UNL     1      25.879   1.366  16.258  1.00  0.00     0.345 HD
ATOM      6  H   UNL     1      27.097   0.827  17.300  1.00  0.00     0.345 HD
ATOM      7  H   UNL     1      26.232   2.250  17.661  1.00  0.00     0.345 HD
ENDBRANCH   3   4
BRANCH   3   8
ATOM      8  C   UNL     1      24.847  -0.789  17.215  1.00  0.00     0.099 C 
ATOM      9  O   UNL     1      24.367  -0.731  16.052  1.00  0.00    -0.544 OA
ATOM     10  O   UNL     1      25.051  -2.028  17.809  1.00  0.00    -0.544 OA
ENDBRANCH   3   8
ENDBRANCH   1   3
BRANCH   1  11
ATOM     11  C   UNL     1      23.027   0.616  19.447  1.00  0.00     0.006 C 
ATOM     12  C   UNL     1      21.809   1.451  19.845  1.00  0.00     0.004 C 
ENDBRANCH   1  11
TORSDOF 4
ENDMDL
MODEL 2
REMARK VINA RESULT:    -3.814      1.016      1.943
REMARK INTER + INTRA:          -4.675
REMARK INTER:                  -4.610
REMARK INTRA:                  -0.064
REMARK UNBOUND:                -0.081
REMARK SMILES CC[C@@H](C)[C@H]([NH3+])C(=O)[O-]
REMARK SMILES IDX 3 1 4 2 5 3 6 4 7 8 8 9 9 10 2 11 1 12
REMARK H PARENT 6 5 6 6 6 7
REMARK Flexibility Score: inf
ROOT
ATOM      1  C   UNL     1      24.529   1.123  18.875  1.00  0.00     0.050 C 
ATOM      2  C   UNL     1      23.097   0.589  19.075  1.00  0.00     0.014 C 
ENDROOT
BRANCH   1   3
ATOM      3  C   UNL     1      25.237   0.361  17.710  1.00  0.00     0.230 C 
BRANCH   3   4
ATOM      4  N   UNL     1      24.901   0.927  16.396  1.00  0.00    -0.350 N 
ATOM      5  H   UNL     1      23.951   1.363  16.438  1.00  0.00     0.345 HD
ATOM      6  H   UNL     1      24.876   0.171  15.674  1.00  0.00     0.345 HD
ATOM      7  H   UNL     1      25.586   1.659  16.102  1.00  0.00     0.345 HD
ENDBRANCH   3   4
BRANCH   3   8
ATOM      8  C   UNL     1      24.968  -1.125  17.743  1.00  0.00     0.099 C 
ATOM      9  O   UNL     1      25.514  -1.859  18.609  1.00  0.00    -0.544 OA
ATOM     10  O   UNL     1      24.138  -1.698  16.787  1.00  0.00    -0.544 OA
ENDBRANCH   3   8
ENDBRANCH   1   3
BRANCH   1  11
ATOM     11  C   UNL     1      24.529   2.664  18.684  1.00  0.00     0.006 C 
ATOM     12  C   UNL     1      23.147   3.289  18.881  1.00  0.00     0.004 C 
ENDBRANCH   1  11
TORSDOF 4
ENDMDL
MODEL 3
REMARK VINA RESULT:    -3.685      9.796     10.818
REMARK INTER + INTRA:          -4.520
REMARK INTER:                  -4.452
REMARK INTRA:                  -0.068
REMARK UNBOUND:                -0.081
REMARK SMILES CC[C@@H](C)[C@H]([NH3+])C(=O)[O-]
REMARK SMILES IDX 3 1 4 2 5 3 6 4 7 8 8 9 9 10 2 11 1 12
REMARK H PARENT 6 5 6 6 6 7
REMARK Flexibility Score: inf
ROOT
ATOM      1  C   UNL     1      28.174  -0.054   8.770  1.00  0.00     0.050 C 
ATOM      2  C   UNL     1      28.353  -1.219   9.762  1.00  0.00     0.014 C 
ENDROOT
BRANCH   1   3
ATOM      3  C   UNL     1      28.859   1.238   9.318  1.00  0.00     0.230 C 
BRANCH   3   4
ATOM      4  N   UNL     1      29.076   1.174  10.770  1.00  0.00    -0.350 N 
ATOM      5  H   UNL     1      28.645   2.012  11.223  1.00  0.00     0.345 HD
ATOM      6  H   UNL     1      30.100   1.186  10.981  1.00  0.00     0.345 HD
ATOM      7  H   UNL     1      28.649   0.317  11.189  1.00  0.00     0.345 HD
ENDBRANCH   3   4
BRANCH   3   8
ATOM      8  C   UNL     1      28.112   2.495   8.938  1.00  0.00     0.099 C 
ATOM      9  O   UNL     1      26.871   2.467   8.724  1.00  0.00    -0.544 OA
ATOM     10  O   UNL     1      28.804   3.690   8.790  1.00  0.00    -0.544 OA
ENDBRANCH   3   8
ENDBRANCH   1   3
BRANCH   1  11
ATOM     11  C   UNL     1      28.664  -0.449   7.351  1.00  0.00     0.006 C 
ATOM     12  C   UNL     1      28.719  -1.963   7.139  1.00  0.00     0.004 C 
ENDBRANCH   1  11
TORSDOF 4
ENDMDL
MODEL 4
REMARK VINA RESULT:    -3.614      1.736      2.827
REMARK INTER + INTRA:          -4.435
REMARK INTER:                  -4.520
REMARK INTRA:                   0.085
REMARK UNBOUND:                -0.081
REMARK SMILES CC[C@@H](C)[C@H]([NH3+])C(=O)[O-]
REMARK SMILES IDX 3 1 4 2 5 3 6 4 7 8 8 9 9 10 2 11 1 12
REMARK H PARENT 6 5 6 6 6 7
REMARK Flexibility Score: inf
ROOT
ATOM      1  C   UNL     1      24.615   2.834  18.445  1.00  0.00     0.050 C 
ATOM      2  C   UNL     1      23.174   3.042  18.949  1.00  0.00     0.014 C 
ENDROOT
BRANCH   1   3
ATOM      3  C   UNL     1      24.930   1.310  18.308  1.00  0.00     0.230 C 
BRANCH   3   4
ATOM      4  N   UNL     1      25.883   1.039  17.222  1.00  0.00    -0.350 N 
ATOM      5  H   UNL     1      25.357   0.756  16.362  1.00  0.00     0.345 HD
ATOM      6  H   UNL     1      26.514   0.248  17.487  1.00  0.00     0.345 HD
ATOM      7  H   UNL     1      26.461   1.878  16.993  1.00  0.00     0.345 HD
ENDBRANCH   3   4
BRANCH   3   8
ATOM      8  C   UNL     1      23.683   0.473  18.155  1.00  0.00     0.099 C 
ATOM      9  O   UNL     1      23.165  -0.100  19.150  1.00  0.00    -0.544 OA
ATOM     10  O   UNL     1      23.117   0.301  16.898  1.00  0.00    -0.544 OA
ENDBRANCH   3   8
ENDBRANCH   1   3
BRANCH   1  11
ATOM     11  C   UNL     1      24.869   3.629  17.136  1.00  0.00     0.006 C 
ATOM     12  C   UNL     1      23.838   4.733  16.900  1.00  0.00     0.004 C 
ENDBRANCH   1  11
TORSDOF 4
ENDMDL
MODEL 5
REMARK VINA RESULT:    -3.611      9.593     10.823
REMARK INTER + INTRA:          -4.430
REMARK INTER:                  -4.362
REMARK INTRA:                  -0.068
REMARK UNBOUND:                -0.081
REMARK SMILES CC[C@@H](C)[C@H]([NH3+])C(=O)[O-]
REMARK SMILES IDX 3 1 4 2 5 3 6 4 7 8 8 9 9 10 2 11 1 12
REMARK H PARENT 6 5 6 6 6 7
REMARK Flexibility Score: inf
ROOT
ATOM      1  C   UNL     1      28.261   1.656   8.604  1.00  0.00     0.050 C 
ATOM      2  C   UNL     1      28.765   0.252   8.991  1.00  0.00     0.014 C 
ENDROOT
BRANCH   1   3
ATOM      3  C   UNL     1      28.766   2.717   9.633  1.00  0.00     0.230 C 
BRANCH   3   4
ATOM      4  N   UNL     1      29.055   2.120  10.945  1.00  0.00    -0.350 N 
ATOM      5  H   UNL     1      29.562   1.214  10.810  1.00  0.00     0.345 HD
ATOM      6  H   UNL     1      28.163   1.916  11.452  1.00  0.00     0.345 HD
ATOM      7  H   UNL     1      29.649   2.745  11.534  1.00  0.00     0.345 HD
ENDBRANCH   3   4
BRANCH   3   8
ATOM      8  C   UNL     1      27.821   3.887   9.769  1.00  0.00     0.099 C 
ATOM      9  O   UNL     1      27.097   4.016  10.791  1.00  0.00    -0.544 OA
ATOM     10  O   UNL     1      27.723   4.817   8.741  1.00  0.00    -0.544 OA
ENDBRANCH   3   8
ENDBRANCH   1   3
BRANCH   1  11
ATOM     11  C   UNL     1      28.637   2.001   7.139  1.00  0.00     0.006 C 
ATOM     12  C   UNL     1      27.415   2.249   6.253  1.00  0.00     0.004 C 
ENDBRANCH   1  11
TORSDOF 4
ENDMDL
MODEL 6
REMARK VINA RESULT:    -3.576      9.875     10.450
REMARK INTER + INTRA:          -4.388
REMARK INTER:                  -4.265
REMARK INTRA:                  -0.123
REMARK UNBOUND:                -0.081
REMARK SMILES CC[C@@H](C)[C@H]([NH3+])C(=O)[O-]
REMARK SMILES IDX 3 1 4 2 5 3 6 4 7 8 8 9 9 10 2 11 1 12
REMARK H PARENT 6 5 6 6 6 7
REMARK Flexibility Score: inf
ROOT
ATOM      1  C   UNL     1      28.145   3.707   9.806  1.00  0.00     0.050 C 
ATOM      2  C   UNL     1      29.124   3.284  10.918  1.00  0.00     0.014 C 
ENDROOT
BRANCH   1   3
ATOM      3  C   UNL     1      27.690   2.462   8.979  1.00  0.00     0.230 C 
BRANCH   3   4
ATOM      4  N   UNL     1      28.391   1.238   9.394  1.00  0.00    -0.350 N 
ATOM      5  H   UNL     1      29.094   1.474  10.132  1.00  0.00     0.345 HD
ATOM      6  H   UNL     1      28.904   0.825   8.582  1.00  0.00     0.345 HD
ATOM      7  H   UNL     1      27.732   0.526   9.782  1.00  0.00     0.345 HD
ENDBRANCH   3   4
BRANCH   3   8
ATOM      8  C   UNL     1      27.815   2.678   7.490  1.00  0.00     0.099 C 
ATOM      9  O   UNL     1      28.825   2.262   6.861  1.00  0.00    -0.544 OA
ATOM     10  O   UNL     1      26.824   3.372   6.807  1.00  0.00    -0.544 OA
ENDBRANCH   3   8
ENDBRANCH   1   3
BRANCH   1  11
ATOM     11  C   UNL     1      26.958   4.521  10.386  1.00  0.00     0.006 C 
ATOM     12  C   UNL     1      26.642   5.776   9.571  1.00  0.00     0.004 C 
ENDBRANCH   1  11
TORSDOF 4
ENDMDL
MODEL 7
REMARK VINA RESULT:    -3.438      9.990     10.973
REMARK INTER + INTRA:          -4.222
REMARK INTER:                  -4.100
REMARK INTRA:                  -0.122
REMARK UNBOUND:                -0.081
REMARK SMILES CC[C@@H](C)[C@H]([NH3+])C(=O)[O-]
REMARK SMILES IDX 3 1 4 2 5 3 6 4 7 8 8 9 9 10 2 11 1 12
REMARK H PARENT 6 5 6 6 6 7
REMARK Flexibility Score: inf
ROOT
ATOM      1  C   UNL     1      28.374   1.431   7.534  1.00  0.00     0.050 C 
ATOM      2  C   UNL     1      27.347   1.715   6.421  1.00  0.00     0.014 C 
ENDROOT
BRANCH   1   3
ATOM      3  C   UNL     1      27.814   1.882   8.920  1.00  0.00     0.230 C 
BRANCH   3   4
ATOM      4  N   UNL     1      26.374   2.175   8.864  1.00  0.00    -0.350 N 
ATOM      5  H   UNL     1      26.029   2.399   9.826  1.00  0.00     0.345 HD
ATOM      6  H   UNL     1      25.850   1.338   8.522  1.00  0.00     0.345 HD
ATOM      7  H   UNL     1      26.167   2.988   8.242  1.00  0.00     0.345 HD
ENDBRANCH   3   4
BRANCH   3   8
ATOM      8  C   UNL     1      28.579   3.046   9.504  1.00  0.00     0.099 C 
ATOM      9  O   UNL     1      28.761   4.098   8.835  1.00  0.00    -0.544 OA
ATOM     10  O   UNL     1      29.121   2.946  10.779  1.00  0.00    -0.544 OA
ENDBRANCH   3   8
ENDBRANCH   1   3
BRANCH   1  11
ATOM     11  C   UNL     1      28.826  -0.053   7.512  1.00  0.00     0.006 C 
ATOM     12  C   UNL     1      28.456  -0.807   8.791  1.00  0.00     0.004 C 
ENDBRANCH   1  11
TORSDOF 4
ENDMDL
MODEL 8
REMARK VINA RESULT:    -3.415      9.595     10.302
REMARK INTER + INTRA:          -4.195
REMARK INTER:                  -4.050
REMARK INTRA:                  -0.145
REMARK UNBOUND:                -0.081
REMARK SMILES CC[C@@H](C)[C@H]([NH3+])C(=O)[O-]
REMARK SMILES IDX 3 1 4 2 5 3 6 4 7 8 8 9 9 10 2 11 1 12
REMARK H PARENT 6 5 6 6 6 7
REMARK Flexibility Score: inf
ROOT
ATOM      1  C   UNL     1      27.434   3.222   9.047  1.00  0.00     0.050 C 
ATOM      2  C   UNL     1      26.512   2.127   8.476  1.00  0.00     0.014 C 
ENDROOT
BRANCH   1   3
ATOM      3  C   UNL     1      26.640   4.148  10.022  1.00  0.00     0.230 C 
BRANCH   3   4
ATOM      4  N   UNL     1      25.358   3.553  10.427  1.00  0.00    -0.350 N 
ATOM      5  H   UNL     1      25.532   2.622  10.872  1.00  0.00     0.345 HD
ATOM      6  H   UNL     1      24.752   3.400   9.589  1.00  0.00     0.345 HD
ATOM      7  H   UNL     1      24.849   4.155  11.112  1.00  0.00     0.345 HD
ENDBRANCH   3   4
BRANCH   3   8
ATOM      8  C   UNL     1      26.439   5.538   9.468  1.00  0.00     0.099 C 
ATOM      9  O   UNL     1      27.224   6.005   8.600  1.00  0.00    -0.544 OA
ATOM     10  O   UNL     1      25.400   6.328   9.944  1.00  0.00    -0.544 OA
ENDBRANCH   3   8
ENDBRANCH   1   3
BRANCH   1  11
ATOM     11  C   UNL     1      28.703   2.604   9.690  1.00  0.00     0.006 C 
ATOM     12  C   UNL     1      29.107   3.295  10.994  1.00  0.00     0.004 C 
ENDBRANCH   1  11
TORSDOF 4
ENDMDL
MODEL 9
REMARK VINA RESULT:    -3.400      1.952      2.985
REMARK INTER + INTRA:          -4.176
REMARK INTER:                  -4.077
REMARK INTRA:                  -0.099
REMARK UNBOUND:                -0.081
REMARK SMILES CC[C@@H](C)[C@H]([NH3+])C(=O)[O-]
REMARK SMILES IDX 3 1 4 2 5 3 6 4 7 8 8 9 9 10 2 11 1 12
REMARK H PARENT 6 5 6 6 6 7
REMARK Flexibility Score: inf
ROOT
ATOM      1  C   UNL     1      24.144   2.751  18.645  1.00  0.00     0.050 C 
ATOM      2  C   UNL     1      22.996   3.683  19.077  1.00  0.00     0.014 C 
ENDROOT
BRANCH   1   3
ATOM      3  C   UNL     1      23.591   1.331  18.302  1.00  0.00     0.230 C 
BRANCH   3   4
ATOM      4  N   UNL     1      22.860   0.735  19.430  1.00  0.00    -0.350 N 
ATOM      5  H   UNL     1      21.921   1.188  19.512  1.00  0.00     0.345 HD
ATOM      6  H   UNL     1      23.378   0.903  20.322  1.00  0.00     0.345 HD
ATOM      7  H   UNL     1      22.720  -0.292  19.302  1.00  0.00     0.345 HD
ENDBRANCH   3   4
BRANCH   3   8
ATOM      8  C   UNL     1      24.666   0.397  17.801  1.00  0.00     0.099 C 
ATOM      9  O   UNL     1      25.600   0.023  18.560  1.00  0.00    -0.544 OA
ATOM     10  O   UNL     1      24.649  -0.031  16.479  1.00  0.00    -0.544 OA
ENDBRANCH   3   8
ENDBRANCH   1   3
BRANCH   1  11
ATOM     11  C   UNL     1      24.970   3.379  17.492  1.00  0.00     0.006 C 
ATOM     12  C   UNL     1      24.258   4.555  16.821  1.00  0.00     0.004 C 
ENDBRANCH   1  11
TORSDOF 4
ENDMDL
