MODEL 1
REMARK VINA RESULT:    -4.244      0.000      0.000
REMARK INTER + INTRA:          -5.530
REMARK INTER:                  -5.484
REMARK INTRA:                  -0.046
REMARK UNBOUND:                -0.046
REMARK SMILES CCO[C@@H]1O[C@H](CO)[C@@H](O)[C@H](O)[C@H]1O
REMARK SMILES IDX 4 1 13 2 11 3 9 4 6 5 5 6 3 7 2 8 1 9 14 10 12 12 7 14 8 15
REMARK SMILES IDX 10 17
REMARK H PARENT 14 11 12 13 8 16 10 18
REMARK Flexibility Score: inf
ROOT
ATOM      1  C   UNL     1      29.281  -0.325  39.977  1.00  0.00     0.281 C 
ATOM      2  C   UNL     1      29.355   0.895  39.047  1.00  0.00     0.202 C 
ATOM      3  C   UNL     1      30.673   1.655  39.243  1.00  0.00     0.179 C 
ATOM      4  C   UNL     1      31.878   0.695  39.166  1.00  0.00     0.177 C 
ATOM      5  C   UNL     1      31.655  -0.635  39.946  1.00  0.00     0.178 C 
ATOM      6  O   UNL     1      30.366  -1.218  39.775  1.00  0.00    -0.341 OA
ENDROOT
BRANCH   1   7
ATOM      7  O   UNL     1      29.186   0.087  41.329  1.00  0.00    -0.350 OA
BRANCH   7   8
ATOM      8  C   UNL     1      28.154  -0.607  42.007  1.00  0.00     0.160 C 
ATOM      9  C   UNL     1      28.439  -0.641  43.504  1.00  0.00     0.035 C 
ENDBRANCH   7   8
ENDBRANCH   1   7
BRANCH   2  10
ATOM     10  O   UNL     1      29.236   0.464  37.715  1.00  0.00    -0.385 OA
ATOM     11  H   UNL     1      28.299   0.158  37.594  1.00  0.00     0.211 HD
ENDBRANCH   2  10
BRANCH   3  12
ATOM     12  O   UNL     1      30.646   2.340  40.469  1.00  0.00    -0.387 OA
ATOM     13  H   UNL     1      30.278   1.712  41.143  1.00  0.00     0.211 HD
ENDBRANCH   3  12
BRANCH   5  14
ATOM     14  C   UNL     1      32.125  -0.634  41.419  1.00  0.00     0.191 C 
BRANCH  14  15
ATOM     15  O   UNL     1      31.289  -1.385  42.256  1.00  0.00    -0.394 OA
ATOM     16  H   UNL     1      30.562  -0.782  42.559  1.00  0.00     0.210 HD
ENDBRANCH  14  15
ENDBRANCH   5  14
BRANCH   4  17
ATOM     17  O   UNL     1      32.124   0.406  37.812  1.00  0.00    -0.387 OA
ATOM     18  H   UNL     1      31.859  -0.539  37.662  1.00  0.00     0.211 HD
ENDBRANCH   4  17
TORSDOF 7
ENDMDL
MODEL 2
REMARK VINA RESULT:    -4.130      1.426      2.784
REMARK INTER + INTRA:          -5.383
REMARK INTER:                  -4.954
REMARK INTRA:                  -0.430
REMARK UNBOUND:                -0.046
REMARK SMILES CCO[C@@H]1O[C@H](CO)[C@@H](O)[C@H](O)[C@H]1O
REMARK SMILES IDX 4 1 13 2 11 3 9 4 6 5 5 6 3 7 2 8 1 9 14 10 12 12 7 14 8 15
REMARK SMILES IDX 10 17
REMARK H PARENT 14 11 12 13 8 16 10 18
REMARK Flexibility Score: inf
ROOT
ATOM      1  C   UNL     1      30.205   0.382  41.422  1.00  0.00     0.281 C 
ATOM      2  C   UNL     1      31.455   0.830  40.651  1.00  0.00     0.202 C 
ATOM      3  C   UNL     1      31.598   0.050  39.337  1.00  0.00     0.179 C 
ATOM      4  C   UNL     1      30.282   0.083  38.533  1.00  0.00     0.177 C 
ATOM      5  C   UNL     1      29.018  -0.153  39.412  1.00  0.00     0.178 C 
ATOM      6  O   UNL     1      29.019   0.541  40.657  1.00  0.00    -0.341 OA
ENDROOT
BRANCH   1   7
ATOM      7  O   UNL     1      30.357  -0.949  41.883  1.00  0.00    -0.350 OA
BRANCH   7   8
ATOM      8  C   UNL     1      30.284  -1.015  43.296  1.00  0.00     0.160 C 
ATOM      9  C   UNL     1      28.837  -1.201  43.739  1.00  0.00     0.035 C 
ENDBRANCH   7   8
ENDBRANCH   1   7
BRANCH   2  10
ATOM     10  O   UNL     1      31.365   2.208  40.391  1.00  0.00    -0.385 OA
ATOM     11  H   UNL     1      32.181   2.459  39.883  1.00  0.00     0.211 HD
ENDBRANCH   2  10
BRANCH   3  12
ATOM     12  O   UNL     1      31.994  -1.269  39.611  1.00  0.00    -0.387 OA
ATOM     13  H   UNL     1      31.948  -1.768  38.755  1.00  0.00     0.211 HD
ENDBRANCH   3  12
BRANCH   5  14
ATOM     14  C   UNL     1      28.559  -1.624  39.543  1.00  0.00     0.191 C 
BRANCH  14  15
ATOM     15  O   UNL     1      27.633  -1.813  40.578  1.00  0.00    -0.394 OA
ATOM     16  H   UNL     1      27.891  -1.202  41.315  1.00  0.00     0.210 HD
ENDBRANCH  14  15
ENDBRANCH   5  14
BRANCH   4  17
ATOM     17  O   UNL     1      30.184   1.335  37.901  1.00  0.00    -0.387 OA
ATOM     18  H   UNL     1      31.107   1.688  37.805  1.00  0.00     0.211 HD
ENDBRANCH   4  17
TORSDOF 7
ENDMDL
MODEL 3
REMARK VINA RESULT:    -3.340     15.260     16.802
REMARK INTER + INTRA:          -4.362
REMARK INTER:                  -3.929
REMARK INTRA:                  -0.433
REMARK UNBOUND:                -0.046
REMARK SMILES CCO[C@@H]1O[C@H](CO)[C@@H](O)[C@H](O)[C@H]1O
REMARK SMILES IDX 4 1 13 2 11 3 9 4 6 5 5 6 3 7 2 8 1 9 14 10 12 12 7 14 8 15
REMARK SMILES IDX 10 17
REMARK H PARENT 14 11 12 13 8 16 10 18
REMARK Flexibility Score: inf
ROOT
ATOM      1  C   UNL     1      27.944  13.718  49.449  1.00  0.00     0.281 C 
ATOM      2  C   UNL     1      29.066  12.760  49.020  1.00  0.00     0.202 C 
ATOM      3  C   UNL     1      29.885  13.355  47.868  1.00  0.00     0.179 C 
ATOM      4  C   UNL     1      30.339  14.791  48.201  1.00  0.00     0.177 C 
ATOM      5  C   UNL     1      29.217  15.656  48.849  1.00  0.00     0.178 C 
ATOM      6  O   UNL     1      28.447  14.986  49.843  1.00  0.00    -0.341 OA
ENDROOT
BRANCH   1   7
ATOM      7  O   UNL     1      26.973  13.835  48.424  1.00  0.00    -0.350 OA
BRANCH   7   8
ATOM      8  C   UNL     1      25.666  13.928  48.962  1.00  0.00     0.160 C 
ATOM      9  C   UNL     1      25.024  12.547  49.021  1.00  0.00     0.035 C 
ENDBRANCH   7   8
ENDBRANCH   1   7
BRANCH   2  10
ATOM     10  O   UNL     1      29.895  12.501  50.124  1.00  0.00    -0.385 OA
ATOM     11  H   UNL     1      30.798  12.298  49.765  1.00  0.00     0.211 HD
ENDBRANCH   2  10
BRANCH   3  12
ATOM     12  O   UNL     1      29.131  13.322  46.685  1.00  0.00    -0.387 OA
ATOM     13  H   UNL     1      28.556  14.130  46.686  1.00  0.00     0.211 HD
ENDBRANCH   3  12
BRANCH   5  14
ATOM     14  C   UNL     1      28.349  16.473  47.864  1.00  0.00     0.191 C 
BRANCH  14  15
ATOM     15  O   UNL     1      28.854  16.459  46.557  1.00  0.00    -0.394 OA
ATOM     16  H   UNL     1      29.834  16.603  46.620  1.00  0.00     0.210 HD
ENDBRANCH  14  15
ENDBRANCH   5  14
BRANCH   4  17
ATOM     17  O   UNL     1      31.434  14.714  49.081  1.00  0.00    -0.387 OA
ATOM     18  H   UNL     1      31.166  15.168  49.922  1.00  0.00     0.211 HD
ENDBRANCH   4  17
TORSDOF 7
ENDMDL
MODEL 4
REMARK VINA RESULT:    -3.032      1.365      2.189
REMARK INTER + INTRA:          -3.964
REMARK INTER:                  -3.469
REMARK INTRA:                  -0.495
REMARK UNBOUND:                -0.046
REMARK SMILES CCO[C@@H]1O[C@H](CO)[C@@H](O)[C@H](O)[C@H]1O
REMARK SMILES IDX 4 1 13 2 11 3 9 4 6 5 5 6 3 7 2 8 1 9 14 10 12 12 7 14 8 15
REMARK SMILES IDX 10 17
REMARK H PARENT 14 11 12 13 8 16 10 18
REMARK Flexibility Score: inf
ROOT
ATOM      1  C   UNL     1      30.139  -0.882  40.366  1.00  0.00     0.281 C 
ATOM      2  C   UNL     1      28.863  -0.690  39.533  1.00  0.00     0.202 C 
ATOM      3  C   UNL     1      28.866   0.673  38.830  1.00  0.00     0.179 C 
ATOM      4  C   UNL     1      30.188   0.894  38.067  1.00  0.00     0.177 C 
ATOM      5  C   UNL     1      31.446   0.466  38.879  1.00  0.00     0.178 C 
ATOM      6  O   UNL     1      31.314  -0.770  39.576  1.00  0.00    -0.341 OA
ENDROOT
BRANCH   1   7
ATOM      7  O   UNL     1      30.156   0.017  41.461  1.00  0.00    -0.350 OA
BRANCH   7   8
ATOM      8  C   UNL     1      30.126  -0.677  42.696  1.00  0.00     0.160 C 
ATOM      9  C   UNL     1      28.701  -0.725  43.236  1.00  0.00     0.035 C 
ENDBRANCH   7   8
ENDBRANCH   1   7
BRANCH   2  10
ATOM     10  O   UNL     1      28.772  -1.726  38.588  1.00  0.00    -0.385 OA
ATOM     11  H   UNL     1      28.314  -2.485  39.036  1.00  0.00     0.211 HD
ENDBRANCH   2  10
BRANCH   3  12
ATOM     12  O   UNL     1      28.646   1.691  39.770  1.00  0.00    -0.387 OA
ATOM     13  H   UNL     1      27.688   1.645  40.028  1.00  0.00     0.211 HD
ENDBRANCH   3  12
BRANCH   5  14
ATOM     14  C   UNL     1      32.098   1.575  39.738  1.00  0.00     0.191 C 
BRANCH  14  15
ATOM     15  O   UNL     1      31.262   2.685  39.915  1.00  0.00    -0.394 OA
ATOM     16  H   UNL     1      31.032   2.727  40.879  1.00  0.00     0.210 HD
ENDBRANCH  14  15
ENDBRANCH   5  14
BRANCH   4  17
ATOM     17  O   UNL     1      30.134   0.158  36.869  1.00  0.00    -0.387 OA
ATOM     18  H   UNL     1      30.813   0.545  36.257  1.00  0.00     0.211 HD
ENDBRANCH   4  17
TORSDOF 7
ENDMDL
MODEL 5
REMARK VINA RESULT:    -2.929     16.280     17.834
REMARK INTER + INTRA:          -3.831
REMARK INTER:                  -3.404
REMARK INTRA:                  -0.426
REMARK UNBOUND:                -0.046
REMARK SMILES CCO[C@@H]1O[C@H](CO)[C@@H](O)[C@H](O)[C@H]1O
REMARK SMILES IDX 4 1 13 2 11 3 9 4 6 5 5 6 3 7 2 8 1 9 14 10 12 12 7 14 8 15
REMARK SMILES IDX 10 17
REMARK H PARENT 14 11 12 13 8 16 10 18
REMARK Flexibility Score: inf
ROOT
ATOM      1  C   UNL     1      30.007  14.800  48.660  1.00  0.00     0.281 C 
ATOM      2  C   UNL     1      30.579  16.175  48.284  1.00  0.00     0.202 C 
ATOM      3  C   UNL     1      29.456  17.159  47.933  1.00  0.00     0.179 C 
ATOM      4  C   UNL     1      28.375  17.175  49.033  1.00  0.00     0.177 C 
ATOM      5  C   UNL     1      27.995  15.752  49.542  1.00  0.00     0.178 C 
ATOM      6  O   UNL     1      29.101  14.878  49.750  1.00  0.00    -0.341 OA
ENDROOT
BRANCH   1   7
ATOM      7  O   UNL     1      29.416  14.183  47.530  1.00  0.00    -0.350 OA
BRANCH   7   8
ATOM      8  C   UNL     1      29.656  12.787  47.522  1.00  0.00     0.160 C 
ATOM      9  C   UNL     1      31.153  12.511  47.610  1.00  0.00     0.035 C 
ENDBRANCH   7   8
ENDBRANCH   1   7
BRANCH   2  10
ATOM     10  O   UNL     1      31.337  16.666  49.360  1.00  0.00    -0.385 OA
ATOM     11  H   UNL     1      31.534  17.619  49.163  1.00  0.00     0.211 HD
ENDBRANCH   2  10
BRANCH   3  12
ATOM     12  O   UNL     1      28.906  16.823  46.685  1.00  0.00    -0.387 OA
ATOM     13  H   UNL     1      27.943  17.060  46.721  1.00  0.00     0.211 HD
ENDBRANCH   3  12
BRANCH   5  14
ATOM     14  C   UNL     1      26.818  15.071  48.807  1.00  0.00     0.191 C 
BRANCH  14  15
ATOM     15  O   UNL     1      26.709  13.706  49.105  1.00  0.00    -0.394 OA
ATOM     16  H   UNL     1      26.403  13.250  48.278  1.00  0.00     0.210 HD
ENDBRANCH  14  15
ENDBRANCH   5  14
BRANCH   4  17
ATOM     17  O   UNL     1      28.854  17.942  50.110  1.00  0.00    -0.387 OA
ATOM     18  H   UNL     1      29.421  17.345  50.666  1.00  0.00     0.211 HD
ENDBRANCH   4  17
TORSDOF 7
ENDMDL
MODEL 6
REMARK VINA RESULT:    -2.906     16.099     17.263
REMARK INTER + INTRA:          -3.802
REMARK INTER:                  -3.392
REMARK INTRA:                  -0.410
REMARK UNBOUND:                -0.046
REMARK SMILES CCO[C@@H]1O[C@H](CO)[C@@H](O)[C@H](O)[C@H]1O
REMARK SMILES IDX 4 1 13 2 11 3 9 4 6 5 5 6 3 7 2 8 1 9 14 10 12 12 7 14 8 15
REMARK SMILES IDX 10 17
REMARK H PARENT 14 11 12 13 8 16 10 18
REMARK Flexibility Score: inf
ROOT
ATOM      1  C   UNL     1      28.579  14.766  47.817  1.00  0.00     0.281 C 
ATOM      2  C   UNL     1      28.679  16.295  47.713  1.00  0.00     0.202 C 
ATOM      3  C   UNL     1      29.553  16.866  48.836  1.00  0.00     0.179 C 
ATOM      4  C   UNL     1      30.903  16.123  48.915  1.00  0.00     0.177 C 
ATOM      5  C   UNL     1      30.761  14.577  48.785  1.00  0.00     0.178 C 
ATOM      6  O   UNL     1      29.855  14.143  47.775  1.00  0.00    -0.341 OA
ENDROOT
BRANCH   1   7
ATOM      7  O   UNL     1      27.852  14.395  48.976  1.00  0.00    -0.350 OA
BRANCH   7   8
ATOM      8  C   UNL     1      26.917  13.371  48.689  1.00  0.00     0.160 C 
ATOM      9  C   UNL     1      25.501  13.937  48.693  1.00  0.00     0.035 C 
ENDBRANCH   7   8
ENDBRANCH   1   7
BRANCH   2  10
ATOM     10  O   UNL     1      29.214  16.635  46.459  1.00  0.00    -0.385 OA
ATOM     11  H   UNL     1      29.547  17.568  46.531  1.00  0.00     0.211 HD
ENDBRANCH   2  10
BRANCH   3  12
ATOM     12  O   UNL     1      28.862  16.795  50.056  1.00  0.00    -0.387 OA
ATOM     13  H   UNL     1      28.952  17.681  50.492  1.00  0.00     0.211 HD
ENDBRANCH   3  12
BRANCH   5  14
ATOM     14  C   UNL     1      30.595  13.807  50.116  1.00  0.00     0.191 C 
BRANCH  14  15
ATOM     15  O   UNL     1      30.076  12.518  49.935  1.00  0.00    -0.394 OA
ATOM     16  H   UNL     1      30.649  11.897  50.456  1.00  0.00     0.210 HD
ENDBRANCH  14  15
ENDBRANCH   5  14
BRANCH   4  17
ATOM     17  O   UNL     1      31.730  16.603  47.883  1.00  0.00    -0.387 OA
ATOM     18  H   UNL     1      31.373  17.489  47.610  1.00  0.00     0.211 HD
ENDBRANCH   4  17
TORSDOF 7
ENDMDL
MODEL 7
REMARK VINA RESULT:    -2.846     15.947     17.604
REMARK INTER + INTRA:          -3.724
REMARK INTER:                  -3.318
REMARK INTRA:                  -0.406
REMARK UNBOUND:                -0.046
REMARK SMILES CCO[C@@H]1O[C@H](CO)[C@@H](O)[C@H](O)[C@H]1O
REMARK SMILES IDX 4 1 13 2 11 3 9 4 6 5 5 6 3 7 2 8 1 9 14 10 12 12 7 14 8 15
REMARK SMILES IDX 10 17
REMARK H PARENT 14 11 12 13 8 16 10 18
REMARK Flexibility Score: inf
ROOT
ATOM      1  C   UNL     1      29.289  15.293  47.745  1.00  0.00     0.281 C 
ATOM      2  C   UNL     1      29.359  13.759  47.747  1.00  0.00     0.202 C 
ATOM      3  C   UNL     1      28.636  13.178  48.969  1.00  0.00     0.179 C 
ATOM      4  C   UNL     1      27.218  13.771  49.102  1.00  0.00     0.177 C 
ATOM      5  C   UNL     1      27.171  15.310  48.863  1.00  0.00     0.178 C 
ATOM      6  O   UNL     1      27.950  15.767  47.761  1.00  0.00    -0.341 OA
ENDROOT
BRANCH   1   7
ATOM      7  O   UNL     1      30.046  15.825  48.818  1.00  0.00    -0.350 OA
BRANCH   7   8
ATOM      8  C   UNL     1      31.405  15.993  48.454  1.00  0.00     0.160 C 
ATOM      9  C   UNL     1      31.625  17.388  47.879  1.00  0.00     0.035 C 
ENDBRANCH   7   8
ENDBRANCH   1   7
BRANCH   2  10
ATOM     10  O   UNL     1      28.781  13.272  46.563  1.00  0.00    -0.385 OA
ATOM     11  H   UNL     1      28.762  12.281  46.637  1.00  0.00     0.211 HD
ENDBRANCH   2  10
BRANCH   3  12
ATOM     12  O   UNL     1      29.397  13.413  50.125  1.00  0.00    -0.387 OA
ATOM     13  H   UNL     1      29.757  12.536  50.418  1.00  0.00     0.211 HD
ENDBRANCH   3  12
BRANCH   5  14
ATOM     14  C   UNL     1      27.339  16.188  50.125  1.00  0.00     0.191 C 
BRANCH  14  15
ATOM     15  O   UNL     1      27.647  17.521  49.821  1.00  0.00    -0.394 OA
ATOM     16  H   UNL     1      28.606  17.549  49.567  1.00  0.00     0.210 HD
ENDBRANCH  14  15
ENDBRANCH   5  14
BRANCH   4  17
ATOM     17  O   UNL     1      26.383  13.130  48.171  1.00  0.00    -0.387 OA
ATOM     18  H   UNL     1      25.446  13.323  48.436  1.00  0.00     0.211 HD
ENDBRANCH   4  17
TORSDOF 7
ENDMDL
MODEL 8
REMARK VINA RESULT:    -2.729     15.927     17.494
REMARK INTER + INTRA:          -3.573
REMARK INTER:                  -2.999
REMARK INTRA:                  -0.574
REMARK UNBOUND:                -0.046
REMARK SMILES CCO[C@@H]1O[C@H](CO)[C@@H](O)[C@H](O)[C@H]1O
REMARK SMILES IDX 4 1 13 2 11 3 9 4 6 5 5 6 3 7 2 8 1 9 14 10 12 12 7 14 8 15
REMARK SMILES IDX 10 17
REMARK H PARENT 14 11 12 13 8 16 10 18
REMARK Flexibility Score: inf
ROOT
ATOM      1  C   UNL     1      29.141  14.263  47.519  1.00  0.00     0.281 C 
ATOM      2  C   UNL     1      28.159  14.181  48.698  1.00  0.00     0.202 C 
ATOM      3  C   UNL     1      28.023  15.541  49.394  1.00  0.00     0.179 C 
ATOM      4  C   UNL     1      27.729  16.656  48.370  1.00  0.00     0.177 C 
ATOM      5  C   UNL     1      28.602  16.555  47.083  1.00  0.00     0.178 C 
ATOM      6  O   UNL     1      28.748  15.237  46.563  1.00  0.00    -0.341 OA
ENDROOT
BRANCH   1   7
ATOM      7  O   UNL     1      30.459  14.489  47.987  1.00  0.00    -0.350 OA
BRANCH   7   8
ATOM      8  C   UNL     1      31.017  13.310  48.540  1.00  0.00     0.160 C 
ATOM      9  C   UNL     1      31.071  12.210  47.485  1.00  0.00     0.035 C 
ENDBRANCH   7   8
ENDBRANCH   1   7
BRANCH   2  10
ATOM     10  O   UNL     1      26.908  13.750  48.224  1.00  0.00    -0.385 OA
ATOM     11  H   UNL     1      26.874  13.972  47.256  1.00  0.00     0.211 HD
ENDBRANCH   2  10
BRANCH   3  12
ATOM     12  O   UNL     1      29.189  15.817  50.125  1.00  0.00    -0.387 OA
ATOM     13  H   UNL     1      29.380  15.016  50.678  1.00  0.00     0.211 HD
ENDBRANCH   3  12
BRANCH   5  14
ATOM     14  C   UNL     1      29.934  17.341  47.115  1.00  0.00     0.191 C 
BRANCH  14  15
ATOM     15  O   UNL     1      30.450  17.481  48.411  1.00  0.00    -0.394 OA
ATOM     16  H   UNL     1      30.771  16.586  48.695  1.00  0.00     0.210 HD
ENDBRANCH  14  15
ENDBRANCH   5  14
BRANCH   4  17
ATOM     17  O   UNL     1      26.370  16.583  48.016  1.00  0.00    -0.387 OA
ATOM     18  H   UNL     1      25.987  17.492  48.133  1.00  0.00     0.211 HD
ENDBRANCH   4  17
TORSDOF 7
ENDMDL
MODEL 9
REMARK VINA RESULT:    -1.846      1.450      3.316
REMARK INTER + INTRA:          -2.432
REMARK INTER:                  -2.854
REMARK INTRA:                   0.422
REMARK UNBOUND:                -0.046
REMARK SMILES CCO[C@@H]1O[C@H](CO)[C@@H](O)[C@H](O)[C@H]1O
REMARK SMILES IDX 4 1 13 2 11 3 9 4 6 5 5 6 3 7 2 8 1 9 14 10 12 12 7 14 8 15
REMARK SMILES IDX 10 17
REMARK H PARENT 14 11 12 13 8 16 10 18
REMARK Flexibility Score: inf
ROOT
ATOM      1  C   UNL     1      29.757  -0.634  39.472  1.00  0.00     0.281 C 
ATOM      2  C   UNL     1      31.155  -0.007  39.579  1.00  0.00     0.202 C 
ATOM      3  C   UNL     1      31.370   0.622  40.961  1.00  0.00     0.179 C 
ATOM      4  C   UNL     1      31.010  -0.375  42.081  1.00  0.00     0.177 C 
ATOM      5  C   UNL     1      29.689  -1.155  41.809  1.00  0.00     0.178 C 
ATOM      6  O   UNL     1      29.536  -1.619  40.470  1.00  0.00    -0.341 OA
ENDROOT
BRANCH   1   7
ATOM      7  O   UNL     1      28.759   0.372  39.499  1.00  0.00    -0.350 OA
BRANCH   7   8
ATOM      8  C   UNL     1      28.793   1.160  38.322  1.00  0.00     0.160 C 
ATOM      9  C   UNL     1      29.477   0.393  37.196  1.00  0.00     0.035 C 
ENDBRANCH   7   8
ENDBRANCH   1   7
BRANCH   2  10
ATOM     10  O   UNL     1      32.121  -0.998  39.339  1.00  0.00    -0.385 OA
ATOM     11  H   UNL     1      32.709  -0.658  38.613  1.00  0.00     0.211 HD
ENDBRANCH   2  10
BRANCH   3  12
ATOM     12  O   UNL     1      30.615   1.801  41.068  1.00  0.00    -0.387 OA
ATOM     13  H   UNL     1      31.087   2.390  41.711  1.00  0.00     0.211 HD
ENDBRANCH   3  12
BRANCH   5  14
ATOM     14  C   UNL     1      28.402  -0.509  42.373  1.00  0.00     0.191 C 
BRANCH  14  15
ATOM     15  O   UNL     1      28.335  -0.567  43.772  1.00  0.00    -0.394 OA
ATOM     16  H   UNL     1      27.407  -0.330  44.029  1.00  0.00     0.210 HD
ENDBRANCH  14  15
ENDBRANCH   5  14
BRANCH   4  17
ATOM     17  O   UNL     1      32.071  -1.289  42.215  1.00  0.00    -0.387 OA
ATOM     18  H   UNL     1      32.380  -1.243  43.158  1.00  0.00     0.211 HD
ENDBRANCH   4  17
TORSDOF 7
ENDMDL
