MODEL 1
REMARK VINA RESULT:    -5.528      0.000      0.000
REMARK INTER + INTRA:          -6.218
REMARK INTER:                  -6.174
REMARK INTRA:                  -0.044
REMARK UNBOUND:                -0.044
REMARK SMILES O=C([O-])c1ccc(O)c(O)c1
REMARK SMILES IDX 4 1 11 2 5 3 9 4 6 5 7 6 2 7 1 8 3 9 10 10 8 12
REMARK H PARENT 10 11 8 13
REMARK Flexibility Score: inf
ROOT
ATOM      1  C   UNL     1     -33.222  10.833 -34.804  1.00  0.00     0.001 A 
ATOM      2  C   UNL     1     -33.972  11.522 -33.835  1.00  0.00     0.060 A 
ATOM      3  C   UNL     1     -32.266   9.891 -34.384  1.00  0.00     0.014 A 
ATOM      4  C   UNL     1     -33.771  11.273 -32.469  1.00  0.00     0.158 A 
ATOM      5  C   UNL     1     -32.065   9.643 -33.025  1.00  0.00     0.051 A 
ATOM      6  C   UNL     1     -32.816  10.333 -32.063  1.00  0.00     0.157 A 
ENDROOT
BRANCH   1   7
ATOM      7  C   UNL     1     -33.438  11.099 -36.244  1.00  0.00     0.072 C 
ATOM      8  O   UNL     1     -33.019  10.291 -37.115  1.00  0.00    -0.545 OA
ATOM      9  O   UNL     1     -34.106  12.246 -36.656  1.00  0.00    -0.545 OA
ENDBRANCH   1   7
BRANCH   4  10
ATOM     10  O   UNL     1     -34.516  11.957 -31.510  1.00  0.00    -0.504 OA
ATOM     11  H   UNL     1     -35.452  12.292 -31.705  1.00  0.00     0.293 HD
ENDBRANCH   4  10
BRANCH   6  12
ATOM     12  O   UNL     1     -32.619  10.088 -30.705  1.00  0.00    -0.504 OA
ATOM     13  H   UNL     1     -33.242   9.486 -30.179  1.00  0.00     0.293 HD
ENDBRANCH   6  12
TORSDOF 3
ENDMDL
MODEL 2
REMARK VINA RESULT:    -5.396      0.796      4.175
REMARK INTER + INTRA:          -6.071
REMARK INTER:                  -6.027
REMARK INTRA:                  -0.044
REMARK UNBOUND:                -0.044
REMARK SMILES O=C([O-])c1ccc(O)c(O)c1
REMARK SMILES IDX 4 1 11 2 5 3 9 4 6 5 7 6 2 7 1 8 3 9 10 10 8 12
REMARK H PARENT 10 11 8 13
REMARK Flexibility Score: inf
ROOT
ATOM      1  C   UNL     1     -33.014  10.974 -33.630  1.00  0.00     0.001 A 
ATOM      2  C   UNL     1     -33.656  11.746 -34.613  1.00  0.00     0.060 A 
ATOM      3  C   UNL     1     -32.243   9.867 -34.028  1.00  0.00     0.014 A 
ATOM      4  C   UNL     1     -33.529  11.421 -35.972  1.00  0.00     0.158 A 
ATOM      5  C   UNL     1     -32.116   9.542 -35.380  1.00  0.00     0.051 A 
ATOM      6  C   UNL     1     -32.759  10.317 -36.356  1.00  0.00     0.157 A 
ENDROOT
BRANCH   1   7
ATOM      7  C   UNL     1     -33.151  11.323 -32.198  1.00  0.00     0.072 C 
ATOM      8  O   UNL     1     -32.369  10.832 -31.342  1.00  0.00    -0.545 OA
ATOM      9  O   UNL     1     -34.147  12.196 -31.778  1.00  0.00    -0.545 OA
ENDBRANCH   1   7
BRANCH   4  10
ATOM     10  O   UNL     1     -34.167  12.188 -36.944  1.00  0.00    -0.504 OA
ATOM     11  H   UNL     1     -34.066  13.196 -36.975  1.00  0.00     0.293 HD
ENDBRANCH   4  10
BRANCH   6  12
ATOM     12  O   UNL     1     -32.635   9.995 -37.706  1.00  0.00    -0.504 OA
ATOM     13  H   UNL     1     -32.854   9.068 -38.053  1.00  0.00     0.293 HD
ENDBRANCH   6  12
TORSDOF 3
ENDMDL
MODEL 3
REMARK VINA RESULT:    -5.313      1.153      4.605
REMARK INTER + INTRA:          -5.978
REMARK INTER:                  -5.933
REMARK INTRA:                  -0.044
REMARK UNBOUND:                -0.044
REMARK SMILES O=C([O-])c1ccc(O)c(O)c1
REMARK SMILES IDX 4 1 11 2 5 3 9 4 6 5 7 6 2 7 1 8 3 9 10 10 8 12
REMARK H PARENT 10 11 8 13
REMARK Flexibility Score: inf
ROOT
ATOM      1  C   UNL     1     -33.068  11.026 -33.635  1.00  0.00     0.001 A 
ATOM      2  C   UNL     1     -32.095  10.106 -34.065  1.00  0.00     0.060 A 
ATOM      3  C   UNL     1     -33.910  11.623 -34.589  1.00  0.00     0.014 A 
ATOM      4  C   UNL     1     -31.967   9.787 -35.424  1.00  0.00     0.158 A 
ATOM      5  C   UNL     1     -33.782  11.307 -35.943  1.00  0.00     0.051 A 
ATOM      6  C   UNL     1     -32.811  10.389 -36.366  1.00  0.00     0.157 A 
ENDROOT
BRANCH   1   7
ATOM      7  C   UNL     1     -33.199  11.358 -32.199  1.00  0.00     0.072 C 
ATOM      8  O   UNL     1     -34.017  12.236 -31.817  1.00  0.00    -0.545 OA
ATOM      9  O   UNL     1     -32.419  10.706 -31.250  1.00  0.00    -0.545 OA
ENDBRANCH   1   7
BRANCH   4  10
ATOM     10  O   UNL     1     -31.002   8.875 -35.847  1.00  0.00    -0.504 OA
ATOM     11  H   UNL     1     -30.022   8.994 -35.618  1.00  0.00     0.293 HD
ENDBRANCH   4  10
BRANCH   6  12
ATOM     12  O   UNL     1     -32.680  10.070 -37.716  1.00  0.00    -0.504 OA
ATOM     13  H   UNL     1     -33.342   9.460 -38.183  1.00  0.00     0.293 HD
ENDBRANCH   6  12
TORSDOF 3
ENDMDL
MODEL 4
REMARK VINA RESULT:    -5.162      1.147      4.146
REMARK INTER + INTRA:          -5.810
REMARK INTER:                  -5.769
REMARK INTRA:                  -0.041
REMARK UNBOUND:                -0.044
REMARK SMILES O=C([O-])c1ccc(O)c(O)c1
REMARK SMILES IDX 4 1 11 2 5 3 9 4 6 5 7 6 2 7 1 8 3 9 10 10 8 12
REMARK H PARENT 10 11 8 13
REMARK Flexibility Score: inf
ROOT
ATOM      1  C   UNL     1     -32.790  10.990 -32.926  1.00  0.00     0.001 A 
ATOM      2  C   UNL     1     -33.140  11.480 -34.196  1.00  0.00     0.060 A 
ATOM      3  C   UNL     1     -32.066   9.788 -32.835  1.00  0.00     0.014 A 
ATOM      4  C   UNL     1     -32.773  10.783 -35.356  1.00  0.00     0.158 A 
ATOM      5  C   UNL     1     -31.700   9.093 -33.990  1.00  0.00     0.051 A 
ATOM      6  C   UNL     1     -32.052   9.587 -35.253  1.00  0.00     0.157 A 
ENDROOT
BRANCH   1   7
ATOM      7  C   UNL     1     -33.180  11.731 -31.706  1.00  0.00     0.072 C 
ATOM      8  O   UNL     1     -34.316  12.267 -31.618  1.00  0.00    -0.545 OA
ATOM      9  O   UNL     1     -32.297  11.847 -30.639  1.00  0.00    -0.545 OA
ENDBRANCH   1   7
BRANCH   4  10
ATOM     10  O   UNL     1     -33.121  11.271 -36.614  1.00  0.00    -0.504 OA
ATOM     11  H   UNL     1     -32.777  12.162 -36.952  1.00  0.00     0.293 HD
ENDBRANCH   4  10
BRANCH   6  12
ATOM     12  O   UNL     1     -31.689   8.896 -36.408  1.00  0.00    -0.504 OA
ATOM     13  H   UNL     1     -32.257   8.929 -37.246  1.00  0.00     0.293 HD
ENDBRANCH   6  12
TORSDOF 3
ENDMDL
MODEL 5
REMARK VINA RESULT:    -5.092      1.364      4.538
REMARK INTER + INTRA:          -5.731
REMARK INTER:                  -5.690
REMARK INTRA:                  -0.041
REMARK UNBOUND:                -0.044
REMARK SMILES O=C([O-])c1ccc(O)c(O)c1
REMARK SMILES IDX 4 1 11 2 5 3 9 4 6 5 7 6 2 7 1 8 3 9 10 10 8 12
REMARK H PARENT 10 11 8 13
REMARK Flexibility Score: inf
ROOT
ATOM      1  C   UNL     1     -33.616  10.794 -34.414  1.00  0.00     0.001 A 
ATOM      2  C   UNL     1     -33.929  11.880 -35.250  1.00  0.00     0.060 A 
ATOM      3  C   UNL     1     -33.624   9.495 -34.952  1.00  0.00     0.014 A 
ATOM      4  C   UNL     1     -34.243  11.673 -36.601  1.00  0.00     0.158 A 
ATOM      5  C   UNL     1     -33.936   9.288 -36.297  1.00  0.00     0.051 A 
ATOM      6  C   UNL     1     -34.247  10.374 -37.126  1.00  0.00     0.157 A 
ENDROOT
BRANCH   1   7
ATOM      7  C   UNL     1     -33.286  11.020 -32.989  1.00  0.00     0.072 C 
ATOM      8  O   UNL     1     -33.884  11.908 -32.326  1.00  0.00    -0.545 OA
ATOM      9  O   UNL     1     -32.309  10.255 -32.362  1.00  0.00    -0.545 OA
ENDBRANCH   1   7
BRANCH   4  10
ATOM     10  O   UNL     1     -34.552  12.750 -37.428  1.00  0.00    -0.504 OA
ATOM     11  H   UNL     1     -34.476  13.707 -37.103  1.00  0.00     0.293 HD
ENDBRANCH   4  10
BRANCH   6  12
ATOM     12  O   UNL     1     -34.559  10.171 -38.469  1.00  0.00    -0.504 OA
ATOM     13  H   UNL     1     -33.838  10.000 -39.161  1.00  0.00     0.293 HD
ENDBRANCH   6  12
TORSDOF 3
ENDMDL
MODEL 6
REMARK VINA RESULT:    -5.076      1.786      2.383
REMARK INTER + INTRA:          -5.713
REMARK INTER:                  -5.676
REMARK INTRA:                  -0.037
REMARK UNBOUND:                -0.044
REMARK SMILES O=C([O-])c1ccc(O)c(O)c1
REMARK SMILES IDX 4 1 11 2 5 3 9 4 6 5 7 6 2 7 1 8 3 9 10 10 8 12
REMARK H PARENT 10 11 8 13
REMARK Flexibility Score: inf
ROOT
ATOM      1  C   UNL     1     -32.929   9.876 -34.674  1.00  0.00     0.001 A 
ATOM      2  C   UNL     1     -33.891   9.183 -33.918  1.00  0.00     0.060 A 
ATOM      3  C   UNL     1     -32.610  11.200 -34.324  1.00  0.00     0.014 A 
ATOM      4  C   UNL     1     -34.524   9.802 -32.830  1.00  0.00     0.158 A 
ATOM      5  C   UNL     1     -33.240  11.817 -33.241  1.00  0.00     0.051 A 
ATOM      6  C   UNL     1     -34.199  11.122 -32.491  1.00  0.00     0.157 A 
ENDROOT
BRANCH   1   7
ATOM      7  C   UNL     1     -32.264   9.217 -35.820  1.00  0.00     0.072 C 
ATOM      8  O   UNL     1     -31.054   8.875 -35.749  1.00  0.00    -0.545 OA
ATOM      9  O   UNL     1     -32.966   8.968 -36.994  1.00  0.00    -0.545 OA
ENDBRANCH   1   7
BRANCH   4  10
ATOM     10  O   UNL     1     -35.477   9.114 -32.083  1.00  0.00    -0.504 OA
ATOM     11  H   UNL     1     -35.902   9.522 -31.258  1.00  0.00     0.293 HD
ENDBRANCH   4  10
BRANCH   6  12
ATOM     12  O   UNL     1     -34.829  11.734 -31.410  1.00  0.00    -0.504 OA
ATOM     13  H   UNL     1     -34.329  12.361 -30.789  1.00  0.00     0.293 HD
ENDBRANCH   6  12
TORSDOF 3
ENDMDL
MODEL 7
REMARK VINA RESULT:    -4.931      0.938      2.270
REMARK INTER + INTRA:          -5.551
REMARK INTER:                  -5.507
REMARK INTRA:                  -0.044
REMARK UNBOUND:                -0.044
REMARK SMILES O=C([O-])c1ccc(O)c(O)c1
REMARK SMILES IDX 4 1 11 2 5 3 9 4 6 5 7 6 2 7 1 8 3 9 10 10 8 12
REMARK H PARENT 10 11 8 13
REMARK Flexibility Score: inf
ROOT
ATOM      1  C   UNL     1     -33.444  11.062 -35.065  1.00  0.00     0.001 A 
ATOM      2  C   UNL     1     -32.575  10.045 -34.633  1.00  0.00     0.060 A 
ATOM      3  C   UNL     1     -34.018  11.919 -34.108  1.00  0.00     0.014 A 
ATOM      4  C   UNL     1     -32.281   9.887 -33.271  1.00  0.00     0.158 A 
ATOM      5  C   UNL     1     -33.727  11.762 -32.752  1.00  0.00     0.051 A 
ATOM      6  C   UNL     1     -32.858  10.747 -32.328  1.00  0.00     0.157 A 
ENDROOT
BRANCH   1   7
ATOM      7  C   UNL     1     -33.750  11.223 -36.503  1.00  0.00     0.072 C 
ATOM      8  O   UNL     1     -34.312  12.269 -36.925  1.00  0.00    -0.545 OA
ATOM      9  O   UNL     1     -33.421  10.223 -37.410  1.00  0.00    -0.545 OA
ENDBRANCH   1   7
BRANCH   4  10
ATOM     10  O   UNL     1     -31.419   8.878 -32.847  1.00  0.00    -0.504 OA
ATOM     11  H   UNL     1     -30.716   8.487 -33.463  1.00  0.00     0.293 HD
ENDBRANCH   4  10
BRANCH   6  12
ATOM     12  O   UNL     1     -32.565  10.587 -30.975  1.00  0.00    -0.504 OA
ATOM     13  H   UNL     1     -32.084  11.307 -30.448  1.00  0.00     0.293 HD
ENDBRANCH   6  12
TORSDOF 3
ENDMDL
MODEL 8
REMARK VINA RESULT:    -4.626      1.731      4.623
REMARK INTER + INTRA:          -5.211
REMARK INTER:                  -5.175
REMARK INTRA:                  -0.036
REMARK UNBOUND:                -0.044
REMARK SMILES O=C([O-])c1ccc(O)c(O)c1
REMARK SMILES IDX 4 1 11 2 5 3 9 4 6 5 7 6 2 7 1 8 3 9 10 10 8 12
REMARK H PARENT 10 11 8 13
REMARK Flexibility Score: inf
ROOT
ATOM      1  C   UNL     1     -33.392  10.088 -34.412  1.00  0.00     0.001 A 
ATOM      2  C   UNL     1     -33.930   9.481 -35.560  1.00  0.00     0.060 A 
ATOM      3  C   UNL     1     -33.281  11.489 -34.369  1.00  0.00     0.014 A 
ATOM      4  C   UNL     1     -34.352  10.260 -36.647  1.00  0.00     0.158 A 
ATOM      5  C   UNL     1     -33.701  12.266 -35.451  1.00  0.00     0.051 A 
ATOM      6  C   UNL     1     -34.237  11.655 -36.593  1.00  0.00     0.157 A 
ENDROOT
BRANCH   1   7
ATOM      7  C   UNL     1     -32.948   9.261 -33.268  1.00  0.00     0.072 C 
ATOM      8  O   UNL     1     -31.748   8.890 -33.172  1.00  0.00    -0.545 OA
ATOM      9  O   UNL     1     -33.851   8.879 -32.282  1.00  0.00    -0.545 OA
ENDBRANCH   1   7
BRANCH   4  10
ATOM     10  O   UNL     1     -34.885   9.656 -37.784  1.00  0.00    -0.504 OA
ATOM     11  H   UNL     1     -34.380   9.639 -38.662  1.00  0.00     0.293 HD
ENDBRANCH   4  10
BRANCH   6  12
ATOM     12  O   UNL     1     -34.657  12.427 -37.675  1.00  0.00    -0.504 OA
ATOM     13  H   UNL     1     -34.657  12.059 -38.620  1.00  0.00     0.293 HD
ENDBRANCH   6  12
TORSDOF 3
ENDMDL
MODEL 9
REMARK VINA RESULT:    -4.522      2.371      4.927
REMARK INTER + INTRA:          -5.095
REMARK INTER:                  -5.058
REMARK INTRA:                  -0.037
REMARK UNBOUND:                -0.044
REMARK SMILES O=C([O-])c1ccc(O)c(O)c1
REMARK SMILES IDX 4 1 11 2 5 3 9 4 6 5 7 6 2 7 1 8 3 9 10 10 8 12
REMARK H PARENT 10 11 8 13
REMARK Flexibility Score: inf
ROOT
ATOM      1  C   UNL     1     -32.720  11.870 -30.957  1.00  0.00     0.001 A 
ATOM      2  C   UNL     1     -31.945  10.764 -31.349  1.00  0.00     0.060 A 
ATOM      3  C   UNL     1     -33.890  12.172 -31.678  1.00  0.00     0.014 A 
ATOM      4  C   UNL     1     -32.331   9.973 -32.441  1.00  0.00     0.158 A 
ATOM      5  C   UNL     1     -34.275  11.384 -32.765  1.00  0.00     0.051 A 
ATOM      6  C   UNL     1     -33.498  10.283 -33.150  1.00  0.00     0.157 A 
ENDROOT
BRANCH   1   7
ATOM      7  C   UNL     1     -32.307  12.701 -29.805  1.00  0.00     0.072 C 
ATOM      8  O   UNL     1     -32.954  12.664 -28.724  1.00  0.00    -0.545 OA
ATOM      9  O   UNL     1     -31.200  13.536 -29.899  1.00  0.00    -0.545 OA
ENDBRANCH   1   7
BRANCH   4  10
ATOM     10  O   UNL     1     -31.561   8.878 -32.826  1.00  0.00    -0.504 OA
ATOM     11  H   UNL     1     -31.152   8.250 -32.144  1.00  0.00     0.293 HD
ENDBRANCH   4  10
BRANCH   6  12
ATOM     12  O   UNL     1     -33.879   9.495 -34.234  1.00  0.00    -0.504 OA
ATOM     13  H   UNL     1     -34.570   8.759 -34.138  1.00  0.00     0.293 HD
ENDBRANCH   6  12
TORSDOF 3
ENDMDL
