MODEL 1
REMARK VINA RESULT:    -4.534      0.000      0.000
REMARK INTER + INTRA:          -6.944
REMARK INTER:                  -6.389
REMARK INTRA:                  -0.555
REMARK UNBOUND:                -0.555
REMARK SMILES CCCCCCCCC(=O)[O-]
REMARK SMILES IDX 6 1 7 2 8 3 9 4 10 5 11 6 5 7 4 8 3 9 2 10 1 11
REMARK H PARENT
REMARK Flexibility Score: inf
ROOT
ATOM      1  C   UNL     1      74.737  13.674  17.680  1.00  0.00     0.000 C 
ENDROOT
BRANCH   1   2
ATOM      2  C   UNL     1      75.326  15.014  18.151  1.00  0.00     0.006 C 
BRANCH   2   3
ATOM      3  C   UNL     1      76.206  15.682  17.087  1.00  0.00     0.053 C 
BRANCH   3   4
ATOM      4  C   UNL     1      75.359  16.401  16.085  1.00  0.00     0.041 C 
ATOM      5  O   UNL     1      75.204  15.927  14.929  1.00  0.00    -0.550 OA
ATOM      6  O   UNL     1      74.781  17.622  16.411  1.00  0.00    -0.550 OA
ENDBRANCH   3   4
ENDBRANCH   2   3
ENDBRANCH   1   2
BRANCH   1   7
ATOM      7  C   UNL     1      73.634  13.152  18.616  1.00  0.00     0.000 C 
BRANCH   7   8
ATOM      8  C   UNL     1      74.141  12.067  19.579  1.00  0.00    -0.000 C 
BRANCH   8   9
ATOM      9  C   UNL     1      75.543  11.554  19.207  1.00  0.00    -0.000 C 
BRANCH   9  10
ATOM     10  C   UNL     1      76.548  11.700  20.361  1.00  0.00    -0.003 C 
ATOM     11  C   UNL     1      77.721  12.618  20.015  1.00  0.00     0.004 C 
ENDBRANCH   9  10
ENDBRANCH   8   9
ENDBRANCH   7   8
ENDBRANCH   1   7
TORSDOF 7
ENDMDL
MODEL 2
REMARK VINA RESULT:    -4.366      3.295      5.579
REMARK INTER + INTRA:          -6.708
REMARK INTER:                  -6.438
REMARK INTRA:                  -0.271
REMARK UNBOUND:                -0.555
REMARK SMILES CCCCCCCCC(=O)[O-]
REMARK SMILES IDX 6 1 7 2 8 3 9 4 10 5 11 6 5 7 4 8 3 9 2 10 1 11
REMARK H PARENT
REMARK Flexibility Score: inf
ROOT
ATOM      1  C   UNL     1      73.874  13.163  18.639  1.00  0.00     0.000 C 
ENDROOT
BRANCH   1   2
ATOM      2  C   UNL     1      74.395  12.026  19.533  1.00  0.00     0.006 C 
BRANCH   2   3
ATOM      3  C   UNL     1      75.637  11.337  18.953  1.00  0.00     0.053 C 
BRANCH   3   4
ATOM      4  C   UNL     1      76.749  11.337  19.954  1.00  0.00     0.041 C 
ATOM      5  O   UNL     1      77.069  10.274  20.547  1.00  0.00    -0.550 OA
ATOM      6  O   UNL     1      77.400  12.524  20.270  1.00  0.00    -0.550 OA
ENDBRANCH   3   4
ENDBRANCH   2   3
ENDBRANCH   1   2
BRANCH   1   7
ATOM      7  C   UNL     1      74.715  13.342  17.363  1.00  0.00     0.000 C 
BRANCH   7   8
ATOM      8  C   UNL     1      75.059  14.815  17.085  1.00  0.00    -0.000 C 
BRANCH   8   9
ATOM      9  C   UNL     1      75.119  15.135  15.581  1.00  0.00    -0.000 C 
BRANCH   9  10
ATOM     10  C   UNL     1      74.565  16.531  15.255  1.00  0.00    -0.003 C 
ATOM     11  C   UNL     1      75.645  17.613  15.254  1.00  0.00     0.004 C 
ENDBRANCH   9  10
ENDBRANCH   8   9
ENDBRANCH   7   8
ENDBRANCH   1   7
TORSDOF 7
ENDMDL
MODEL 3
REMARK VINA RESULT:    -4.345      1.150      1.385
REMARK INTER + INTRA:          -6.678
REMARK INTER:                  -6.303
REMARK INTRA:                  -0.375
REMARK UNBOUND:                -0.555
REMARK SMILES CCCCCCCCC(=O)[O-]
REMARK SMILES IDX 6 1 7 2 8 3 9 4 10 5 11 6 5 7 4 8 3 9 2 10 1 11
REMARK H PARENT
REMARK Flexibility Score: inf
ROOT
ATOM      1  C   UNL     1      74.942  14.343  18.058  1.00  0.00     0.000 C 
ENDROOT
BRANCH   1   2
ATOM      2  C   UNL     1      75.871  14.021  16.877  1.00  0.00     0.006 C 
BRANCH   2   3
ATOM      3  C   UNL     1      75.287  14.459  15.527  1.00  0.00     0.053 C 
BRANCH   3   4
ATOM      4  C   UNL     1      75.627  15.889  15.250  1.00  0.00     0.041 C 
ATOM      5  O   UNL     1      76.805  16.304  15.412  1.00  0.00    -0.550 OA
ATOM      6  O   UNL     1      74.632  16.778  14.863  1.00  0.00    -0.550 OA
ENDBRANCH   3   4
ENDBRANCH   2   3
ENDBRANCH   1   2
BRANCH   1   7
ATOM      7  C   UNL     1      73.790  13.332  18.195  1.00  0.00     0.000 C 
BRANCH   7   8
ATOM      8  C   UNL     1      73.956  12.409  19.414  1.00  0.00    -0.000 C 
BRANCH   8   9
ATOM      9  C   UNL     1      75.100  11.396  19.237  1.00  0.00    -0.000 C 
BRANCH   9  10
ATOM     10  C   UNL     1      76.232  11.604  20.256  1.00  0.00    -0.003 C 
ATOM     11  C   UNL     1      77.249  10.463  20.255  1.00  0.00     0.004 C 
ENDBRANCH   9  10
ENDBRANCH   8   9
ENDBRANCH   7   8
ENDBRANCH   1   7
TORSDOF 7
ENDMDL
MODEL 4
REMARK VINA RESULT:    -4.282      1.297      2.235
REMARK INTER + INTRA:          -6.589
REMARK INTER:                  -5.960
REMARK INTRA:                  -0.629
REMARK UNBOUND:                -0.555
REMARK SMILES CCCCCCCCC(=O)[O-]
REMARK SMILES IDX 6 1 7 2 8 3 9 4 10 5 11 6 5 7 4 8 3 9 2 10 1 11
REMARK H PARENT
REMARK Flexibility Score: inf
ROOT
ATOM      1  C   UNL     1      74.022  12.254  19.414  1.00  0.00     0.000 C 
ENDROOT
BRANCH   1   2
ATOM      2  C   UNL     1      73.890  13.397  18.395  1.00  0.00     0.006 C 
BRANCH   2   3
ATOM      3  C   UNL     1      74.757  13.183  17.147  1.00  0.00     0.053 C 
BRANCH   3   4
ATOM      4  C   UNL     1      75.055  14.492  16.488  1.00  0.00     0.041 C 
ATOM      5  O   UNL     1      75.211  14.552  15.240  1.00  0.00    -0.550 OA
ATOM      6  O   UNL     1      75.213  15.638  17.257  1.00  0.00    -0.550 OA
ENDBRANCH   3   4
ENDBRANCH   2   3
ENDBRANCH   1   2
BRANCH   1   7
ATOM      7  C   UNL     1      75.291  11.412  19.196  1.00  0.00     0.000 C 
BRANCH   7   8
ATOM      8  C   UNL     1      76.323  11.597  20.320  1.00  0.00    -0.000 C 
BRANCH   8   9
ATOM      9  C   UNL     1      77.768  11.655  19.794  1.00  0.00    -0.000 C 
BRANCH   9  10
ATOM     10  C   UNL     1      78.405  13.041  19.979  1.00  0.00    -0.003 C 
ATOM     11  C   UNL     1      77.919  14.061  18.948  1.00  0.00     0.004 C 
ENDBRANCH   9  10
ENDBRANCH   8   9
ENDBRANCH   7   8
ENDBRANCH   1   7
TORSDOF 7
ENDMDL
MODEL 5
REMARK VINA RESULT:    -4.268      2.849      4.608
REMARK INTER + INTRA:          -6.570
REMARK INTER:                  -5.862
REMARK INTRA:                  -0.708
REMARK UNBOUND:                -0.555
REMARK SMILES CCCCCCCCC(=O)[O-]
REMARK SMILES IDX 6 1 7 2 8 3 9 4 10 5 11 6 5 7 4 8 3 9 2 10 1 11
REMARK H PARENT
REMARK Flexibility Score: inf
ROOT
ATOM      1  C   UNL     1      75.417  11.436  19.199  1.00  0.00     0.000 C 
ENDROOT
BRANCH   1   2
ATOM      2  C   UNL     1      76.411  11.544  20.366  1.00  0.00     0.006 C 
BRANCH   2   3
ATOM      3  C   UNL     1      77.576  12.497  20.067  1.00  0.00     0.053 C 
BRANCH   3   4
ATOM      4  C   UNL     1      78.304  12.059  18.835  1.00  0.00     0.041 C 
ATOM      5  O   UNL     1      78.924  10.964  18.820  1.00  0.00    -0.550 OA
ATOM      6  O   UNL     1      78.341  12.886  17.719  1.00  0.00    -0.550 OA
ENDBRANCH   3   4
ENDBRANCH   2   3
ENDBRANCH   1   2
BRANCH   1   7
ATOM      7  C   UNL     1      74.074  12.122  19.502  1.00  0.00     0.000 C 
BRANCH   7   8
ATOM      8  C   UNL     1      73.678  13.147  18.426  1.00  0.00    -0.000 C 
BRANCH   8   9
ATOM      9  C   UNL     1      74.851  14.053  18.012  1.00  0.00    -0.000 C 
BRANCH   9  10
ATOM     10  C   UNL     1      74.934  14.247  16.490  1.00  0.00    -0.003 C 
ATOM     11  C   UNL     1      75.283  12.959  15.745  1.00  0.00     0.004 C 
ENDBRANCH   9  10
ENDBRANCH   8   9
ENDBRANCH   7   8
ENDBRANCH   1   7
TORSDOF 7
ENDMDL
MODEL 6
REMARK VINA RESULT:    -4.253      1.321      2.106
REMARK INTER + INTRA:          -6.548
REMARK INTER:                  -6.034
REMARK INTRA:                  -0.514
REMARK UNBOUND:                -0.555
REMARK SMILES CCCCCCCCC(=O)[O-]
REMARK SMILES IDX 6 1 7 2 8 3 9 4 10 5 11 6 5 7 4 8 3 9 2 10 1 11
REMARK H PARENT
REMARK Flexibility Score: inf
ROOT
ATOM      1  C   UNL     1      74.029  13.154  18.641  1.00  0.00     0.000 C 
ENDROOT
BRANCH   1   2
ATOM      2  C   UNL     1      74.901  13.447  17.410  1.00  0.00     0.006 C 
BRANCH   2   3
ATOM      3  C   UNL     1      75.132  14.948  17.190  1.00  0.00     0.053 C 
BRANCH   3   4
ATOM      4  C   UNL     1      75.035  15.284  15.736  1.00  0.00     0.041 C 
ATOM      5  O   UNL     1      74.462  16.342  15.366  1.00  0.00    -0.550 OA
ATOM      6  O   UNL     1      75.532  14.402  14.783  1.00  0.00    -0.550 OA
ENDBRANCH   3   4
ENDBRANCH   2   3
ENDBRANCH   1   2
BRANCH   1   7
ATOM      7  C   UNL     1      74.425  11.847  19.348  1.00  0.00     0.000 C 
BRANCH   7   8
ATOM      8  C   UNL     1      75.707  11.993  20.184  1.00  0.00    -0.000 C 
BRANCH   8   9
ATOM      9  C   UNL     1      76.747  10.904  19.869  1.00  0.00    -0.000 C 
BRANCH   9  10
ATOM     10  C   UNL     1      76.341  10.034  18.669  1.00  0.00    -0.003 C 
ATOM     11  C   UNL     1      77.295  10.177  17.483  1.00  0.00     0.004 C 
ENDBRANCH   9  10
ENDBRANCH   8   9
ENDBRANCH   7   8
ENDBRANCH   1   7
TORSDOF 7
ENDMDL
MODEL 7
REMARK VINA RESULT:    -4.218      1.152      1.960
REMARK INTER + INTRA:          -6.499
REMARK INTER:                  -6.118
REMARK INTRA:                  -0.382
REMARK UNBOUND:                -0.555
REMARK SMILES CCCCCCCCC(=O)[O-]
REMARK SMILES IDX 6 1 7 2 8 3 9 4 10 5 11 6 5 7 4 8 3 9 2 10 1 11
REMARK H PARENT
REMARK Flexibility Score: inf
ROOT
ATOM      1  C   UNL     1      75.778  14.147  16.684  1.00  0.00     0.000 C 
ENDROOT
BRANCH   1   2
ATOM      2  C   UNL     1      75.584  14.761  15.289  1.00  0.00     0.006 C 
BRANCH   2   3
ATOM      3  C   UNL     1      74.509  15.856  15.267  1.00  0.00     0.053 C 
BRANCH   3   4
ATOM      4  C   UNL     1      75.094  17.170  15.678  1.00  0.00     0.041 C 
ATOM      5  O   UNL     1      74.764  17.696  16.772  1.00  0.00    -0.550 OA
ATOM      6  O   UNL     1      75.965  17.840  14.827  1.00  0.00    -0.550 OA
ENDBRANCH   3   4
ENDBRANCH   2   3
ENDBRANCH   1   2
BRANCH   1   7
ATOM      7  C   UNL     1      74.633  13.196  17.074  1.00  0.00     0.000 C 
BRANCH   7   8
ATOM      8  C   UNL     1      74.094  13.471  18.488  1.00  0.00    -0.000 C 
BRANCH   8   9
ATOM      9  C   UNL     1      74.173  12.236  19.402  1.00  0.00    -0.000 C 
BRANCH   9  10
ATOM     10  C   UNL     1      75.495  11.470  19.241  1.00  0.00    -0.003 C 
ATOM     11  C   UNL     1      76.465  11.709  20.399  1.00  0.00     0.004 C 
ENDBRANCH   9  10
ENDBRANCH   8   9
ENDBRANCH   7   8
ENDBRANCH   1   7
TORSDOF 7
ENDMDL
MODEL 8
REMARK VINA RESULT:    -4.195      1.763      2.127
REMARK INTER + INTRA:          -6.466
REMARK INTER:                  -5.763
REMARK INTRA:                  -0.703
REMARK UNBOUND:                -0.555
REMARK SMILES CCCCCCCCC(=O)[O-]
REMARK SMILES IDX 6 1 7 2 8 3 9 4 10 5 11 6 5 7 4 8 3 9 2 10 1 11
REMARK H PARENT
REMARK Flexibility Score: inf
ROOT
ATOM      1  C   UNL     1      74.934  14.355  16.773  1.00  0.00     0.000 C 
ENDROOT
BRANCH   1   2
ATOM      2  C   UNL     1      75.447  15.251  17.911  1.00  0.00     0.006 C 
BRANCH   2   3
ATOM      3  C   UNL     1      76.905  14.954  18.289  1.00  0.00     0.053 C 
BRANCH   3   4
ATOM      4  C   UNL     1      77.834  15.499  17.251  1.00  0.00     0.041 C 
ATOM      5  O   UNL     1      78.748  14.777  16.776  1.00  0.00    -0.550 OA
ATOM      6  O   UNL     1      77.722  16.824  16.844  1.00  0.00    -0.550 OA
ENDBRANCH   3   4
ENDBRANCH   2   3
ENDBRANCH   1   2
BRANCH   1   7
ATOM      7  C   UNL     1      74.425  12.994  17.277  1.00  0.00     0.000 C 
BRANCH   7   8
ATOM      8  C   UNL     1      73.750  13.090  18.656  1.00  0.00    -0.000 C 
BRANCH   8   9
ATOM      9  C   UNL     1      74.246  12.010  19.633  1.00  0.00    -0.000 C 
BRANCH   9  10
ATOM     10  C   UNL     1      75.664  11.522  19.300  1.00  0.00    -0.003 C 
ATOM     11  C   UNL     1      76.637  11.683  20.468  1.00  0.00     0.004 C 
ENDBRANCH   9  10
ENDBRANCH   8   9
ENDBRANCH   7   8
ENDBRANCH   1   7
TORSDOF 7
ENDMDL
MODEL 9
REMARK VINA RESULT:    -4.067      2.396      3.814
REMARK INTER + INTRA:          -6.287
REMARK INTER:                  -5.492
REMARK INTRA:                  -0.794
REMARK UNBOUND:                -0.555
REMARK SMILES CCCCCCCCC(=O)[O-]
REMARK SMILES IDX 6 1 7 2 8 3 9 4 10 5 11 6 5 7 4 8 3 9 2 10 1 11
REMARK H PARENT
REMARK Flexibility Score: inf
ROOT
ATOM      1  C   UNL     1      76.739  11.936  20.388  1.00  0.00     0.000 C 
ENDROOT
BRANCH   1   2
ATOM      2  C   UNL     1      77.981  12.645  19.824  1.00  0.00     0.006 C 
BRANCH   2   3
ATOM      3  C   UNL     1      77.628  13.867  18.967  1.00  0.00     0.053 C 
BRANCH   3   4
ATOM      4  C   UNL     1      78.292  13.776  17.630  1.00  0.00     0.041 C 
ATOM      5  O   UNL     1      78.000  12.842  16.839  1.00  0.00    -0.550 OA
ATOM      6  O   UNL     1      79.273  14.695  17.276  1.00  0.00    -0.550 OA
ENDBRANCH   3   4
ENDBRANCH   2   3
ENDBRANCH   1   2
BRANCH   1   7
ATOM      7  C   UNL     1      75.745  11.524  19.289  1.00  0.00     0.000 C 
BRANCH   7   8
ATOM      8  C   UNL     1      74.316  12.017  19.571  1.00  0.00    -0.000 C 
BRANCH   8   9
ATOM      9  C   UNL     1      73.914  13.206  18.681  1.00  0.00    -0.000 C 
BRANCH   9  10
ATOM     10  C   UNL     1      74.428  13.061  17.240  1.00  0.00    -0.003 C 
ATOM     11  C   UNL     1      74.770  14.403  16.593  1.00  0.00     0.004 C 
ENDBRANCH   9  10
ENDBRANCH   8   9
ENDBRANCH   7   8
ENDBRANCH   1   7
TORSDOF 7
ENDMDL
