MODEL 1
REMARK VINA RESULT:    21.672      0.000      0.000
REMARK INTER + INTRA:          24.353
REMARK INTER:                  24.206
REMARK INTRA:                   0.147
REMARK UNBOUND:                 0.147
REMARK SMILES COc1cc2ccc(=O)oc2cc1OC
REMARK SMILES IDX 3 1 13 2 12 3 11 4 5 5 4 6 6 7 7 8 8 9 9 10 10 11 2 12 1 13
REMARK SMILES IDX 14 14 15 15
REMARK H PARENT
REMARK Flexibility Score: inf
ROOT
ATOM      1  C   UNL     1      10.109  76.926   3.535  1.00  0.00     0.161 A 
ATOM      2  C   UNL     1      11.513  76.909   3.454  1.00  0.00     0.164 A 
ATOM      3  C   UNL     1      12.144  76.253   2.380  1.00  0.00     0.098 A 
ATOM      4  C   UNL     1      11.384  75.620   1.393  1.00  0.00     0.142 A 
ATOM      5  C   UNL     1       9.977  75.637   1.473  1.00  0.00     0.022 A 
ATOM      6  C   UNL     1       9.344  76.287   2.539  1.00  0.00     0.062 A 
ATOM      7  C   UNL     1       9.245  74.993   0.469  1.00  0.00     0.019 A 
ATOM      8  C   UNL     1       9.921  74.358  -0.572  1.00  0.00     0.094 A 
ATOM      9  C   UNL     1      11.320  74.382  -0.585  1.00  0.00     0.336 A 
ATOM     10  O   UNL     1      11.950  73.816  -1.516  1.00  0.00    -0.246 OA
ATOM     11  O   UNL     1      11.991  75.003   0.382  1.00  0.00    -0.423 OA
ENDROOT
BRANCH   1  12
ATOM     12  O   UNL     1       9.513  77.590   4.619  1.00  0.00    -0.493 OA
ATOM     13  C   UNL     1       8.852  78.847   4.532  1.00  0.00     0.278 C 
ENDBRANCH   1  12
BRANCH   2  14
ATOM     14  O   UNL     1      12.243  77.557   4.464  1.00  0.00    -0.493 OA
ATOM     15  C   UNL     1      12.244  77.168   5.835  1.00  0.00     0.278 C 
ENDBRANCH   2  14
TORSDOF 2
ENDMDL
MODEL 2
REMARK VINA RESULT:    21.724      1.357      5.032
REMARK INTER + INTRA:          24.411
REMARK INTER:                  24.142
REMARK INTRA:                   0.269
REMARK UNBOUND:                 0.147
REMARK SMILES COc1cc2ccc(=O)oc2cc1OC
REMARK SMILES IDX 3 1 13 2 12 3 11 4 5 5 4 6 6 7 7 8 8 9 9 10 10 11 2 12 1 13
REMARK SMILES IDX 14 14 15 15
REMARK H PARENT
REMARK Flexibility Score: inf
ROOT
ATOM      1  C   UNL     1      10.140  75.222   0.781  1.00  0.00     0.161 A 
ATOM      2  C   UNL     1      11.536  75.315   0.643  1.00  0.00     0.164 A 
ATOM      3  C   UNL     1      12.300  75.929   1.654  1.00  0.00     0.098 A 
ATOM      4  C   UNL     1      11.678  76.446   2.794  1.00  0.00     0.142 A 
ATOM      5  C   UNL     1      10.279  76.353   2.933  1.00  0.00     0.022 A 
ATOM      6  C   UNL     1       9.515  75.744   1.931  1.00  0.00     0.062 A 
ATOM      7  C   UNL     1       9.688  76.881   4.087  1.00  0.00     0.019 A 
ATOM      8  C   UNL     1      10.491  77.479   5.056  1.00  0.00     0.094 A 
ATOM      9  C   UNL     1      11.874  77.535   4.849  1.00  0.00     0.336 A 
ATOM     10  O   UNL     1      12.617  78.070   5.713  1.00  0.00    -0.246 OA
ATOM     11  O   UNL     1      12.410  77.024   3.744  1.00  0.00    -0.423 OA
ENDROOT
BRANCH   1  12
ATOM     12  O   UNL     1       9.410  74.603  -0.247  1.00  0.00    -0.493 OA
ATOM     13  C   UNL     1       8.121  75.019  -0.684  1.00  0.00     0.278 C 
ENDBRANCH   1  12
BRANCH   2  14
ATOM     14  O   UNL     1      12.125  74.784  -0.516  1.00  0.00    -0.493 OA
ATOM     15  C   UNL     1      12.004  73.427  -0.933  1.00  0.00     0.278 C 
ENDBRANCH   2  14
TORSDOF 2
ENDMDL
MODEL 3
REMARK VINA RESULT:    22.739      1.138      2.604
REMARK INTER + INTRA:          25.545
REMARK INTER:                  25.664
REMARK INTRA:                  -0.119
REMARK UNBOUND:                 0.147
REMARK SMILES COc1cc2ccc(=O)oc2cc1OC
REMARK SMILES IDX 3 1 13 2 12 3 11 4 5 5 4 6 6 7 7 8 8 9 9 10 10 11 2 12 1 13
REMARK SMILES IDX 14 14 15 15
REMARK H PARENT
REMARK Flexibility Score: inf
ROOT
ATOM      1  C   UNL     1      11.504  77.063   3.806  1.00  0.00     0.161 A 
ATOM      2  C   UNL     1      10.098  77.014   3.793  1.00  0.00     0.164 A 
ATOM      3  C   UNL     1       9.430  76.371   2.733  1.00  0.00     0.098 A 
ATOM      4  C   UNL     1      10.156  75.780   1.695  1.00  0.00     0.142 A 
ATOM      5  C   UNL     1      11.565  75.829   1.707  1.00  0.00     0.022 A 
ATOM      6  C   UNL     1      12.233  76.468   2.758  1.00  0.00     0.062 A 
ATOM      7  C   UNL     1      12.261  75.229   0.652  1.00  0.00     0.019 A 
ATOM      8  C   UNL     1      11.550  74.606  -0.372  1.00  0.00     0.094 A 
ATOM      9  C   UNL     1      10.152  74.597  -0.317  1.00  0.00     0.336 A 
ATOM     10  O   UNL     1       9.491  74.039  -1.231  1.00  0.00    -0.246 OA
ATOM     11  O   UNL     1       9.514  75.175   0.698  1.00  0.00    -0.423 OA
ENDROOT
BRANCH   1  12
ATOM     12  O   UNL     1      12.137  77.713   4.878  1.00  0.00    -0.493 OA
ATOM     13  C   UNL     1      13.356  78.438   4.775  1.00  0.00     0.278 C 
ENDBRANCH   1  12
BRANCH   2  14
ATOM     14  O   UNL     1       9.403  77.618   4.854  1.00  0.00    -0.493 OA
ATOM     15  C   UNL     1       8.825  78.919   4.802  1.00  0.00     0.278 C 
ENDBRANCH   2  14
TORSDOF 2
ENDMDL
