MODEL 1
REMARK VINA RESULT:    -3.973      0.000      0.000
REMARK INTER + INTRA:         -10.298
REMARK INTER:                  -7.689
REMARK INTRA:                  -2.609
REMARK UNBOUND:                -2.609
REMARK SMILES CCCCCCCCCCCCCCCCCC(=O)[O-]
REMARK SMILES IDX 10 1 11 2 12 3 13 4 14 5 15 6 16 7 17 8 18 9 19 10 20 11
REMARK SMILES IDX 9 12 8 13 7 14 6 15 5 16 4 17 3 18 2 19 1 20
REMARK H PARENT
REMARK Flexibility Score: inf
ROOT
ATOM      1  C   UNL     1     -46.076 -52.797  37.283  1.00  0.00     0.000 C 
ENDROOT
BRANCH   1   2
ATOM      2  C   UNL     1     -45.491 -51.375  37.158  1.00  0.00     0.000 C 
BRANCH   2   3
ATOM      3  C   UNL     1     -46.534 -50.249  37.036  1.00  0.00     0.000 C 
BRANCH   3   4
ATOM      4  C   UNL     1     -45.984 -48.878  37.466  1.00  0.00     0.000 C 
BRANCH   4   5
ATOM      5  C   UNL     1     -44.561 -48.623  36.942  1.00  0.00     0.000 C 
BRANCH   5   6
ATOM      6  C   UNL     1     -43.543 -48.406  38.077  1.00  0.00     0.000 C 
BRANCH   6   7
ATOM      7  C   UNL     1     -44.207 -47.956  39.391  1.00  0.00     0.006 C 
BRANCH   7   8
ATOM      8  C   UNL     1     -43.250 -47.254  40.369  1.00  0.00     0.053 C 
BRANCH   8   9
ATOM      9  C   UNL     1     -43.498 -45.778  40.431  1.00  0.00     0.041 C 
ATOM     10  O   UNL     1     -42.530 -44.974  40.489  1.00  0.00    -0.550 OA
ATOM     11  O   UNL     1     -44.799 -45.292  40.463  1.00  0.00    -0.550 OA
ENDBRANCH   8   9
ENDBRANCH   7   8
ENDBRANCH   6   7
ENDBRANCH   5   6
ENDBRANCH   4   5
ENDBRANCH   3   4
ENDBRANCH   2   3
ENDBRANCH   1   2
BRANCH   1  12
ATOM     12  C   UNL     1     -47.615 -52.867  37.320  1.00  0.00     0.000 C 
BRANCH  12  13
ATOM     13  C   UNL     1     -48.208 -53.500  38.595  1.00  0.00    -0.000 C 
BRANCH  13  14
ATOM     14  C   UNL     1     -47.401 -53.250  39.882  1.00  0.00    -0.000 C 
BRANCH  14  15
ATOM     15  C   UNL     1     -48.246 -52.634  41.007  1.00  0.00    -0.000 C 
BRANCH  15  16
ATOM     16  C   UNL     1     -47.702 -51.254  41.406  1.00  0.00    -0.000 C 
BRANCH  16  17
ATOM     17  C   UNL     1     -46.445 -50.851  40.612  1.00  0.00    -0.000 C 
BRANCH  17  18
ATOM     18  C   UNL     1     -45.125 -50.939  41.398  1.00  0.00    -0.000 C 
BRANCH  18  19
ATOM     19  C   UNL     1     -44.195 -52.048  40.885  1.00  0.00    -0.003 C 
ATOM     20  C   UNL     1     -43.052 -51.467  40.057  1.00  0.00     0.004 C 
ENDBRANCH  18  19
ENDBRANCH  17  18
ENDBRANCH  16  17
ENDBRANCH  15  16
ENDBRANCH  14  15
ENDBRANCH  13  14
ENDBRANCH  12  13
ENDBRANCH   1  12
TORSDOF 16
ENDMDL
MODEL 2
REMARK VINA RESULT:    -3.908      2.590      3.893
REMARK INTER + INTRA:         -10.173
REMARK INTER:                  -7.875
REMARK INTRA:                  -2.298
REMARK UNBOUND:                -2.609
REMARK SMILES CCCCCCCCCCCCCCCCCC(=O)[O-]
REMARK SMILES IDX 10 1 11 2 12 3 13 4 14 5 15 6 16 7 17 8 18 9 19 10 20 11
REMARK SMILES IDX 9 12 8 13 7 14 6 15 5 16 4 17 3 18 2 19 1 20
REMARK H PARENT
REMARK Flexibility Score: inf
ROOT
ATOM      1  C   UNL     1     -47.304 -54.132  39.379  1.00  0.00     0.000 C 
ENDROOT
BRANCH   1   2
ATOM      2  C   UNL     1     -48.189 -53.534  38.267  1.00  0.00     0.000 C 
BRANCH   2   3
ATOM      3  C   UNL     1     -47.423 -52.846  37.122  1.00  0.00     0.000 C 
BRANCH   3   4
ATOM      4  C   UNL     1     -46.544 -51.681  37.608  1.00  0.00     0.000 C 
BRANCH   4   5
ATOM      5  C   UNL     1     -47.094 -50.310  37.180  1.00  0.00     0.000 C 
BRANCH   5   6
ATOM      6  C   UNL     1     -45.990 -49.245  37.048  1.00  0.00     0.000 C 
BRANCH   6   7
ATOM      7  C   UNL     1     -44.785 -49.739  36.226  1.00  0.00     0.006 C 
BRANCH   7   8
ATOM      8  C   UNL     1     -43.583 -48.781  36.236  1.00  0.00     0.053 C 
BRANCH   8   9
ATOM      9  C   UNL     1     -42.758 -48.903  34.992  1.00  0.00     0.041 C 
ATOM     10  O   UNL     1     -42.548 -47.894  34.268  1.00  0.00    -0.550 OA
ATOM     11  O   UNL     1     -42.253 -50.140  34.613  1.00  0.00    -0.550 OA
ENDBRANCH   8   9
ENDBRANCH   7   8
ENDBRANCH   6   7
ENDBRANCH   5   6
ENDBRANCH   4   5
ENDBRANCH   3   4
ENDBRANCH   2   3
ENDBRANCH   1   2
BRANCH   1  12
ATOM     12  C   UNL     1     -47.986 -54.259  40.755  1.00  0.00     0.000 C 
BRANCH  12  13
ATOM     13  C   UNL     1     -48.967 -53.123  41.106  1.00  0.00    -0.000 C 
BRANCH  13  14
ATOM     14  C   UNL     1     -48.381 -52.007  41.990  1.00  0.00    -0.000 C 
BRANCH  14  15
ATOM     15  C   UNL     1     -47.666 -50.916  41.180  1.00  0.00    -0.000 C 
BRANCH  15  16
ATOM     16  C   UNL     1     -46.144 -51.123  41.205  1.00  0.00    -0.000 C 
BRANCH  16  17
ATOM     17  C   UNL     1     -45.373 -49.992  40.500  1.00  0.00    -0.000 C 
BRANCH  17  18
ATOM     18  C   UNL     1     -43.854 -50.216  40.387  1.00  0.00    -0.000 C 
BRANCH  18  19
ATOM     19  C   UNL     1     -43.080 -48.927  40.070  1.00  0.00    -0.003 C 
ATOM     20  C   UNL     1     -44.033 -47.765  39.809  1.00  0.00     0.004 C 
ENDBRANCH  18  19
ENDBRANCH  17  18
ENDBRANCH  16  17
ENDBRANCH  15  16
ENDBRANCH  14  15
ENDBRANCH  13  14
ENDBRANCH  12  13
ENDBRANCH   1  12
TORSDOF 16
ENDMDL
MODEL 3
REMARK VINA RESULT:    -3.880      2.718      4.616
REMARK INTER + INTRA:         -10.118
REMARK INTER:                  -8.083
REMARK INTRA:                  -2.035
REMARK UNBOUND:                -2.609
REMARK SMILES CCCCCCCCCCCCCCCCCC(=O)[O-]
REMARK SMILES IDX 10 1 11 2 12 3 13 4 14 5 15 6 16 7 17 8 18 9 19 10 20 11
REMARK SMILES IDX 9 12 8 13 7 14 6 15 5 16 4 17 3 18 2 19 1 20
REMARK H PARENT
REMARK Flexibility Score: inf
ROOT
ATOM      1  C   UNL     1     -45.548 -51.455  41.449  1.00  0.00     0.000 C 
ENDROOT
BRANCH   1   2
ATOM      2  C   UNL     1     -44.173 -50.758  41.412  1.00  0.00     0.000 C 
BRANCH   2   3
ATOM      3  C   UNL     1     -43.759 -50.205  40.036  1.00  0.00     0.000 C 
BRANCH   3   4
ATOM      4  C   UNL     1     -43.447 -48.699  40.068  1.00  0.00     0.000 C 
BRANCH   4   5
ATOM      5  C   UNL     1     -44.455 -47.871  39.255  1.00  0.00     0.000 C 
BRANCH   5   6
ATOM      6  C   UNL     1     -45.053 -48.659  38.075  1.00  0.00     0.000 C 
BRANCH   6   7
ATOM      7  C   UNL     1     -44.201 -48.549  36.797  1.00  0.00     0.006 C 
BRANCH   7   8
ATOM      8  C   UNL     1     -44.252 -49.796  35.899  1.00  0.00     0.053 C 
BRANCH   8   9
ATOM      9  C   UNL     1     -43.470 -49.609  34.636  1.00  0.00     0.041 C 
ATOM     10  O   UNL     1     -43.328 -50.566  33.830  1.00  0.00    -0.550 OA
ATOM     11  O   UNL     1     -42.867 -48.386  34.367  1.00  0.00    -0.550 OA
ENDBRANCH   8   9
ENDBRANCH   7   8
ENDBRANCH   6   7
ENDBRANCH   5   6
ENDBRANCH   4   5
ENDBRANCH   3   4
ENDBRANCH   2   3
ENDBRANCH   1   2
BRANCH   1  12
ATOM     12  C   UNL     1     -46.714 -50.625  40.879  1.00  0.00     0.000 C 
BRANCH  12  13
ATOM     13  C   UNL     1     -48.066 -50.823  41.593  1.00  0.00    -0.000 C 
BRANCH  13  14
ATOM     14  C   UNL     1     -48.326 -52.249  42.112  1.00  0.00    -0.000 C 
BRANCH  14  15
ATOM     15  C   UNL     1     -49.050 -53.135  41.088  1.00  0.00    -0.000 C 
BRANCH  15  16
ATOM     16  C   UNL     1     -48.164 -54.316  40.663  1.00  0.00    -0.000 C 
BRANCH  16  17
ATOM     17  C   UNL     1     -47.345 -54.024  39.391  1.00  0.00    -0.000 C 
BRANCH  17  18
ATOM     18  C   UNL     1     -48.159 -53.470  38.208  1.00  0.00    -0.000 C 
BRANCH  18  19
ATOM     19  C   UNL     1     -47.281 -52.829  37.124  1.00  0.00    -0.003 C 
ATOM     20  C   UNL     1     -47.121 -51.331  37.361  1.00  0.00     0.004 C 
ENDBRANCH  18  19
ENDBRANCH  17  18
ENDBRANCH  16  17
ENDBRANCH  15  16
ENDBRANCH  14  15
ENDBRANCH  13  14
ENDBRANCH  12  13
ENDBRANCH   1  12
TORSDOF 16
ENDMDL
MODEL 4
REMARK VINA RESULT:    -3.843      4.463      7.246
REMARK INTER + INTRA:         -10.046
REMARK INTER:                  -7.656
REMARK INTRA:                  -2.391
REMARK UNBOUND:                -2.609
REMARK SMILES CCCCCCCCCCCCCCCCCC(=O)[O-]
REMARK SMILES IDX 10 1 11 2 12 3 13 4 14 5 15 6 16 7 17 8 18 9 19 10 20 11
REMARK SMILES IDX 9 12 8 13 7 14 6 15 5 16 4 17 3 18 2 19 1 20
REMARK H PARENT
REMARK Flexibility Score: inf
ROOT
ATOM      1  C   UNL     1     -46.306 -50.903  40.667  1.00  0.00     0.000 C 
ENDROOT
BRANCH   1   2
ATOM      2  C   UNL     1     -46.220 -51.784  41.929  1.00  0.00     0.000 C 
BRANCH   2   3
ATOM      3  C   UNL     1     -47.574 -52.141  42.570  1.00  0.00     0.000 C 
BRANCH   3   4
ATOM      4  C   UNL     1     -48.770 -51.807  41.662  1.00  0.00     0.000 C 
BRANCH   4   5
ATOM      5  C   UNL     1     -49.262 -53.025  40.864  1.00  0.00     0.000 C 
BRANCH   5   6
ATOM      6  C   UNL     1     -48.394 -54.275  41.098  1.00  0.00     0.000 C 
BRANCH   6   7
ATOM      7  C   UNL     1     -47.828 -54.856  39.788  1.00  0.00     0.006 C 
BRANCH   7   8
ATOM      8  C   UNL     1     -46.894 -56.061  39.989  1.00  0.00     0.053 C 
BRANCH   8   9
ATOM      9  C   UNL     1     -47.543 -57.347  39.580  1.00  0.00     0.041 C 
ATOM     10  O   UNL     1     -47.363 -58.392  40.259  1.00  0.00    -0.550 OA
ATOM     11  O   UNL     1     -48.318 -57.398  38.428  1.00  0.00    -0.550 OA
ENDBRANCH   8   9
ENDBRANCH   7   8
ENDBRANCH   6   7
ENDBRANCH   5   6
ENDBRANCH   4   5
ENDBRANCH   3   4
ENDBRANCH   2   3
ENDBRANCH   1   2
BRANCH   1  12
ATOM     12  C   UNL     1     -45.842 -51.584  39.365  1.00  0.00     0.000 C 
BRANCH  12  13
ATOM     13  C   UNL     1     -46.895 -51.625  38.240  1.00  0.00    -0.000 C 
BRANCH  13  14
ATOM     14  C   UNL     1     -46.790 -50.487  37.208  1.00  0.00    -0.000 C 
BRANCH  14  15
ATOM     15  C   UNL     1     -45.405 -50.405  36.548  1.00  0.00    -0.000 C 
BRANCH  15  16
ATOM     16  C   UNL     1     -44.768 -49.027  36.783  1.00  0.00    -0.000 C 
BRANCH  16  17
ATOM     17  C   UNL     1     -45.495 -48.206  37.865  1.00  0.00    -0.000 C 
BRANCH  17  18
ATOM     18  C   UNL     1     -44.631 -47.826  39.081  1.00  0.00    -0.000 C 
BRANCH  18  19
ATOM     19  C   UNL     1     -43.388 -48.714  39.233  1.00  0.00    -0.003 C 
ATOM     20  C   UNL     1     -43.126 -49.047  40.698  1.00  0.00     0.004 C 
ENDBRANCH  18  19
ENDBRANCH  17  18
ENDBRANCH  16  17
ENDBRANCH  15  16
ENDBRANCH  14  15
ENDBRANCH  13  14
ENDBRANCH  12  13
ENDBRANCH   1  12
TORSDOF 16
ENDMDL
MODEL 5
REMARK VINA RESULT:    -3.785      3.448      6.469
REMARK INTER + INTRA:          -9.935
REMARK INTER:                  -7.145
REMARK INTRA:                  -2.790
REMARK UNBOUND:                -2.609
REMARK SMILES CCCCCCCCCCCCCCCCCC(=O)[O-]
REMARK SMILES IDX 10 1 11 2 12 3 13 4 14 5 15 6 16 7 17 8 18 9 19 10 20 11
REMARK SMILES IDX 9 12 8 13 7 14 6 15 5 16 4 17 3 18 2 19 1 20
REMARK H PARENT
REMARK Flexibility Score: inf
ROOT
ATOM      1  C   UNL     1     -42.561 -49.005  39.978  1.00  0.00     0.000 C 
ENDROOT
BRANCH   1   2
ATOM      2  C   UNL     1     -43.628 -49.856  40.695  1.00  0.00     0.000 C 
BRANCH   2   3
ATOM      3  C   UNL     1     -43.826 -51.272  40.124  1.00  0.00     0.000 C 
BRANCH   3   4
ATOM      4  C   UNL     1     -45.052 -51.989  40.716  1.00  0.00     0.000 C 
BRANCH   4   5
ATOM      5  C   UNL     1     -46.021 -51.020  41.413  1.00  0.00     0.000 C 
BRANCH   5   6
ATOM      6  C   UNL     1     -47.419 -51.015  40.769  1.00  0.00     0.000 C 
BRANCH   6   7
ATOM      7  C   UNL     1     -48.500 -51.606  41.694  1.00  0.00     0.006 C 
BRANCH   7   8
ATOM      8  C   UNL     1     -49.152 -52.890  41.156  1.00  0.00     0.053 C 
BRANCH   8   9
ATOM      9  C   UNL     1     -48.213 -54.056  41.202  1.00  0.00     0.041 C 
ATOM     10  O   UNL     1     -47.588 -54.327  42.261  1.00  0.00    -0.550 OA
ATOM     11  O   UNL     1     -48.000 -54.821  40.062  1.00  0.00    -0.550 OA
ENDBRANCH   8   9
ENDBRANCH   7   8
ENDBRANCH   6   7
ENDBRANCH   5   6
ENDBRANCH   4   5
ENDBRANCH   3   4
ENDBRANCH   2   3
ENDBRANCH   1   2
BRANCH   1  12
ATOM     12  C   UNL     1     -43.119 -47.884  39.079  1.00  0.00     0.000 C 
BRANCH  12  13
ATOM     13  C   UNL     1     -44.646 -47.691  39.148  1.00  0.00    -0.000 C 
BRANCH  13  14
ATOM     14  C   UNL     1     -45.418 -48.157  37.900  1.00  0.00    -0.000 C 
BRANCH  14  15
ATOM     15  C   UNL     1     -44.514 -48.828  36.855  1.00  0.00    -0.000 C 
BRANCH  15  16
ATOM     16  C   UNL     1     -45.087 -50.187  36.427  1.00  0.00    -0.000 C 
BRANCH  16  17
ATOM     17  C   UNL     1     -46.318 -50.606  37.253  1.00  0.00    -0.000 C 
BRANCH  17  18
ATOM     18  C   UNL     1     -46.585 -52.122  37.296  1.00  0.00    -0.000 C 
BRANCH  18  19
ATOM     19  C   UNL     1     -45.305 -52.959  37.161  1.00  0.00    -0.003 C 
ATOM     20  C   UNL     1     -45.547 -54.404  37.586  1.00  0.00     0.004 C 
ENDBRANCH  18  19
ENDBRANCH  17  18
ENDBRANCH  16  17
ENDBRANCH  15  16
ENDBRANCH  14  15
ENDBRANCH  13  14
ENDBRANCH  12  13
ENDBRANCH   1  12
TORSDOF 16
ENDMDL
MODEL 6
REMARK VINA RESULT:    -3.719      1.990      2.340
REMARK INTER + INTRA:          -9.807
REMARK INTER:                  -7.109
REMARK INTRA:                  -2.699
REMARK UNBOUND:                -2.609
REMARK SMILES CCCCCCCCCCCCCCCCCC(=O)[O-]
REMARK SMILES IDX 10 1 11 2 12 3 13 4 14 5 15 6 16 7 17 8 18 9 19 10 20 11
REMARK SMILES IDX 9 12 8 13 7 14 6 15 5 16 4 17 3 18 2 19 1 20
REMARK H PARENT
REMARK Flexibility Score: inf
ROOT
ATOM      1  C   UNL     1     -46.469 -53.210  37.850  1.00  0.00     0.000 C 
ENDROOT
BRANCH   1   2
ATOM      2  C   UNL     1     -47.215 -51.946  37.376  1.00  0.00     0.000 C 
BRANCH   2   3
ATOM      3  C   UNL     1     -46.321 -50.722  37.107  1.00  0.00     0.000 C 
BRANCH   3   4
ATOM      4  C   UNL     1     -47.045 -49.388  37.356  1.00  0.00     0.000 C 
BRANCH   4   5
ATOM      5  C   UNL     1     -46.071 -48.207  37.502  1.00  0.00     0.000 C 
BRANCH   5   6
ATOM      6  C   UNL     1     -44.620 -48.663  37.740  1.00  0.00     0.000 C 
BRANCH   6   7
ATOM      7  C   UNL     1     -44.082 -48.235  39.118  1.00  0.00     0.006 C 
BRANCH   7   8
ATOM      8  C   UNL     1     -42.600 -47.825  39.112  1.00  0.00     0.053 C 
BRANCH   8   9
ATOM      9  C   UNL     1     -41.759 -48.774  38.316  1.00  0.00     0.041 C 
ATOM     10  O   UNL     1     -41.535 -49.937  38.745  1.00  0.00    -0.550 OA
ATOM     11  O   UNL     1     -41.193 -48.362  37.116  1.00  0.00    -0.550 OA
ENDBRANCH   8   9
ENDBRANCH   7   8
ENDBRANCH   6   7
ENDBRANCH   5   6
ENDBRANCH   4   5
ENDBRANCH   3   4
ENDBRANCH   2   3
ENDBRANCH   1   2
BRANCH   1  12
ATOM     12  C   UNL     1     -47.374 -54.344  38.368  1.00  0.00     0.000 C 
BRANCH  12  13
ATOM     13  C   UNL     1     -47.525 -54.410  39.901  1.00  0.00    -0.000 C 
BRANCH  13  14
ATOM     14  C   UNL     1     -48.583 -53.460  40.492  1.00  0.00    -0.000 C 
BRANCH  14  15
ATOM     15  C   UNL     1     -48.469 -53.314  42.017  1.00  0.00    -0.000 C 
BRANCH  15  16
ATOM     16  C   UNL     1     -47.689 -52.044  42.388  1.00  0.00    -0.000 C 
BRANCH  16  17
ATOM     17  C   UNL     1     -47.717 -50.977  41.277  1.00  0.00    -0.000 C 
BRANCH  17  18
ATOM     18  C   UNL     1     -46.334 -50.522  40.779  1.00  0.00    -0.000 C 
BRANCH  18  19
ATOM     19  C   UNL     1     -45.184 -51.360  41.356  1.00  0.00    -0.003 C 
ATOM     20  C   UNL     1     -44.196 -51.764  40.266  1.00  0.00     0.004 C 
ENDBRANCH  18  19
ENDBRANCH  17  18
ENDBRANCH  16  17
ENDBRANCH  15  16
ENDBRANCH  14  15
ENDBRANCH  13  14
ENDBRANCH  12  13
ENDBRANCH   1  12
TORSDOF 16
ENDMDL
MODEL 7
REMARK VINA RESULT:    -3.716      1.414      2.598
REMARK INTER + INTRA:          -9.802
REMARK INTER:                  -7.001
REMARK INTRA:                  -2.801
REMARK UNBOUND:                -2.609
REMARK SMILES CCCCCCCCCCCCCCCCCC(=O)[O-]
REMARK SMILES IDX 10 1 11 2 12 3 13 4 14 5 15 6 16 7 17 8 18 9 19 10 20 11
REMARK SMILES IDX 9 12 8 13 7 14 6 15 5 16 4 17 3 18 2 19 1 20
REMARK H PARENT
REMARK Flexibility Score: inf
ROOT
ATOM      1  C   UNL     1     -47.295 -54.187  39.145  1.00  0.00     0.000 C 
ENDROOT
BRANCH   1   2
ATOM      2  C   UNL     1     -48.180 -53.458  38.114  1.00  0.00     0.000 C 
BRANCH   2   3
ATOM      3  C   UNL     1     -47.421 -52.559  37.122  1.00  0.00     0.000 C 
BRANCH   3   4
ATOM      4  C   UNL     1     -46.697 -51.388  37.810  1.00  0.00     0.000 C 
BRANCH   4   5
ATOM      5  C   UNL     1     -46.819 -50.075  37.021  1.00  0.00     0.000 C 
BRANCH   5   6
ATOM      6  C   UNL     1     -46.239 -48.870  37.784  1.00  0.00     0.000 C 
BRANCH   6   7
ATOM      7  C   UNL     1     -44.711 -48.955  37.953  1.00  0.00     0.006 C 
BRANCH   7   8
ATOM      8  C   UNL     1     -44.212 -48.561  39.353  1.00  0.00     0.053 C 
BRANCH   8   9
ATOM      9  C   UNL     1     -42.999 -47.685  39.289  1.00  0.00     0.041 C 
ATOM     10  O   UNL     1     -42.998 -46.560  39.856  1.00  0.00    -0.550 OA
ATOM     11  O   UNL     1     -41.883 -48.095  38.571  1.00  0.00    -0.550 OA
ENDBRANCH   8   9
ENDBRANCH   7   8
ENDBRANCH   6   7
ENDBRANCH   5   6
ENDBRANCH   4   5
ENDBRANCH   3   4
ENDBRANCH   2   3
ENDBRANCH   1   2
BRANCH   1  12
ATOM     12  C   UNL     1     -48.000 -54.554  40.465  1.00  0.00     0.000 C 
BRANCH  12  13
ATOM     13  C   UNL     1     -48.917 -53.457  41.041  1.00  0.00    -0.000 C 
BRANCH  13  14
ATOM     14  C   UNL     1     -48.230 -52.475  42.008  1.00  0.00    -0.000 C 
BRANCH  14  15
ATOM     15  C   UNL     1     -48.106 -51.057  41.431  1.00  0.00    -0.000 C 
BRANCH  15  16
ATOM     16  C   UNL     1     -46.632 -50.682  41.217  1.00  0.00    -0.000 C 
BRANCH  16  17
ATOM     17  C   UNL     1     -45.657 -51.752  41.743  1.00  0.00    -0.000 C 
BRANCH  17  18
ATOM     18  C   UNL     1     -44.609 -52.232  40.724  1.00  0.00    -0.000 C 
BRANCH  18  19
ATOM     19  C   UNL     1     -44.145 -53.674  40.975  1.00  0.00    -0.003 C 
ATOM     20  C   UNL     1     -44.753 -54.231  42.259  1.00  0.00     0.004 C 
ENDBRANCH  18  19
ENDBRANCH  17  18
ENDBRANCH  16  17
ENDBRANCH  15  16
ENDBRANCH  14  15
ENDBRANCH  13  14
ENDBRANCH  12  13
ENDBRANCH   1  12
TORSDOF 16
ENDMDL
MODEL 8
REMARK VINA RESULT:    -3.715      2.981      6.621
REMARK INTER + INTRA:          -9.799
REMARK INTER:                  -7.870
REMARK INTRA:                  -1.929
REMARK UNBOUND:                -2.609
REMARK SMILES CCCCCCCCCCCCCCCCCC(=O)[O-]
REMARK SMILES IDX 10 1 11 2 12 3 13 4 14 5 15 6 16 7 17 8 18 9 19 10 20 11
REMARK SMILES IDX 9 12 8 13 7 14 6 15 5 16 4 17 3 18 2 19 1 20
REMARK H PARENT
REMARK Flexibility Score: inf
ROOT
ATOM      1  C   UNL     1     -44.554 -50.940  40.238  1.00  0.00     0.000 C 
ENDROOT
BRANCH   1   2
ATOM      2  C   UNL     1     -45.585 -51.318  41.320  1.00  0.00     0.000 C 
BRANCH   2   3
ATOM      3  C   UNL     1     -47.052 -51.025  40.957  1.00  0.00     0.000 C 
BRANCH   3   4
ATOM      4  C   UNL     1     -48.043 -51.952  41.681  1.00  0.00     0.000 C 
BRANCH   4   5
ATOM      5  C   UNL     1     -48.679 -52.986  40.737  1.00  0.00     0.000 C 
BRANCH   5   6
ATOM      6  C   UNL     1     -47.773 -54.208  40.502  1.00  0.00     0.000 C 
BRANCH   6   7
ATOM      7  C   UNL     1     -47.360 -54.364  39.027  1.00  0.00     0.006 C 
BRANCH   7   8
ATOM      8  C   UNL     1     -47.958 -53.300  38.092  1.00  0.00     0.053 C 
BRANCH   8   9
ATOM      9  C   UNL     1     -46.901 -52.434  37.479  1.00  0.00     0.041 C 
ATOM     10  O   UNL     1     -45.714 -52.846  37.393  1.00  0.00    -0.550 OA
ATOM     11  O   UNL     1     -47.220 -51.156  37.037  1.00  0.00    -0.550 OA
ENDBRANCH   8   9
ENDBRANCH   7   8
ENDBRANCH   6   7
ENDBRANCH   5   6
ENDBRANCH   4   5
ENDBRANCH   3   4
ENDBRANCH   2   3
ENDBRANCH   1   2
BRANCH   1  12
ATOM     12  C   UNL     1     -43.794 -49.624  40.495  1.00  0.00     0.000 C 
BRANCH  12  13
ATOM     13  C   UNL     1     -44.329 -48.400  39.727  1.00  0.00    -0.000 C 
BRANCH  13  14
ATOM     14  C   UNL     1     -45.363 -48.720  38.632  1.00  0.00    -0.000 C 
BRANCH  14  15
ATOM     15  C   UNL     1     -44.820 -48.493  37.213  1.00  0.00    -0.000 C 
BRANCH  15  16
ATOM     16  C   UNL     1     -43.923 -49.662  36.778  1.00  0.00    -0.000 C 
BRANCH  16  17
ATOM     17  C   UNL     1     -44.195 -50.120  35.332  1.00  0.00    -0.000 C 
BRANCH  17  18
ATOM     18  C   UNL     1     -43.064 -49.817  34.333  1.00  0.00    -0.000 C 
BRANCH  18  19
ATOM     19  C   UNL     1     -42.644 -48.340  34.334  1.00  0.00    -0.003 C 
ATOM     20  C   UNL     1     -41.172 -48.187  34.705  1.00  0.00     0.004 C 
ENDBRANCH  18  19
ENDBRANCH  17  18
ENDBRANCH  16  17
ENDBRANCH  15  16
ENDBRANCH  14  15
ENDBRANCH  13  14
ENDBRANCH  12  13
ENDBRANCH   1  12
TORSDOF 16
ENDMDL
MODEL 9
REMARK VINA RESULT:    -3.672      4.285      6.855
REMARK INTER + INTRA:          -9.716
REMARK INTER:                  -6.677
REMARK INTRA:                  -3.039
REMARK UNBOUND:                -2.609
REMARK SMILES CCCCCCCCCCCCCCCCCC(=O)[O-]
REMARK SMILES IDX 10 1 11 2 12 3 13 4 14 5 15 6 16 7 17 8 18 9 19 10 20 11
REMARK SMILES IDX 9 12 8 13 7 14 6 15 5 16 4 17 3 18 2 19 1 20
REMARK H PARENT
REMARK Flexibility Score: inf
ROOT
ATOM      1  C   UNL     1     -44.134 -51.983  40.359  1.00  0.00     0.000 C 
ENDROOT
BRANCH   1   2
ATOM      2  C   UNL     1     -44.752 -50.590  40.591  1.00  0.00     0.000 C 
BRANCH   2   3
ATOM      3  C   UNL     1     -46.218 -50.595  41.060  1.00  0.00     0.000 C 
BRANCH   3   4
ATOM      4  C   UNL     1     -46.752 -52.012  41.333  1.00  0.00     0.000 C 
BRANCH   4   5
ATOM      5  C   UNL     1     -48.281 -52.102  41.200  1.00  0.00     0.000 C 
BRANCH   5   6
ATOM      6  C   UNL     1     -48.779 -53.552  41.061  1.00  0.00     0.000 C 
BRANCH   6   7
ATOM      7  C   UNL     1     -47.652 -54.532  40.686  1.00  0.00     0.006 C 
BRANCH   7   8
ATOM      8  C   UNL     1     -47.823 -55.186  39.305  1.00  0.00     0.053 C 
BRANCH   8   9
ATOM      9  C   UNL     1     -47.685 -56.675  39.369  1.00  0.00     0.041 C 
ATOM     10  O   UNL     1     -48.429 -57.413  38.670  1.00  0.00    -0.550 OA
ATOM     11  O   UNL     1     -46.759 -57.251  40.230  1.00  0.00    -0.550 OA
ENDBRANCH   8   9
ENDBRANCH   7   8
ENDBRANCH   6   7
ENDBRANCH   5   6
ENDBRANCH   4   5
ENDBRANCH   3   4
ENDBRANCH   2   3
ENDBRANCH   1   2
BRANCH   1  12
ATOM     12  C   UNL     1     -43.913 -52.359  38.881  1.00  0.00     0.000 C 
BRANCH  12  13
ATOM     13  C   UNL     1     -44.934 -53.358  38.302  1.00  0.00    -0.000 C 
BRANCH  13  14
ATOM     14  C   UNL     1     -45.826 -52.800  37.177  1.00  0.00    -0.000 C 
BRANCH  14  15
ATOM     15  C   UNL     1     -46.850 -51.773  37.682  1.00  0.00    -0.000 C 
BRANCH  15  16
ATOM     16  C   UNL     1     -46.895 -50.546  36.759  1.00  0.00    -0.000 C 
BRANCH  16  17
ATOM     17  C   UNL     1     -47.034 -49.220  37.530  1.00  0.00    -0.000 C 
BRANCH  17  18
ATOM     18  C   UNL     1     -45.708 -48.487  37.805  1.00  0.00    -0.000 C 
BRANCH  18  19
ATOM     19  C   UNL     1     -44.612 -48.830  36.786  1.00  0.00    -0.003 C 
ATOM     20  C   UNL     1     -43.265 -49.029  37.475  1.00  0.00     0.004 C 
ENDBRANCH  18  19
ENDBRANCH  17  18
ENDBRANCH  16  17
ENDBRANCH  15  16
ENDBRANCH  14  15
ENDBRANCH  13  14
ENDBRANCH  12  13
ENDBRANCH   1  12
TORSDOF 16
ENDMDL
