MODEL 1
REMARK VINA RESULT:    -3.256      0.000      0.000
REMARK INTER + INTRA:          -4.994
REMARK INTER:                  -4.969
REMARK INTRA:                  -0.026
REMARK UNBOUND:                -0.026
REMARK SMILES CC1=CCC[C@@H](C)C(=O)C[C@H](C(C)C)C(=O)C1
REMARK SMILES IDX 8 1 9 2 6 3 7 4 5 5 4 6 3 7 2 8 1 9 10 11 11 12 15 13 16 14
REMARK SMILES IDX 17 15 12 17 13 18 14 19
REMARK H PARENT
REMARK Flexibility Score: 70.00
ROOT
ATOM      1  C   UNL     1      21.890  36.831  85.330  1.00  0.00     0.136 C 
ATOM      2  O   UNL     1      20.716  37.142  85.186  1.00  0.00    -0.299 OA
ENDROOT
BRANCH   1   3
ATOM      3  C   UNL     1      22.363  35.467  84.866  1.00  0.00     0.053 C 
ATOM      4  C   UNL     1      21.174  34.617  84.396  1.00  0.00     0.016 C 
BRANCH   3   5
ATOM      5  C   UNL     1      23.140  34.750  85.993  1.00  0.00     0.015 C 
BRANCH   5   6
ATOM      6  C   UNL     1      22.271  34.566  87.254  1.00  0.00     0.028 C 
BRANCH   6   7
ATOM      7  C   UNL     1      23.080  34.324  88.504  1.00  0.00    -0.028 C 
ATOM      8  C   UNL     1      23.344  35.249  89.460  1.00  0.00    -0.070 CG0
ATOM      9  C   UNL     1      24.258  34.844  90.590  1.00  0.00     0.039 C 
ATOM     10  G   UNL     1      22.734  36.644  89.475  1.00  0.00     0.000 G0
ENDBRANCH   6   7
ENDBRANCH   5   6
ENDBRANCH   3   5
ENDBRANCH   1   3
BRANCH   1  11
ATOM     11  C   UNL     1      22.841  37.827  85.955  1.00  0.00     0.087 C 
BRANCH  11  12
ATOM     12  C   UNL     1      22.410  38.231  87.391  1.00  0.00     0.066 C 
BRANCH  12  13
ATOM     13  C   UNL     1      23.314  37.593  88.437  1.00  0.00     0.140 C 
ATOM     14  O   UNL     1      24.504  37.872  88.480  1.00  0.00    -0.299 OA
BRANCH  13  15
ATOM     15  C   UNL     1      22.730  36.655  89.466  1.00  0.00     0.106 CG0
ATOM     16  G   UNL     1      23.340  35.260  89.448  1.00  0.00     0.000 G0
ENDBRANCH  13  15
ENDBRANCH  12  13
BRANCH  12  17
ATOM     17  C   UNL     1      22.287  39.776  87.591  1.00  0.00    -0.006 C 
ATOM     18  C   UNL     1      21.626  40.120  88.936  1.00  0.00     0.008 C 
ATOM     19  C   UNL     1      21.545  40.497  86.450  1.00  0.00     0.008 C 
ENDBRANCH  12  17
ENDBRANCH  11  12
ENDBRANCH   1  11
TORSDOF 1
ENDMDL
MODEL 2
REMARK VINA RESULT:    -2.926      1.460      3.991
REMARK INTER + INTRA:          -4.491
REMARK INTER:                  -4.682
REMARK INTRA:                   0.191
REMARK UNBOUND:                -0.026
REMARK SMILES CC1=CCC[C@@H](C)C(=O)C[C@H](C(C)C)C(=O)C1
REMARK SMILES IDX 8 1 9 2 6 3 7 4 5 5 4 6 3 7 2 8 1 9 10 11 11 12 15 13 16 14
REMARK SMILES IDX 17 15 12 17 13 18 14 19
REMARK H PARENT
REMARK Flexibility Score: 70.00
ROOT
ATOM      1  C   UNL     1      22.594  34.755  86.150  1.00  0.00     0.136 C 
ATOM      2  O   UNL     1      23.727  34.704  85.692  1.00  0.00    -0.299 OA
ENDROOT
BRANCH   1   3
ATOM      3  C   UNL     1      21.444  35.173  85.255  1.00  0.00     0.053 C 
ATOM      4  C   UNL     1      21.596  34.549  83.860  1.00  0.00     0.016 C 
BRANCH   3   5
ATOM      5  C   UNL     1      21.362  36.713  85.162  1.00  0.00     0.015 C 
BRANCH   5   6
ATOM      6  C   UNL     1      20.481  37.303  86.282  1.00  0.00     0.028 C 
BRANCH   6   7
ATOM      7  C   UNL     1      21.097  38.507  86.951  1.00  0.00    -0.028 C 
ATOM      8  C   UNL     1      21.741  38.499  88.145  1.00  0.00    -0.070 CG0
ATOM      9  C   UNL     1      22.202  39.824  88.699  1.00  0.00     0.039 C 
ATOM     10  G   UNL     1      22.062  37.228  88.921  1.00  0.00     0.000 G0
ENDBRANCH   6   7
ENDBRANCH   5   6
ENDBRANCH   3   5
ENDBRANCH   1   3
BRANCH   1  11
ATOM     11  C   UNL     1      22.372  34.381  87.599  1.00  0.00     0.087 C 
BRANCH  11  12
ATOM     12  C   UNL     1      23.424  35.027  88.541  1.00  0.00     0.066 C 
BRANCH  12  13
ATOM     13  C   UNL     1      23.330  36.546  88.511  1.00  0.00     0.140 C 
ATOM     14  O   UNL     1      24.264  37.215  88.092  1.00  0.00    -0.299 OA
BRANCH  13  15
ATOM     15  C   UNL     1      22.057  37.232  88.945  1.00  0.00     0.106 CG0
ATOM     16  G   UNL     1      21.748  38.509  88.174  1.00  0.00     0.000 G0
ENDBRANCH  13  15
ENDBRANCH  12  13
BRANCH  12  17
ATOM     17  C   UNL     1      23.376  34.469  90.001  1.00  0.00    -0.006 C 
ATOM     18  C   UNL     1      24.197  35.342  90.965  1.00  0.00     0.008 C 
ATOM     19  C   UNL     1      23.824  33.000  90.123  1.00  0.00     0.008 C 
ENDBRANCH  12  17
ENDBRANCH  11  12
ENDBRANCH   1  11
TORSDOF 1
ENDMDL
MODEL 3
REMARK VINA RESULT:    -2.886      2.372      3.433
REMARK INTER + INTRA:          -4.431
REMARK INTER:                  -4.395
REMARK INTRA:                  -0.036
REMARK UNBOUND:                -0.026
REMARK SMILES CC1=CCC[C@@H](C)C(=O)C[C@H](C(C)C)C(=O)C1
REMARK SMILES IDX 8 1 9 2 6 3 7 4 5 5 4 6 3 7 2 8 1 9 10 11 11 12 15 13 16 14
REMARK SMILES IDX 17 15 12 17 13 18 14 19
REMARK H PARENT
REMARK Flexibility Score: 70.00
ROOT
ATOM      1  C   UNL     1      22.172  35.454  85.558  1.00  0.00     0.136 C 
ATOM      2  O   UNL     1      22.267  36.592  85.117  1.00  0.00    -0.299 OA
ENDROOT
BRANCH   1   3
ATOM      3  C   UNL     1      20.979  34.601  85.174  1.00  0.00     0.053 C 
ATOM      4  C   UNL     1      20.587  34.854  83.712  1.00  0.00     0.016 C 
BRANCH   3   5
ATOM      5  C   UNL     1      19.788  34.879  86.119  1.00  0.00     0.015 C 
BRANCH   5   6
ATOM      6  C   UNL     1      19.371  33.613  86.894  1.00  0.00     0.028 C 
BRANCH   6   7
ATOM      7  C   UNL     1      19.470  33.772  88.391  1.00  0.00    -0.028 C 
ATOM      8  C   UNL     1      20.495  33.334  89.163  1.00  0.00    -0.070 CG0
ATOM      9  C   UNL     1      20.365  33.498  90.656  1.00  0.00     0.039 C 
ATOM     10  G   UNL     1      21.777  32.734  88.600  1.00  0.00     0.000 G0
ENDBRANCH   6   7
ENDBRANCH   5   6
ENDBRANCH   3   5
ENDBRANCH   1   3
BRANCH   1  11
ATOM     11  C   UNL     1      23.263  34.926  86.463  1.00  0.00     0.087 C 
BRANCH  11  12
ATOM     12  C   UNL     1      22.882  35.026  87.964  1.00  0.00     0.066 C 
BRANCH  12  13
ATOM     13  C   UNL     1      22.974  33.669  88.648  1.00  0.00     0.140 C 
ATOM     14  O   UNL     1      23.984  33.350  89.257  1.00  0.00    -0.299 OA
BRANCH  13  15
ATOM     15  C   UNL     1      21.789  32.732  88.626  1.00  0.00     0.106 CG0
ATOM     16  G   UNL     1      20.501  33.352  89.151  1.00  0.00     0.000 G0
ENDBRANCH  13  15
ENDBRANCH  12  13
BRANCH  12  17
ATOM     17  C   UNL     1      23.683  36.124  88.737  1.00  0.00    -0.006 C 
ATOM     18  C   UNL     1      22.992  36.501  90.058  1.00  0.00     0.008 C 
ATOM     19  C   UNL     1      23.955  37.396  87.912  1.00  0.00     0.008 C 
ENDBRANCH  12  17
ENDBRANCH  11  12
ENDBRANCH   1  11
TORSDOF 1
ENDMDL
MODEL 4
REMARK VINA RESULT:    -2.798      2.084      3.792
REMARK INTER + INTRA:          -4.296
REMARK INTER:                  -3.916
REMARK INTRA:                  -0.379
REMARK UNBOUND:                -0.026
REMARK SMILES CC1=CCC[C@@H](C)C(=O)C[C@H](C(C)C)C(=O)C1
REMARK SMILES IDX 8 1 9 2 6 3 7 4 5 5 4 6 3 7 2 8 1 9 10 11 11 12 15 13 16 14
REMARK SMILES IDX 17 15 12 17 13 18 14 19
REMARK H PARENT
REMARK Flexibility Score: 70.00
ROOT
ATOM      1  C   UNL     1      22.093  35.266  85.186  1.00  0.00     0.136 C 
ATOM      2  O   UNL     1      21.947  34.646  84.142  1.00  0.00    -0.299 OA
ENDROOT
BRANCH   1   3
ATOM      3  C   UNL     1      22.840  34.623  86.339  1.00  0.00     0.053 C 
ATOM      4  C   UNL     1      21.852  34.075  87.378  1.00  0.00     0.016 C 
BRANCH   3   5
ATOM      5  C   UNL     1      23.814  35.634  86.985  1.00  0.00     0.015 C 
BRANCH   5   6
ATOM      6  C   UNL     1      23.290  36.138  88.345  1.00  0.00     0.028 C 
BRANCH   6   7
ATOM      7  C   UNL     1      23.273  37.642  88.455  1.00  0.00    -0.028 C 
ATOM      8  C   UNL     1      22.168  38.424  88.377  1.00  0.00    -0.070 CG0
ATOM      9  C   UNL     1      22.366  39.919  88.409  1.00  0.00     0.039 C 
ATOM     10  G   UNL     1      20.749  37.873  88.306  1.00  0.00     0.000 G0
ENDBRANCH   6   7
ENDBRANCH   5   6
ENDBRANCH   3   5
ENDBRANCH   1   3
BRANCH   1  11
ATOM     11  C   UNL     1      21.538  36.669  85.289  1.00  0.00     0.087 C 
BRANCH  11  12
ATOM     12  C   UNL     1      20.177  36.709  86.036  1.00  0.00     0.066 C 
BRANCH  12  13
ATOM     13  C   UNL     1      20.087  37.921  86.952  1.00  0.00     0.140 C 
ATOM     14  O   UNL     1      19.456  38.911  86.610  1.00  0.00    -0.299 OA
BRANCH  13  15
ATOM     15  C   UNL     1      20.730  37.882  88.318  1.00  0.00     0.106 CG0
ATOM     16  G   UNL     1      22.150  38.433  88.349  1.00  0.00     0.000 G0
ENDBRANCH  13  15
ENDBRANCH  12  13
BRANCH  12  17
ATOM     17  C   UNL     1      18.942  36.607  85.082  1.00  0.00    -0.006 C 
ATOM     18  C   UNL     1      18.353  35.186  85.072  1.00  0.00     0.008 C 
ATOM     19  C   UNL     1      19.229  37.060  83.638  1.00  0.00     0.008 C 
ENDBRANCH  12  17
ENDBRANCH  11  12
ENDBRANCH   1  11
TORSDOF 1
ENDMDL
MODEL 5
REMARK VINA RESULT:    -2.796      2.123      4.624
REMARK INTER + INTRA:          -4.293
REMARK INTER:                  -4.389
REMARK INTRA:                   0.096
REMARK UNBOUND:                -0.026
REMARK SMILES CC1=CCC[C@@H](C)C(=O)C[C@H](C(C)C)C(=O)C1
REMARK SMILES IDX 8 1 9 2 6 3 7 4 5 5 4 6 3 7 2 8 1 9 10 11 11 12 15 13 16 14
REMARK SMILES IDX 17 15 12 17 13 18 14 19
REMARK H PARENT
REMARK Flexibility Score: 70.00
ROOT
ATOM      1  C   UNL     1      22.938  35.138  86.538  1.00  0.00     0.136 C 
ATOM      2  O   UNL     1      23.648  34.751  85.620  1.00  0.00    -0.299 OA
ENDROOT
BRANCH   1   3
ATOM      3  C   UNL     1      22.810  36.625  86.809  1.00  0.00     0.053 C 
ATOM      4  C   UNL     1      22.643  37.397  85.493  1.00  0.00     0.016 C 
BRANCH   3   5
ATOM      5  C   UNL     1      24.036  37.139  87.597  1.00  0.00     0.015 C 
BRANCH   5   6
ATOM      6  C   UNL     1      23.614  37.928  88.853  1.00  0.00     0.028 C 
BRANCH   6   7
ATOM      7  C   UNL     1      22.164  38.345  88.833  1.00  0.00    -0.028 C 
ATOM      8  C   UNL     1      21.137  37.644  89.373  1.00  0.00    -0.070 CG0
ATOM      9  C   UNL     1      19.741  38.176  89.164  1.00  0.00     0.039 C 
ATOM     10  G   UNL     1      21.324  36.386  90.212  1.00  0.00     0.000 G0
ENDBRANCH   6   7
ENDBRANCH   5   6
ENDBRANCH   3   5
ENDBRANCH   1   3
BRANCH   1  11
ATOM     11  C   UNL     1      22.192  34.117  87.368  1.00  0.00     0.087 C 
BRANCH  11  12
ATOM     12  C   UNL     1      22.344  34.373  88.892  1.00  0.00     0.066 C 
BRANCH  12  13
ATOM     13  C   UNL     1      21.126  35.094  89.454  1.00  0.00     0.140 C 
ATOM     14  O   UNL     1      20.010  34.611  89.330  1.00  0.00    -0.299 OA
BRANCH  13  15
ATOM     15  C   UNL     1      21.300  36.383  90.220  1.00  0.00     0.106 CG0
ATOM     16  G   UNL     1      21.143  37.636  89.367  1.00  0.00     0.000 G0
ENDBRANCH  13  15
ENDBRANCH  12  13
BRANCH  12  17
ATOM     17  C   UNL     1      22.686  33.085  89.708  1.00  0.00    -0.006 C 
ATOM     18  C   UNL     1      24.193  32.983  89.997  1.00  0.00     0.008 C 
ATOM     19  C   UNL     1      22.195  31.780  89.050  1.00  0.00     0.008 C 
ENDBRANCH  12  17
ENDBRANCH  11  12
ENDBRANCH   1  11
TORSDOF 1
ENDMDL
MODEL 6
REMARK VINA RESULT:    -2.659      9.965     11.590
REMARK INTER + INTRA:          -4.083
REMARK INTER:                  -3.963
REMARK INTRA:                  -0.120
REMARK UNBOUND:                -0.026
REMARK SMILES CC1=CCC[C@@H](C)C(=O)C[C@H](C(C)C)C(=O)C1
REMARK SMILES IDX 8 1 9 2 6 3 7 4 5 5 4 6 3 7 2 8 1 9 10 11 11 12 15 13 16 14
REMARK SMILES IDX 17 15 12 17 13 18 14 19
REMARK H PARENT
REMARK Flexibility Score: 70.00
ROOT
ATOM      1  C   UNL     1      28.523  44.869  84.972  1.00  0.00     0.136 C 
ATOM      2  O   UNL     1      28.799  44.841  86.164  1.00  0.00    -0.299 OA
ENDROOT
BRANCH   1   3
ATOM      3  C   UNL     1      29.584  45.279  83.968  1.00  0.00     0.053 C 
ATOM      4  C   UNL     1      29.363  46.730  83.518  1.00  0.00     0.016 C 
BRANCH   3   5
ATOM      5  C   UNL     1      29.582  44.320  82.757  1.00  0.00     0.015 C 
BRANCH   5   6
ATOM      6  C   UNL     1      29.407  45.083  81.428  1.00  0.00     0.028 C 
BRANCH   6   7
ATOM      7  C   UNL     1      28.482  44.388  80.461  1.00  0.00    -0.028 C 
ATOM      8  C   UNL     1      27.143  44.584  80.374  1.00  0.00    -0.070 CG0
ATOM      9  C   UNL     1      26.372  43.719  79.408  1.00  0.00     0.039 C 
ATOM     10  G   UNL     1      26.395  45.655  81.158  1.00  0.00     0.000 G0
ENDBRANCH   6   7
ENDBRANCH   5   6
ENDBRANCH   3   5
ENDBRANCH   1   3
BRANCH   1  11
ATOM     11  C   UNL     1      27.130  44.475  84.534  1.00  0.00     0.087 C 
BRANCH  11  12
ATOM     12  C   UNL     1      26.403  45.624  83.784  1.00  0.00     0.066 C 
BRANCH  12  13
ATOM     13  C   UNL     1      25.820  45.139  82.464  1.00  0.00     0.140 C 
ATOM     14  O   UNL     1      24.866  44.375  82.452  1.00  0.00    -0.299 OA
BRANCH  13  15
ATOM     15  C   UNL     1      26.384  45.648  81.159  1.00  0.00     0.106 CG0
ATOM     16  G   UNL     1      27.129  44.591  80.353  1.00  0.00     0.000 G0
ENDBRANCH  13  15
ENDBRANCH  12  13
BRANCH  12  17
ATOM     17  C   UNL     1      25.334  46.357  84.658  1.00  0.00    -0.006 C 
ATOM     18  C   UNL     1      25.778  47.786  85.013  1.00  0.00     0.008 C 
ATOM     19  C   UNL     1      24.952  45.599  85.944  1.00  0.00     0.008 C 
ENDBRANCH  12  17
ENDBRANCH  11  12
ENDBRANCH   1  11
TORSDOF 1
ENDMDL
MODEL 7
REMARK VINA RESULT:    -2.643      2.240      4.744
REMARK INTER + INTRA:          -4.059
REMARK INTER:                  -3.862
REMARK INTRA:                  -0.197
REMARK UNBOUND:                -0.026
REMARK SMILES CC1=CCC[C@@H](C)C(=O)C[C@H](C(C)C)C(=O)C1
REMARK SMILES IDX 8 1 9 2 6 3 7 4 5 5 4 6 3 7 2 8 1 9 10 11 11 12 15 13 16 14
REMARK SMILES IDX 17 15 12 17 13 18 14 19
REMARK H PARENT
REMARK Flexibility Score: 70.00
ROOT
ATOM      1  C   UNL     1      22.640  38.839  87.752  1.00  0.00     0.136 C 
ATOM      2  O   UNL     1      22.575  39.310  88.879  1.00  0.00    -0.299 OA
ENDROOT
BRANCH   1   3
ATOM      3  C   UNL     1      21.782  39.424  86.646  1.00  0.00     0.053 C 
ATOM      4  C   UNL     1      21.876  40.956  86.648  1.00  0.00     0.016 C 
BRANCH   3   5
ATOM      5  C   UNL     1      20.315  38.962  86.797  1.00  0.00     0.015 C 
BRANCH   5   6
ATOM      6  C   UNL     1      19.824  38.211  85.543  1.00  0.00     0.028 C 
BRANCH   6   7
ATOM      7  C   UNL     1      19.578  36.743  85.787  1.00  0.00    -0.028 C 
ATOM      8  C   UNL     1      20.459  35.744  85.527  1.00  0.00    -0.070 CG0
ATOM      9  C   UNL     1      19.992  34.327  85.745  1.00  0.00     0.039 C 
ATOM     10  G   UNL     1      21.894  35.982  85.076  1.00  0.00     0.000 G0
ENDBRANCH   6   7
ENDBRANCH   5   6
ENDBRANCH   3   5
ENDBRANCH   1   3
BRANCH   1  11
ATOM     11  C   UNL     1      23.591  37.692  87.491  1.00  0.00     0.087 C 
BRANCH  11  12
ATOM     12  C   UNL     1      22.869  36.318  87.487  1.00  0.00     0.066 C 
BRANCH  12  13
ATOM     13  C   UNL     1      22.949  35.658  86.117  1.00  0.00     0.140 C 
ATOM     14  O   UNL     1      23.819  34.833  85.878  1.00  0.00    -0.299 OA
BRANCH  13  15
ATOM     15  C   UNL     1      21.914  35.976  85.065  1.00  0.00     0.106 CG0
ATOM     16  G   UNL     1      20.478  35.746  85.520  1.00  0.00     0.000 G0
ENDBRANCH  13  15
ENDBRANCH  12  13
BRANCH  12  17
ATOM     17  C   UNL     1      23.349  35.360  88.625  1.00  0.00    -0.006 C 
ATOM     18  C   UNL     1      22.320  34.251  88.901  1.00  0.00     0.008 C 
ATOM     19  C   UNL     1      23.700  36.080  89.941  1.00  0.00     0.008 C 
ENDBRANCH  12  17
ENDBRANCH  11  12
ENDBRANCH   1  11
TORSDOF 1
ENDMDL
MODEL 8
REMARK VINA RESULT:    -2.574      2.004      5.324
REMARK INTER + INTRA:          -3.955
REMARK INTER:                  -4.072
REMARK INTRA:                   0.117
REMARK UNBOUND:                -0.026
REMARK SMILES CC1=CCC[C@@H](C)C(=O)C[C@H](C(C)C)C(=O)C1
REMARK SMILES IDX 8 1 9 2 6 3 7 4 5 5 4 6 3 7 2 8 1 9 10 11 11 12 15 13 16 14
REMARK SMILES IDX 17 15 12 17 13 18 14 19
REMARK H PARENT
REMARK Flexibility Score: 70.00
ROOT
ATOM      1  C   UNL     1      22.767  37.164  88.868  1.00  0.00     0.136 C 
ATOM      2  O   UNL     1      22.082  37.204  89.880  1.00  0.00    -0.299 OA
ENDROOT
BRANCH   1   3
ATOM      3  C   UNL     1      22.880  38.398  87.992  1.00  0.00     0.053 C 
ATOM      4  C   UNL     1      22.738  39.671  88.839  1.00  0.00     0.016 C 
BRANCH   3   5
ATOM      5  C   UNL     1      21.820  38.363  86.868  1.00  0.00     0.015 C 
BRANCH   5   6
ATOM      6  C   UNL     1      22.359  37.670  85.601  1.00  0.00     0.028 C 
BRANCH   6   7
ATOM      7  C   UNL     1      21.349  36.762  84.945  1.00  0.00    -0.028 C 
ATOM      8  C   UNL     1      21.291  35.414  85.090  1.00  0.00    -0.070 CG0
ATOM      9  C   UNL     1      20.269  34.667  84.271  1.00  0.00     0.039 C 
ATOM     10  G   UNL     1      22.165  34.633  86.063  1.00  0.00     0.000 G0
ENDBRANCH   6   7
ENDBRANCH   5   6
ENDBRANCH   3   5
ENDBRANCH   1   3
BRANCH   1  11
ATOM     11  C   UNL     1      23.498  35.884  88.527  1.00  0.00     0.087 C 
BRANCH  11  12
ATOM     12  C   UNL     1      22.583  34.636  88.643  1.00  0.00     0.066 C 
BRANCH  12  13
ATOM     13  C   UNL     1      21.625  34.544  87.463  1.00  0.00     0.140 C 
ATOM     14  O   UNL     1      20.421  34.450  87.649  1.00  0.00    -0.299 OA
BRANCH  13  15
ATOM     15  C   UNL     1      22.158  34.626  86.052  1.00  0.00     0.106 CG0
ATOM     16  G   UNL     1      21.276  35.430  85.105  1.00  0.00     0.000 G0
ENDBRANCH  13  15
ENDBRANCH  12  13
BRANCH  12  17
ATOM     17  C   UNL     1      23.372  33.304  88.858  1.00  0.00    -0.006 C 
ATOM     18  C   UNL     1      22.449  32.078  88.759  1.00  0.00     0.008 C 
ATOM     19  C   UNL     1      24.162  33.253  90.180  1.00  0.00     0.008 C 
ENDBRANCH  12  17
ENDBRANCH  11  12
ENDBRANCH   1  11
TORSDOF 1
ENDMDL
MODEL 9
REMARK VINA RESULT:    -2.458      1.711      3.956
REMARK INTER + INTRA:          -3.778
REMARK INTER:                  -3.682
REMARK INTRA:                  -0.096
REMARK UNBOUND:                -0.026
REMARK SMILES CC1=CCC[C@@H](C)C(=O)C[C@H](C(C)C)C(=O)C1
REMARK SMILES IDX 8 1 9 2 6 3 7 4 5 5 4 6 3 7 2 8 1 9 10 11 11 12 15 13 16 14
REMARK SMILES IDX 17 15 12 17 13 18 14 19
REMARK H PARENT
REMARK Flexibility Score: 70.00
ROOT
ATOM      1  C   UNL     1      23.074  36.660  89.142  1.00  0.00     0.136 C 
ATOM      2  O   UNL     1      24.096  37.032  88.582  1.00  0.00    -0.299 OA
ENDROOT
BRANCH   1   3
ATOM      3  C   UNL     1      23.066  35.336  89.882  1.00  0.00     0.053 C 
ATOM      4  C   UNL     1      24.006  35.392  91.093  1.00  0.00     0.016 C 
BRANCH   3   5
ATOM      5  C   UNL     1      23.460  34.183  88.931  1.00  0.00     0.015 C 
BRANCH   5   6
ATOM      6  C   UNL     1      22.252  33.683  88.113  1.00  0.00     0.028 C 
BRANCH   6   7
ATOM      7  C   UNL     1      22.203  34.252  86.717  1.00  0.00    -0.028 C 
ATOM      8  C   UNL     1      21.262  35.110  86.250  1.00  0.00    -0.070 CG0
ATOM      9  C   UNL     1      21.326  35.489  84.791  1.00  0.00     0.039 C 
ATOM     10  G   UNL     1      20.186  35.739  87.125  1.00  0.00     0.000 G0
ENDBRANCH   6   7
ENDBRANCH   5   6
ENDBRANCH   3   5
ENDBRANCH   1   3
BRANCH   1  11
ATOM     11  C   UNL     1      21.849  37.546  89.095  1.00  0.00     0.087 C 
BRANCH  11  12
ATOM     12  C   UNL     1      21.492  37.979  87.647  1.00  0.00     0.066 C 
BRANCH  12  13
ATOM     13  C   UNL     1      20.242  37.266  87.151  1.00  0.00     0.140 C 
ATOM     14  O   UNL     1      19.291  37.906  86.728  1.00  0.00    -0.299 OA
BRANCH  13  15
ATOM     15  C   UNL     1      20.195  35.756  87.126  1.00  0.00     0.106 CG0
ATOM     16  G   UNL     1      21.259  35.119  86.241  1.00  0.00     0.000 G0
ENDBRANCH  13  15
ENDBRANCH  12  13
BRANCH  12  17
ATOM     17  C   UNL     1      21.388  39.529  87.469  1.00  0.00    -0.006 C 
ATOM     18  C   UNL     1      21.899  39.973  86.088  1.00  0.00     0.008 C 
ATOM     19  C   UNL     1      22.105  40.333  88.571  1.00  0.00     0.008 C 
ENDBRANCH  12  17
ENDBRANCH  11  12
ENDBRANCH   1  11
TORSDOF 1
ENDMDL
