MODEL 1
REMARK VINA RESULT:    -2.552      0.000      0.000
REMARK INTER + INTRA:          -3.123
REMARK INTER:                  -3.597
REMARK INTRA:                   0.473
REMARK UNBOUND:                 0.473
REMARK SMILES CC1=CCC(=C(C)C)C(=O)CC(C)=CCC1
REMARK SMILES IDX 12 1 14 2 13 3 15 4 16 5 2 6 1 7 3 8 11 10 9 11 10 12 5 13
REMARK SMILES IDX 6 14 7 15 8 16 4 17
REMARK H PARENT
REMARK Flexibility Score: 60.00
ROOT
ATOM      1  C   UNL     1      87.999  32.882  66.041  1.00  0.00    -0.070 C 
ATOM      2  C   UNL     1      86.934  33.121  66.842  1.00  0.00    -0.027 C 
ATOM      3  C   UNL     1      88.638  34.051  65.336  1.00  0.00     0.039 C 
ENDROOT
BRANCH   2   4
ATOM      4  C   UNL     1      86.094  32.067  67.523  1.00  0.00     0.032 C 
BRANCH   4   5
ATOM      5  C   UNL     1      84.606  32.066  67.139  1.00  0.00     0.034 C 
BRANCH   5   6
ATOM      6  C   UNL     1      84.349  31.798  65.669  1.00  0.00    -0.077 C 
ATOM      7  C   UNL     1      83.367  32.692  64.952  1.00  0.00     0.039 C 
ATOM      8  C   UNL     1      84.992  30.856  64.932  1.00  0.00    -0.023 CG0
ATOM      9  G   UNL     1      85.908  29.747  65.410  1.00  0.00     0.000 G0
ENDBRANCH   5   6
ENDBRANCH   4   5
ENDBRANCH   2   4
BRANCH   1  10
ATOM     10  C   UNL     1      88.633  31.517  65.884  1.00  0.00     0.111 C 
BRANCH  10  11
ATOM     11  C   UNL     1      88.102  30.809  64.664  1.00  0.00     0.163 C 
ATOM     12  O   UNL     1      88.393  31.258  63.523  1.00  0.00    -0.294 OA
BRANCH  11  13
ATOM     13  C   UNL     1      87.255  29.589  64.760  1.00  0.00    -0.002 C 
ATOM     14  C   UNL     1      87.758  28.374  64.413  1.00  0.00    -0.069 C 
ATOM     15  C   UNL     1      89.125  28.260  63.777  1.00  0.00     0.039 C 
ATOM     16  C   UNL     1      86.969  27.103  64.621  1.00  0.00     0.039 C 
BRANCH  13  17
ATOM     17  C   UNL     1      85.897  29.748  65.418  1.00  0.00     0.066 CG0
ATOM     18  G   UNL     1      85.013  30.875  64.919  1.00  0.00     0.000 G0
ENDBRANCH  13  17
ENDBRANCH  11  13
ENDBRANCH  10  11
ENDBRANCH   1  10
TORSDOF 0
ENDMDL
MODEL 2
REMARK VINA RESULT:    -2.504      1.641      4.212
REMARK INTER + INTRA:          -3.056
REMARK INTER:                  -4.171
REMARK INTRA:                   1.115
REMARK UNBOUND:                 0.473
REMARK SMILES CC1=CCC(=C(C)C)C(=O)CC(C)=CCC1
REMARK SMILES IDX 12 1 14 2 13 3 15 4 16 5 2 6 1 7 3 8 11 10 9 11 10 12 5 13
REMARK SMILES IDX 6 14 7 15 8 16 4 17
REMARK H PARENT
REMARK Flexibility Score: 60.00
ROOT
ATOM      1  C   UNL     1      88.481  29.184  65.072  1.00  0.00    -0.070 C 
ATOM      2  C   UNL     1      89.108  29.724  66.143  1.00  0.00    -0.027 C 
ATOM      3  C   UNL     1      88.815  27.764  64.691  1.00  0.00     0.039 C 
ENDROOT
BRANCH   2   4
ATOM      4  C   UNL     1      88.995  31.161  66.593  1.00  0.00     0.032 C 
BRANCH   4   5
ATOM      5  C   UNL     1      89.125  32.210  65.478  1.00  0.00     0.034 C 
BRANCH   5   6
ATOM      6  C   UNL     1      88.082  33.309  65.540  1.00  0.00    -0.077 C 
ATOM      7  C   UNL     1      88.502  34.700  65.136  1.00  0.00     0.039 C 
ATOM      8  C   UNL     1      86.778  33.118  65.865  1.00  0.00    -0.023 CG0
ATOM      9  G   UNL     1      86.119  31.878  66.436  1.00  0.00     0.000 G0
ENDBRANCH   5   6
ENDBRANCH   4   5
ENDBRANCH   2   4
BRANCH   1  10
ATOM     10  C   UNL     1      87.402  29.900  64.289  1.00  0.00     0.111 C 
BRANCH  10  11
ATOM     11  C   UNL     1      86.067  29.791  64.981  1.00  0.00     0.163 C 
ATOM     12  O   UNL     1      85.548  28.652  65.130  1.00  0.00    -0.294 OA
BRANCH  11  13
ATOM     13  C   UNL     1      85.344  30.982  65.503  1.00  0.00    -0.002 C 
ATOM     14  C   UNL     1      84.018  31.148  65.248  1.00  0.00    -0.069 C 
ATOM     15  C   UNL     1      83.294  30.215  64.304  1.00  0.00     0.039 C 
ATOM     16  C   UNL     1      83.228  32.274  65.871  1.00  0.00     0.039 C 
BRANCH  13  17
ATOM     17  C   UNL     1      86.106  31.882  66.459  1.00  0.00     0.066 CG0
ATOM     18  G   UNL     1      86.769  33.112  65.871  1.00  0.00     0.000 G0
ENDBRANCH  13  17
ENDBRANCH  11  13
ENDBRANCH  10  11
ENDBRANCH   1  10
TORSDOF 0
ENDMDL
MODEL 3
REMARK VINA RESULT:    -2.495      1.447      4.030
REMARK INTER + INTRA:          -3.043
REMARK INTER:                  -3.815
REMARK INTRA:                   0.772
REMARK UNBOUND:                 0.473
REMARK SMILES CC1=CCC(=C(C)C)C(=O)CC(C)=CCC1
REMARK SMILES IDX 12 1 14 2 13 3 15 4 16 5 2 6 1 7 3 8 11 10 9 11 10 12 5 13
REMARK SMILES IDX 6 14 7 15 8 16 4 17
REMARK H PARENT
REMARK Flexibility Score: 60.00
ROOT
ATOM      1  C   UNL     1      88.399  33.799  65.153  1.00  0.00    -0.070 C 
ATOM      2  C   UNL     1      89.121  32.878  64.472  1.00  0.00    -0.027 C 
ATOM      3  C   UNL     1      89.107  35.031  65.656  1.00  0.00     0.039 C 
ENDROOT
BRANCH   2   4
ATOM      4  C   UNL     1      88.615  31.534  64.007  1.00  0.00     0.032 C 
BRANCH   4   5
ATOM      5  C   UNL     1      88.657  30.417  65.061  1.00  0.00     0.034 C 
BRANCH   5   6
ATOM      6  C   UNL     1      87.642  29.313  64.831  1.00  0.00    -0.077 C 
ATOM      7  C   UNL     1      88.154  27.897  64.731  1.00  0.00     0.039 C 
ATOM      8  C   UNL     1      86.299  29.498  64.781  1.00  0.00    -0.023 CG0
ATOM      9  G   UNL     1      85.527  30.802  64.716  1.00  0.00     0.000 G0
ENDBRANCH   5   6
ENDBRANCH   4   5
ENDBRANCH   2   4
BRANCH   1  10
ATOM     10  C   UNL     1      86.905  33.696  65.363  1.00  0.00     0.111 C 
BRANCH  10  11
ATOM     11  C   UNL     1      86.562  32.547  66.277  1.00  0.00     0.163 C 
ATOM     12  O   UNL     1      87.253  32.367  67.316  1.00  0.00    -0.294 OA
BRANCH  11  13
ATOM     13  C   UNL     1      85.428  31.625  66.002  1.00  0.00    -0.002 C 
ATOM     14  C   UNL     1      84.313  31.655  66.780  1.00  0.00    -0.069 C 
ATOM     15  C   UNL     1      84.268  32.508  68.027  1.00  0.00     0.039 C 
ATOM     16  C   UNL     1      83.095  30.825  66.449  1.00  0.00     0.039 C 
BRANCH  13  17
ATOM     17  C   UNL     1      85.509  30.798  64.732  1.00  0.00     0.066 CG0
ATOM     18  G   UNL     1      86.284  29.496  64.801  1.00  0.00     0.000 G0
ENDBRANCH  13  17
ENDBRANCH  11  13
ENDBRANCH  10  11
ENDBRANCH   1  10
TORSDOF 0
ENDMDL
MODEL 4
REMARK VINA RESULT:    -2.348      1.967      3.722
REMARK INTER + INTRA:          -2.836
REMARK INTER:                  -3.428
REMARK INTRA:                   0.593
REMARK UNBOUND:                 0.473
REMARK SMILES CC1=CCC(=C(C)C)C(=O)CC(C)=CCC1
REMARK SMILES IDX 12 1 14 2 13 3 15 4 16 5 2 6 1 7 3 8 11 10 9 11 10 12 5 13
REMARK SMILES IDX 6 14 7 15 8 16 4 17
REMARK H PARENT
REMARK Flexibility Score: 60.00
ROOT
ATOM      1  C   UNL     1      84.832  32.111  66.195  1.00  0.00    -0.070 C 
ATOM      2  C   UNL     1      85.195  32.016  67.496  1.00  0.00    -0.027 C 
ATOM      3  C   UNL     1      83.648  31.304  65.724  1.00  0.00     0.039 C 
ENDROOT
BRANCH   2   4
ATOM      4  C   UNL     1      86.420  32.647  68.114  1.00  0.00     0.032 C 
BRANCH   4   5
ATOM      5  C   UNL     1      87.764  32.133  67.574  1.00  0.00     0.034 C 
BRANCH   5   6
ATOM      6  C   UNL     1      88.614  33.202  66.916  1.00  0.00    -0.077 C 
ATOM      7  C   UNL     1      88.986  34.410  67.740  1.00  0.00     0.039 C 
ATOM      8  C   UNL     1      89.125  33.119  65.661  1.00  0.00    -0.023 CG0
ATOM      9  G   UNL     1      88.809  32.105  64.579  1.00  0.00     0.000 G0
ENDBRANCH   5   6
ENDBRANCH   4   5
ENDBRANCH   2   4
BRANCH   1  10
ATOM     10  C   UNL     1      85.499  33.046  65.210  1.00  0.00     0.111 C 
BRANCH  10  11
ATOM     11  C   UNL     1      86.304  32.279  64.192  1.00  0.00     0.163 C 
ATOM     12  O   UNL     1      85.986  32.360  62.975  1.00  0.00    -0.294 OA
BRANCH  11  13
ATOM     13  C   UNL     1      87.469  31.436  64.574  1.00  0.00    -0.002 C 
ATOM     14  C   UNL     1      87.316  30.099  64.768  1.00  0.00    -0.069 C 
ATOM     15  C   UNL     1      85.940  29.472  64.756  1.00  0.00     0.039 C 
ATOM     16  C   UNL     1      88.499  29.196  65.027  1.00  0.00     0.039 C 
BRANCH  13  17
ATOM     17  C   UNL     1      88.832  32.103  64.557  1.00  0.00     0.066 CG0
ATOM     18  G   UNL     1      89.127  33.103  65.659  1.00  0.00     0.000 G0
ENDBRANCH  13  17
ENDBRANCH  11  13
ENDBRANCH  10  11
ENDBRANCH   1  10
TORSDOF 0
ENDMDL
MODEL 5
REMARK VINA RESULT:    -2.037      1.594      3.976
REMARK INTER + INTRA:          -2.397
REMARK INTER:                  -2.361
REMARK INTRA:                  -0.037
REMARK UNBOUND:                 0.473
REMARK SMILES CC1=CCC(=C(C)C)C(=O)CC(C)=CCC1
REMARK SMILES IDX 12 1 14 2 13 3 15 4 16 5 2 6 1 7 3 8 11 10 9 11 10 12 5 13
REMARK SMILES IDX 6 14 7 15 8 16 4 17
REMARK H PARENT
REMARK Flexibility Score: 60.00
ROOT
ATOM      1  C   UNL     1      87.777  29.080  65.043  1.00  0.00    -0.070 C 
ATOM      2  C   UNL     1      86.648  28.393  64.750  1.00  0.00    -0.027 C 
ATOM      3  C   UNL     1      89.104  28.425  64.762  1.00  0.00     0.039 C 
ENDROOT
BRANCH   2   4
ATOM      4  C   UNL     1      85.241  28.834  65.077  1.00  0.00     0.032 C 
BRANCH   4   5
ATOM      5  C   UNL     1      84.632  29.855  64.104  1.00  0.00     0.034 C 
BRANCH   5   6
ATOM      6  C   UNL     1      84.025  31.068  64.784  1.00  0.00    -0.077 C 
ATOM      7  C   UNL     1      82.793  30.857  65.629  1.00  0.00     0.039 C 
ATOM      8  C   UNL     1      84.550  32.319  64.745  1.00  0.00    -0.023 CG0
ATOM      9  G   UNL     1      85.681  32.841  63.880  1.00  0.00     0.000 G0
ENDBRANCH   5   6
ENDBRANCH   4   5
ENDBRANCH   2   4
BRANCH   1  10
ATOM     10  C   UNL     1      87.775  30.503  65.559  1.00  0.00     0.111 C 
BRANCH  10  11
ATOM     11  C   UNL     1      87.809  31.493  64.423  1.00  0.00     0.163 C 
ATOM     12  O   UNL     1      88.460  31.206  63.383  1.00  0.00    -0.294 OA
BRANCH  11  13
ATOM     13  C   UNL     1      87.090  32.794  64.483  1.00  0.00    -0.002 C 
ATOM     14  C   UNL     1      87.730  33.913  64.917  1.00  0.00    -0.069 C 
ATOM     15  C   UNL     1      89.125  33.827  65.493  1.00  0.00     0.039 C 
ATOM     16  C   UNL     1      87.070  35.271  64.867  1.00  0.00     0.039 C 
BRANCH  13  17
ATOM     17  C   UNL     1      85.699  32.837  63.879  1.00  0.00     0.066 CG0
ATOM     18  G   UNL     1      84.557  32.318  64.733  1.00  0.00     0.000 G0
ENDBRANCH  13  17
ENDBRANCH  11  13
ENDBRANCH  10  11
ENDBRANCH   1  10
TORSDOF 0
ENDMDL
MODEL 6
REMARK VINA RESULT:    -1.939      1.800      2.712
REMARK INTER + INTRA:          -2.259
REMARK INTER:                  -2.661
REMARK INTRA:                   0.402
REMARK UNBOUND:                 0.473
REMARK SMILES CC1=CCC(=C(C)C)C(=O)CC(C)=CCC1
REMARK SMILES IDX 12 1 14 2 13 3 15 4 16 5 2 6 1 7 3 8 11 10 9 11 10 12 5 13
REMARK SMILES IDX 6 14 7 15 8 16 4 17
REMARK H PARENT
REMARK Flexibility Score: 60.00
ROOT
ATOM      1  C   UNL     1      89.035  31.128  63.779  1.00  0.00    -0.070 C 
ATOM      2  C   UNL     1      88.976  32.468  63.961  1.00  0.00    -0.027 C 
ATOM      3  C   UNL     1      89.100  30.601  62.368  1.00  0.00     0.039 C 
ENDROOT
BRANCH   2   4
ATOM      4  C   UNL     1      88.780  33.167  65.285  1.00  0.00     0.032 C 
BRANCH   4   5
ATOM      5  C   UNL     1      87.350  33.654  65.564  1.00  0.00     0.034 C 
BRANCH   5   6
ATOM      6  C   UNL     1      86.368  33.354  64.448  1.00  0.00    -0.077 C 
ATOM      7  C   UNL     1      86.217  34.378  63.351  1.00  0.00     0.039 C 
ATOM      8  C   UNL     1      85.667  32.198  64.326  1.00  0.00    -0.023 CG0
ATOM      9  G   UNL     1      85.521  31.072  65.332  1.00  0.00     0.000 G0
ENDBRANCH   5   6
ENDBRANCH   4   5
ENDBRANCH   2   4
BRANCH   1  10
ATOM     10  C   UNL     1      89.125  30.136  64.919  1.00  0.00     0.111 C 
BRANCH  10  11
ATOM     11  C   UNL     1      87.889  30.186  65.781  1.00  0.00     0.163 C 
ATOM     12  O   UNL     1      88.009  30.464  67.004  1.00  0.00    -0.294 OA
BRANCH  11  13
ATOM     13  C   UNL     1      86.530  29.930  65.234  1.00  0.00    -0.002 C 
ATOM     14  C   UNL     1      86.179  28.683  64.821  1.00  0.00    -0.069 C 
ATOM     15  C   UNL     1      87.205  27.574  64.762  1.00  0.00     0.039 C 
ATOM     16  C   UNL     1      84.768  28.361  64.385  1.00  0.00     0.039 C 
BRANCH  13  17
ATOM     17  C   UNL     1      85.528  31.066  65.328  1.00  0.00     0.066 CG0
ATOM     18  G   UNL     1      85.670  32.200  64.331  1.00  0.00     0.000 G0
ENDBRANCH  13  17
ENDBRANCH  11  13
ENDBRANCH  10  11
ENDBRANCH   1  10
TORSDOF 0
ENDMDL
MODEL 7
REMARK VINA RESULT:    -0.491     14.693     16.832
REMARK INTER + INTRA:          -0.219
REMARK INTER:                  -0.927
REMARK INTRA:                   0.709
REMARK UNBOUND:                 0.473
REMARK SMILES CC1=CCC(=C(C)C)C(=O)CC(C)=CCC1
REMARK SMILES IDX 12 1 14 2 13 3 15 4 16 5 2 6 1 7 3 8 11 10 9 11 10 12 5 13
REMARK SMILES IDX 6 14 7 15 8 16 4 17
REMARK H PARENT
REMARK Flexibility Score: 60.00
ROOT
ATOM      1  C   UNL     1      79.992  32.109  52.240  1.00  0.00    -0.070 C 
ATOM      2  C   UNL     1      81.127  32.751  51.877  1.00  0.00    -0.027 C 
ATOM      3  C   UNL     1      80.005  31.303  53.514  1.00  0.00     0.039 C 
ENDROOT
BRANCH   2   4
ATOM      4  C   UNL     1      81.338  33.496  50.580  1.00  0.00     0.032 C 
BRANCH   4   5
ATOM      5  C   UNL     1      81.228  35.025  50.677  1.00  0.00     0.034 C 
BRANCH   5   6
ATOM      6  C   UNL     1      79.983  35.596  50.026  1.00  0.00    -0.077 C 
ATOM      7  C   UNL     1      80.105  36.121  48.617  1.00  0.00     0.039 C 
ATOM      8  C   UNL     1      78.749  35.604  50.592  1.00  0.00    -0.023 CG0
ATOM      9  G   UNL     1      78.365  35.275  52.022  1.00  0.00     0.000 G0
ENDBRANCH   5   6
ENDBRANCH   4   5
ENDBRANCH   2   4
BRANCH   1  10
ATOM     10  C   UNL     1      78.690  32.225  51.479  1.00  0.00     0.111 C 
BRANCH  10  11
ATOM     11  C   UNL     1      77.614  32.842  52.336  1.00  0.00     0.163 C 
ATOM     12  O   UNL     1      77.024  32.122  53.187  1.00  0.00    -0.294 OA
BRANCH  11  13
ATOM     13  C   UNL     1      77.230  34.274  52.220  1.00  0.00    -0.002 C 
ATOM     14  C   UNL     1      75.949  34.664  52.457  1.00  0.00    -0.069 C 
ATOM     15  C   UNL     1      74.862  33.638  52.686  1.00  0.00     0.039 C 
ATOM     16  C   UNL     1      75.556  36.123  52.476  1.00  0.00     0.039 C 
BRANCH  13  17
ATOM     17  C   UNL     1      78.355  35.270  52.006  1.00  0.00     0.066 CG0
ATOM     18  G   UNL     1      78.719  35.605  50.573  1.00  0.00     0.000 G0
ENDBRANCH  13  17
ENDBRANCH  11  13
ENDBRANCH  10  11
ENDBRANCH   1  10
TORSDOF 0
ENDMDL
