MODEL 1
REMARK VINA RESULT:    -4.139      0.000      0.000
REMARK INTER + INTRA:          -4.530
REMARK INTER:                  -4.502
REMARK INTRA:                  -0.028
REMARK UNBOUND:                -0.028
REMARK SMILES O=C([O-])c1ccc(O)cc1
REMARK SMILES IDX 4 1 5 2 10 3 6 4 9 5 7 6 2 7 1 8 3 9 8 10
REMARK H PARENT 8 11
REMARK Flexibility Score: inf
ROOT
ATOM      1  C   UNL     1      11.195 -17.753   7.778  1.00  0.00    -0.003 A 
ATOM      2  C   UNL     1      11.386 -19.060   7.295  1.00  0.00     0.014 A 
ATOM      3  C   UNL     1       9.894 -17.220   7.808  1.00  0.00     0.014 A 
ATOM      4  C   UNL     1      10.298 -19.817   6.851  1.00  0.00     0.047 A 
ATOM      5  C   UNL     1       8.808 -17.981   7.364  1.00  0.00     0.047 A 
ATOM      6  C   UNL     1       9.005 -19.279   6.885  1.00  0.00     0.115 A 
ENDROOT
BRANCH   1   7
ATOM      7  C   UNL     1      12.343 -16.946   8.249  1.00  0.00     0.071 C 
ATOM      8  O   UNL     1      13.007 -17.307   9.258  1.00  0.00    -0.545 OA
ATOM      9  O   UNL     1      12.705 -15.780   7.586  1.00  0.00    -0.545 OA
ENDBRANCH   1   7
BRANCH   6  10
ATOM     10  O   UNL     1       7.913 -20.024   6.445  1.00  0.00    -0.508 OA
ATOM     11  H   UNL     1       7.128 -20.222   7.053  1.00  0.00     0.293 HD
ENDBRANCH   6  10
TORSDOF 2
ENDMDL
MODEL 2
REMARK VINA RESULT:    -4.123      0.155      1.539
REMARK INTER + INTRA:          -4.513
REMARK INTER:                  -4.485
REMARK INTRA:                  -0.028
REMARK UNBOUND:                -0.028
REMARK SMILES O=C([O-])c1ccc(O)cc1
REMARK SMILES IDX 4 1 5 2 10 3 6 4 9 5 7 6 2 7 1 8 3 9 8 10
REMARK H PARENT 8 11
REMARK Flexibility Score: inf
ROOT
ATOM      1  C   UNL     1      11.091 -17.760   7.828  1.00  0.00    -0.003 A 
ATOM      2  C   UNL     1       9.792 -17.229   7.926  1.00  0.00     0.014 A 
ATOM      3  C   UNL     1      11.260 -19.062   7.324  1.00  0.00     0.014 A 
ATOM      4  C   UNL     1       8.686 -17.986   7.529  1.00  0.00     0.047 A 
ATOM      5  C   UNL     1      10.151 -19.815   6.927  1.00  0.00     0.047 A 
ATOM      6  C   UNL     1       8.863 -19.282   7.027  1.00  0.00     0.115 A 
ENDROOT
BRANCH   1   7
ATOM      7  C   UNL     1      12.266 -16.964   8.247  1.00  0.00     0.071 C 
ATOM      8  O   UNL     1      12.969 -17.327   9.228  1.00  0.00    -0.545 OA
ATOM      9  O   UNL     1      12.611 -15.804   7.565  1.00  0.00    -0.545 OA
ENDBRANCH   1   7
BRANCH   6  10
ATOM     10  O   UNL     1       7.768 -20.045   6.629  1.00  0.00    -0.508 OA
ATOM     11  H   UNL     1       7.615 -20.979   6.989  1.00  0.00     0.293 HD
ENDBRANCH   6  10
TORSDOF 2
ENDMDL
MODEL 3
REMARK VINA RESULT:    -3.906      1.873      2.535
REMARK INTER + INTRA:          -4.277
REMARK INTER:                  -4.250
REMARK INTRA:                  -0.027
REMARK UNBOUND:                -0.028
REMARK SMILES O=C([O-])c1ccc(O)cc1
REMARK SMILES IDX 4 1 5 2 10 3 6 4 9 5 7 6 2 7 1 8 3 9 8 10
REMARK H PARENT 8 11
REMARK Flexibility Score: inf
ROOT
ATOM      1  C   UNL     1       9.169 -18.117   8.015  1.00  0.00    -0.003 A 
ATOM      2  C   UNL     1       8.944 -19.347   7.370  1.00  0.00     0.014 A 
ATOM      3  C   UNL     1       8.091 -17.468   8.643  1.00  0.00     0.014 A 
ATOM      4  C   UNL     1       7.667 -19.914   7.355  1.00  0.00     0.047 A 
ATOM      5  C   UNL     1       6.815 -18.040   8.626  1.00  0.00     0.047 A 
ATOM      6  C   UNL     1       6.598 -19.262   7.983  1.00  0.00     0.115 A 
ENDROOT
BRANCH   1   7
ATOM      7  C   UNL     1      10.519 -17.511   8.036  1.00  0.00     0.071 C 
ATOM      8  O   UNL     1      10.896 -16.755   7.100  1.00  0.00    -0.545 OA
ATOM      9  O   UNL     1      11.390 -17.767   9.087  1.00  0.00    -0.545 OA
ENDBRANCH   1   7
BRANCH   6  10
ATOM     10  O   UNL     1       5.321 -19.818   7.973  1.00  0.00    -0.508 OA
ATOM     11  H   UNL     1       4.665 -19.623   7.227  1.00  0.00     0.293 HD
ENDBRANCH   6  10
TORSDOF 2
ENDMDL
MODEL 4
REMARK VINA RESULT:    -3.864      2.703      5.487
REMARK INTER + INTRA:          -4.231
REMARK INTER:                  -4.202
REMARK INTRA:                  -0.029
REMARK UNBOUND:                -0.028
REMARK SMILES O=C([O-])c1ccc(O)cc1
REMARK SMILES IDX 4 1 5 2 10 3 6 4 9 5 7 6 2 7 1 8 3 9 8 10
REMARK H PARENT 8 11
REMARK Flexibility Score: inf
ROOT
ATOM      1  C   UNL     1       6.737 -19.223   8.193  1.00  0.00    -0.003 A 
ATOM      2  C   UNL     1       7.110 -17.937   8.625  1.00  0.00     0.014 A 
ATOM      3  C   UNL     1       7.577 -19.915   7.303  1.00  0.00     0.014 A 
ATOM      4  C   UNL     1       8.299 -17.357   8.175  1.00  0.00     0.047 A 
ATOM      5  C   UNL     1       8.766 -19.331   6.856  1.00  0.00     0.047 A 
ATOM      6  C   UNL     1       9.132 -18.053   7.289  1.00  0.00     0.115 A 
ENDROOT
BRANCH   1   7
ATOM      7  C   UNL     1       5.478 -19.843   8.666  1.00  0.00     0.071 C 
ATOM      8  O   UNL     1       4.558 -20.123   7.852  1.00  0.00    -0.545 OA
ATOM      9  O   UNL     1       5.296 -20.125  10.014  1.00  0.00    -0.545 OA
ENDBRANCH   1   7
BRANCH   6  10
ATOM     10  O   UNL     1      10.319 -17.485   6.833  1.00  0.00    -0.508 OA
ATOM     11  H   UNL     1      10.328 -16.816   6.072  1.00  0.00     0.293 HD
ENDBRANCH   6  10
TORSDOF 2
ENDMDL
MODEL 5
REMARK VINA RESULT:    -3.791      1.197      4.305
REMARK INTER + INTRA:          -4.151
REMARK INTER:                  -4.124
REMARK INTRA:                  -0.027
REMARK UNBOUND:                -0.028
REMARK SMILES O=C([O-])c1ccc(O)cc1
REMARK SMILES IDX 4 1 5 2 10 3 6 4 9 5 7 6 2 7 1 8 3 9 8 10
REMARK H PARENT 8 11
REMARK Flexibility Score: inf
ROOT
ATOM      1  C   UNL     1       9.373 -18.951   7.197  1.00  0.00    -0.003 A 
ATOM      2  C   UNL     1      10.224 -19.836   7.884  1.00  0.00     0.014 A 
ATOM      3  C   UNL     1       9.658 -17.575   7.220  1.00  0.00     0.014 A 
ATOM      4  C   UNL     1      11.335 -19.352   8.581  1.00  0.00     0.047 A 
ATOM      5  C   UNL     1      10.771 -17.094   7.917  1.00  0.00     0.047 A 
ATOM      6  C   UNL     1      11.612 -17.979   8.599  1.00  0.00     0.115 A 
ENDROOT
BRANCH   1   7
ATOM      7  C   UNL     1       8.196 -19.458   6.457  1.00  0.00     0.071 C 
ATOM      8  O   UNL     1       8.277 -19.721   5.228  1.00  0.00    -0.545 OA
ATOM      9  O   UNL     1       6.984 -19.651   7.110  1.00  0.00    -0.545 OA
ENDBRANCH   1   7
BRANCH   6  10
ATOM     10  O   UNL     1      12.716 -17.485   9.290  1.00  0.00    -0.508 OA
ATOM     11  H   UNL     1      13.644 -17.864   9.145  1.00  0.00     0.293 HD
ENDBRANCH   6  10
TORSDOF 2
ENDMDL
MODEL 6
REMARK VINA RESULT:    -3.788      1.178      4.466
REMARK INTER + INTRA:          -4.149
REMARK INTER:                  -4.122
REMARK INTRA:                  -0.027
REMARK UNBOUND:                -0.028
REMARK SMILES O=C([O-])c1ccc(O)cc1
REMARK SMILES IDX 4 1 5 2 10 3 6 4 9 5 7 6 2 7 1 8 3 9 8 10
REMARK H PARENT 8 11
REMARK Flexibility Score: inf
ROOT
ATOM      1  C   UNL     1       9.349 -19.010   7.201  1.00  0.00    -0.003 A 
ATOM      2  C   UNL     1       9.598 -17.626   7.217  1.00  0.00     0.014 A 
ATOM      3  C   UNL     1      10.226 -19.870   7.886  1.00  0.00     0.014 A 
ATOM      4  C   UNL     1      10.703 -17.114   7.905  1.00  0.00     0.047 A 
ATOM      5  C   UNL     1      11.329 -19.354   8.573  1.00  0.00     0.047 A 
ATOM      6  C   UNL     1      11.571 -17.977   8.585  1.00  0.00     0.115 A 
ENDROOT
BRANCH   1   7
ATOM      7  C   UNL     1       8.181 -19.559   6.474  1.00  0.00     0.071 C 
ATOM      8  O   UNL     1       7.114 -19.826   7.088  1.00  0.00    -0.545 OA
ATOM      9  O   UNL     1       8.247 -19.786   5.105  1.00  0.00    -0.545 OA
ENDBRANCH   1   7
BRANCH   6  10
ATOM     10  O   UNL     1      12.674 -17.478   9.274  1.00  0.00    -0.508 OA
ATOM     11  H   UNL     1      12.567 -16.909  10.104  1.00  0.00     0.293 HD
ENDBRANCH   6  10
TORSDOF 2
ENDMDL
MODEL 7
REMARK VINA RESULT:    -3.632      1.233      4.303
REMARK INTER + INTRA:          -3.979
REMARK INTER:                  -3.945
REMARK INTRA:                  -0.034
REMARK UNBOUND:                -0.028
REMARK SMILES O=C([O-])c1ccc(O)cc1
REMARK SMILES IDX 4 1 5 2 10 3 6 4 9 5 7 6 2 7 1 8 3 9 8 10
REMARK H PARENT 8 11
REMARK Flexibility Score: inf
ROOT
ATOM      1  C   UNL     1      10.051 -18.442   7.414  1.00  0.00    -0.003 A 
ATOM      2  C   UNL     1      10.599 -17.154   7.274  1.00  0.00     0.014 A 
ATOM      3  C   UNL     1      10.691 -19.366   8.259  1.00  0.00     0.014 A 
ATOM      4  C   UNL     1      11.762 -16.799   7.963  1.00  0.00     0.047 A 
ATOM      5  C   UNL     1      11.854 -19.008   8.947  1.00  0.00     0.047 A 
ATOM      6  C   UNL     1      12.393 -17.726   8.803  1.00  0.00     0.115 A 
ENDROOT
BRANCH   1   7
ATOM      7  C   UNL     1       8.820 -18.823   6.687  1.00  0.00     0.071 C 
ATOM      8  O   UNL     1       8.604 -20.026   6.380  1.00  0.00    -0.545 OA
ATOM      9  O   UNL     1       7.884 -17.858   6.333  1.00  0.00    -0.545 OA
ENDBRANCH   1   7
BRANCH   6  10
ATOM     10  O   UNL     1      13.553 -17.385   9.494  1.00  0.00    -0.508 OA
ATOM     11  H   UNL     1      13.552 -17.259  10.499  1.00  0.00     0.293 HD
ENDBRANCH   6  10
TORSDOF 2
ENDMDL
MODEL 8
REMARK VINA RESULT:    -3.461      2.319      4.714
REMARK INTER + INTRA:          -3.793
REMARK INTER:                  -3.766
REMARK INTRA:                  -0.027
REMARK UNBOUND:                -0.028
REMARK SMILES O=C([O-])c1ccc(O)cc1
REMARK SMILES IDX 4 1 5 2 10 3 6 4 9 5 7 6 2 7 1 8 3 9 8 10
REMARK H PARENT 8 11
REMARK Flexibility Score: inf
ROOT
ATOM      1  C   UNL     1       7.597 -19.213   8.340  1.00  0.00    -0.003 A 
ATOM      2  C   UNL     1       8.610 -20.121   7.983  1.00  0.00     0.014 A 
ATOM      3  C   UNL     1       7.848 -17.833   8.231  1.00  0.00     0.014 A 
ATOM      4  C   UNL     1       9.848 -19.657   7.528  1.00  0.00     0.047 A 
ATOM      5  C   UNL     1       9.087 -17.374   7.776  1.00  0.00     0.047 A 
ATOM      6  C   UNL     1      10.090 -18.282   7.423  1.00  0.00     0.115 A 
ENDROOT
BRANCH   1   7
ATOM      7  C   UNL     1       6.284 -19.698   8.822  1.00  0.00     0.071 C 
ATOM      8  O   UNL     1       6.146 -20.099  10.008  1.00  0.00    -0.545 OA
ATOM      9  O   UNL     1       5.185 -19.716   7.972  1.00  0.00    -0.545 OA
ENDBRANCH   1   7
BRANCH   6  10
ATOM     10  O   UNL     1      11.320 -17.808   6.972  1.00  0.00    -0.508 OA
ATOM     11  H   UNL     1      11.737 -18.152   6.116  1.00  0.00     0.293 HD
ENDBRANCH   6  10
TORSDOF 2
ENDMDL
MODEL 9
REMARK VINA RESULT:    -3.382      1.616      4.644
REMARK INTER + INTRA:          -3.707
REMARK INTER:                  -3.676
REMARK INTRA:                  -0.031
REMARK UNBOUND:                -0.028
REMARK SMILES O=C([O-])c1ccc(O)cc1
REMARK SMILES IDX 4 1 5 2 10 3 6 4 9 5 7 6 2 7 1 8 3 9 8 10
REMARK H PARENT 8 11
REMARK Flexibility Score: inf
ROOT
ATOM      1  C   UNL     1       8.450 -18.950   7.913  1.00  0.00    -0.003 A 
ATOM      2  C   UNL     1       8.785 -17.628   8.259  1.00  0.00     0.014 A 
ATOM      3  C   UNL     1       9.437 -19.779   7.351  1.00  0.00     0.014 A 
ATOM      4  C   UNL     1      10.081 -17.148   8.046  1.00  0.00     0.047 A 
ATOM      5  C   UNL     1      10.732 -19.295   7.140  1.00  0.00     0.047 A 
ATOM      6  C   UNL     1      11.058 -17.981   7.487  1.00  0.00     0.115 A 
ENDROOT
BRANCH   1   7
ATOM      7  C   UNL     1       7.080 -19.464   8.135  1.00  0.00     0.071 C 
ATOM      8  O   UNL     1       6.491 -20.125   7.238  1.00  0.00    -0.545 OA
ATOM      9  O   UNL     1       6.425 -19.226   9.337  1.00  0.00    -0.545 OA
ENDBRANCH   1   7
BRANCH   6  10
ATOM     10  O   UNL     1      12.352 -17.513   7.270  1.00  0.00    -0.508 OA
ATOM     11  H   UNL     1      12.958 -17.933   6.576  1.00  0.00     0.293 HD
ENDBRANCH   6  10
TORSDOF 2
ENDMDL
