MODEL 1
REMARK VINA RESULT:    -3.636      0.000      0.000
REMARK INTER + INTRA:         -14.527
REMARK INTER:                  -9.162
REMARK INTRA:                  -5.365
REMARK UNBOUND:                -5.365
REMARK SMILES CCCCCCCCCCCCCCCCCCCCCCCCCCCC(=O)[O-]
REMARK SMILES IDX 15 1 16 2 17 3 18 4 19 5 20 6 21 7 22 8 23 9 24 10 25 11
REMARK SMILES IDX 26 12 27 13 28 14 29 15 30 16 14 17 13 18 12 19 11 20 10 21
REMARK SMILES IDX 9 22 8 23 7 24 6 25 5 26 4 27 3 28 2 29 1 30
REMARK H PARENT
REMARK Flexibility Score: inf
ROOT
ATOM      1  C   UNL     1       9.690 -22.871 -34.788  1.00  0.00     0.000 C 
ENDROOT
BRANCH   1   2
ATOM      2  C   UNL     1       9.629 -24.049 -35.781  1.00  0.00     0.000 C 
BRANCH   2   3
ATOM      3  C   UNL     1      10.739 -24.001 -36.850  1.00  0.00     0.000 C 
BRANCH   3   4
ATOM      4  C   UNL     1      10.306 -23.388 -38.199  1.00  0.00     0.000 C 
BRANCH   4   5
ATOM      5  C   UNL     1      10.629 -21.894 -38.401  1.00  0.00     0.000 C 
BRANCH   5   6
ATOM      6  C   UNL     1      11.646 -21.297 -37.411  1.00  0.00     0.000 C 
BRANCH   6   7
ATOM      7  C   UNL     1      11.159 -19.983 -36.781  1.00  0.00     0.000 C 
BRANCH   7   8
ATOM      8  C   UNL     1      11.194 -18.836 -37.799  1.00  0.00     0.000 C 
BRANCH   8   9
ATOM      9  C   UNL     1      12.574 -18.665 -38.456  1.00  0.00     0.000 C 
BRANCH   9  10
ATOM     10  C   UNL     1      12.606 -19.080 -39.943  1.00  0.00     0.000 C 
BRANCH  10  11
ATOM     11  C   UNL     1      13.920 -19.789 -40.319  1.00  0.00     0.000 C 
BRANCH  11  12
ATOM     12  C   UNL     1      13.761 -21.315 -40.444  1.00  0.00     0.006 C 
BRANCH  12  13
ATOM     13  C   UNL     1      14.651 -22.122 -39.484  1.00  0.00     0.053 C 
BRANCH  13  14
ATOM     14  C   UNL     1      14.296 -23.577 -39.481  1.00  0.00     0.041 C 
ATOM     15  O   UNL     1      15.068 -24.417 -38.949  1.00  0.00    -0.550 OA
ATOM     16  O   UNL     1      13.128 -24.009 -40.095  1.00  0.00    -0.550 OA
ENDBRANCH  13  14
ENDBRANCH  12  13
ENDBRANCH  11  12
ENDBRANCH  10  11
ENDBRANCH   9  10
ENDBRANCH   8   9
ENDBRANCH   7   8
ENDBRANCH   6   7
ENDBRANCH   5   6
ENDBRANCH   4   5
ENDBRANCH   3   4
ENDBRANCH   2   3
ENDBRANCH   1   2
BRANCH   1  17
ATOM     17  C   UNL     1       8.500 -21.906 -34.932  1.00  0.00     0.000 C 
BRANCH  17  18
ATOM     18  C   UNL     1       7.482 -22.280 -36.027  1.00  0.00     0.000 C 
BRANCH  18  19
ATOM     19  C   UNL     1       6.842 -21.067 -36.737  1.00  0.00     0.000 C 
BRANCH  19  20
ATOM     20  C   UNL     1       7.437 -19.730 -36.267  1.00  0.00     0.000 C 
BRANCH  20  21
ATOM     21  C   UNL     1       6.360 -18.757 -35.751  1.00  0.00     0.000 C 
BRANCH  21  22
ATOM     22  C   UNL     1       5.777 -17.848 -36.848  1.00  0.00    -0.000 C 
BRANCH  22  23
ATOM     23  C   UNL     1       6.870 -17.047 -37.583  1.00  0.00    -0.000 C 
BRANCH  23  24
ATOM     24  C   UNL     1       6.336 -16.327 -38.832  1.00  0.00    -0.000 C 
BRANCH  24  25
ATOM     25  C   UNL     1       7.443 -16.020 -39.858  1.00  0.00    -0.000 C 
BRANCH  25  26
ATOM     26  C   UNL     1       8.737 -16.802 -39.584  1.00  0.00    -0.000 C 
BRANCH  26  27
ATOM     27  C   UNL     1       9.402 -17.317 -40.870  1.00  0.00    -0.000 C 
BRANCH  27  28
ATOM     28  C   UNL     1       8.935 -18.745 -41.193  1.00  0.00    -0.000 C 
BRANCH  28  29
ATOM     29  C   UNL     1       8.316 -19.454 -39.979  1.00  0.00    -0.003 C 
ATOM     30  C   UNL     1       6.980 -20.119 -40.303  1.00  0.00     0.004 C 
ENDBRANCH  28  29
ENDBRANCH  27  28
ENDBRANCH  26  27
ENDBRANCH  25  26
ENDBRANCH  24  25
ENDBRANCH  23  24
ENDBRANCH  22  23
ENDBRANCH  21  22
ENDBRANCH  20  21
ENDBRANCH  19  20
ENDBRANCH  18  19
ENDBRANCH  17  18
ENDBRANCH   1  17
TORSDOF 26
ENDMDL
MODEL 2
REMARK VINA RESULT:    -3.630      4.116      7.980
REMARK INTER + INTRA:         -14.513
REMARK INTER:                 -10.386
REMARK INTRA:                  -4.127
REMARK UNBOUND:                -5.365
REMARK SMILES CCCCCCCCCCCCCCCCCCCCCCCCCCCC(=O)[O-]
REMARK SMILES IDX 15 1 16 2 17 3 18 4 19 5 20 6 21 7 22 8 23 9 24 10 25 11
REMARK SMILES IDX 26 12 27 13 28 14 29 15 30 16 14 17 13 18 12 19 11 20 10 21
REMARK SMILES IDX 9 22 8 23 7 24 6 25 5 26 4 27 3 28 2 29 1 30
REMARK H PARENT
REMARK Flexibility Score: inf
ROOT
ATOM      1  C   UNL     1       9.729 -22.697 -34.823  1.00  0.00     0.000 C 
ENDROOT
BRANCH   1   2
ATOM      2  C   UNL     1       8.415 -21.895 -34.916  1.00  0.00     0.000 C 
BRANCH   2   3
ATOM      3  C   UNL     1       7.522 -22.326 -36.096  1.00  0.00     0.000 C 
BRANCH   3   4
ATOM      4  C   UNL     1       6.669 -21.191 -36.703  1.00  0.00     0.000 C 
BRANCH   4   5
ATOM      5  C   UNL     1       6.892 -19.784 -36.114  1.00  0.00     0.000 C 
BRANCH   5   6
ATOM      6  C   UNL     1       6.136 -18.644 -36.819  1.00  0.00     0.000 C 
BRANCH   6   7
ATOM      7  C   UNL     1       7.042 -17.814 -37.741  1.00  0.00     0.000 C 
BRANCH   7   8
ATOM      8  C   UNL     1       6.630 -16.336 -37.736  1.00  0.00     0.000 C 
BRANCH   8   9
ATOM      9  C   UNL     1       5.249 -16.100 -38.372  1.00  0.00     0.000 C 
BRANCH   9  10
ATOM     10  C   UNL     1       4.304 -15.249 -37.498  1.00  0.00     0.000 C 
BRANCH  10  11
ATOM     11  C   UNL     1       4.270 -15.735 -36.037  1.00  0.00     0.000 C 
BRANCH  11  12
ATOM     12  C   UNL     1       4.754 -14.666 -35.040  1.00  0.00     0.006 C 
BRANCH  12  13
ATOM     13  C   UNL     1       5.619 -15.217 -33.896  1.00  0.00     0.053 C 
BRANCH  13  14
ATOM     14  C   UNL     1       4.791 -15.661 -32.730  1.00  0.00     0.041 C 
ATOM     15  O   UNL     1       4.877 -16.842 -32.303  1.00  0.00    -0.550 OA
ATOM     16  O   UNL     1       3.899 -14.778 -32.135  1.00  0.00    -0.550 OA
ENDBRANCH  13  14
ENDBRANCH  12  13
ENDBRANCH  11  12
ENDBRANCH  10  11
ENDBRANCH   9  10
ENDBRANCH   8   9
ENDBRANCH   7   8
ENDBRANCH   6   7
ENDBRANCH   5   6
ENDBRANCH   4   5
ENDBRANCH   3   4
ENDBRANCH   2   3
ENDBRANCH   1   2
BRANCH   1  17
ATOM     17  C   UNL     1       9.744 -23.927 -35.748  1.00  0.00     0.000 C 
BRANCH  17  18
ATOM     18  C   UNL     1      10.720 -23.841 -36.938  1.00  0.00     0.000 C 
BRANCH  18  19
ATOM     19  C   UNL     1      10.050 -24.005 -38.320  1.00  0.00     0.000 C 
BRANCH  19  20
ATOM     20  C   UNL     1      10.421 -22.870 -39.290  1.00  0.00     0.000 C 
BRANCH  20  21
ATOM     21  C   UNL     1       9.512 -21.638 -39.127  1.00  0.00     0.000 C 
BRANCH  21  22
ATOM     22  C   UNL     1      10.287 -20.330 -38.884  1.00  0.00    -0.000 C 
BRANCH  22  23
ATOM     23  C   UNL     1      10.166 -19.844 -37.427  1.00  0.00    -0.000 C 
BRANCH  23  24
ATOM     24  C   UNL     1      11.498 -19.925 -36.664  1.00  0.00    -0.000 C 
BRANCH  24  25
ATOM     25  C   UNL     1      12.717 -19.661 -37.568  1.00  0.00    -0.000 C 
BRANCH  25  26
ATOM     26  C   UNL     1      13.861 -20.657 -37.324  1.00  0.00    -0.000 C 
BRANCH  26  27
ATOM     27  C   UNL     1      13.532 -22.073 -37.823  1.00  0.00    -0.000 C 
BRANCH  27  28
ATOM     28  C   UNL     1      14.786 -22.961 -37.817  1.00  0.00    -0.000 C 
BRANCH  28  29
ATOM     29  C   UNL     1      14.965 -23.740 -39.128  1.00  0.00    -0.003 C 
ATOM     30  C   UNL     1      13.760 -24.616 -39.462  1.00  0.00     0.004 C 
ENDBRANCH  28  29
ENDBRANCH  27  28
ENDBRANCH  26  27
ENDBRANCH  25  26
ENDBRANCH  24  25
ENDBRANCH  23  24
ENDBRANCH  22  23
ENDBRANCH  21  22
ENDBRANCH  20  21
ENDBRANCH  19  20
ENDBRANCH  18  19
ENDBRANCH  17  18
ENDBRANCH   1  17
TORSDOF 26
ENDMDL
MODEL 3
REMARK VINA RESULT:    -3.610      3.671      7.537
REMARK INTER + INTRA:         -14.464
REMARK INTER:                  -9.650
REMARK INTRA:                  -4.813
REMARK UNBOUND:                -5.365
REMARK SMILES CCCCCCCCCCCCCCCCCCCCCCCCCCCC(=O)[O-]
REMARK SMILES IDX 15 1 16 2 17 3 18 4 19 5 20 6 21 7 22 8 23 9 24 10 25 11
REMARK SMILES IDX 26 12 27 13 28 14 29 15 30 16 14 17 13 18 12 19 11 20 10 21
REMARK SMILES IDX 9 22 8 23 7 24 6 25 5 26 4 27 3 28 2 29 1 30
REMARK H PARENT
REMARK Flexibility Score: inf
ROOT
ATOM      1  C   UNL     1       7.083 -19.746 -36.215  1.00  0.00     0.000 C 
ENDROOT
BRANCH   1   2
ATOM      2  C   UNL     1       6.633 -19.757 -37.690  1.00  0.00     0.000 C 
BRANCH   2   3
ATOM      3  C   UNL     1       7.409 -20.771 -38.555  1.00  0.00     0.000 C 
BRANCH   3   4
ATOM      4  C   UNL     1       8.481 -20.144 -39.472  1.00  0.00     0.000 C 
BRANCH   4   5
ATOM      5  C   UNL     1       9.791 -19.706 -38.785  1.00  0.00     0.000 C 
BRANCH   5   6
ATOM      6  C   UNL     1       9.992 -18.186 -38.652  1.00  0.00     0.000 C 
BRANCH   6   7
ATOM      7  C   UNL     1       8.999 -17.380 -39.503  1.00  0.00     0.000 C 
BRANCH   7   8
ATOM      8  C   UNL     1       7.992 -16.634 -38.618  1.00  0.00     0.000 C 
BRANCH   8   9
ATOM      9  C   UNL     1       6.756 -16.155 -39.397  1.00  0.00     0.000 C 
BRANCH   9  10
ATOM     10  C   UNL     1       5.469 -16.107 -38.545  1.00  0.00     0.000 C 
BRANCH  10  11
ATOM     11  C   UNL     1       5.768 -16.197 -37.037  1.00  0.00     0.000 C 
BRANCH  11  12
ATOM     12  C   UNL     1       4.548 -16.641 -36.211  1.00  0.00     0.006 C 
BRANCH  12  13
ATOM     13  C   UNL     1       4.224 -15.725 -35.020  1.00  0.00     0.053 C 
BRANCH  13  14
ATOM     14  C   UNL     1       4.983 -16.113 -33.790  1.00  0.00     0.041 C 
ATOM     15  O   UNL     1       5.405 -15.229 -32.998  1.00  0.00    -0.550 OA
ATOM     16  O   UNL     1       5.255 -17.451 -33.535  1.00  0.00    -0.550 OA
ENDBRANCH  13  14
ENDBRANCH  12  13
ENDBRANCH  11  12
ENDBRANCH  10  11
ENDBRANCH   9  10
ENDBRANCH   8   9
ENDBRANCH   7   8
ENDBRANCH   6   7
ENDBRANCH   5   6
ENDBRANCH   4   5
ENDBRANCH   3   4
ENDBRANCH   2   3
ENDBRANCH   1   2
BRANCH   1  17
ATOM     17  C   UNL     1       7.740 -21.067 -35.782  1.00  0.00     0.000 C 
BRANCH  17  18
ATOM     18  C   UNL     1       9.218 -20.956 -35.358  1.00  0.00     0.000 C 
BRANCH  18  19
ATOM     19  C   UNL     1       9.880 -22.306 -35.006  1.00  0.00     0.000 C 
BRANCH  19  20
ATOM     20  C   UNL     1       8.933 -23.499 -35.223  1.00  0.00     0.000 C 
BRANCH  20  21
ATOM     21  C   UNL     1       9.376 -24.394 -36.396  1.00  0.00     0.000 C 
BRANCH  21  22
ATOM     22  C   UNL     1       8.620 -24.110 -37.706  1.00  0.00    -0.000 C 
BRANCH  22  23
ATOM     23  C   UNL     1       9.563 -23.653 -38.836  1.00  0.00    -0.000 C 
BRANCH  23  24
ATOM     24  C   UNL     1      11.036 -23.983 -38.546  1.00  0.00    -0.000 C 
BRANCH  24  25
ATOM     25  C   UNL     1      11.973 -22.787 -38.798  1.00  0.00    -0.000 C 
BRANCH  25  26
ATOM     26  C   UNL     1      12.352 -22.050 -37.503  1.00  0.00    -0.000 C 
BRANCH  26  27
ATOM     27  C   UNL     1      13.696 -21.314 -37.611  1.00  0.00    -0.000 C 
BRANCH  27  28
ATOM     28  C   UNL     1      13.518 -19.809 -37.355  1.00  0.00    -0.000 C 
BRANCH  28  29
ATOM     29  C   UNL     1      13.536 -18.982 -38.650  1.00  0.00    -0.003 C 
ATOM     30  C   UNL     1      14.215 -19.712 -39.806  1.00  0.00     0.004 C 
ENDBRANCH  28  29
ENDBRANCH  27  28
ENDBRANCH  26  27
ENDBRANCH  25  26
ENDBRANCH  24  25
ENDBRANCH  23  24
ENDBRANCH  22  23
ENDBRANCH  21  22
ENDBRANCH  20  21
ENDBRANCH  19  20
ENDBRANCH  18  19
ENDBRANCH  17  18
ENDBRANCH   1  17
TORSDOF 26
ENDMDL
MODEL 4
REMARK VINA RESULT:    -3.597      3.785      7.511
REMARK INTER + INTRA:         -14.431
REMARK INTER:                  -9.809
REMARK INTRA:                  -4.621
REMARK UNBOUND:                -5.365
REMARK SMILES CCCCCCCCCCCCCCCCCCCCCCCCCCCC(=O)[O-]
REMARK SMILES IDX 15 1 16 2 17 3 18 4 19 5 20 6 21 7 22 8 23 9 24 10 25 11
REMARK SMILES IDX 26 12 27 13 28 14 29 15 30 16 14 17 13 18 12 19 11 20 10 21
REMARK SMILES IDX 9 22 8 23 7 24 6 25 5 26 4 27 3 28 2 29 1 30
REMARK H PARENT
REMARK Flexibility Score: inf
ROOT
ATOM      1  C   UNL     1       9.772 -22.627 -38.804  1.00  0.00     0.000 C 
ENDROOT
BRANCH   1   2
ATOM      2  C   UNL     1       9.163 -24.037 -38.671  1.00  0.00     0.000 C 
BRANCH   2   3
ATOM      3  C   UNL     1       8.505 -24.288 -37.299  1.00  0.00     0.000 C 
BRANCH   3   4
ATOM      4  C   UNL     1       9.499 -24.439 -36.128  1.00  0.00     0.000 C 
BRANCH   4   5
ATOM      5  C   UNL     1       9.407 -23.373 -35.017  1.00  0.00     0.000 C 
BRANCH   5   6
ATOM      6  C   UNL     1       8.292 -22.327 -35.196  1.00  0.00     0.000 C 
BRANCH   6   7
ATOM      7  C   UNL     1       8.831 -20.889 -35.241  1.00  0.00     0.000 C 
BRANCH   7   8
ATOM      8  C   UNL     1       8.488 -20.212 -36.574  1.00  0.00     0.000 C 
BRANCH   8   9
ATOM      9  C   UNL     1       6.984 -19.929 -36.728  1.00  0.00     0.000 C 
BRANCH   9  10
ATOM     10  C   UNL     1       6.501 -18.699 -35.928  1.00  0.00     0.000 C 
BRANCH  10  11
ATOM     11  C   UNL     1       5.488 -17.852 -36.721  1.00  0.00     0.000 C 
BRANCH  11  12
ATOM     12  C   UNL     1       4.514 -17.081 -35.813  1.00  0.00     0.006 C 
BRANCH  12  13
ATOM     13  C   UNL     1       4.952 -17.002 -34.341  1.00  0.00     0.053 C 
BRANCH  13  14
ATOM     14  C   UNL     1       5.227 -15.595 -33.912  1.00  0.00     0.041 C 
ATOM     15  O   UNL     1       5.720 -14.768 -34.724  1.00  0.00    -0.550 OA
ATOM     16  O   UNL     1       4.969 -15.204 -32.605  1.00  0.00    -0.550 OA
ENDBRANCH  13  14
ENDBRANCH  12  13
ENDBRANCH  11  12
ENDBRANCH  10  11
ENDBRANCH   9  10
ENDBRANCH   8   9
ENDBRANCH   7   8
ENDBRANCH   6   7
ENDBRANCH   5   6
ENDBRANCH   4   5
ENDBRANCH   3   4
ENDBRANCH   2   3
ENDBRANCH   1   2
BRANCH   1  17
ATOM     17  C   UNL     1      11.311 -22.641 -38.828  1.00  0.00     0.000 C 
BRANCH  17  18
ATOM     18  C   UNL     1      11.991 -22.284 -37.492  1.00  0.00     0.000 C 
BRANCH  18  19
ATOM     19  C   UNL     1      12.206 -20.770 -37.275  1.00  0.00     0.000 C 
BRANCH  19  20
ATOM     20  C   UNL     1      13.687 -20.368 -37.373  1.00  0.00     0.000 C 
BRANCH  20  21
ATOM     21  C   UNL     1      14.621 -21.588 -37.478  1.00  0.00     0.000 C 
BRANCH  21  22
ATOM     22  C   UNL     1      15.509 -21.576 -38.736  1.00  0.00    -0.000 C 
BRANCH  22  23
ATOM     23  C   UNL     1      14.950 -20.652 -39.836  1.00  0.00    -0.000 C 
BRANCH  23  24
ATOM     24  C   UNL     1      14.047 -21.397 -40.831  1.00  0.00    -0.000 C 
BRANCH  24  25
ATOM     25  C   UNL     1      12.869 -20.536 -41.323  1.00  0.00    -0.000 C 
BRANCH  25  26
ATOM     26  C   UNL     1      12.979 -19.071 -40.875  1.00  0.00    -0.000 C 
BRANCH  26  27
ATOM     27  C   UNL     1      11.765 -18.607 -40.056  1.00  0.00    -0.000 C 
BRANCH  27  28
ATOM     28  C   UNL     1      10.493 -19.348 -40.496  1.00  0.00    -0.000 C 
BRANCH  28  29
ATOM     29  C   UNL     1       9.293 -18.406 -40.679  1.00  0.00    -0.003 C 
ATOM     30  C   UNL     1       8.853 -17.751 -39.372  1.00  0.00     0.004 C 
ENDBRANCH  28  29
ENDBRANCH  27  28
ENDBRANCH  26  27
ENDBRANCH  25  26
ENDBRANCH  24  25
ENDBRANCH  23  24
ENDBRANCH  22  23
ENDBRANCH  21  22
ENDBRANCH  20  21
ENDBRANCH  19  20
ENDBRANCH  18  19
ENDBRANCH  17  18
ENDBRANCH   1  17
TORSDOF 26
ENDMDL
MODEL 5
REMARK VINA RESULT:    -3.580      1.904      3.744
REMARK INTER + INTRA:         -14.388
REMARK INTER:                  -9.150
REMARK INTRA:                  -5.238
REMARK UNBOUND:                -5.365
REMARK SMILES CCCCCCCCCCCCCCCCCCCCCCCCCCCC(=O)[O-]
REMARK SMILES IDX 15 1 16 2 17 3 18 4 19 5 20 6 21 7 22 8 23 9 24 10 25 11
REMARK SMILES IDX 26 12 27 13 28 14 29 15 30 16 14 17 13 18 12 19 11 20 10 21
REMARK SMILES IDX 9 22 8 23 7 24 6 25 5 26 4 27 3 28 2 29 1 30
REMARK H PARENT
REMARK Flexibility Score: inf
ROOT
ATOM      1  C   UNL     1       9.771 -23.961 -35.204  1.00  0.00     0.000 C 
ENDROOT
BRANCH   1   2
ATOM      2  C   UNL     1      10.009 -24.183 -36.711  1.00  0.00     0.000 C 
BRANCH   2   3
ATOM      3  C   UNL     1       8.779 -24.757 -37.443  1.00  0.00     0.000 C 
BRANCH   3   4
ATOM      4  C   UNL     1       8.165 -23.817 -38.503  1.00  0.00     0.000 C 
BRANCH   4   5
ATOM      5  C   UNL     1       9.005 -23.590 -39.776  1.00  0.00     0.000 C 
BRANCH   5   6
ATOM      6  C   UNL     1       9.644 -22.196 -39.906  1.00  0.00     0.000 C 
BRANCH   6   7
ATOM      7  C   UNL     1       8.608 -21.062 -39.856  1.00  0.00     0.000 C 
BRANCH   7   8
ATOM      8  C   UNL     1       9.280 -19.692 -40.021  1.00  0.00     0.000 C 
BRANCH   8   9
ATOM      9  C   UNL     1       8.692 -18.624 -39.083  1.00  0.00     0.000 C 
BRANCH   9  10
ATOM     10  C   UNL     1       9.755 -17.901 -38.227  1.00  0.00     0.000 C 
BRANCH  10  11
ATOM     11  C   UNL     1      11.119 -18.614 -38.272  1.00  0.00     0.000 C 
BRANCH  11  12
ATOM     12  C   UNL     1      11.439 -19.375 -36.973  1.00  0.00     0.006 C 
BRANCH  12  13
ATOM     13  C   UNL     1      11.778 -20.860 -37.178  1.00  0.00     0.053 C 
BRANCH  13  14
ATOM     14  C   UNL     1      13.112 -21.045 -37.832  1.00  0.00     0.041 C 
ATOM     15  O   UNL     1      14.171 -20.800 -37.195  1.00  0.00    -0.550 OA
ATOM     16  O   UNL     1      13.186 -21.458 -39.156  1.00  0.00    -0.550 OA
ENDBRANCH  13  14
ENDBRANCH  12  13
ENDBRANCH  11  12
ENDBRANCH  10  11
ENDBRANCH   9  10
ENDBRANCH   8   9
ENDBRANCH   7   8
ENDBRANCH   6   7
ENDBRANCH   5   6
ENDBRANCH   4   5
ENDBRANCH   3   4
ENDBRANCH   2   3
ENDBRANCH   1   2
BRANCH   1  17
ATOM     17  C   UNL     1       9.583 -22.477 -34.842  1.00  0.00     0.000 C 
BRANCH  17  18
ATOM     18  C   UNL     1       8.177 -21.908 -35.117  1.00  0.00     0.000 C 
BRANCH  18  19
ATOM     19  C   UNL     1       8.176 -20.555 -35.863  1.00  0.00     0.000 C 
BRANCH  19  20
ATOM     20  C   UNL     1       6.870 -20.313 -36.638  1.00  0.00     0.000 C 
BRANCH  20  21
ATOM     21  C   UNL     1       6.031 -21.595 -36.789  1.00  0.00     0.000 C 
BRANCH  21  22
ATOM     22  C   UNL     1       5.226 -21.653 -38.100  1.00  0.00    -0.000 C 
BRANCH  22  23
ATOM     23  C   UNL     1       3.777 -21.160 -37.916  1.00  0.00    -0.000 C 
BRANCH  23  24
ATOM     24  C   UNL     1       3.502 -19.844 -38.661  1.00  0.00    -0.000 C 
BRANCH  24  25
ATOM     25  C   UNL     1       4.735 -19.324 -39.422  1.00  0.00    -0.000 C 
BRANCH  25  26
ATOM     26  C   UNL     1       5.135 -17.901 -38.998  1.00  0.00    -0.000 C 
BRANCH  26  27
ATOM     27  C   UNL     1       4.459 -17.460 -37.691  1.00  0.00    -0.000 C 
BRANCH  27  28
ATOM     28  C   UNL     1       5.073 -16.150 -37.173  1.00  0.00    -0.000 C 
BRANCH  28  29
ATOM     29  C   UNL     1       6.086 -16.380 -36.040  1.00  0.00    -0.003 C 
ATOM     30  C   UNL     1       5.626 -17.443 -35.046  1.00  0.00     0.004 C 
ENDBRANCH  28  29
ENDBRANCH  27  28
ENDBRANCH  26  27
ENDBRANCH  25  26
ENDBRANCH  24  25
ENDBRANCH  23  24
ENDBRANCH  22  23
ENDBRANCH  21  22
ENDBRANCH  20  21
ENDBRANCH  19  20
ENDBRANCH  18  19
ENDBRANCH  17  18
ENDBRANCH   1  17
TORSDOF 26
ENDMDL
MODEL 6
REMARK VINA RESULT:    -3.579      2.086      4.441
REMARK INTER + INTRA:         -14.384
REMARK INTER:                  -9.497
REMARK INTRA:                  -4.887
REMARK UNBOUND:                -5.365
REMARK SMILES CCCCCCCCCCCCCCCCCCCCCCCCCCCC(=O)[O-]
REMARK SMILES IDX 15 1 16 2 17 3 18 4 19 5 20 6 21 7 22 8 23 9 24 10 25 11
REMARK SMILES IDX 26 12 27 13 28 14 29 15 30 16 14 17 13 18 12 19 11 20 10 21
REMARK SMILES IDX 9 22 8 23 7 24 6 25 5 26 4 27 3 28 2 29 1 30
REMARK H PARENT
REMARK Flexibility Score: inf
ROOT
ATOM      1  C   UNL     1       9.666 -19.616 -37.484  1.00  0.00     0.000 C 
ENDROOT
BRANCH   1   2
ATOM      2  C   UNL     1       9.879 -20.265 -38.865  1.00  0.00     0.000 C 
BRANCH   2   3
ATOM      3  C   UNL     1      10.339 -21.735 -38.782  1.00  0.00     0.000 C 
BRANCH   3   4
ATOM      4  C   UNL     1       9.452 -22.731 -39.558  1.00  0.00     0.000 C 
BRANCH   4   5
ATOM      5  C   UNL     1       9.703 -24.226 -39.276  1.00  0.00     0.000 C 
BRANCH   5   6
ATOM      6  C   UNL     1      10.886 -24.533 -38.341  1.00  0.00     0.000 C 
BRANCH   6   7
ATOM      7  C   UNL     1      12.025 -25.279 -39.051  1.00  0.00     0.000 C 
BRANCH   7   8
ATOM      8  C   UNL     1      13.217 -24.349 -39.312  1.00  0.00     0.000 C 
BRANCH   8   9
ATOM      9  C   UNL     1      13.351 -23.955 -40.793  1.00  0.00     0.000 C 
BRANCH   9  10
ATOM     10  C   UNL     1      13.101 -22.454 -41.058  1.00  0.00     0.000 C 
BRANCH  10  11
ATOM     11  C   UNL     1      14.413 -21.668 -41.229  1.00  0.00     0.000 C 
BRANCH  11  12
ATOM     12  C   UNL     1      14.849 -20.945 -39.941  1.00  0.00     0.006 C 
BRANCH  12  13
ATOM     13  C   UNL     1      13.722 -20.754 -38.913  1.00  0.00     0.053 C 
BRANCH  13  14
ATOM     14  C   UNL     1      14.222 -20.861 -37.507  1.00  0.00     0.041 C 
ATOM     15  O   UNL     1      14.918 -21.850 -37.154  1.00  0.00    -0.550 OA
ATOM     16  O   UNL     1      13.893 -19.886 -36.575  1.00  0.00    -0.550 OA
ENDBRANCH  13  14
ENDBRANCH  12  13
ENDBRANCH  11  12
ENDBRANCH  10  11
ENDBRANCH   9  10
ENDBRANCH   8   9
ENDBRANCH   7   8
ENDBRANCH   6   7
ENDBRANCH   5   6
ENDBRANCH   4   5
ENDBRANCH   3   4
ENDBRANCH   2   3
ENDBRANCH   1   2
BRANCH   1  17
ATOM     17  C   UNL     1      10.498 -20.283 -36.375  1.00  0.00     0.000 C 
BRANCH  17  18
ATOM     18  C   UNL     1       9.681 -20.901 -35.223  1.00  0.00     0.000 C 
BRANCH  18  19
ATOM     19  C   UNL     1       9.754 -22.442 -35.149  1.00  0.00     0.000 C 
BRANCH  19  20
ATOM     20  C   UNL     1       8.551 -23.120 -35.825  1.00  0.00     0.000 C 
BRANCH  20  21
ATOM     21  C   UNL     1       7.307 -22.213 -35.855  1.00  0.00     0.000 C 
BRANCH  21  22
ATOM     22  C   UNL     1       6.730 -22.006 -37.268  1.00  0.00    -0.000 C 
BRANCH  22  23
ATOM     23  C   UNL     1       5.672 -20.887 -37.307  1.00  0.00    -0.000 C 
BRANCH  23  24
ATOM     24  C   UNL     1       6.081 -19.718 -38.218  1.00  0.00    -0.000 C 
BRANCH  24  25
ATOM     25  C   UNL     1       6.230 -18.392 -37.451  1.00  0.00    -0.000 C 
BRANCH  25  26
ATOM     26  C   UNL     1       6.359 -18.597 -35.933  1.00  0.00    -0.000 C 
BRANCH  26  27
ATOM     27  C   UNL     1       5.728 -17.453 -35.124  1.00  0.00    -0.000 C 
BRANCH  27  28
ATOM     28  C   UNL     1       4.385 -17.026 -35.736  1.00  0.00    -0.000 C 
BRANCH  28  29
ATOM     29  C   UNL     1       4.141 -15.512 -35.631  1.00  0.00    -0.003 C 
ATOM     30  C   UNL     1       5.432 -14.701 -35.718  1.00  0.00     0.004 C 
ENDBRANCH  28  29
ENDBRANCH  27  28
ENDBRANCH  26  27
ENDBRANCH  25  26
ENDBRANCH  24  25
ENDBRANCH  23  24
ENDBRANCH  22  23
ENDBRANCH  21  22
ENDBRANCH  20  21
ENDBRANCH  19  20
ENDBRANCH  18  19
ENDBRANCH  17  18
ENDBRANCH   1  17
TORSDOF 26
ENDMDL
MODEL 7
REMARK VINA RESULT:    -3.558      4.002      7.594
REMARK INTER + INTRA:         -14.332
REMARK INTER:                  -9.348
REMARK INTRA:                  -4.984
REMARK UNBOUND:                -5.365
REMARK SMILES CCCCCCCCCCCCCCCCCCCCCCCCCCCC(=O)[O-]
REMARK SMILES IDX 15 1 16 2 17 3 18 4 19 5 20 6 21 7 22 8 23 9 24 10 25 11
REMARK SMILES IDX 26 12 27 13 28 14 29 15 30 16 14 17 13 18 12 19 11 20 10 21
REMARK SMILES IDX 9 22 8 23 7 24 6 25 5 26 4 27 3 28 2 29 1 30
REMARK H PARENT
REMARK Flexibility Score: inf
ROOT
ATOM      1  C   UNL     1       8.244 -21.071 -35.324  1.00  0.00     0.000 C 
ENDROOT
BRANCH   1   2
ATOM      2  C   UNL     1       7.263 -22.052 -35.997  1.00  0.00     0.000 C 
BRANCH   2   3
ATOM      3  C   UNL     1       6.161 -21.346 -36.813  1.00  0.00     0.000 C 
BRANCH   3   4
ATOM      4  C   UNL     1       6.137 -21.714 -38.312  1.00  0.00     0.000 C 
BRANCH   4   5
ATOM      5  C   UNL     1       4.899 -21.247 -39.105  1.00  0.00     0.000 C 
BRANCH   5   6
ATOM      6  C   UNL     1       4.465 -19.792 -38.857  1.00  0.00     0.000 C 
BRANCH   6   7
ATOM      7  C   UNL     1       5.370 -18.774 -39.567  1.00  0.00     0.000 C 
BRANCH   7   8
ATOM      8  C   UNL     1       5.189 -17.369 -38.979  1.00  0.00     0.000 C 
BRANCH   8   9
ATOM      9  C   UNL     1       6.525 -16.699 -38.615  1.00  0.00     0.000 C 
BRANCH   9  10
ATOM     10  C   UNL     1       6.718 -16.489 -37.097  1.00  0.00     0.000 C 
BRANCH  10  11
ATOM     11  C   UNL     1       6.329 -17.738 -36.285  1.00  0.00     0.000 C 
BRANCH  11  12
ATOM     12  C   UNL     1       5.630 -17.394 -34.957  1.00  0.00     0.006 C 
BRANCH  12  13
ATOM     13  C   UNL     1       4.384 -16.508 -35.112  1.00  0.00     0.053 C 
BRANCH  13  14
ATOM     14  C   UNL     1       4.357 -15.398 -34.108  1.00  0.00     0.041 C 
ATOM     15  O   UNL     1       3.483 -14.494 -34.185  1.00  0.00    -0.550 OA
ATOM     16  O   UNL     1       5.316 -15.343 -33.106  1.00  0.00    -0.550 OA
ENDBRANCH  13  14
ENDBRANCH  12  13
ENDBRANCH  11  12
ENDBRANCH  10  11
ENDBRANCH   9  10
ENDBRANCH   8   9
ENDBRANCH   7   8
ENDBRANCH   6   7
ENDBRANCH   5   6
ENDBRANCH   4   5
ENDBRANCH   3   4
ENDBRANCH   2   3
ENDBRANCH   1   2
BRANCH   1  17
ATOM     17  C   UNL     1       9.650 -21.667 -35.137  1.00  0.00     0.000 C 
BRANCH  17  18
ATOM     18  C   UNL     1       9.709 -23.207 -35.093  1.00  0.00     0.000 C 
BRANCH  18  19
ATOM     19  C   UNL     1      10.467 -23.846 -36.277  1.00  0.00     0.000 C 
BRANCH  19  20
ATOM     20  C   UNL     1       9.548 -24.694 -37.173  1.00  0.00     0.000 C 
BRANCH  20  21
ATOM     21  C   UNL     1       9.474 -24.156 -38.614  1.00  0.00     0.000 C 
BRANCH  21  22
ATOM     22  C   UNL     1       9.699 -22.636 -38.715  1.00  0.00    -0.000 C 
BRANCH  22  23
ATOM     23  C   UNL     1      10.757 -22.273 -39.775  1.00  0.00    -0.000 C 
BRANCH  23  24
ATOM     24  C   UNL     1      12.193 -22.518 -39.286  1.00  0.00    -0.000 C 
BRANCH  24  25
ATOM     25  C   UNL     1      12.901 -21.221 -38.852  1.00  0.00    -0.000 C 
BRANCH  25  26
ATOM     26  C   UNL     1      12.800 -20.969 -37.339  1.00  0.00    -0.000 C 
BRANCH  26  27
ATOM     27  C   UNL     1      11.892 -19.779 -36.996  1.00  0.00    -0.000 C 
BRANCH  27  28
ATOM     28  C   UNL     1      11.554 -18.967 -38.256  1.00  0.00    -0.000 C 
BRANCH  28  29
ATOM     29  C   UNL     1      10.185 -18.275 -38.165  1.00  0.00    -0.003 C 
ATOM     30  C   UNL     1       9.024 -19.227 -38.444  1.00  0.00     0.004 C 
ENDBRANCH  28  29
ENDBRANCH  27  28
ENDBRANCH  26  27
ENDBRANCH  25  26
ENDBRANCH  24  25
ENDBRANCH  23  24
ENDBRANCH  22  23
ENDBRANCH  21  22
ENDBRANCH  20  21
ENDBRANCH  19  20
ENDBRANCH  18  19
ENDBRANCH  17  18
ENDBRANCH   1  17
TORSDOF 26
ENDMDL
MODEL 8
REMARK VINA RESULT:    -3.530      3.765      7.252
REMARK INTER + INTRA:         -14.262
REMARK INTER:                  -8.575
REMARK INTRA:                  -5.687
REMARK UNBOUND:                -5.365
REMARK SMILES CCCCCCCCCCCCCCCCCCCCCCCCCCCC(=O)[O-]
REMARK SMILES IDX 15 1 16 2 17 3 18 4 19 5 20 6 21 7 22 8 23 9 24 10 25 11
REMARK SMILES IDX 26 12 27 13 28 14 29 15 30 16 14 17 13 18 12 19 11 20 10 21
REMARK SMILES IDX 9 22 8 23 7 24 6 25 5 26 4 27 3 28 2 29 1 30
REMARK H PARENT
REMARK Flexibility Score: inf
ROOT
ATOM      1  C   UNL     1       9.291 -23.452 -35.547  1.00  0.00     0.000 C 
ENDROOT
BRANCH   1   2
ATOM      2  C   UNL     1       8.269 -22.415 -35.039  1.00  0.00     0.000 C 
BRANCH   2   3
ATOM      3  C   UNL     1       8.717 -20.958 -35.266  1.00  0.00     0.000 C 
BRANCH   3   4
ATOM      4  C   UNL     1       7.716 -20.094 -36.063  1.00  0.00     0.000 C 
BRANCH   4   5
ATOM      5  C   UNL     1       6.572 -20.854 -36.764  1.00  0.00     0.000 C 
BRANCH   5   6
ATOM      6  C   UNL     1       6.762 -21.091 -38.272  1.00  0.00     0.000 C 
BRANCH   6   7
ATOM      7  C   UNL     1       6.125 -19.988 -39.131  1.00  0.00     0.000 C 
BRANCH   7   8
ATOM      8  C   UNL     1       7.124 -19.444 -40.161  1.00  0.00     0.000 C 
BRANCH   8   9
ATOM      9  C   UNL     1       7.328 -17.924 -40.047  1.00  0.00     0.000 C 
BRANCH   9  10
ATOM     10  C   UNL     1       6.476 -17.267 -38.939  1.00  0.00     0.000 C 
BRANCH  10  11
ATOM     11  C   UNL     1       7.324 -16.865 -37.718  1.00  0.00     0.000 C 
BRANCH  11  12
ATOM     12  C   UNL     1       6.503 -16.147 -36.631  1.00  0.00     0.006 C 
BRANCH  12  13
ATOM     13  C   UNL     1       5.770 -17.093 -35.667  1.00  0.00     0.053 C 
BRANCH  13  14
ATOM     14  C   UNL     1       4.518 -16.478 -35.123  1.00  0.00     0.041 C 
ATOM     15  O   UNL     1       3.399 -16.763 -35.627  1.00  0.00    -0.550 OA
ATOM     16  O   UNL     1       4.588 -15.565 -34.079  1.00  0.00    -0.550 OA
ENDBRANCH  13  14
ENDBRANCH  12  13
ENDBRANCH  11  12
ENDBRANCH  10  11
ENDBRANCH   9  10
ENDBRANCH   8   9
ENDBRANCH   7   8
ENDBRANCH   6   7
ENDBRANCH   5   6
ENDBRANCH   4   5
ENDBRANCH   3   4
ENDBRANCH   2   3
ENDBRANCH   1   2
BRANCH   1  17
ATOM     17  C   UNL     1      10.196 -22.900 -36.662  1.00  0.00     0.000 C 
BRANCH  17  18
ATOM     18  C   UNL     1       9.740 -23.225 -38.098  1.00  0.00     0.000 C 
BRANCH  18  19
ATOM     19  C   UNL     1      10.896 -23.379 -39.110  1.00  0.00     0.000 C 
BRANCH  19  20
ATOM     20  C   UNL     1      11.999 -24.324 -38.604  1.00  0.00     0.000 C 
BRANCH  20  21
ATOM     21  C   UNL     1      13.404 -23.710 -38.738  1.00  0.00     0.000 C 
BRANCH  21  22
ATOM     22  C   UNL     1      13.467 -22.525 -39.719  1.00  0.00    -0.000 C 
BRANCH  22  23
ATOM     23  C   UNL     1      14.034 -21.253 -39.059  1.00  0.00    -0.000 C 
BRANCH  23  24
ATOM     24  C   UNL     1      13.643 -21.129 -37.578  1.00  0.00    -0.000 C 
BRANCH  24  25
ATOM     25  C   UNL     1      13.265 -19.690 -37.182  1.00  0.00    -0.000 C 
BRANCH  25  26
ATOM     26  C   UNL     1      11.832 -19.583 -36.637  1.00  0.00    -0.000 C 
BRANCH  26  27
ATOM     27  C   UNL     1      10.906 -18.774 -37.558  1.00  0.00    -0.000 C 
BRANCH  27  28
ATOM     28  C   UNL     1      10.360 -19.653 -38.694  1.00  0.00    -0.000 C 
BRANCH  28  29
ATOM     29  C   UNL     1      10.878 -19.224 -40.075  1.00  0.00    -0.003 C 
ATOM     30  C   UNL     1      10.761 -20.332 -41.119  1.00  0.00     0.004 C 
ENDBRANCH  28  29
ENDBRANCH  27  28
ENDBRANCH  26  27
ENDBRANCH  25  26
ENDBRANCH  24  25
ENDBRANCH  23  24
ENDBRANCH  22  23
ENDBRANCH  21  22
ENDBRANCH  20  21
ENDBRANCH  19  20
ENDBRANCH  18  19
ENDBRANCH  17  18
ENDBRANCH   1  17
TORSDOF 26
ENDMDL
MODEL 9
REMARK VINA RESULT:    -3.494      3.255      7.123
REMARK INTER + INTRA:         -14.169
REMARK INTER:                  -8.523
REMARK INTRA:                  -5.646
REMARK UNBOUND:                -5.365
REMARK SMILES CCCCCCCCCCCCCCCCCCCCCCCCCCCC(=O)[O-]
REMARK SMILES IDX 15 1 16 2 17 3 18 4 19 5 20 6 21 7 22 8 23 9 24 10 25 11
REMARK SMILES IDX 26 12 27 13 28 14 29 15 30 16 14 17 13 18 12 19 11 20 10 21
REMARK SMILES IDX 9 22 8 23 7 24 6 25 5 26 4 27 3 28 2 29 1 30
REMARK H PARENT
REMARK Flexibility Score: inf
ROOT
ATOM      1  C   UNL     1       6.340 -21.645 -36.769  1.00  0.00     0.000 C 
ENDROOT
BRANCH   1   2
ATOM      2  C   UNL     1       5.061 -21.203 -37.507  1.00  0.00     0.000 C 
BRANCH   2   3
ATOM      3  C   UNL     1       5.300 -20.043 -38.495  1.00  0.00     0.000 C 
BRANCH   3   4
ATOM      4  C   UNL     1       4.044 -19.592 -39.272  1.00  0.00     0.000 C 
BRANCH   4   5
ATOM      5  C   UNL     1       2.837 -19.159 -38.417  1.00  0.00     0.000 C 
BRANCH   5   6
ATOM      6  C   UNL     1       2.836 -17.685 -37.973  1.00  0.00     0.000 C 
BRANCH   6   7
ATOM      7  C   UNL     1       3.027 -17.523 -36.458  1.00  0.00     0.000 C 
BRANCH   7   8
ATOM      8  C   UNL     1       3.241 -16.050 -36.082  1.00  0.00     0.000 C 
BRANCH   8   9
ATOM      9  C   UNL     1       4.727 -15.685 -35.924  1.00  0.00     0.000 C 
BRANCH   9  10
ATOM     10  C   UNL     1       5.655 -16.913 -35.800  1.00  0.00     0.000 C 
BRANCH  10  11
ATOM     11  C   UNL     1       6.687 -16.978 -36.941  1.00  0.00     0.000 C 
BRANCH  11  12
ATOM     12  C   UNL     1       6.366 -16.006 -38.092  1.00  0.00     0.006 C 
BRANCH  12  13
ATOM     13  C   UNL     1       6.376 -16.655 -39.486  1.00  0.00     0.053 C 
BRANCH  13  14
ATOM     14  C   UNL     1       7.282 -15.933 -40.434  1.00  0.00     0.041 C 
ATOM     15  O   UNL     1       8.526 -15.921 -40.238  1.00  0.00    -0.550 OA
ATOM     16  O   UNL     1       6.750 -15.245 -41.516  1.00  0.00    -0.550 OA
ENDBRANCH  13  14
ENDBRANCH  12  13
ENDBRANCH  11  12
ENDBRANCH  10  11
ENDBRANCH   9  10
ENDBRANCH   8   9
ENDBRANCH   7   8
ENDBRANCH   6   7
ENDBRANCH   5   6
ENDBRANCH   4   5
ENDBRANCH   3   4
ENDBRANCH   2   3
ENDBRANCH   1   2
BRANCH   1  17
ATOM     17  C   UNL     1       7.129 -20.463 -36.180  1.00  0.00     0.000 C 
BRANCH  17  18
ATOM     18  C   UNL     1       8.374 -20.850 -35.358  1.00  0.00     0.000 C 
BRANCH  18  19
ATOM     19  C   UNL     1       8.387 -22.319 -34.881  1.00  0.00     0.000 C 
BRANCH  19  20
ATOM     20  C   UNL     1       9.789 -22.948 -34.956  1.00  0.00     0.000 C 
BRANCH  20  21
ATOM     21  C   UNL     1      10.324 -23.017 -36.399  1.00  0.00     0.000 C 
BRANCH  21  22
ATOM     22  C   UNL     1       9.604 -24.059 -37.273  1.00  0.00    -0.000 C 
BRANCH  22  23
ATOM     23  C   UNL     1       9.086 -23.455 -38.593  1.00  0.00    -0.000 C 
BRANCH  23  24
ATOM     24  C   UNL     1       9.513 -21.991 -38.781  1.00  0.00    -0.000 C 
BRANCH  24  25
ATOM     25  C   UNL     1       8.515 -21.186 -39.633  1.00  0.00    -0.000 C 
BRANCH  25  26
ATOM     26  C   UNL     1       8.964 -19.734 -39.858  1.00  0.00    -0.000 C 
BRANCH  26  27
ATOM     27  C   UNL     1       9.377 -19.032 -38.555  1.00  0.00    -0.000 C 
BRANCH  27  28
ATOM     28  C   UNL     1      10.671 -18.227 -38.753  1.00  0.00    -0.000 C 
BRANCH  28  29
ATOM     29  C   UNL     1      11.880 -18.870 -38.056  1.00  0.00    -0.003 C 
ATOM     30  C   UNL     1      11.516 -19.516 -36.721  1.00  0.00     0.004 C 
ENDBRANCH  28  29
ENDBRANCH  27  28
ENDBRANCH  26  27
ENDBRANCH  25  26
ENDBRANCH  24  25
ENDBRANCH  23  24
ENDBRANCH  22  23
ENDBRANCH  21  22
ENDBRANCH  20  21
ENDBRANCH  19  20
ENDBRANCH  18  19
ENDBRANCH  17  18
ENDBRANCH   1  17
TORSDOF 26
ENDMDL
