MODEL 1
REMARK VINA RESULT:    -5.080      0.000      0.000
REMARK INTER + INTRA:          -8.851
REMARK INTER:                  -7.455
REMARK INTRA:                  -1.396
REMARK UNBOUND:                -1.396
REMARK SMILES CC(C)COC(=O)c1ccccc1C(=O)OCC(C)C
REMARK SMILES IDX 8 1 9 2 10 3 11 4 12 5 13 6 6 7 7 8 5 9 4 10 2 11 1 12 3 13
REMARK SMILES IDX 14 14 15 15 16 16 17 17 18 18 19 19 20 20
REMARK H PARENT
REMARK Flexibility Score: inf
ROOT
ATOM      1  C   UNL     1      33.802   0.109  -4.690  1.00  0.00     0.074 A 
ATOM      2  C   UNL     1      33.538   1.479  -4.864  1.00  0.00     0.016 A 
ATOM      3  C   UNL     1      34.554   2.426  -4.729  1.00  0.00     0.001 A 
ATOM      4  C   UNL     1      35.850   2.019  -4.421  1.00  0.00     0.001 A 
ATOM      5  C   UNL     1      36.131   0.668  -4.223  1.00  0.00     0.016 A 
ATOM      6  C   UNL     1      35.116  -0.301  -4.330  1.00  0.00     0.074 A 
ENDROOT
BRANCH   1   7
ATOM      7  C   UNL     1      32.703  -0.847  -4.958  1.00  0.00     0.339 C 
ATOM      8  O   UNL     1      32.651  -1.467  -6.055  1.00  0.00    -0.246 OA
BRANCH   7   9
ATOM      9  O   UNL     1      31.684  -1.006  -4.010  1.00  0.00    -0.462 OA
BRANCH   9  10
ATOM     10  C   UNL     1      30.374  -0.451  -4.143  1.00  0.00     0.236 C 
BRANCH  10  11
ATOM     11  C   UNL     1      30.113   0.652  -3.100  1.00  0.00     0.021 C 
ATOM     12  C   UNL     1      30.339   0.132  -1.674  1.00  0.00     0.011 C 
ATOM     13  C   UNL     1      28.710   1.254  -3.239  1.00  0.00     0.011 C 
ENDBRANCH  10  11
ENDBRANCH   9  10
ENDBRANCH   7   9
ENDBRANCH   1   7
BRANCH   6  14
ATOM     14  C   UNL     1      35.463  -1.701  -3.997  1.00  0.00     0.339 C 
ATOM     15  O   UNL     1      35.680  -2.541  -4.912  1.00  0.00    -0.246 OA
BRANCH  14  16
ATOM     16  O   UNL     1      35.488  -2.103  -2.657  1.00  0.00    -0.462 OA
BRANCH  16  17
ATOM     17  C   UNL     1      34.335  -2.073  -1.821  1.00  0.00     0.236 C 
BRANCH  17  18
ATOM     18  C   UNL     1      34.377  -0.835  -0.913  1.00  0.00     0.021 C 
ATOM     19  C   UNL     1      33.424  -0.992   0.279  1.00  0.00     0.011 C 
ATOM     20  C   UNL     1      35.807  -0.579  -0.423  1.00  0.00     0.011 C 
ENDBRANCH  17  18
ENDBRANCH  16  17
ENDBRANCH  14  16
ENDBRANCH   6  14
TORSDOF 8
ENDMDL
MODEL 2
REMARK VINA RESULT:    -5.059      0.184      4.100
REMARK INTER + INTRA:          -8.821
REMARK INTER:                  -7.349
REMARK INTRA:                  -1.472
REMARK UNBOUND:                -1.396
REMARK SMILES CC(C)COC(=O)c1ccccc1C(=O)OCC(C)C
REMARK SMILES IDX 8 1 9 2 10 3 11 4 12 5 13 6 6 7 7 8 5 9 4 10 2 11 1 12 3 13
REMARK SMILES IDX 14 14 15 15 16 16 17 17 18 18 19 19 20 20
REMARK H PARENT
REMARK Flexibility Score: inf
ROOT
ATOM      1  C   UNL     1      35.048  -0.357  -4.186  1.00  0.00     0.074 A 
ATOM      2  C   UNL     1      36.054   0.613  -4.036  1.00  0.00     0.016 A 
ATOM      3  C   UNL     1      35.786   1.963  -4.266  1.00  0.00     0.001 A 
ATOM      4  C   UNL     1      34.508   2.365  -4.648  1.00  0.00     0.001 A 
ATOM      5  C   UNL     1      33.500   1.418  -4.825  1.00  0.00     0.016 A 
ATOM      6  C   UNL     1      33.755   0.049  -4.622  1.00  0.00     0.074 A 
ENDROOT
BRANCH   1   7
ATOM      7  C   UNL     1      35.373  -1.755  -3.818  1.00  0.00     0.339 C 
ATOM      8  O   UNL     1      35.620  -2.608  -4.713  1.00  0.00    -0.246 OA
BRANCH   7   9
ATOM      9  O   UNL     1      35.339  -2.136  -2.470  1.00  0.00    -0.462 OA
BRANCH   9  10
ATOM     10  C   UNL     1      34.175  -2.047  -1.645  1.00  0.00     0.236 C 
BRANCH  10  11
ATOM     11  C   UNL     1      34.254  -0.855  -0.673  1.00  0.00     0.021 C 
ATOM     12  C   UNL     1      35.689  -0.636  -0.178  1.00  0.00     0.011 C 
ATOM     13  C   UNL     1      33.292  -1.013   0.510  1.00  0.00     0.011 C 
ENDBRANCH  10  11
ENDBRANCH   9  10
ENDBRANCH   7   9
ENDBRANCH   1   7
BRANCH   6  14
ATOM     14  C   UNL     1      32.671  -0.908  -4.937  1.00  0.00     0.339 C 
ATOM     15  O   UNL     1      32.613  -1.457  -6.071  1.00  0.00    -0.246 OA
BRANCH  14  16
ATOM     16  O   UNL     1      31.672  -1.152  -3.988  1.00  0.00    -0.462 OA
BRANCH  16  17
ATOM     17  C   UNL     1      30.362  -0.602  -4.087  1.00  0.00     0.236 C 
BRANCH  17  18
ATOM     18  C   UNL     1      30.201   0.551  -3.085  1.00  0.00     0.021 C 
ATOM     19  C   UNL     1      28.804   1.178  -3.184  1.00  0.00     0.011 C 
ATOM     20  C   UNL     1      30.463   0.059  -1.657  1.00  0.00     0.011 C 
ENDBRANCH  17  18
ENDBRANCH  16  17
ENDBRANCH  14  16
ENDBRANCH   6  14
TORSDOF 8
ENDMDL
MODEL 3
REMARK VINA RESULT:    -4.826      1.960      4.618
REMARK INTER + INTRA:          -8.479
REMARK INTER:                  -7.008
REMARK INTRA:                  -1.471
REMARK UNBOUND:                -1.396
REMARK SMILES CC(C)COC(=O)c1ccccc1C(=O)OCC(C)C
REMARK SMILES IDX 8 1 9 2 10 3 11 4 12 5 13 6 6 7 7 8 5 9 4 10 2 11 1 12 3 13
REMARK SMILES IDX 14 14 15 15 16 16 17 17 18 18 19 19 20 20
REMARK H PARENT
REMARK Flexibility Score: inf
ROOT
ATOM      1  C   UNL     1      33.154  -1.990  -4.726  1.00  0.00     0.074 A 
ATOM      2  C   UNL     1      32.623  -2.092  -6.024  1.00  0.00     0.016 A 
ATOM      3  C   UNL     1      31.502  -2.882  -6.277  1.00  0.00     0.001 A 
ATOM      4  C   UNL     1      30.892  -3.582  -5.239  1.00  0.00     0.001 A 
ATOM      5  C   UNL     1      31.415  -3.514  -3.948  1.00  0.00     0.016 A 
ATOM      6  C   UNL     1      32.559  -2.742  -3.674  1.00  0.00     0.074 A 
ENDROOT
BRANCH   1   7
ATOM      7  C   UNL     1      34.276  -1.047  -4.509  1.00  0.00     0.339 C 
ATOM      8  O   UNL     1      35.469  -1.435  -4.639  1.00  0.00    -0.246 OA
BRANCH   7   9
ATOM      9  O   UNL     1      34.002   0.262  -4.093  1.00  0.00    -0.462 OA
BRANCH   9  10
ATOM     10  C   UNL     1      34.955   1.113  -3.451  1.00  0.00     0.236 C 
BRANCH  10  11
ATOM     11  C   UNL     1      35.248   2.373  -4.286  1.00  0.00     0.021 C 
ATOM     12  C   UNL     1      35.883   3.473  -3.425  1.00  0.00     0.011 C 
ATOM     13  C   UNL     1      33.995   2.898  -4.996  1.00  0.00     0.011 C 
ENDBRANCH  10  11
ENDBRANCH   9  10
ENDBRANCH   7   9
ENDBRANCH   1   7
BRANCH   6  14
ATOM     14  C   UNL     1      33.123  -2.807  -2.307  1.00  0.00     0.339 C 
ATOM     15  O   UNL     1      34.130  -3.526  -2.065  1.00  0.00    -0.246 OA
BRANCH  14  16
ATOM     16  O   UNL     1      32.493  -2.111  -1.270  1.00  0.00    -0.462 OA
BRANCH  16  17
ATOM     17  C   UNL     1      32.387  -0.690  -1.246  1.00  0.00     0.236 C 
BRANCH  17  18
ATOM     18  C   UNL     1      30.923  -0.270  -1.440  1.00  0.00     0.021 C 
ATOM     19  C   UNL     1      30.671   0.205  -2.878  1.00  0.00     0.011 C 
ATOM     20  C   UNL     1      29.983  -1.429  -1.091  1.00  0.00     0.011 C 
ENDBRANCH  17  18
ENDBRANCH  16  17
ENDBRANCH  14  16
ENDBRANCH   6  14
TORSDOF 8
ENDMDL
MODEL 4
REMARK VINA RESULT:    -4.658      6.605     10.499
REMARK INTER + INTRA:          -8.233
REMARK INTER:                  -7.058
REMARK INTRA:                  -1.175
REMARK UNBOUND:                -1.396
REMARK SMILES CC(C)COC(=O)c1ccccc1C(=O)OCC(C)C
REMARK SMILES IDX 8 1 9 2 10 3 11 4 12 5 13 6 6 7 7 8 5 9 4 10 2 11 1 12 3 13
REMARK SMILES IDX 14 14 15 15 16 16 17 17 18 18 19 19 20 20
REMARK H PARENT
REMARK Flexibility Score: inf
ROOT
ATOM      1  C   UNL     1      27.373   5.651  -2.296  1.00  0.00     0.074 A 
ATOM      2  C   UNL     1      28.482   6.060  -1.534  1.00  0.00     0.016 A 
ATOM      3  C   UNL     1      28.311   6.794  -0.359  1.00  0.00     0.001 A 
ATOM      4  C   UNL     1      27.030   7.131   0.073  1.00  0.00     0.001 A 
ATOM      5  C   UNL     1      25.917   6.755  -0.679  1.00  0.00     0.016 A 
ATOM      6  C   UNL     1      26.068   6.035  -1.878  1.00  0.00     0.074 A 
ENDROOT
BRANCH   1   7
ATOM      7  C   UNL     1      27.622   4.780  -3.468  1.00  0.00     0.339 C 
ATOM      8  O   UNL     1      28.083   5.268  -4.537  1.00  0.00    -0.246 OA
BRANCH   7   9
ATOM      9  O   UNL     1      27.279   3.424  -3.402  1.00  0.00    -0.462 OA
BRANCH   9  10
ATOM     10  C   UNL     1      26.898   2.640  -4.534  1.00  0.00     0.236 C 
BRANCH  10  11
ATOM     11  C   UNL     1      27.378   1.182  -4.407  1.00  0.00     0.021 C 
ATOM     12  C   UNL     1      28.564   1.071  -3.439  1.00  0.00     0.011 C 
ATOM     13  C   UNL     1      27.733   0.572  -5.768  1.00  0.00     0.011 C 
ENDBRANCH  10  11
ENDBRANCH   9  10
ENDBRANCH   7   9
ENDBRANCH   1   7
BRANCH   6  14
ATOM     14  C   UNL     1      24.852   5.770  -2.680  1.00  0.00     0.339 C 
ATOM     15  O   UNL     1      24.088   4.810  -2.384  1.00  0.00    -0.246 OA
BRANCH  14  16
ATOM     16  O   UNL     1      24.587   6.554  -3.808  1.00  0.00    -0.462 OA
BRANCH  16  17
ATOM     17  C   UNL     1      24.257   7.938  -3.725  1.00  0.00     0.236 C 
BRANCH  17  18
ATOM     18  C   UNL     1      25.434   8.788  -4.227  1.00  0.00     0.021 C 
ATOM     19  C   UNL     1      24.986   9.753  -5.332  1.00  0.00     0.011 C 
ATOM     20  C   UNL     1      26.066   9.564  -3.066  1.00  0.00     0.011 C 
ENDBRANCH  17  18
ENDBRANCH  16  17
ENDBRANCH  14  16
ENDBRANCH   6  14
TORSDOF 8
ENDMDL
MODEL 5
REMARK VINA RESULT:    -4.655      1.591      4.998
REMARK INTER + INTRA:          -8.228
REMARK INTER:                  -6.636
REMARK INTRA:                  -1.592
REMARK UNBOUND:                -1.396
REMARK SMILES CC(C)COC(=O)c1ccccc1C(=O)OCC(C)C
REMARK SMILES IDX 8 1 9 2 10 3 11 4 12 5 13 6 6 7 7 8 5 9 4 10 2 11 1 12 3 13
REMARK SMILES IDX 14 14 15 15 16 16 17 17 18 18 19 19 20 20
REMARK H PARENT
REMARK Flexibility Score: inf
ROOT
ATOM      1  C   UNL     1      34.517  -1.015  -1.413  1.00  0.00     0.074 A 
ATOM      2  C   UNL     1      33.890  -0.774  -0.178  1.00  0.00     0.016 A 
ATOM      3  C   UNL     1      32.965  -1.679   0.343  1.00  0.00     0.001 A 
ATOM      4  C   UNL     1      32.652  -2.840  -0.360  1.00  0.00     0.001 A 
ATOM      5  C   UNL     1      33.245  -3.089  -1.598  1.00  0.00     0.016 A 
ATOM      6  C   UNL     1      34.163  -2.178  -2.153  1.00  0.00     0.074 A 
ENDROOT
BRANCH   1   7
ATOM      7  C   UNL     1      35.569  -0.069  -1.851  1.00  0.00     0.339 C 
ATOM      8  O   UNL     1      36.742  -0.168  -1.399  1.00  0.00    -0.246 OA
BRANCH   7   9
ATOM      9  O   UNL     1      35.234   0.977  -2.720  1.00  0.00    -0.462 OA
BRANCH   9  10
ATOM     10  C   UNL     1      35.873   1.206  -3.978  1.00  0.00     0.236 C 
BRANCH  10  11
ATOM     11  C   UNL     1      35.501   2.580  -4.565  1.00  0.00     0.021 C 
ATOM     12  C   UNL     1      35.728   3.701  -3.543  1.00  0.00     0.011 C 
ATOM     13  C   UNL     1      34.060   2.611  -5.089  1.00  0.00     0.011 C 
ENDBRANCH  10  11
ENDBRANCH   9  10
ENDBRANCH   7   9
ENDBRANCH   1   7
BRANCH   6  14
ATOM     14  C   UNL     1      34.665  -2.452  -3.518  1.00  0.00     0.339 C 
ATOM     15  O   UNL     1      35.891  -2.674  -3.715  1.00  0.00    -0.246 OA
BRANCH  14  16
ATOM     16  O   UNL     1      33.779  -2.404  -4.599  1.00  0.00    -0.462 OA
BRANCH  16  17
ATOM     17  C   UNL     1      33.368  -1.182  -5.206  1.00  0.00     0.236 C 
BRANCH  17  18
ATOM     18  C   UNL     1      31.896  -0.900  -4.873  1.00  0.00     0.021 C 
ATOM     19  C   UNL     1      31.141  -2.200  -4.565  1.00  0.00     0.011 C 
ATOM     20  C   UNL     1      31.790   0.070  -3.691  1.00  0.00     0.011 C 
ENDBRANCH  17  18
ENDBRANCH  16  17
ENDBRANCH  14  16
ENDBRANCH   6  14
TORSDOF 8
ENDMDL
MODEL 6
REMARK VINA RESULT:    -4.643      1.668      4.707
REMARK INTER + INTRA:          -8.211
REMARK INTER:                  -6.667
REMARK INTRA:                  -1.544
REMARK UNBOUND:                -1.396
REMARK SMILES CC(C)COC(=O)c1ccccc1C(=O)OCC(C)C
REMARK SMILES IDX 8 1 9 2 10 3 11 4 12 5 13 6 6 7 7 8 5 9 4 10 2 11 1 12 3 13
REMARK SMILES IDX 14 14 15 15 16 16 17 17 18 18 19 19 20 20
REMARK H PARENT
REMARK Flexibility Score: inf
ROOT
ATOM      1  C   UNL     1      32.125  -1.850  -2.796  1.00  0.00     0.074 A 
ATOM      2  C   UNL     1      31.115  -1.879  -1.818  1.00  0.00     0.016 A 
ATOM      3  C   UNL     1      30.208  -0.826  -1.695  1.00  0.00     0.001 A 
ATOM      4  C   UNL     1      30.295   0.272  -2.548  1.00  0.00     0.001 A 
ATOM      5  C   UNL     1      31.302   0.332  -3.511  1.00  0.00     0.016 A 
ATOM      6  C   UNL     1      32.241  -0.707  -3.636  1.00  0.00     0.074 A 
ENDROOT
BRANCH   1   7
ATOM      7  C   UNL     1      32.981  -3.051  -2.942  1.00  0.00     0.339 C 
ATOM      8  O   UNL     1      32.796  -3.852  -3.899  1.00  0.00    -0.246 OA
BRANCH   7   9
ATOM      9  O   UNL     1      33.953  -3.323  -1.972  1.00  0.00    -0.462 OA
BRANCH   9  10
ATOM     10  C   UNL     1      34.857  -2.347  -1.450  1.00  0.00     0.236 C 
BRANCH  10  11
ATOM     11  C   UNL     1      34.569  -2.037   0.031  1.00  0.00     0.021 C 
ATOM     12  C   UNL     1      33.721  -3.141   0.675  1.00  0.00     0.011 C 
ATOM     13  C   UNL     1      33.903  -0.668   0.212  1.00  0.00     0.011 C 
ENDBRANCH  10  11
ENDBRANCH   9  10
ENDBRANCH   7   9
ENDBRANCH   1   7
BRANCH   6  14
ATOM     14  C   UNL     1      33.348  -0.524  -4.602  1.00  0.00     0.339 C 
ATOM     15  O   UNL     1      33.177  -0.781  -5.825  1.00  0.00    -0.246 OA
BRANCH  14  16
ATOM     16  O   UNL     1      34.605  -0.120  -4.139  1.00  0.00    -0.462 OA
BRANCH  16  17
ATOM     17  C   UNL     1      34.805   1.078  -3.396  1.00  0.00     0.236 C 
BRANCH  17  18
ATOM     18  C   UNL     1      35.216   2.218  -4.339  1.00  0.00     0.021 C 
ATOM     19  C   UNL     1      33.985   2.883  -4.971  1.00  0.00     0.011 C 
ATOM     20  C   UNL     1      36.055   3.258  -3.588  1.00  0.00     0.011 C 
ENDBRANCH  17  18
ENDBRANCH  16  17
ENDBRANCH  14  16
ENDBRANCH   6  14
TORSDOF 8
ENDMDL
MODEL 7
REMARK VINA RESULT:    -4.623      1.464      3.845
REMARK INTER + INTRA:          -8.181
REMARK INTER:                  -6.574
REMARK INTRA:                  -1.607
REMARK UNBOUND:                -1.396
REMARK SMILES CC(C)COC(=O)c1ccccc1C(=O)OCC(C)C
REMARK SMILES IDX 8 1 9 2 10 3 11 4 12 5 13 6 6 7 7 8 5 9 4 10 2 11 1 12 3 13
REMARK SMILES IDX 14 14 15 15 16 16 17 17 18 18 19 19 20 20
REMARK H PARENT
REMARK Flexibility Score: inf
ROOT
ATOM      1  C   UNL     1      33.512  -2.197  -2.154  1.00  0.00     0.074 A 
ATOM      2  C   UNL     1      33.109  -2.374  -0.819  1.00  0.00     0.016 A 
ATOM      3  C   UNL     1      33.718  -1.658   0.212  1.00  0.00     0.001 A 
ATOM      4  C   UNL     1      34.739  -0.754  -0.074  1.00  0.00     0.001 A 
ATOM      5  C   UNL     1      35.170  -0.579  -1.389  1.00  0.00     0.016 A 
ATOM      6  C   UNL     1      34.585  -1.308  -2.441  1.00  0.00     0.074 A 
ENDROOT
BRANCH   1   7
ATOM      7  C   UNL     1      32.747  -2.905  -3.207  1.00  0.00     0.339 C 
ATOM      8  O   UNL     1      33.017  -4.103  -3.494  1.00  0.00    -0.246 OA
BRANCH   7   9
ATOM      9  O   UNL     1      31.766  -2.212  -3.927  1.00  0.00    -0.462 OA
BRANCH   9  10
ATOM     10  C   UNL     1      30.494  -1.841  -3.391  1.00  0.00     0.236 C 
BRANCH  10  11
ATOM     11  C   UNL     1      30.405  -0.326  -3.127  1.00  0.00     0.021 C 
ATOM     12  C   UNL     1      31.524   0.430  -3.854  1.00  0.00     0.011 C 
ATOM     13  C   UNL     1      30.418  -0.002  -1.629  1.00  0.00     0.011 C 
ENDBRANCH  10  11
ENDBRANCH   9  10
ENDBRANCH   7   9
ENDBRANCH   1   7
BRANCH   6  14
ATOM     14  C   UNL     1      35.169  -1.155  -3.793  1.00  0.00     0.339 C 
ATOM     15  O   UNL     1      35.909  -2.055  -4.275  1.00  0.00    -0.246 OA
BRANCH  14  16
ATOM     16  O   UNL     1      34.943   0.026  -4.509  1.00  0.00    -0.462 OA
BRANCH  16  17
ATOM     17  C   UNL     1      35.847   1.127  -4.486  1.00  0.00     0.236 C 
BRANCH  17  18
ATOM     18  C   UNL     1      35.128   2.384  -3.976  1.00  0.00     0.021 C 
ATOM     19  C   UNL     1      36.129   3.508  -3.673  1.00  0.00     0.011 C 
ATOM     20  C   UNL     1      34.089   2.858  -4.998  1.00  0.00     0.011 C 
ENDBRANCH  17  18
ENDBRANCH  16  17
ENDBRANCH  14  16
ENDBRANCH   6  14
TORSDOF 8
ENDMDL
MODEL 8
REMARK VINA RESULT:    -4.605      1.952      3.045
REMARK INTER + INTRA:          -8.155
REMARK INTER:                  -6.801
REMARK INTRA:                  -1.355
REMARK UNBOUND:                -1.396
REMARK SMILES CC(C)COC(=O)c1ccccc1C(=O)OCC(C)C
REMARK SMILES IDX 8 1 9 2 10 3 11 4 12 5 13 6 6 7 7 8 5 9 4 10 2 11 1 12 3 13
REMARK SMILES IDX 14 14 15 15 16 16 17 17 18 18 19 19 20 20
REMARK H PARENT
REMARK Flexibility Score: inf
ROOT
ATOM      1  C   UNL     1      34.089   1.330  -4.131  1.00  0.00     0.074 A 
ATOM      2  C   UNL     1      34.101   2.610  -4.713  1.00  0.00     0.016 A 
ATOM      3  C   UNL     1      35.145   3.500  -4.461  1.00  0.00     0.001 A 
ATOM      4  C   UNL     1      36.194   3.126  -3.625  1.00  0.00     0.001 A 
ATOM      5  C   UNL     1      36.192   1.870  -3.018  1.00  0.00     0.016 A 
ATOM      6  C   UNL     1      35.137   0.966  -3.240  1.00  0.00     0.074 A 
ENDROOT
BRANCH   1   7
ATOM      7  C   UNL     1      33.008   0.399  -4.530  1.00  0.00     0.339 C 
ATOM      8  O   UNL     1      31.893   0.426  -3.942  1.00  0.00    -0.246 OA
BRANCH   7   9
ATOM      9  O   UNL     1      33.259  -0.558  -5.522  1.00  0.00    -0.462 OA
BRANCH   9  10
ATOM     10  C   UNL     1      32.273  -1.462  -6.027  1.00  0.00     0.236 C 
BRANCH  10  11
ATOM     11  C   UNL     1      32.550  -2.912  -5.589  1.00  0.00     0.021 C 
ATOM     12  C   UNL     1      31.395  -3.466  -4.745  1.00  0.00     0.011 C 
ATOM     13  C   UNL     1      33.879  -3.042  -4.837  1.00  0.00     0.011 C 
ENDBRANCH  10  11
ENDBRANCH   9  10
ENDBRANCH   7   9
ENDBRANCH   1   7
BRANCH   6  14
ATOM     14  C   UNL     1      35.144  -0.301  -2.476  1.00  0.00     0.339 C 
ATOM     15  O   UNL     1      35.876  -1.262  -2.839  1.00  0.00    -0.246 OA
BRANCH  14  16
ATOM     16  O   UNL     1      34.286  -0.449  -1.381  1.00  0.00    -0.462 OA
BRANCH  16  17
ATOM     17  C   UNL     1      33.941  -1.720  -0.837  1.00  0.00     0.236 C 
BRANCH  17  18
ATOM     18  C   UNL     1      32.628  -2.218  -1.460  1.00  0.00     0.021 C 
ATOM     19  C   UNL     1      32.401  -3.704  -1.152  1.00  0.00     0.011 C 
ATOM     20  C   UNL     1      31.446  -1.383  -0.955  1.00  0.00     0.011 C 
ENDBRANCH  17  18
ENDBRANCH  16  17
ENDBRANCH  14  16
ENDBRANCH   6  14
TORSDOF 8
ENDMDL
MODEL 9
REMARK VINA RESULT:    -4.559      1.793      5.081
REMARK INTER + INTRA:          -8.087
REMARK INTER:                  -6.922
REMARK INTRA:                  -1.165
REMARK UNBOUND:                -1.396
REMARK SMILES CC(C)COC(=O)c1ccccc1C(=O)OCC(C)C
REMARK SMILES IDX 8 1 9 2 10 3 11 4 12 5 13 6 6 7 7 8 5 9 4 10 2 11 1 12 3 13
REMARK SMILES IDX 14 14 15 15 16 16 17 17 18 18 19 19 20 20
REMARK H PARENT
REMARK Flexibility Score: inf
ROOT
ATOM      1  C   UNL     1      34.905  -0.839  -2.449  1.00  0.00     0.074 A 
ATOM      2  C   UNL     1      35.513  -0.762  -1.183  1.00  0.00     0.016 A 
ATOM      3  C   UNL     1      34.742  -0.728  -0.021  1.00  0.00     0.001 A 
ATOM      4  C   UNL     1      33.353  -0.771  -0.104  1.00  0.00     0.001 A 
ATOM      5  C   UNL     1      32.727  -0.825  -1.349  1.00  0.00     0.016 A 
ATOM      6  C   UNL     1      33.485  -0.837  -2.535  1.00  0.00     0.074 A 
ENDROOT
BRANCH   1   7
ATOM      7  C   UNL     1      35.786  -0.985  -3.631  1.00  0.00     0.339 C 
ATOM      8  O   UNL     1      36.433  -2.051  -3.815  1.00  0.00    -0.246 OA
BRANCH   7   9
ATOM      9  O   UNL     1      35.945   0.096  -4.507  1.00  0.00    -0.462 OA
BRANCH   9  10
ATOM     10  C   UNL     1      36.375   1.397  -4.101  1.00  0.00     0.236 C 
BRANCH  10  11
ATOM     11  C   UNL     1      35.193   2.375  -3.969  1.00  0.00     0.021 C 
ATOM     12  C   UNL     1      34.323   2.367  -5.232  1.00  0.00     0.011 C 
ATOM     13  C   UNL     1      35.658   3.799  -3.641  1.00  0.00     0.011 C 
ENDBRANCH  10  11
ENDBRANCH   9  10
ENDBRANCH   7   9
ENDBRANCH   1   7
BRANCH   6  14
ATOM     14  C   UNL     1      32.753  -0.781  -3.820  1.00  0.00     0.339 C 
ATOM     15  O   UNL     1      31.949   0.161  -4.057  1.00  0.00    -0.246 OA
BRANCH  14  16
ATOM     16  O   UNL     1      32.913  -1.816  -4.748  1.00  0.00    -0.462 OA
BRANCH  16  17
ATOM     17  C   UNL     1      32.761  -3.190  -4.405  1.00  0.00     0.236 C 
BRANCH  17  18
ATOM     18  C   UNL     1      31.493  -3.757  -5.062  1.00  0.00     0.021 C 
ATOM     19  C   UNL     1      30.251  -3.456  -4.213  1.00  0.00     0.011 C 
ATOM     20  C   UNL     1      31.323  -3.188  -6.475  1.00  0.00     0.011 C 
ENDBRANCH  17  18
ENDBRANCH  16  17
ENDBRANCH  14  16
ENDBRANCH   6  14
TORSDOF 8
ENDMDL
