MODEL 1
REMARK VINA RESULT:    -6.145      0.000      0.000
REMARK INTER + INTRA:          -7.040
REMARK INTER:                  -7.043
REMARK INTRA:                   0.003
REMARK UNBOUND:                 0.003
REMARK SMILES O=C1C[C@H](c2ccc(O)cc2)Oc2cc(O)cc(O)c21
REMARK SMILES IDX 3 1 4 2 12 3 13 4 14 5 15 6 17 7 18 8 20 9 2 10 1 11 5 12
REMARK SMILES IDX 6 13 11 14 7 15 10 16 8 17 9 18 19 20 16 22
REMARK H PARENT 9 19 19 21 16 23
REMARK Flexibility Score: inf
ROOT
ATOM      1  C   UNL     1      72.976 -72.877  -2.702  1.00  0.00     0.131 C 
ATOM      2  C   UNL     1      72.790 -73.188  -1.205  1.00  0.00     0.211 C 
ATOM      3  O   UNL     1      73.795 -74.092  -0.723  1.00  0.00    -0.484 OA
ATOM      4  C   UNL     1      75.088 -74.190  -1.256  1.00  0.00     0.138 A 
ATOM      5  C   UNL     1      76.021 -75.003  -0.608  1.00  0.00     0.093 A 
ATOM      6  C   UNL     1      77.328 -75.101  -1.089  1.00  0.00     0.123 A 
ATOM      7  C   UNL     1      77.697 -74.406  -2.248  1.00  0.00     0.093 A 
ATOM      8  C   UNL     1      76.767 -73.612  -2.933  1.00  0.00     0.133 A 
ATOM      9  C   UNL     1      75.451 -73.474  -2.415  1.00  0.00     0.102 A 
ATOM     10  C   UNL     1      74.415 -72.597  -3.007  1.00  0.00     0.174 C 
ATOM     11  O   UNL     1      74.719 -71.605  -3.722  1.00  0.00    -0.294 OA
ENDROOT
BRANCH   2  12
ATOM     12  C   UNL     1      72.753 -71.922  -0.371  1.00  0.00    -0.007 A 
ATOM     13  C   UNL     1      71.601 -71.622   0.380  1.00  0.00     0.011 A 
ATOM     14  C   UNL     1      73.819 -71.004  -0.375  1.00  0.00     0.011 A 
ATOM     15  C   UNL     1      71.530 -70.453   1.144  1.00  0.00     0.046 A 
ATOM     16  C   UNL     1      73.747 -69.833   0.388  1.00  0.00     0.046 A 
ATOM     17  C   UNL     1      72.609 -69.559   1.156  1.00  0.00     0.115 A 
BRANCH  17  18
ATOM     18  O   UNL     1      72.559 -68.396   1.921  1.00  0.00    -0.508 OA
ATOM     19  H   UNL     1      73.279 -67.685   1.852  1.00  0.00     0.293 HD
ENDBRANCH  17  18
ENDBRANCH   2  12
BRANCH   8  20
ATOM     20  O   UNL     1      77.186 -73.016  -4.125  1.00  0.00    -0.507 OA
ATOM     21  H   UNL     1      77.926 -72.333  -4.185  1.00  0.00     0.293 HD
ENDBRANCH   8  20
BRANCH   6  22
ATOM     22  O   UNL     1      78.252 -75.891  -0.409  1.00  0.00    -0.508 OA
ATOM     23  H   UNL     1      77.961 -76.597   0.259  1.00  0.00     0.293 HD
ENDBRANCH   6  22
TORSDOF 4
ENDMDL
MODEL 2
REMARK VINA RESULT:    -6.119      3.693      8.334
REMARK INTER + INTRA:          -7.010
REMARK INTER:                  -6.540
REMARK INTRA:                  -0.470
REMARK UNBOUND:                 0.003
REMARK SMILES O=C1C[C@H](c2ccc(O)cc2)Oc2cc(O)cc(O)c21
REMARK SMILES IDX 3 1 4 2 12 3 13 4 14 5 15 6 17 7 18 8 20 9 2 10 1 11 5 12
REMARK SMILES IDX 6 13 11 14 7 15 10 16 8 17 9 18 19 20 16 22
REMARK H PARENT 9 19 19 21 16 23
REMARK Flexibility Score: inf
ROOT
ATOM      1  C   UNL     1      69.656 -70.188   3.084  1.00  0.00     0.131 C 
ATOM      2  C   UNL     1      70.503 -69.181   2.284  1.00  0.00     0.211 C 
ATOM      3  O   UNL     1      71.120 -68.209   3.140  1.00  0.00    -0.484 OA
ATOM      4  C   UNL     1      71.475 -68.448   4.476  1.00  0.00     0.138 A 
ATOM      5  C   UNL     1      72.201 -67.471   5.162  1.00  0.00     0.093 A 
ATOM      6  C   UNL     1      72.602 -67.684   6.481  1.00  0.00     0.123 A 
ATOM      7  C   UNL     1      72.246 -68.872   7.133  1.00  0.00     0.093 A 
ATOM      8  C   UNL     1      71.489 -69.850   6.475  1.00  0.00     0.133 A 
ATOM      9  C   UNL     1      71.123 -69.653   5.116  1.00  0.00     0.102 A 
ATOM     10  C   UNL     1      70.399 -70.653   4.299  1.00  0.00     0.174 C 
ATOM     11  O   UNL     1      70.429 -71.881   4.578  1.00  0.00    -0.294 OA
ENDROOT
BRANCH   2  12
ATOM     12  C   UNL     1      71.536 -69.880   1.422  1.00  0.00    -0.007 A 
ATOM     13  C   UNL     1      72.766 -69.245   1.165  1.00  0.00     0.011 A 
ATOM     14  C   UNL     1      71.276 -71.125   0.821  1.00  0.00     0.011 A 
ATOM     15  C   UNL     1      73.732 -69.857   0.359  1.00  0.00     0.046 A 
ATOM     16  C   UNL     1      72.242 -71.736   0.014  1.00  0.00     0.046 A 
ATOM     17  C   UNL     1      73.473 -71.110  -0.212  1.00  0.00     0.115 A 
BRANCH  17  18
ATOM     18  O   UNL     1      74.429 -71.738  -1.007  1.00  0.00    -0.508 OA
ATOM     19  H   UNL     1      74.243 -72.627  -1.458  1.00  0.00     0.293 HD
ENDBRANCH  17  18
ENDBRANCH   2  12
BRANCH   8  20
ATOM     20  O   UNL     1      71.103 -70.970   7.216  1.00  0.00    -0.507 OA
ATOM     21  H   UNL     1      70.544 -70.927   8.055  1.00  0.00     0.293 HD
ENDBRANCH   8  20
BRANCH   6  22
ATOM     22  O   UNL     1      73.354 -66.711   7.136  1.00  0.00    -0.508 OA
ATOM     23  H   UNL     1      73.135 -66.413   8.081  1.00  0.00     0.293 HD
ENDBRANCH   6  22
TORSDOF 4
ENDMDL
MODEL 3
REMARK VINA RESULT:    -6.091      1.580      6.183
REMARK INTER + INTRA:          -6.978
REMARK INTER:                  -6.522
REMARK INTRA:                  -0.456
REMARK UNBOUND:                 0.003
REMARK SMILES O=C1C[C@H](c2ccc(O)cc2)Oc2cc(O)cc(O)c21
REMARK SMILES IDX 3 1 4 2 12 3 13 4 14 5 15 6 17 7 18 8 20 9 2 10 1 11 5 12
REMARK SMILES IDX 6 13 11 14 7 15 10 16 8 17 9 18 19 20 16 22
REMARK H PARENT 9 19 19 21 16 23
REMARK Flexibility Score: inf
ROOT
ATOM      1  C   UNL     1      73.926 -73.734  -4.097  1.00  0.00     0.131 C 
ATOM      2  C   UNL     1      75.311 -73.076  -3.959  1.00  0.00     0.211 C 
ATOM      3  O   UNL     1      75.269 -71.928  -3.098  1.00  0.00    -0.484 OA
ATOM      4  C   UNL     1      74.360 -71.768  -2.043  1.00  0.00     0.138 A 
ATOM      5  C   UNL     1      74.513 -70.675  -1.186  1.00  0.00     0.093 A 
ATOM      6  C   UNL     1      73.648 -70.498  -0.105  1.00  0.00     0.123 A 
ATOM      7  C   UNL     1      72.600 -71.403   0.103  1.00  0.00     0.093 A 
ATOM      8  C   UNL     1      72.408 -72.487  -0.764  1.00  0.00     0.133 A 
ATOM      9  C   UNL     1      73.318 -72.694  -1.835  1.00  0.00     0.102 A 
ATOM     10  C   UNL     1      73.262 -73.850  -2.759  1.00  0.00     0.174 C 
ATOM     11  O   UNL     1      72.707 -74.932  -2.431  1.00  0.00    -0.294 OA
ENDROOT
BRANCH   2  12
ATOM     12  C   UNL     1      76.357 -74.069  -3.490  1.00  0.00    -0.007 A 
ATOM     13  C   UNL     1      76.454 -75.322  -4.125  1.00  0.00     0.011 A 
ATOM     14  C   UNL     1      77.197 -73.795  -2.395  1.00  0.00     0.011 A 
ATOM     15  C   UNL     1      77.397 -76.265  -3.703  1.00  0.00     0.046 A 
ATOM     16  C   UNL     1      78.138 -74.740  -1.972  1.00  0.00     0.046 A 
ATOM     17  C   UNL     1      78.248 -75.971  -2.629  1.00  0.00     0.115 A 
BRANCH  17  18
ATOM     18  O   UNL     1      79.200 -76.896  -2.205  1.00  0.00    -0.508 OA
ATOM     19  H   UNL     1      79.334 -77.778  -2.686  1.00  0.00     0.293 HD
ENDBRANCH  17  18
ENDBRANCH   2  12
BRANCH   8  20
ATOM     20  O   UNL     1      71.293 -73.299  -0.540  1.00  0.00    -0.507 OA
ATOM     21  H   UNL     1      70.472 -73.306  -1.126  1.00  0.00     0.293 HD
ENDBRANCH   8  20
BRANCH   6  22
ATOM     22  O   UNL     1      73.838 -69.420   0.757  1.00  0.00    -0.508 OA
ATOM     23  H   UNL     1      74.682 -68.857   0.729  1.00  0.00     0.293 HD
ENDBRANCH   6  22
TORSDOF 4
ENDMDL
MODEL 4
REMARK VINA RESULT:    -6.064      1.520      6.172
REMARK INTER + INTRA:          -6.947
REMARK INTER:                  -6.539
REMARK INTRA:                  -0.408
REMARK UNBOUND:                 0.003
REMARK SMILES O=C1C[C@H](c2ccc(O)cc2)Oc2cc(O)cc(O)c21
REMARK SMILES IDX 3 1 4 2 12 3 13 4 14 5 15 6 17 7 18 8 20 9 2 10 1 11 5 12
REMARK SMILES IDX 6 13 11 14 7 15 10 16 8 17 9 18 19 20 16 22
REMARK H PARENT 9 19 19 21 16 23
REMARK Flexibility Score: inf
ROOT
ATOM      1  C   UNL     1      73.723 -73.671  -3.935  1.00  0.00     0.131 C 
ATOM      2  C   UNL     1      75.125 -73.037  -3.879  1.00  0.00     0.211 C 
ATOM      3  O   UNL     1      75.147 -71.869  -3.046  1.00  0.00    -0.484 OA
ATOM      4  C   UNL     1      74.293 -71.665  -1.952  1.00  0.00     0.138 A 
ATOM      5  C   UNL     1      74.508 -70.556  -1.131  1.00  0.00     0.093 A 
ATOM      6  C   UNL     1      73.700 -70.336  -0.014  1.00  0.00     0.123 A 
ATOM      7  C   UNL     1      72.646 -71.216   0.266  1.00  0.00     0.093 A 
ATOM      8  C   UNL     1      72.393 -72.316  -0.564  1.00  0.00     0.133 A 
ATOM      9  C   UNL     1      73.245 -72.566  -1.672  1.00  0.00     0.102 A 
ATOM     10  C   UNL     1      73.123 -73.742  -2.564  1.00  0.00     0.174 C 
ATOM     11  O   UNL     1      72.565 -74.804  -2.184  1.00  0.00    -0.294 OA
ENDROOT
BRANCH   2  12
ATOM     12  C   UNL     1      76.174 -74.039  -3.437  1.00  0.00    -0.007 A 
ATOM     13  C   UNL     1      77.013 -73.728  -2.351  1.00  0.00     0.011 A 
ATOM     14  C   UNL     1      76.373 -75.251  -4.124  1.00  0.00     0.011 A 
ATOM     15  C   UNL     1      78.002 -74.625  -1.931  1.00  0.00     0.046 A 
ATOM     16  C   UNL     1      77.364 -76.147  -3.705  1.00  0.00     0.046 A 
ATOM     17  C   UNL     1      78.173 -75.841  -2.605  1.00  0.00     0.115 A 
BRANCH  17  18
ATOM     18  O   UNL     1      79.145 -76.750  -2.192  1.00  0.00    -0.508 OA
ATOM     19  H   UNL     1      80.075 -76.447  -1.926  1.00  0.00     0.293 HD
ENDBRANCH  17  18
ENDBRANCH   2  12
BRANCH   8  20
ATOM     20  O   UNL     1      71.275 -73.100  -0.267  1.00  0.00    -0.507 OA
ATOM     21  H   UNL     1      70.508 -73.255  -0.904  1.00  0.00     0.293 HD
ENDBRANCH   8  20
BRANCH   6  22
ATOM     22  O   UNL     1      73.952 -69.243   0.811  1.00  0.00    -0.508 OA
ATOM     23  H   UNL     1      73.343 -68.431   0.822  1.00  0.00     0.293 HD
ENDBRANCH   6  22
TORSDOF 4
ENDMDL
MODEL 5
REMARK VINA RESULT:    -5.947      2.925      4.915
REMARK INTER + INTRA:          -6.813
REMARK INTER:                  -6.419
REMARK INTRA:                  -0.394
REMARK UNBOUND:                 0.003
REMARK SMILES O=C1C[C@H](c2ccc(O)cc2)Oc2cc(O)cc(O)c21
REMARK SMILES IDX 3 1 4 2 12 3 13 4 14 5 15 6 17 7 18 8 20 9 2 10 1 11 5 12
REMARK SMILES IDX 6 13 11 14 7 15 10 16 8 17 9 18 19 20 16 22
REMARK H PARENT 9 19 19 21 16 23
REMARK Flexibility Score: inf
ROOT
ATOM      1  C   UNL     1      74.705 -76.275  -0.460  1.00  0.00     0.131 C 
ATOM      2  C   UNL     1      75.880 -75.285  -0.351  1.00  0.00     0.211 C 
ATOM      3  O   UNL     1      77.145 -75.945  -0.498  1.00  0.00    -0.484 OA
ATOM      4  C   UNL     1      77.342 -77.114  -1.247  1.00  0.00     0.138 A 
ATOM      5  C   UNL     1      78.646 -77.580  -1.433  1.00  0.00     0.093 A 
ATOM      6  C   UNL     1      78.885 -78.721  -2.200  1.00  0.00     0.123 A 
ATOM      7  C   UNL     1      77.810 -79.423  -2.759  1.00  0.00     0.093 A 
ATOM      8  C   UNL     1      76.492 -78.992  -2.555  1.00  0.00     0.133 A 
ATOM      9  C   UNL     1      76.252 -77.803  -1.816  1.00  0.00     0.102 A 
ATOM     10  C   UNL     1      74.910 -77.210  -1.612  1.00  0.00     0.174 C 
ATOM     11  O   UNL     1      73.958 -77.443  -2.402  1.00  0.00    -0.294 OA
ENDROOT
BRANCH   2  12
ATOM     12  C   UNL     1      75.743 -74.145  -1.342  1.00  0.00    -0.007 A 
ATOM     13  C   UNL     1      74.641 -73.274  -1.247  1.00  0.00     0.011 A 
ATOM     14  C   UNL     1      76.659 -73.969  -2.395  1.00  0.00     0.011 A 
ATOM     15  C   UNL     1      74.479 -72.225  -2.158  1.00  0.00     0.046 A 
ATOM     16  C   UNL     1      76.496 -72.920  -3.307  1.00  0.00     0.046 A 
ATOM     17  C   UNL     1      75.413 -72.041  -3.186  1.00  0.00     0.115 A 
BRANCH  17  18
ATOM     18  O   UNL     1      75.272 -70.994  -4.094  1.00  0.00    -0.508 OA
ATOM     19  H   UNL     1      74.566 -70.277  -3.970  1.00  0.00     0.293 HD
ENDBRANCH  17  18
ENDBRANCH   2  12
BRANCH   8  20
ATOM     20  O   UNL     1      75.468 -79.790  -3.075  1.00  0.00    -0.507 OA
ATOM     21  H   UNL     1      75.573 -80.389  -3.879  1.00  0.00     0.293 HD
ENDBRANCH   8  20
BRANCH   6  22
ATOM     22  O   UNL     1      80.196 -79.150  -2.401  1.00  0.00    -0.508 OA
ATOM     23  H   UNL     1      80.671 -79.016  -3.287  1.00  0.00     0.293 HD
ENDBRANCH   6  22
TORSDOF 4
ENDMDL
MODEL 6
REMARK VINA RESULT:    -5.881      2.730      6.725
REMARK INTER + INTRA:          -6.737
REMARK INTER:                  -6.272
REMARK INTRA:                  -0.465
REMARK UNBOUND:                 0.003
REMARK SMILES O=C1C[C@H](c2ccc(O)cc2)Oc2cc(O)cc(O)c21
REMARK SMILES IDX 3 1 4 2 12 3 13 4 14 5 15 6 17 7 18 8 20 9 2 10 1 11 5 12
REMARK SMILES IDX 6 13 11 14 7 15 10 16 8 17 9 18 19 20 16 22
REMARK H PARENT 9 19 19 21 16 23
REMARK Flexibility Score: inf
ROOT
ATOM      1  C   UNL     1      78.292 -75.146  -1.874  1.00  0.00     0.131 C 
ATOM      2  C   UNL     1      77.385 -75.963  -0.935  1.00  0.00     0.211 C 
ATOM      3  O   UNL     1      76.296 -75.175  -0.433  1.00  0.00    -0.484 OA
ATOM      4  C   UNL     1      75.723 -74.094  -1.119  1.00  0.00     0.138 A 
ATOM      5  C   UNL     1      74.574 -73.499  -0.593  1.00  0.00     0.093 A 
ATOM      6  C   UNL     1      73.956 -72.442  -1.263  1.00  0.00     0.123 A 
ATOM      7  C   UNL     1      74.510 -71.953  -2.453  1.00  0.00     0.093 A 
ATOM      8  C   UNL     1      75.681 -72.514  -2.980  1.00  0.00     0.133 A 
ATOM      9  C   UNL     1      76.282 -73.621  -2.324  1.00  0.00     0.102 A 
ATOM     10  C   UNL     1      77.469 -74.344  -2.835  1.00  0.00     0.174 C 
ATOM     11  O   UNL     1      77.774 -74.331  -4.057  1.00  0.00    -0.294 OA
ENDROOT
BRANCH   2  12
ATOM     12  C   UNL     1      76.880 -77.226  -1.605  1.00  0.00    -0.007 A 
ATOM     13  C   UNL     1      77.758 -77.984  -2.402  1.00  0.00     0.011 A 
ATOM     14  C   UNL     1      75.536 -77.629  -1.502  1.00  0.00     0.011 A 
ATOM     15  C   UNL     1      77.316 -79.144  -3.047  1.00  0.00     0.046 A 
ATOM     16  C   UNL     1      75.094 -78.789  -2.149  1.00  0.00     0.046 A 
ATOM     17  C   UNL     1      75.983 -79.553  -2.914  1.00  0.00     0.115 A 
BRANCH  17  18
ATOM     18  O   UNL     1      75.530 -80.712  -3.541  1.00  0.00    -0.508 OA
ATOM     19  H   UNL     1      74.594 -80.776  -3.924  1.00  0.00     0.293 HD
ENDBRANCH  17  18
ENDBRANCH   2  12
BRANCH   8  20
ATOM     20  O   UNL     1      76.218 -71.920  -4.125  1.00  0.00    -0.507 OA
ATOM     21  H   UNL     1      75.990 -70.988  -4.438  1.00  0.00     0.293 HD
ENDBRANCH   8  20
BRANCH   6  22
ATOM     22  O   UNL     1      72.792 -71.884  -0.739  1.00  0.00    -0.508 OA
ATOM     23  H   UNL     1      72.601 -70.890  -0.801  1.00  0.00     0.293 HD
ENDBRANCH   6  22
TORSDOF 4
ENDMDL
MODEL 7
REMARK VINA RESULT:    -5.820      2.576      3.904
REMARK INTER + INTRA:          -6.668
REMARK INTER:                  -6.215
REMARK INTRA:                  -0.453
REMARK UNBOUND:                 0.003
REMARK SMILES O=C1C[C@H](c2ccc(O)cc2)Oc2cc(O)cc(O)c21
REMARK SMILES IDX 3 1 4 2 12 3 13 4 14 5 15 6 17 7 18 8 20 9 2 10 1 11 5 12
REMARK SMILES IDX 6 13 11 14 7 15 10 16 8 17 9 18 19 20 16 22
REMARK H PARENT 9 19 19 21 16 23
REMARK Flexibility Score: inf
ROOT
ATOM      1  C   UNL     1      76.670 -73.500  -3.757  1.00  0.00     0.131 C 
ATOM      2  C   UNL     1      75.183 -73.883  -3.873  1.00  0.00     0.211 C 
ATOM      3  O   UNL     1      75.012 -75.293  -4.073  1.00  0.00    -0.484 OA
ATOM      4  C   UNL     1      75.904 -76.270  -3.607  1.00  0.00     0.138 A 
ATOM      5  C   UNL     1      75.554 -77.616  -3.738  1.00  0.00     0.093 A 
ATOM      6  C   UNL     1      76.400 -78.616  -3.257  1.00  0.00     0.123 A 
ATOM      7  C   UNL     1      77.623 -78.269  -2.669  1.00  0.00     0.093 A 
ATOM      8  C   UNL     1      78.009 -76.927  -2.558  1.00  0.00     0.133 A 
ATOM      9  C   UNL     1      77.125 -75.907  -3.003  1.00  0.00     0.102 A 
ATOM     10  C   UNL     1      77.392 -74.458  -2.859  1.00  0.00     0.174 C 
ATOM     11  O   UNL     1      78.174 -74.014  -1.977  1.00  0.00    -0.294 OA
ENDROOT
BRANCH   2  12
ATOM     12  C   UNL     1      74.388 -73.404  -2.673  1.00  0.00    -0.007 A 
ATOM     13  C   UNL     1      74.530 -72.073  -2.236  1.00  0.00     0.011 A 
ATOM     14  C   UNL     1      73.556 -74.273  -1.944  1.00  0.00     0.011 A 
ATOM     15  C   UNL     1      73.824 -71.608  -1.122  1.00  0.00     0.046 A 
ATOM     16  C   UNL     1      72.852 -73.808  -0.828  1.00  0.00     0.046 A 
ATOM     17  C   UNL     1      72.976 -72.474  -0.420  1.00  0.00     0.115 A 
BRANCH  17  18
ATOM     18  O   UNL     1      72.257 -72.023   0.685  1.00  0.00    -0.508 OA
ATOM     19  H   UNL     1      71.360 -72.425   0.934  1.00  0.00     0.293 HD
ENDBRANCH  17  18
ENDBRANCH   2  12
BRANCH   8  20
ATOM     20  O   UNL     1      79.278 -76.664  -2.035  1.00  0.00    -0.507 OA
ATOM     21  H   UNL     1      80.133 -76.739  -2.564  1.00  0.00     0.293 HD
ENDBRANCH   8  20
BRANCH   6  22
ATOM     22  O   UNL     1      76.017 -79.951  -3.368  1.00  0.00    -0.508 OA
ATOM     23  H   UNL     1      76.331 -80.653  -2.707  1.00  0.00     0.293 HD
ENDBRANCH   6  22
TORSDOF 4
ENDMDL
MODEL 8
REMARK VINA RESULT:    -5.605      2.905      6.991
REMARK INTER + INTRA:          -6.421
REMARK INTER:                  -5.953
REMARK INTRA:                  -0.469
REMARK UNBOUND:                 0.003
REMARK SMILES O=C1C[C@H](c2ccc(O)cc2)Oc2cc(O)cc(O)c21
REMARK SMILES IDX 3 1 4 2 12 3 13 4 14 5 15 6 17 7 18 8 20 9 2 10 1 11 5 12
REMARK SMILES IDX 6 13 11 14 7 15 10 16 8 17 9 18 19 20 16 22
REMARK H PARENT 9 19 19 21 16 23
REMARK Flexibility Score: inf
ROOT
ATOM      1  C   UNL     1      73.965 -77.076  -2.192  1.00  0.00     0.131 C 
ATOM      2  C   UNL     1      74.873 -77.098  -3.436  1.00  0.00     0.211 C 
ATOM      3  O   UNL     1      74.945 -75.809  -4.063  1.00  0.00    -0.484 OA
ATOM      4  C   UNL     1      74.797 -74.592  -3.382  1.00  0.00     0.138 A 
ATOM      5  C   UNL     1      75.033 -73.402  -4.075  1.00  0.00     0.093 A 
ATOM      6  C   UNL     1      74.928 -72.172  -3.424  1.00  0.00     0.123 A 
ATOM      7  C   UNL     1      74.553 -72.129  -2.075  1.00  0.00     0.093 A 
ATOM      8  C   UNL     1      74.279 -73.309  -1.370  1.00  0.00     0.133 A 
ATOM      9  C   UNL     1      74.433 -74.562  -2.020  1.00  0.00     0.102 A 
ATOM     10  C   UNL     1      74.254 -75.871  -1.351  1.00  0.00     0.174 C 
ATOM     11  O   UNL     1      74.378 -75.998  -0.104  1.00  0.00    -0.294 OA
ENDROOT
BRANCH   2  12
ATOM     12  C   UNL     1      76.258 -77.621  -3.107  1.00  0.00    -0.007 A 
ATOM     13  C   UNL     1      76.400 -78.657  -2.165  1.00  0.00     0.011 A 
ATOM     14  C   UNL     1      77.414 -77.056  -3.676  1.00  0.00     0.011 A 
ATOM     15  C   UNL     1      77.666 -79.148  -1.829  1.00  0.00     0.046 A 
ATOM     16  C   UNL     1      78.680 -77.546  -3.337  1.00  0.00     0.046 A 
ATOM     17  C   UNL     1      78.809 -78.597  -2.422  1.00  0.00     0.115 A 
BRANCH  17  18
ATOM     18  O   UNL     1      80.076 -79.082  -2.105  1.00  0.00    -0.508 OA
ATOM     19  H   UNL     1      80.855 -78.457  -1.928  1.00  0.00     0.293 HD
ENDBRANCH  17  18
ENDBRANCH   2  12
BRANCH   8  20
ATOM     20  O   UNL     1      73.831 -73.180  -0.053  1.00  0.00    -0.507 OA
ATOM     21  H   UNL     1      73.560 -73.958   0.530  1.00  0.00     0.293 HD
ENDBRANCH   8  20
BRANCH   6  22
ATOM     22  O   UNL     1      75.200 -71.000  -4.125  1.00  0.00    -0.508 OA
ATOM     23  H   UNL     1      75.438 -70.136  -3.649  1.00  0.00     0.293 HD
ENDBRANCH   6  22
TORSDOF 4
ENDMDL
MODEL 9
REMARK VINA RESULT:    -5.552      3.751      4.837
REMARK INTER + INTRA:          -6.360
REMARK INTER:                  -5.935
REMARK INTRA:                  -0.426
REMARK UNBOUND:                 0.003
REMARK SMILES O=C1C[C@H](c2ccc(O)cc2)Oc2cc(O)cc(O)c21
REMARK SMILES IDX 3 1 4 2 12 3 13 4 14 5 15 6 17 7 18 8 20 9 2 10 1 11 5 12
REMARK SMILES IDX 6 13 11 14 7 15 10 16 8 17 9 18 19 20 16 22
REMARK H PARENT 9 19 19 21 16 23
REMARK Flexibility Score: inf
ROOT
ATOM      1  C   UNL     1      71.619 -75.135   0.134  1.00  0.00     0.131 C 
ATOM      2  C   UNL     1      72.319 -76.387   0.695  1.00  0.00     0.211 C 
ATOM      3  O   UNL     1      73.579 -76.624   0.051  1.00  0.00    -0.484 OA
ATOM      4  C   UNL     1      74.384 -75.616  -0.501  1.00  0.00     0.138 A 
ATOM      5  C   UNL     1      75.655 -75.954  -0.971  1.00  0.00     0.093 A 
ATOM      6  C   UNL     1      76.498 -74.974  -1.496  1.00  0.00     0.123 A 
ATOM      7  C   UNL     1      76.054 -73.648  -1.584  1.00  0.00     0.093 A 
ATOM      8  C   UNL     1      74.770 -73.294  -1.150  1.00  0.00     0.133 A 
ATOM      9  C   UNL     1      73.931 -74.282  -0.570  1.00  0.00     0.102 A 
ATOM     10  C   UNL     1      72.592 -74.004  -0.001  1.00  0.00     0.174 C 
ATOM     11  O   UNL     1      72.272 -72.856   0.404  1.00  0.00    -0.294 OA
ENDROOT
BRANCH   2  12
ATOM     12  C   UNL     1      72.485 -76.308   2.200  1.00  0.00    -0.007 A 
ATOM     13  C   UNL     1      73.465 -77.097   2.830  1.00  0.00     0.011 A 
ATOM     14  C   UNL     1      71.642 -75.509   2.995  1.00  0.00     0.011 A 
ATOM     15  C   UNL     1      73.630 -77.058   4.219  1.00  0.00     0.046 A 
ATOM     16  C   UNL     1      71.806 -75.472   4.384  1.00  0.00     0.046 A 
ATOM     17  C   UNL     1      72.804 -76.238   4.998  1.00  0.00     0.115 A 
BRANCH  17  18
ATOM     18  O   UNL     1      72.962 -76.179   6.381  1.00  0.00    -0.508 OA
ATOM     19  H   UNL     1      72.172 -76.268   7.010  1.00  0.00     0.293 HD
ENDBRANCH  17  18
ENDBRANCH   2  12
BRANCH   8  20
ATOM     20  O   UNL     1      74.369 -71.969  -1.344  1.00  0.00    -0.507 OA
ATOM     21  H   UNL     1      74.543 -71.445  -2.189  1.00  0.00     0.293 HD
ENDBRANCH   8  20
BRANCH   6  22
ATOM     22  O   UNL     1      77.775 -75.327  -1.928  1.00  0.00    -0.508 OA
ATOM     23  H   UNL     1      77.948 -76.190  -2.433  1.00  0.00     0.293 HD
ENDBRANCH   6  22
TORSDOF 4
ENDMDL
