MODEL 1
REMARK VINA RESULT:    -7.842      0.000      0.000
REMARK INTER + INTRA:         -10.004
REMARK INTER:                  -9.676
REMARK INTRA:                  -0.329
REMARK UNBOUND:                -0.329
REMARK SMILES Oc1cc(O)c2cc(O)c(-c3cc(O)c(O)c(O)c3)[o+]c2c1.[Cl-]
REMARK SMILES IDX 10 1 20 2 21 3 22 4 2 5 3 6 4 7 6 8 7 9 8 10 11 11 12 12
REMARK SMILES IDX 13 13 19 14 15 15 17 16 14 17 16 19 18 21 9 23 1 25 5 27
REMARK H PARENT 14 18 16 20 18 22 9 24 1 26 5 28
REMARK Flexibility Score: inf
ROOT
ATOM      1  C   UNL     1      22.955  19.856 -15.830  1.00  0.00     0.402 A 
ATOM      2  O   UNL     1      23.674  20.937 -15.533  1.00  0.00    -0.202 OA
ATOM      3  C   UNL     1      23.229  22.177 -15.712  1.00  0.00     0.368 A 
ATOM      4  C   UNL     1      24.044  23.261 -15.371  1.00  0.00     0.162 A 
ATOM      5  C   UNL     1      23.585  24.573 -15.551  1.00  0.00     0.128 A 
ATOM      6  C   UNL     1      22.307  24.799 -16.074  1.00  0.00     0.093 A 
ATOM      7  C   UNL     1      21.479  23.721 -16.421  1.00  0.00     0.136 A 
ATOM      8  C   UNL     1      21.940  22.404 -16.240  1.00  0.00     0.125 A 
ATOM      9  C   UNL     1      21.159  21.292 -16.577  1.00  0.00     0.078 A 
ATOM     10  C   UNL     1      21.668  20.004 -16.383  1.00  0.00     0.223 A 
ENDROOT
BRANCH   1  11
ATOM     11  C   UNL     1      23.557  18.526 -15.579  1.00  0.00     0.091 A 
ATOM     12  C   UNL     1      24.070  17.745 -16.630  1.00  0.00     0.068 A 
ATOM     13  C   UNL     1      24.615  16.479 -16.374  1.00  0.00     0.162 A 
ATOM     14  C   UNL     1      23.566  18.007 -14.275  1.00  0.00     0.068 A 
ATOM     15  C   UNL     1      24.640  15.978 -15.066  1.00  0.00     0.200 A 
ATOM     16  C   UNL     1      24.111  16.743 -14.013  1.00  0.00     0.162 A 
BRANCH  13  17
ATOM     17  O   UNL     1      25.128  15.711 -17.417  1.00  0.00    -0.504 OA
ATOM     18  H   UNL     1      25.563  16.137 -18.226  1.00  0.00     0.293 HD
ENDBRANCH  13  17
BRANCH  15  19
ATOM     19  O   UNL     1      25.190  14.718 -14.831  1.00  0.00    -0.502 OA
ATOM     20  H   UNL     1      24.631  13.873 -14.847  1.00  0.00     0.293 HD
ENDBRANCH  15  19
BRANCH  16  21
ATOM     21  O   UNL     1      24.127  16.243 -12.712  1.00  0.00    -0.504 OA
ATOM     22  H   UNL     1      23.559  15.448 -12.441  1.00  0.00     0.293 HD
ENDBRANCH  16  21
ENDBRANCH   1  11
BRANCH  10  23
ATOM     23  O   UNL     1      20.916  18.891 -16.763  1.00  0.00    -0.500 OA
ATOM     24  H   UNL     1      21.328  17.967 -16.826  1.00  0.00     0.294 HD
ENDBRANCH  10  23
BRANCH   5  25
ATOM     25  O   UNL     1      24.390  25.658 -15.213  1.00  0.00    -0.507 OA
ATOM     26  H   UNL     1      24.776  25.761 -14.282  1.00  0.00     0.293 HD
ENDBRANCH   5  25
BRANCH   7  27
ATOM     27  O   UNL     1      20.206  23.961 -16.943  1.00  0.00    -0.507 OA
ATOM     28  H   UNL     1      20.074  24.474 -17.807  1.00  0.00     0.293 HD
ENDBRANCH   7  27
TORSDOF 7
ENDMDL
MODEL 2
REMARK VINA RESULT:    -7.813      0.068      1.789
REMARK INTER + INTRA:          -9.969
REMARK INTER:                  -9.631
REMARK INTRA:                  -0.337
REMARK UNBOUND:                -0.329
REMARK SMILES Oc1cc(O)c2cc(O)c(-c3cc(O)c(O)c(O)c3)[o+]c2c1.[Cl-]
REMARK SMILES IDX 10 1 20 2 21 3 22 4 2 5 3 6 4 7 6 8 7 9 8 10 11 11 12 12
REMARK SMILES IDX 13 13 19 14 15 15 17 16 14 17 16 19 18 21 9 23 1 25 5 27
REMARK H PARENT 14 18 16 20 18 22 9 24 1 26 5 28
REMARK Flexibility Score: inf
ROOT
ATOM      1  C   UNL     1      22.921  19.834 -15.773  1.00  0.00     0.402 A 
ATOM      2  O   UNL     1      23.648  20.906 -15.462  1.00  0.00    -0.202 OA
ATOM      3  C   UNL     1      23.227  22.152 -15.658  1.00  0.00     0.368 A 
ATOM      4  C   UNL     1      24.049  23.224 -15.301  1.00  0.00     0.162 A 
ATOM      5  C   UNL     1      23.615  24.542 -15.499  1.00  0.00     0.128 A 
ATOM      6  C   UNL     1      22.356  24.785 -16.056  1.00  0.00     0.093 A 
ATOM      7  C   UNL     1      21.521  23.719 -16.420  1.00  0.00     0.136 A 
ATOM      8  C   UNL     1      21.956  22.395 -16.222  1.00  0.00     0.125 A 
ATOM      9  C   UNL     1      21.168  21.293 -16.573  1.00  0.00     0.078 A 
ATOM     10  C   UNL     1      21.651  19.999 -16.361  1.00  0.00     0.223 A 
ENDROOT
BRANCH   1  11
ATOM     11  C   UNL     1      23.495  18.496 -15.500  1.00  0.00     0.091 A 
ATOM     12  C   UNL     1      23.536  17.970 -14.197  1.00  0.00     0.068 A 
ATOM     13  C   UNL     1      24.104  16.712 -13.956  1.00  0.00     0.162 A 
ATOM     14  C   UNL     1      24.061  17.760 -16.551  1.00  0.00     0.068 A 
ATOM     15  C   UNL     1      24.648  15.973 -15.015  1.00  0.00     0.200 A 
ATOM     16  C   UNL     1      24.629  16.500 -16.317  1.00  0.00     0.162 A 
BRANCH  13  17
ATOM     17  O   UNL     1      24.138  16.191 -12.664  1.00  0.00    -0.504 OA
ATOM     18  H   UNL     1      24.960  15.724 -12.300  1.00  0.00     0.293 HD
ENDBRANCH  13  17
BRANCH  15  19
ATOM     19  O   UNL     1      25.205  14.721 -14.756  1.00  0.00    -0.502 OA
ATOM     20  H   UNL     1      26.202  14.590 -14.630  1.00  0.00     0.293 HD
ENDBRANCH  15  19
BRANCH  16  21
ATOM     21  O   UNL     1      25.177  15.772 -17.372  1.00  0.00    -0.504 OA
ATOM     22  H   UNL     1      25.461  14.805 -17.258  1.00  0.00     0.293 HD
ENDBRANCH  16  21
ENDBRANCH   1  11
BRANCH  10  23
ATOM     23  O   UNL     1      20.892  18.896 -16.755  1.00  0.00    -0.500 OA
ATOM     24  H   UNL     1      20.903  18.557 -17.710  1.00  0.00     0.294 HD
ENDBRANCH  10  23
BRANCH   5  25
ATOM     25  O   UNL     1      24.429  25.616 -15.145  1.00  0.00    -0.507 OA
ATOM     26  H   UNL     1      25.410  25.643 -15.395  1.00  0.00     0.293 HD
ENDBRANCH   5  25
BRANCH   7  27
ATOM     27  O   UNL     1      20.266  23.975 -16.976  1.00  0.00    -0.507 OA
ATOM     28  H   UNL     1      20.166  24.470 -17.855  1.00  0.00     0.293 HD
ENDBRANCH   7  27
TORSDOF 7
ENDMDL
MODEL 3
REMARK VINA RESULT:    -7.681      1.208      2.000
REMARK INTER + INTRA:          -9.806
REMARK INTER:                  -9.910
REMARK INTRA:                   0.104
REMARK UNBOUND:                -0.329
REMARK SMILES Oc1cc(O)c2cc(O)c(-c3cc(O)c(O)c(O)c3)[o+]c2c1.[Cl-]
REMARK SMILES IDX 10 1 20 2 21 3 22 4 2 5 3 6 4 7 6 8 7 9 8 10 11 11 12 12
REMARK SMILES IDX 13 13 19 14 15 15 17 16 14 17 16 19 18 21 9 23 1 25 5 27
REMARK H PARENT 14 18 16 20 18 22 9 24 1 26 5 28
REMARK Flexibility Score: inf
ROOT
ATOM      1  C   UNL     1      23.799  19.901 -15.765  1.00  0.00     0.402 A 
ATOM      2  O   UNL     1      24.345  21.085 -15.492  1.00  0.00    -0.202 OA
ATOM      3  C   UNL     1      23.695  22.235 -15.635  1.00  0.00     0.368 A 
ATOM      4  C   UNL     1      24.337  23.437 -15.323  1.00  0.00     0.162 A 
ATOM      5  C   UNL     1      23.662  24.657 -15.466  1.00  0.00     0.128 A 
ATOM      6  C   UNL     1      22.340  24.672 -15.923  1.00  0.00     0.093 A 
ATOM      7  C   UNL     1      21.683  23.474 -16.242  1.00  0.00     0.136 A 
ATOM      8  C   UNL     1      22.361  22.249 -16.098  1.00  0.00     0.125 A 
ATOM      9  C   UNL     1      21.758  21.025 -16.408  1.00  0.00     0.078 A 
ATOM     10  C   UNL     1      22.479  19.837 -16.254  1.00  0.00     0.223 A 
ENDROOT
BRANCH   1  11
ATOM     11  C   UNL     1      24.621  18.687 -15.558  1.00  0.00     0.091 A 
ATOM     12  C   UNL     1      25.481  18.566 -14.452  1.00  0.00     0.068 A 
ATOM     13  C   UNL     1      26.268  17.418 -14.286  1.00  0.00     0.162 A 
ATOM     14  C   UNL     1      24.588  17.658 -16.512  1.00  0.00     0.068 A 
ATOM     15  C   UNL     1      26.212  16.386 -15.231  1.00  0.00     0.200 A 
ATOM     16  C   UNL     1      25.372  16.508 -16.350  1.00  0.00     0.162 A 
BRANCH  13  17
ATOM     17  O   UNL     1      27.114  17.299 -13.185  1.00  0.00    -0.504 OA
ATOM     18  H   UNL     1      27.818  17.998 -12.978  1.00  0.00     0.293 HD
ENDBRANCH  13  17
BRANCH  15  19
ATOM     19  O   UNL     1      27.000  15.250 -15.047  1.00  0.00    -0.502 OA
ATOM     20  H   UNL     1      26.624  14.388 -14.671  1.00  0.00     0.293 HD
ENDBRANCH  15  19
BRANCH  16  21
ATOM     21  O   UNL     1      25.320  15.487 -17.298  1.00  0.00    -0.504 OA
ATOM     22  H   UNL     1      24.742  15.562 -18.128  1.00  0.00     0.293 HD
ENDBRANCH  16  21
ENDBRANCH   1  11
BRANCH  10  23
ATOM     23  O   UNL     1      21.901  18.618 -16.609  1.00  0.00    -0.500 OA
ATOM     24  H   UNL     1      22.464  17.794 -16.785  1.00  0.00     0.294 HD
ENDBRANCH  10  23
BRANCH   5  25
ATOM     25  O   UNL     1      24.295  25.858 -15.155  1.00  0.00    -0.507 OA
ATOM     26  H   UNL     1      24.762  26.409 -15.865  1.00  0.00     0.293 HD
ENDBRANCH   5  25
BRANCH   7  27
ATOM     27  O   UNL     1      20.364  23.503 -16.698  1.00  0.00    -0.507 OA
ATOM     28  H   UNL     1      19.613  23.875 -16.128  1.00  0.00     0.293 HD
ENDBRANCH   7  27
TORSDOF 7
ENDMDL
MODEL 4
REMARK VINA RESULT:    -7.659      1.255      1.263
REMARK INTER + INTRA:          -9.779
REMARK INTER:                  -9.861
REMARK INTRA:                   0.082
REMARK UNBOUND:                -0.329
REMARK SMILES Oc1cc(O)c2cc(O)c(-c3cc(O)c(O)c(O)c3)[o+]c2c1.[Cl-]
REMARK SMILES IDX 10 1 20 2 21 3 22 4 2 5 3 6 4 7 6 8 7 9 8 10 11 11 12 12
REMARK SMILES IDX 13 13 19 14 15 15 17 16 14 17 16 19 18 21 9 23 1 25 5 27
REMARK H PARENT 14 18 16 20 18 22 9 24 1 26 5 28
REMARK Flexibility Score: inf
ROOT
ATOM      1  C   UNL     1      23.889  19.893 -15.829  1.00  0.00     0.402 A 
ATOM      2  O   UNL     1      24.430  21.079 -15.553  1.00  0.00    -0.202 OA
ATOM      3  C   UNL     1      23.768  22.226 -15.673  1.00  0.00     0.368 A 
ATOM      4  C   UNL     1      24.407  23.430 -15.360  1.00  0.00     0.162 A 
ATOM      5  C   UNL     1      23.718  24.645 -15.478  1.00  0.00     0.128 A 
ATOM      6  C   UNL     1      22.389  24.654 -15.911  1.00  0.00     0.093 A 
ATOM      7  C   UNL     1      21.735  23.454 -16.230  1.00  0.00     0.136 A 
ATOM      8  C   UNL     1      22.426  22.233 -16.111  1.00  0.00     0.125 A 
ATOM      9  C   UNL     1      21.827  21.007 -16.422  1.00  0.00     0.078 A 
ATOM     10  C   UNL     1      22.560  19.824 -16.293  1.00  0.00     0.223 A 
ENDROOT
BRANCH   1  11
ATOM     11  C   UNL     1      24.725  18.685 -15.649  1.00  0.00     0.091 A 
ATOM     12  C   UNL     1      24.678  17.620 -16.566  1.00  0.00     0.068 A 
ATOM     13  C   UNL     1      25.460  16.475 -16.367  1.00  0.00     0.162 A 
ATOM     14  C   UNL     1      25.539  18.570 -14.512  1.00  0.00     0.068 A 
ATOM     15  C   UNL     1      26.288  16.378 -15.241  1.00  0.00     0.200 A 
ATOM     16  C   UNL     1      26.325  17.428 -14.308  1.00  0.00     0.162 A 
BRANCH  13  17
ATOM     17  O   UNL     1      25.416  15.424 -17.282  1.00  0.00    -0.504 OA
ATOM     18  H   UNL     1      24.618  15.283 -17.890  1.00  0.00     0.293 HD
ENDBRANCH  13  17
BRANCH  15  19
ATOM     19  O   UNL     1      27.062  15.232 -15.061  1.00  0.00    -0.502 OA
ATOM     20  H   UNL     1      27.688  14.886 -15.778  1.00  0.00     0.293 HD
ENDBRANCH  15  19
BRANCH  16  21
ATOM     21  O   UNL     1      27.141  17.332 -13.181  1.00  0.00    -0.504 OA
ATOM     22  H   UNL     1      27.463  16.435 -12.834  1.00  0.00     0.293 HD
ENDBRANCH  16  21
ENDBRANCH   1  11
BRANCH  10  23
ATOM     23  O   UNL     1      21.986  18.604 -16.650  1.00  0.00    -0.500 OA
ATOM     24  H   UNL     1      22.029  18.253 -17.600  1.00  0.00     0.294 HD
ENDBRANCH  10  23
BRANCH   5  25
ATOM     25  O   UNL     1      24.347  25.848 -15.168  1.00  0.00    -0.507 OA
ATOM     26  H   UNL     1      25.328  26.001 -15.370  1.00  0.00     0.293 HD
ENDBRANCH   5  25
BRANCH   7  27
ATOM     27  O   UNL     1      20.408  23.477 -16.661  1.00  0.00    -0.507 OA
ATOM     28  H   UNL     1      19.905  24.348 -16.786  1.00  0.00     0.293 HD
ENDBRANCH   7  27
TORSDOF 7
ENDMDL
MODEL 5
REMARK VINA RESULT:    -7.621      1.206      7.211
REMARK INTER + INTRA:          -9.732
REMARK INTER:                  -9.357
REMARK INTRA:                  -0.375
REMARK UNBOUND:                -0.329
REMARK SMILES Oc1cc(O)c2cc(O)c(-c3cc(O)c(O)c(O)c3)[o+]c2c1.[Cl-]
REMARK SMILES IDX 10 1 20 2 21 3 22 4 2 5 3 6 4 7 6 8 7 9 8 10 11 11 12 12
REMARK SMILES IDX 13 13 19 14 15 15 17 16 14 17 16 19 18 21 9 23 1 25 5 27
REMARK H PARENT 14 18 16 20 18 22 9 24 1 26 5 28
REMARK Flexibility Score: inf
ROOT
ATOM      1  C   UNL     1      23.295  20.251 -14.920  1.00  0.00     0.402 A 
ATOM      2  O   UNL     1      23.901  19.426 -15.772  1.00  0.00    -0.202 OA
ATOM      3  C   UNL     1      24.252  18.184 -15.457  1.00  0.00     0.368 A 
ATOM      4  C   UNL     1      24.882  17.379 -16.411  1.00  0.00     0.162 A 
ATOM      5  C   UNL     1      25.253  16.066 -16.092  1.00  0.00     0.128 A 
ATOM      6  C   UNL     1      24.994  15.559 -14.814  1.00  0.00     0.093 A 
ATOM      7  C   UNL     1      24.364  16.355 -13.846  1.00  0.00     0.136 A 
ATOM      8  C   UNL     1      23.990  17.674 -14.167  1.00  0.00     0.125 A 
ATOM      9  C   UNL     1      23.366  18.515 -13.239  1.00  0.00     0.078 A 
ATOM     10  C   UNL     1      23.022  19.819 -13.606  1.00  0.00     0.223 A 
ENDROOT
BRANCH   1  11
ATOM     11  C   UNL     1      22.945  21.611 -15.391  1.00  0.00     0.091 A 
ATOM     12  C   UNL     1      23.872  22.667 -15.329  1.00  0.00     0.068 A 
ATOM     13  C   UNL     1      23.514  23.952 -15.759  1.00  0.00     0.162 A 
ATOM     14  C   UNL     1      21.647  21.869 -15.856  1.00  0.00     0.068 A 
ATOM     15  C   UNL     1      22.223  24.196 -16.243  1.00  0.00     0.200 A 
ATOM     16  C   UNL     1      21.284  23.151 -16.289  1.00  0.00     0.162 A 
BRANCH  13  17
ATOM     17  O   UNL     1      24.438  24.995 -15.702  1.00  0.00    -0.504 OA
ATOM     18  H   UNL     1      24.213  25.922 -16.042  1.00  0.00     0.293 HD
ENDBRANCH  13  17
BRANCH  15  19
ATOM     19  O   UNL     1      21.887  25.481 -16.670  1.00  0.00    -0.502 OA
ATOM     20  H   UNL     1      21.565  25.669 -17.612  1.00  0.00     0.293 HD
ENDBRANCH  15  19
BRANCH  16  21
ATOM     21  O   UNL     1      19.995  23.392 -16.762  1.00  0.00    -0.504 OA
ATOM     22  H   UNL     1      19.287  23.823 -16.178  1.00  0.00     0.293 HD
ENDBRANCH  16  21
ENDBRANCH   1  11
BRANCH  10  23
ATOM     23  O   UNL     1      22.446  20.680 -12.672  1.00  0.00    -0.500 OA
ATOM     24  H   UNL     1      22.049  21.572 -12.944  1.00  0.00     0.294 HD
ENDBRANCH  10  23
BRANCH   5  25
ATOM     25  O   UNL     1      25.880  15.257 -17.037  1.00  0.00    -0.507 OA
ATOM     26  H   UNL     1      25.622  15.290 -18.016  1.00  0.00     0.293 HD
ENDBRANCH   5  25
BRANCH   7  27
ATOM     27  O   UNL     1      24.112  15.837 -12.575  1.00  0.00    -0.507 OA
ATOM     28  H   UNL     1      24.695  16.074 -11.780  1.00  0.00     0.293 HD
ENDBRANCH   7  27
TORSDOF 7
ENDMDL
MODEL 6
REMARK VINA RESULT:    -7.581      2.403      2.697
REMARK INTER + INTRA:          -9.682
REMARK INTER:                  -9.409
REMARK INTRA:                  -0.274
REMARK UNBOUND:                -0.329
REMARK SMILES Oc1cc(O)c2cc(O)c(-c3cc(O)c(O)c(O)c3)[o+]c2c1.[Cl-]
REMARK SMILES IDX 10 1 20 2 21 3 22 4 2 5 3 6 4 7 6 8 7 9 8 10 11 11 12 12
REMARK SMILES IDX 13 13 19 14 15 15 17 16 14 17 16 19 18 21 9 23 1 25 5 27
REMARK H PARENT 14 18 16 20 18 22 9 24 1 26 5 28
REMARK Flexibility Score: inf
ROOT
ATOM      1  C   UNL     1      24.906  20.505 -16.497  1.00  0.00     0.402 A 
ATOM      2  O   UNL     1      24.356  21.101 -15.441  1.00  0.00    -0.202 OA
ATOM      3  C   UNL     1      23.716  22.264 -15.514  1.00  0.00     0.368 A 
ATOM      4  C   UNL     1      23.162  22.824 -14.359  1.00  0.00     0.162 A 
ATOM      5  C   UNL     1      22.482  24.048 -14.424  1.00  0.00     0.128 A 
ATOM      6  C   UNL     1      22.358  24.712 -15.648  1.00  0.00     0.093 A 
ATOM      7  C   UNL     1      22.911  24.164 -16.815  1.00  0.00     0.136 A 
ATOM      8  C   UNL     1      23.593  22.935 -16.750  1.00  0.00     0.125 A 
ATOM      9  C   UNL     1      24.171  22.345 -17.881  1.00  0.00     0.078 A 
ATOM     10  C   UNL     1      24.843  21.126 -17.761  1.00  0.00     0.223 A 
ENDROOT
BRANCH   1  11
ATOM     11  C   UNL     1      25.586  19.205 -16.291  1.00  0.00     0.091 A 
ATOM     12  C   UNL     1      25.086  18.020 -16.860  1.00  0.00     0.068 A 
ATOM     13  C   UNL     1      25.731  16.797 -16.634  1.00  0.00     0.162 A 
ATOM     14  C   UNL     1      26.719  19.141 -15.466  1.00  0.00     0.068 A 
ATOM     15  C   UNL     1      26.875  16.745 -15.828  1.00  0.00     0.200 A 
ATOM     16  C   UNL     1      27.369  17.921 -15.239  1.00  0.00     0.162 A 
BRANCH  13  17
ATOM     17  O   UNL     1      25.236  15.625 -17.205  1.00  0.00    -0.504 OA
ATOM     18  H   UNL     1      25.844  14.967 -17.678  1.00  0.00     0.293 HD
ENDBRANCH  13  17
BRANCH  15  19
ATOM     19  O   UNL     1      27.506  15.519 -15.618  1.00  0.00    -0.502 OA
ATOM     20  H   UNL     1      27.061  14.763 -15.110  1.00  0.00     0.293 HD
ENDBRANCH  15  19
BRANCH  16  21
ATOM     21  O   UNL     1      28.503  17.872 -14.428  1.00  0.00    -0.504 OA
ATOM     22  H   UNL     1      29.076  18.693 -14.267  1.00  0.00     0.293 HD
ENDBRANCH  16  21
ENDBRANCH   1  11
BRANCH  10  23
ATOM     23  O   UNL     1      25.465  20.558 -18.873  1.00  0.00    -0.500 OA
ATOM     24  H   UNL     1      24.930  20.217 -19.665  1.00  0.00     0.294 HD
ENDBRANCH  10  23
BRANCH   5  25
ATOM     25  O   UNL     1      21.926  24.610 -13.277  1.00  0.00    -0.507 OA
ATOM     26  H   UNL     1      21.836  25.614 -13.170  1.00  0.00     0.293 HD
ENDBRANCH   5  25
BRANCH   7  27
ATOM     27  O   UNL     1      22.781  24.838 -18.030  1.00  0.00    -0.507 OA
ATOM     28  H   UNL     1      21.971  24.708 -18.627  1.00  0.00     0.293 HD
ENDBRANCH   7  27
TORSDOF 7
ENDMDL
MODEL 7
REMARK VINA RESULT:    -7.556      1.240      7.194
REMARK INTER + INTRA:          -9.652
REMARK INTER:                  -9.273
REMARK INTRA:                  -0.379
REMARK UNBOUND:                -0.329
REMARK SMILES Oc1cc(O)c2cc(O)c(-c3cc(O)c(O)c(O)c3)[o+]c2c1.[Cl-]
REMARK SMILES IDX 10 1 20 2 21 3 22 4 2 5 3 6 4 7 6 8 7 9 8 10 11 11 12 12
REMARK SMILES IDX 13 13 19 14 15 15 17 16 14 17 16 19 18 21 9 23 1 25 5 27
REMARK H PARENT 14 18 16 20 18 22 9 24 1 26 5 28
REMARK Flexibility Score: inf
ROOT
ATOM      1  C   UNL     1      23.251  20.175 -14.848  1.00  0.00     0.402 A 
ATOM      2  O   UNL     1      23.878  19.379 -15.713  1.00  0.00    -0.202 OA
ATOM      3  C   UNL     1      24.253  18.138 -15.419  1.00  0.00     0.368 A 
ATOM      4  C   UNL     1      24.903  17.363 -16.385  1.00  0.00     0.162 A 
ATOM      5  C   UNL     1      25.300  16.053 -16.088  1.00  0.00     0.128 A 
ATOM      6  C   UNL     1      25.046  15.517 -14.822  1.00  0.00     0.093 A 
ATOM      7  C   UNL     1      24.396  16.282 -13.842  1.00  0.00     0.136 A 
ATOM      8  C   UNL     1      23.996  17.599 -14.140  1.00  0.00     0.125 A 
ATOM      9  C   UNL     1      23.351  18.410 -13.199  1.00  0.00     0.078 A 
ATOM     10  C   UNL     1      22.982  19.713 -13.544  1.00  0.00     0.223 A 
ENDROOT
BRANCH   1  11
ATOM     11  C   UNL     1      22.876  21.535 -15.295  1.00  0.00     0.091 A 
ATOM     12  C   UNL     1      21.585  21.818 -15.774  1.00  0.00     0.068 A 
ATOM     13  C   UNL     1      21.256  23.108 -16.213  1.00  0.00     0.162 A 
ATOM     14  C   UNL     1      23.842  22.553 -15.296  1.00  0.00     0.068 A 
ATOM     15  C   UNL     1      22.220  24.124 -16.191  1.00  0.00     0.200 A 
ATOM     16  C   UNL     1      23.519  23.845 -15.733  1.00  0.00     0.162 A 
BRANCH  13  17
ATOM     17  O   UNL     1      19.973  23.386 -16.681  1.00  0.00    -0.504 OA
ATOM     18  H   UNL     1      19.582  22.900 -17.480  1.00  0.00     0.293 HD
ENDBRANCH  13  17
BRANCH  15  19
ATOM     19  O   UNL     1      21.873  25.402 -16.628  1.00  0.00    -0.502 OA
ATOM     20  H   UNL     1      22.438  26.216 -16.417  1.00  0.00     0.293 HD
ENDBRANCH  15  19
BRANCH  16  21
ATOM     21  O   UNL     1      24.484  24.851 -15.717  1.00  0.00    -0.504 OA
ATOM     22  H   UNL     1      25.125  24.960 -14.939  1.00  0.00     0.293 HD
ENDBRANCH  16  21
ENDBRANCH   1  11
BRANCH  10  23
ATOM     23  O   UNL     1      22.384  20.544 -12.596  1.00  0.00    -0.500 OA
ATOM     24  H   UNL     1      21.584  21.123 -12.825  1.00  0.00     0.294 HD
ENDBRANCH  10  23
BRANCH   5  25
ATOM     25  O   UNL     1      25.947  15.275 -17.046  1.00  0.00    -0.507 OA
ATOM     26  H   UNL     1      26.952  15.314 -17.169  1.00  0.00     0.293 HD
ENDBRANCH   5  25
BRANCH   7  27
ATOM     27  O   UNL     1      24.148  15.736 -12.582  1.00  0.00    -0.507 OA
ATOM     28  H   UNL     1      24.209  16.296 -11.739  1.00  0.00     0.293 HD
ENDBRANCH   7  27
TORSDOF 7
ENDMDL
MODEL 8
REMARK VINA RESULT:    -7.428      2.049      7.259
REMARK INTER + INTRA:          -9.493
REMARK INTER:                  -9.110
REMARK INTRA:                  -0.384
REMARK UNBOUND:                -0.329
REMARK SMILES Oc1cc(O)c2cc(O)c(-c3cc(O)c(O)c(O)c3)[o+]c2c1.[Cl-]
REMARK SMILES IDX 10 1 20 2 21 3 22 4 2 5 3 6 4 7 6 8 7 9 8 10 11 11 12 12
REMARK SMILES IDX 13 13 19 14 15 15 17 16 14 17 16 19 18 21 9 23 1 25 5 27
REMARK H PARENT 14 18 16 20 18 22 9 24 1 26 5 28
REMARK Flexibility Score: inf
ROOT
ATOM      1  C   UNL     1      24.502  20.686 -15.147  1.00  0.00     0.402 A 
ATOM      2  O   UNL     1      24.421  20.209 -13.906  1.00  0.00    -0.202 OA
ATOM      3  C   UNL     1      25.015  19.085 -13.518  1.00  0.00     0.368 A 
ATOM      4  C   UNL     1      24.885  18.654 -12.195  1.00  0.00     0.162 A 
ATOM      5  C   UNL     1      25.510  17.472 -11.773  1.00  0.00     0.128 A 
ATOM      6  C   UNL     1      26.266  16.722 -12.679  1.00  0.00     0.093 A 
ATOM      7  C   UNL     1      26.405  17.142 -14.011  1.00  0.00     0.136 A 
ATOM      8  C   UNL     1      25.777  18.328 -14.435  1.00  0.00     0.125 A 
ATOM      9  C   UNL     1      25.875  18.790 -15.752  1.00  0.00     0.078 A 
ATOM     10  C   UNL     1      25.227  19.972 -16.123  1.00  0.00     0.223 A 
ENDROOT
BRANCH   1  11
ATOM     11  C   UNL     1      23.802  21.954 -15.457  1.00  0.00     0.091 A 
ATOM     12  C   UNL     1      24.432  23.199 -15.281  1.00  0.00     0.068 A 
ATOM     13  C   UNL     1      23.745  24.388 -15.558  1.00  0.00     0.162 A 
ATOM     14  C   UNL     1      22.465  21.919 -15.880  1.00  0.00     0.068 A 
ATOM     15  C   UNL     1      22.417  24.344 -16.002  1.00  0.00     0.200 A 
ATOM     16  C   UNL     1      21.773  23.106 -16.160  1.00  0.00     0.162 A 
BRANCH  13  17
ATOM     17  O   UNL     1      24.375  25.620 -15.389  1.00  0.00    -0.504 OA
ATOM     18  H   UNL     1      23.895  26.492 -15.578  1.00  0.00     0.293 HD
ENDBRANCH  13  17
BRANCH  15  19
ATOM     19  O   UNL     1      21.750  25.539 -16.276  1.00  0.00    -0.502 OA
ATOM     20  H   UNL     1      22.243  26.381 -16.546  1.00  0.00     0.293 HD
ENDBRANCH  15  19
BRANCH  16  21
ATOM     21  O   UNL     1      20.449  23.058 -16.593  1.00  0.00    -0.504 OA
ATOM     22  H   UNL     1      19.935  23.902 -16.823  1.00  0.00     0.293 HD
ENDBRANCH  16  21
ENDBRANCH   1  11
BRANCH  10  23
ATOM     23  O   UNL     1      25.278  20.412 -17.445  1.00  0.00    -0.500 OA
ATOM     24  H   UNL     1      26.116  20.830 -17.835  1.00  0.00     0.294 HD
ENDBRANCH  10  23
BRANCH   5  25
ATOM     25  O   UNL     1      25.386  17.037 -10.456  1.00  0.00    -0.507 OA
ATOM     26  H   UNL     1      25.156  17.678  -9.706  1.00  0.00     0.293 HD
ENDBRANCH   5  25
BRANCH   7  27
ATOM     27  O   UNL     1      27.162  16.383 -14.905  1.00  0.00    -0.507 OA
ATOM     28  H   UNL     1      27.469  15.444 -14.677  1.00  0.00     0.293 HD
ENDBRANCH   7  27
TORSDOF 7
ENDMDL
MODEL 9
REMARK VINA RESULT:    -7.425      1.561      7.068
REMARK INTER + INTRA:          -9.490
REMARK INTER:                  -9.202
REMARK INTRA:                  -0.288
REMARK UNBOUND:                -0.329
REMARK SMILES Oc1cc(O)c2cc(O)c(-c3cc(O)c(O)c(O)c3)[o+]c2c1.[Cl-]
REMARK SMILES IDX 10 1 20 2 21 3 22 4 2 5 3 6 4 7 6 8 7 9 8 10 11 11 12 12
REMARK SMILES IDX 13 13 19 14 15 15 17 16 14 17 16 19 18 21 9 23 1 25 5 27
REMARK H PARENT 14 18 16 20 18 22 9 24 1 26 5 28
REMARK Flexibility Score: inf
ROOT
ATOM      1  C   UNL     1      23.899  20.016 -16.314  1.00  0.00     0.402 A 
ATOM      2  O   UNL     1      24.492  19.598 -15.197  1.00  0.00    -0.202 OA
ATOM      3  C   UNL     1      25.048  18.397 -15.074  1.00  0.00     0.368 A 
ATOM      4  C   UNL     1      25.655  18.035 -13.868  1.00  0.00     0.162 A 
ATOM      5  C   UNL     1      26.248  16.772 -13.728  1.00  0.00     0.128 A 
ATOM      6  C   UNL     1      26.231  15.872 -14.797  1.00  0.00     0.093 A 
ATOM      7  C   UNL     1      25.624  16.221 -16.013  1.00  0.00     0.136 A 
ATOM      8  C   UNL     1      25.029  17.488 -16.154  1.00  0.00     0.125 A 
ATOM      9  C   UNL     1      24.403  17.887 -17.341  1.00  0.00     0.078 A 
ATOM     10  C   UNL     1      23.822  19.155 -17.427  1.00  0.00     0.223 A 
ENDROOT
BRANCH   1  11
ATOM     11  C   UNL     1      23.323  21.380 -16.332  1.00  0.00     0.091 A 
ATOM     12  C   UNL     1      21.932  21.587 -16.330  1.00  0.00     0.068 A 
ATOM     13  C   UNL     1      21.406  22.885 -16.370  1.00  0.00     0.162 A 
ATOM     14  C   UNL     1      24.177  22.490 -16.410  1.00  0.00     0.068 A 
ATOM     15  C   UNL     1      22.266  23.989 -16.425  1.00  0.00     0.200 A 
ATOM     16  C   UNL     1      23.657  23.791 -16.448  1.00  0.00     0.162 A 
BRANCH  13  17
ATOM     17  O   UNL     1      20.027  23.086 -16.361  1.00  0.00    -0.504 OA
ATOM     18  H   UNL     1      19.591  23.752 -15.735  1.00  0.00     0.293 HD
ENDBRANCH  13  17
BRANCH  15  19
ATOM     19  O   UNL     1      21.725  25.274 -16.460  1.00  0.00    -0.502 OA
ATOM     20  H   UNL     1      21.666  25.812 -17.317  1.00  0.00     0.293 HD
ENDBRANCH  15  19
BRANCH  16  21
ATOM     21  O   UNL     1      24.516  24.887 -16.511  1.00  0.00    -0.504 OA
ATOM     22  H   UNL     1      24.164  25.838 -16.525  1.00  0.00     0.293 HD
ENDBRANCH  16  21
ENDBRANCH   1  11
BRANCH  10  23
ATOM     23  O   UNL     1      23.152  19.540 -18.589  1.00  0.00    -0.500 OA
ATOM     24  H   UNL     1      22.342  19.033 -18.928  1.00  0.00     0.294 HD
ENDBRANCH  10  23
BRANCH   5  25
ATOM     25  O   UNL     1      26.856  16.405 -12.529  1.00  0.00    -0.507 OA
ATOM     26  H   UNL     1      26.326  16.327 -11.669  1.00  0.00     0.293 HD
ENDBRANCH   5  25
BRANCH   7  27
ATOM     27  O   UNL     1      25.614  15.312 -17.072  1.00  0.00    -0.507 OA
ATOM     28  H   UNL     1      24.755  15.062 -17.549  1.00  0.00     0.293 HD
ENDBRANCH   7  27
TORSDOF 7
ENDMDL
