MODEL 1
REMARK VINA RESULT:    -3.443      0.000      0.000
REMARK INTER + INTRA:          -3.674
REMARK INTER:                  -3.644
REMARK INTRA:                  -0.029
REMARK UNBOUND:                -0.029
REMARK SMILES O=C([O-])[C@@H]1CCC[NH2+]1
REMARK SMILES IDX 4 1 8 2 7 3 5 4 6 5 2 8 1 9 3 10
REMARK H PARENT 8 6 8 7
REMARK Flexibility Score: inf
ROOT
ATOM      1  C   UNL     1      24.275  31.777   6.586  1.00  0.00     0.229 C 
ATOM      2  N   UNL     1      23.515  30.862   5.729  1.00  0.00    -0.339 N 
ATOM      3  C   UNL     1      24.432  30.457   4.660  1.00  0.00     0.261 C 
ATOM      4  C   UNL     1      25.263  32.495   5.681  1.00  0.00     0.077 C 
ATOM      5  C   UNL     1      25.549  31.497   4.576  1.00  0.00     0.068 C 
ATOM      6  H   UNL     1      23.191  30.029   6.275  1.00  0.00     0.346 HD
ATOM      7  H   UNL     1      22.688  31.345   5.303  1.00  0.00     0.346 HD
ENDROOT
BRANCH   1   8
ATOM      8  C   UNL     1      23.376  32.734   7.324  1.00  0.00     0.099 C 
ATOM      9  O   UNL     1      23.027  33.816   6.783  1.00  0.00    -0.544 OA
ATOM     10  O   UNL     1      22.926  32.435   8.604  1.00  0.00    -0.544 OA
ENDBRANCH   1   8
TORSDOF 1
ENDMDL
MODEL 2
REMARK VINA RESULT:    -3.407      2.744      3.759
REMARK INTER + INTRA:          -3.635
REMARK INTER:                  -3.613
REMARK INTRA:                  -0.022
REMARK UNBOUND:                -0.029
REMARK SMILES O=C([O-])[C@@H]1CCC[NH2+]1
REMARK SMILES IDX 4 1 8 2 7 3 5 4 6 5 2 8 1 9 3 10
REMARK H PARENT 8 6 8 7
REMARK Flexibility Score: inf
ROOT
ATOM      1  C   UNL     1      24.816  31.641   5.912  1.00  0.00     0.229 C 
ATOM      2  N   UNL     1      24.456  33.055   5.773  1.00  0.00    -0.339 N 
ATOM      3  C   UNL     1      23.646  33.382   6.949  1.00  0.00     0.261 C 
ATOM      4  C   UNL     1      23.665  30.974   6.650  1.00  0.00     0.077 C 
ATOM      5  C   UNL     1      23.094  32.076   7.521  1.00  0.00     0.068 C 
ATOM      6  H   UNL     1      25.316  33.651   5.738  1.00  0.00     0.346 HD
ATOM      7  H   UNL     1      23.883  33.215   4.910  1.00  0.00     0.346 HD
ENDROOT
BRANCH   1   8
ATOM      8  C   UNL     1      25.089  30.996   4.578  1.00  0.00     0.099 C 
ATOM      9  O   UNL     1      24.473  29.948   4.246  1.00  0.00    -0.544 OA
ATOM     10  O   UNL     1      26.019  31.546   3.705  1.00  0.00    -0.544 OA
ENDBRANCH   1   8
TORSDOF 1
ENDMDL
MODEL 3
REMARK VINA RESULT:    -3.303      3.977      4.710
REMARK INTER + INTRA:          -3.526
REMARK INTER:                  -3.500
REMARK INTRA:                  -0.025
REMARK UNBOUND:                -0.029
REMARK SMILES O=C([O-])[C@@H]1CCC[NH2+]1
REMARK SMILES IDX 4 1 8 2 7 3 5 4 6 5 2 8 1 9 3 10
REMARK H PARENT 8 6 8 7
REMARK Flexibility Score: inf
ROOT
ATOM      1  C   UNL     1      25.321  31.160   3.359  1.00  0.00     0.229 C 
ATOM      2  N   UNL     1      24.815  29.904   3.921  1.00  0.00    -0.339 N 
ATOM      3  C   UNL     1      24.372  30.221   5.282  1.00  0.00     0.261 C 
ATOM      4  C   UNL     1      25.893  31.953   4.523  1.00  0.00     0.077 C 
ATOM      5  C   UNL     1      25.067  31.512   5.716  1.00  0.00     0.068 C 
ATOM      6  H   UNL     1      24.017  29.539   3.348  1.00  0.00     0.346 HD
ATOM      7  H   UNL     1      25.571  29.180   3.969  1.00  0.00     0.346 HD
ENDROOT
BRANCH   1   8
ATOM      8  C   UNL     1      26.339  30.921   2.275  1.00  0.00     0.099 C 
ATOM      9  O   UNL     1      26.675  29.745   1.974  1.00  0.00    -0.544 OA
ATOM     10  O   UNL     1      26.915  31.990   1.600  1.00  0.00    -0.544 OA
ENDBRANCH   1   8
TORSDOF 1
ENDMDL
MODEL 4
REMARK VINA RESULT:    -3.297      9.662     10.157
REMARK INTER + INTRA:          -3.519
REMARK INTER:                  -3.489
REMARK INTRA:                  -0.030
REMARK UNBOUND:                -0.029
REMARK SMILES O=C([O-])[C@@H]1CCC[NH2+]1
REMARK SMILES IDX 4 1 8 2 7 3 5 4 6 5 2 8 1 9 3 10
REMARK H PARENT 8 6 8 7
REMARK Flexibility Score: inf
ROOT
ATOM      1  C   UNL     1      17.645  27.147   1.014  1.00  0.00     0.229 C 
ATOM      2  N   UNL     1      17.926  25.929   1.779  1.00  0.00    -0.339 N 
ATOM      3  C   UNL     1      19.327  25.597   1.508  1.00  0.00     0.261 C 
ATOM      4  C   UNL     1      18.519  27.086  -0.229  1.00  0.00     0.077 C 
ATOM      5  C   UNL     1      19.735  26.294   0.210  1.00  0.00     0.068 C 
ATOM      6  H   UNL     1      17.777  26.094   2.803  1.00  0.00     0.346 HD
ATOM      7  H   UNL     1      17.320  25.135   1.461  1.00  0.00     0.346 HD
ENDROOT
BRANCH   1   8
ATOM      8  C   UNL     1      16.182  27.275   0.678  1.00  0.00     0.099 C 
ATOM      9  O   UNL     1      15.706  26.660  -0.312  1.00  0.00    -0.544 OA
ATOM     10  O   UNL     1      15.347  28.070   1.453  1.00  0.00    -0.544 OA
ENDBRANCH   1   8
TORSDOF 1
ENDMDL
MODEL 5
REMARK VINA RESULT:    -3.289      2.468      3.522
REMARK INTER + INTRA:          -3.511
REMARK INTER:                  -3.488
REMARK INTRA:                  -0.022
REMARK UNBOUND:                -0.029
REMARK SMILES O=C([O-])[C@@H]1CCC[NH2+]1
REMARK SMILES IDX 4 1 8 2 7 3 5 4 6 5 2 8 1 9 3 10
REMARK H PARENT 8 6 8 7
REMARK Flexibility Score: inf
ROOT
ATOM      1  C   UNL     1      24.781  32.221   6.540  1.00  0.00     0.229 C 
ATOM      2  N   UNL     1      23.806  33.244   6.151  1.00  0.00    -0.339 N 
ATOM      3  C   UNL     1      23.098  33.614   7.379  1.00  0.00     0.261 C 
ATOM      4  C   UNL     1      24.165  31.458   7.702  1.00  0.00     0.077 C 
ATOM      5  C   UNL     1      23.277  32.479   8.387  1.00  0.00     0.068 C 
ATOM      6  H   UNL     1      24.290  34.076   5.738  1.00  0.00     0.346 HD
ATOM      7  H   UNL     1      23.115  32.863   5.461  1.00  0.00     0.346 HD
ENDROOT
BRANCH   1   8
ATOM      8  C   UNL     1      25.140  31.318   5.389  1.00  0.00     0.099 C 
ATOM      9  O   UNL     1      26.010  31.677   4.553  1.00  0.00    -0.544 OA
ATOM     10  O   UNL     1      24.516  30.086   5.239  1.00  0.00    -0.544 OA
ENDBRANCH   1   8
TORSDOF 1
ENDMDL
MODEL 6
REMARK VINA RESULT:    -3.280      2.821      3.780
REMARK INTER + INTRA:          -3.502
REMARK INTER:                  -3.470
REMARK INTRA:                  -0.032
REMARK UNBOUND:                -0.029
REMARK SMILES O=C([O-])[C@@H]1CCC[NH2+]1
REMARK SMILES IDX 4 1 8 2 7 3 5 4 6 5 2 8 1 9 3 10
REMARK H PARENT 8 6 8 7
REMARK Flexibility Score: inf
ROOT
ATOM      1  C   UNL     1      25.590  32.329   5.139  1.00  0.00     0.229 C 
ATOM      2  N   UNL     1      24.374  32.858   5.763  1.00  0.00    -0.339 N 
ATOM      3  C   UNL     1      24.764  33.280   7.111  1.00  0.00     0.261 C 
ATOM      4  C   UNL     1      26.423  31.727   6.260  1.00  0.00     0.077 C 
ATOM      5  C   UNL     1      26.057  32.552   7.479  1.00  0.00     0.068 C 
ATOM      6  H   UNL     1      24.001  33.668   5.215  1.00  0.00     0.346 HD
ATOM      7  H   UNL     1      23.636  32.117   5.839  1.00  0.00     0.346 HD
ENDROOT
BRANCH   1   8
ATOM      8  C   UNL     1      25.278  31.327   4.059  1.00  0.00     0.099 C 
ATOM      9  O   UNL     1      24.379  30.462   4.241  1.00  0.00    -0.544 OA
ATOM     10  O   UNL     1      25.974  31.344   2.857  1.00  0.00    -0.544 OA
ENDBRANCH   1   8
TORSDOF 1
ENDMDL
MODEL 7
REMARK VINA RESULT:    -3.166      1.506      2.146
REMARK INTER + INTRA:          -3.381
REMARK INTER:                  -3.356
REMARK INTRA:                  -0.025
REMARK UNBOUND:                -0.029
REMARK SMILES O=C([O-])[C@@H]1CCC[NH2+]1
REMARK SMILES IDX 4 1 8 2 7 3 5 4 6 5 2 8 1 9 3 10
REMARK H PARENT 8 6 8 7
REMARK Flexibility Score: inf
ROOT
ATOM      1  C   UNL     1      25.495  31.647   5.303  1.00  0.00     0.229 C 
ATOM      2  N   UNL     1      24.296  30.816   5.161  1.00  0.00    -0.339 N 
ATOM      3  C   UNL     1      24.523  29.982   3.978  1.00  0.00     0.261 C 
ATOM      4  C   UNL     1      26.022  31.888   3.897  1.00  0.00     0.077 C 
ATOM      5  C   UNL     1      25.600  30.652   3.126  1.00  0.00     0.068 C 
ATOM      6  H   UNL     1      24.157  30.222   6.012  1.00  0.00     0.346 HD
ATOM      7  H   UNL     1      23.444  31.407   5.003  1.00  0.00     0.346 HD
ENDROOT
BRANCH   1   8
ATOM      8  C   UNL     1      25.205  32.933   6.032  1.00  0.00     0.099 C 
ATOM      9  O   UNL     1      24.046  33.164   6.468  1.00  0.00    -0.544 OA
ATOM     10  O   UNL     1      26.208  33.874   6.230  1.00  0.00    -0.544 OA
ENDBRANCH   1   8
TORSDOF 1
ENDMDL
MODEL 8
REMARK VINA RESULT:    -3.155      9.597     10.334
REMARK INTER + INTRA:          -3.369
REMARK INTER:                  -3.348
REMARK INTRA:                  -0.020
REMARK UNBOUND:                -0.029
REMARK SMILES O=C([O-])[C@@H]1CCC[NH2+]1
REMARK SMILES IDX 4 1 8 2 7 3 5 4 6 5 2 8 1 9 3 10
REMARK H PARENT 8 6 8 7
REMARK Flexibility Score: inf
ROOT
ATOM      1  C   UNL     1      17.641  26.426   0.459  1.00  0.00     0.229 C 
ATOM      2  N   UNL     1      16.828  26.468   1.678  1.00  0.00    -0.339 N 
ATOM      3  C   UNL     1      15.734  27.404   1.399  1.00  0.00     0.261 C 
ATOM      4  C   UNL     1      17.534  27.802  -0.179  1.00  0.00     0.077 C 
ATOM      5  C   UNL     1      16.162  28.298   0.236  1.00  0.00     0.068 C 
ATOM      6  H   UNL     1      16.453  25.517   1.903  1.00  0.00     0.346 HD
ATOM      7  H   UNL     1      17.384  26.827   2.491  1.00  0.00     0.346 HD
ENDROOT
BRANCH   1   8
ATOM      8  C   UNL     1      19.069  26.040   0.749  1.00  0.00     0.099 C 
ATOM      9  O   UNL     1      19.326  24.923   1.270  1.00  0.00    -0.544 OA
ATOM     10  O   UNL     1      20.110  26.909   0.448  1.00  0.00    -0.544 OA
ENDBRANCH   1   8
TORSDOF 1
ENDMDL
MODEL 9
REMARK VINA RESULT:    -3.072      2.886      3.752
REMARK INTER + INTRA:          -3.281
REMARK INTER:                  -3.260
REMARK INTRA:                  -0.021
REMARK UNBOUND:                -0.029
REMARK SMILES O=C([O-])[C@@H]1CCC[NH2+]1
REMARK SMILES IDX 4 1 8 2 7 3 5 4 6 5 2 8 1 9 3 10
REMARK H PARENT 8 6 8 7
REMARK Flexibility Score: inf
ROOT
ATOM      1  C   UNL     1      25.322  31.986   5.544  1.00  0.00     0.229 C 
ATOM      2  N   UNL     1      26.106  31.251   6.540  1.00  0.00    -0.339 N 
ATOM      3  C   UNL     1      26.718  32.268   7.400  1.00  0.00     0.261 C 
ATOM      4  C   UNL     1      26.046  33.303   5.312  1.00  0.00     0.077 C 
ATOM      5  C   UNL     1      26.727  33.591   6.635  1.00  0.00     0.068 C 
ATOM      6  H   UNL     1      25.489  30.616   7.099  1.00  0.00     0.346 HD
ATOM      7  H   UNL     1      26.865  30.690   6.084  1.00  0.00     0.346 HD
ENDROOT
BRANCH   1   8
ATOM      8  C   UNL     1      25.148  31.198   4.272  1.00  0.00     0.099 C 
ATOM      9  O   UNL     1      24.369  30.209   4.244  1.00  0.00    -0.544 OA
ATOM     10  O   UNL     1      25.843  31.552   3.122  1.00  0.00    -0.544 OA
ENDBRANCH   1   8
TORSDOF 1
ENDMDL
