MODEL 1
REMARK VINA RESULT:    -4.451      0.000      0.000
REMARK INTER + INTRA:          -6.742
REMARK INTER:                  -6.793
REMARK INTRA:                   0.051
REMARK UNBOUND:                 0.051
REMARK SMILES CC1=CCC[C@@H](C)C(=O)C[C@H](C(C)C)C(=O)C1
REMARK SMILES IDX 8 1 9 2 6 3 7 4 5 5 4 6 3 7 2 8 1 9 10 11 11 12 15 13 16 14
REMARK SMILES IDX 17 15 12 17 13 18 14 19
REMARK H PARENT
REMARK Flexibility Score: 70.00
ROOT
ATOM      1  C   UNL     1      14.186 -32.261  21.157  1.00  0.00     0.136 C 
ATOM      2  O   UNL     1      13.414 -32.013  20.241  1.00  0.00    -0.299 OA
ENDROOT
BRANCH   1   3
ATOM      3  C   UNL     1      14.363 -31.266  22.285  1.00  0.00     0.053 C 
ATOM      4  C   UNL     1      12.996 -30.954  22.904  1.00  0.00     0.016 C 
BRANCH   3   5
ATOM      5  C   UNL     1      15.041 -29.963  21.801  1.00  0.00     0.015 C 
BRANCH   5   6
ATOM      6  C   UNL     1      16.564 -29.962  22.002  1.00  0.00     0.028 C 
BRANCH   6   7
ATOM      7  C   UNL     1      16.943 -30.570  23.333  1.00  0.00    -0.028 C 
ATOM      8  C   UNL     1      17.714 -31.666  23.509  1.00  0.00    -0.070 CG0
ATOM      9  C   UNL     1      17.985 -32.122  24.920  1.00  0.00     0.039 C 
ATOM     10  G   UNL     1      18.287 -32.472  22.358  1.00  0.00     0.000 G0
ENDBRANCH   6   7
ENDBRANCH   5   6
ENDBRANCH   3   5
ENDBRANCH   1   3
BRANCH   1  11
ATOM     11  C   UNL     1      14.933 -33.570  21.148  1.00  0.00     0.087 C 
BRANCH  11  12
ATOM     12  C   UNL     1      16.417 -33.385  20.741  1.00  0.00     0.066 C 
BRANCH  12  13
ATOM     13  C   UNL     1      17.335 -33.565  21.939  1.00  0.00     0.140 C 
ATOM     14  O   UNL     1      17.341 -34.626  22.548  1.00  0.00    -0.299 OA
BRANCH  13  15
ATOM     15  C   UNL     1      18.288 -32.479  22.365  1.00  0.00     0.106 CG0
ATOM     16  G   UNL     1      17.697 -31.651  23.490  1.00  0.00     0.000 G0
ENDBRANCH  13  15
ENDBRANCH  12  13
BRANCH  12  17
ATOM     17  C   UNL     1      16.864 -34.318  19.571  1.00  0.00    -0.006 C 
ATOM     18  C   UNL     1      18.384 -34.331  19.331  1.00  0.00     0.008 C 
ATOM     19  C   UNL     1      16.348 -35.754  19.760  1.00  0.00     0.008 C 
ENDBRANCH  12  17
ENDBRANCH  11  12
ENDBRANCH   1  11
TORSDOF 1
ENDMDL
MODEL 2
REMARK VINA RESULT:    -4.404      2.156      4.439
REMARK INTER + INTRA:          -6.670
REMARK INTER:                  -6.634
REMARK INTRA:                  -0.036
REMARK UNBOUND:                 0.051
REMARK SMILES CC1=CCC[C@@H](C)C(=O)C[C@H](C(C)C)C(=O)C1
REMARK SMILES IDX 8 1 9 2 6 3 7 4 5 5 4 6 3 7 2 8 1 9 10 11 11 12 15 13 16 14
REMARK SMILES IDX 17 15 12 17 13 18 14 19
REMARK H PARENT
REMARK Flexibility Score: 70.00
ROOT
ATOM      1  C   UNL     1      17.630 -33.621  20.868  1.00  0.00     0.136 C 
ATOM      2  O   UNL     1      17.934 -33.482  19.692  1.00  0.00    -0.299 OA
ENDROOT
BRANCH   1   3
ATOM      3  C   UNL     1      16.733 -34.769  21.285  1.00  0.00     0.053 C 
ATOM      4  C   UNL     1      16.453 -35.659  20.070  1.00  0.00     0.016 C 
BRANCH   3   5
ATOM      5  C   UNL     1      15.406 -34.267  21.899  1.00  0.00     0.015 C 
BRANCH   5   6
ATOM      6  C   UNL     1      14.747 -33.143  21.086  1.00  0.00     0.028 C 
BRANCH   6   7
ATOM      7  C   UNL     1      14.002 -32.182  21.982  1.00  0.00    -0.028 C 
ATOM      8  C   UNL     1      14.319 -30.882  22.181  1.00  0.00    -0.070 CG0
ATOM      9  C   UNL     1      13.450 -30.077  23.116  1.00  0.00     0.039 C 
ATOM     10  G   UNL     1      15.518 -30.211  21.540  1.00  0.00     0.000 G0
ENDBRANCH   6   7
ENDBRANCH   5   6
ENDBRANCH   3   5
ENDBRANCH   1   3
BRANCH   1  11
ATOM     11  C   UNL     1      18.173 -32.649  21.883  1.00  0.00     0.087 C 
BRANCH  11  12
ATOM     12  C   UNL     1      17.961 -31.177  21.447  1.00  0.00     0.066 C 
BRANCH  12  13
ATOM     13  C   UNL     1      16.813 -30.543  22.214  1.00  0.00     0.140 C 
ATOM     14  O   UNL     1      16.948 -30.271  23.398  1.00  0.00    -0.299 OA
BRANCH  13  15
ATOM     15  C   UNL     1      15.517 -30.186  21.531  1.00  0.00     0.106 CG0
ATOM     16  G   UNL     1      14.347 -30.890  22.190  1.00  0.00     0.000 G0
ENDBRANCH  13  15
ENDBRANCH  12  13
BRANCH  12  17
ATOM     17  C   UNL     1      19.246 -30.298  21.569  1.00  0.00    -0.006 C 
ATOM     18  C   UNL     1      20.539 -31.027  21.163  1.00  0.00     0.008 C 
ATOM     19  C   UNL     1      19.112 -28.985  20.780  1.00  0.00     0.008 C 
ENDBRANCH  12  17
ENDBRANCH  11  12
ENDBRANCH   1  11
TORSDOF 1
ENDMDL
MODEL 3
REMARK VINA RESULT:    -4.394      2.148      4.285
REMARK INTER + INTRA:          -6.655
REMARK INTER:                  -6.442
REMARK INTRA:                  -0.213
REMARK UNBOUND:                 0.051
REMARK SMILES CC1=CCC[C@@H](C)C(=O)C[C@H](C(C)C)C(=O)C1
REMARK SMILES IDX 8 1 9 2 6 3 7 4 5 5 4 6 3 7 2 8 1 9 10 11 11 12 15 13 16 14
REMARK SMILES IDX 17 15 12 17 13 18 14 19
REMARK H PARENT
REMARK Flexibility Score: 70.00
ROOT
ATOM      1  C   UNL     1      16.862 -30.308  22.280  1.00  0.00     0.136 C 
ATOM      2  O   UNL     1      16.662 -29.219  21.760  1.00  0.00    -0.299 OA
ENDROOT
BRANCH   1   3
ATOM      3  C   UNL     1      18.071 -31.126  21.876  1.00  0.00     0.053 C 
ATOM      4  C   UNL     1      19.290 -30.205  21.760  1.00  0.00     0.016 C 
BRANCH   3   5
ATOM      5  C   UNL     1      17.838 -31.877  20.544  1.00  0.00     0.015 C 
BRANCH   5   6
ATOM      6  C   UNL     1      17.863 -33.405  20.697  1.00  0.00     0.028 C 
BRANCH   6   7
ATOM      7  C   UNL     1      18.128 -33.809  22.129  1.00  0.00    -0.028 C 
ATOM      8  C   UNL     1      17.193 -34.206  23.022  1.00  0.00    -0.070 CG0
ATOM      9  C   UNL     1      17.653 -34.574  24.410  1.00  0.00     0.039 C 
ATOM     10  G   UNL     1      15.711 -34.264  22.704  1.00  0.00     0.000 G0
ENDBRANCH   6   7
ENDBRANCH   5   6
ENDBRANCH   3   5
ENDBRANCH   1   3
BRANCH   1  11
ATOM     11  C   UNL     1      15.901 -30.803  23.330  1.00  0.00     0.087 C 
BRANCH  11  12
ATOM     12  C   UNL     1      14.853 -31.780  22.740  1.00  0.00     0.066 C 
BRANCH  12  13
ATOM     13  C   UNL     1      14.959 -33.149  23.391  1.00  0.00     0.140 C 
ATOM     14  O   UNL     1      14.393 -33.363  24.454  1.00  0.00    -0.299 OA
BRANCH  13  15
ATOM     15  C   UNL     1      15.704 -34.277  22.726  1.00  0.00     0.106 CG0
ATOM     16  G   UNL     1      17.190 -34.190  23.020  1.00  0.00     0.000 G0
ENDBRANCH  13  15
ENDBRANCH  12  13
BRANCH  12  17
ATOM     17  C   UNL     1      13.387 -31.249  22.829  1.00  0.00    -0.006 C 
ATOM     18  C   UNL     1      13.237 -29.970  23.673  1.00  0.00     0.008 C 
ATOM     19  C   UNL     1      12.776 -31.034  21.434  1.00  0.00     0.008 C 
ENDBRANCH  12  17
ENDBRANCH  11  12
ENDBRANCH   1  11
TORSDOF 1
ENDMDL
MODEL 4
REMARK VINA RESULT:    -4.291      2.084      3.725
REMARK INTER + INTRA:          -6.498
REMARK INTER:                  -6.312
REMARK INTRA:                  -0.186
REMARK UNBOUND:                 0.051
REMARK SMILES CC1=CCC[C@@H](C)C(=O)C[C@H](C(C)C)C(=O)C1
REMARK SMILES IDX 8 1 9 2 6 3 7 4 5 5 4 6 3 7 2 8 1 9 10 11 11 12 15 13 16 14
REMARK SMILES IDX 17 15 12 17 13 18 14 19
REMARK H PARENT
REMARK Flexibility Score: 70.00
ROOT
ATOM      1  C   UNL     1      18.670 -32.051  20.991  1.00  0.00     0.136 C 
ATOM      2  O   UNL     1      19.890 -32.087  21.072  1.00  0.00    -0.299 OA
ENDROOT
BRANCH   1   3
ATOM      3  C   UNL     1      17.914 -30.856  21.536  1.00  0.00     0.053 C 
ATOM      4  C   UNL     1      18.581 -29.568  21.044  1.00  0.00     0.016 C 
BRANCH   3   5
ATOM      5  C   UNL     1      17.852 -30.871  23.081  1.00  0.00     0.015 C 
BRANCH   5   6
ATOM      6  C   UNL     1      16.469 -31.251  23.630  1.00  0.00     0.028 C 
BRANCH   6   7
ATOM      7  C   UNL     1      15.377 -30.925  22.638  1.00  0.00    -0.028 C 
ATOM      8  C   UNL     1      14.599 -31.826  21.996  1.00  0.00    -0.070 CG0
ATOM      9  C   UNL     1      13.555 -31.306  21.040  1.00  0.00     0.039 C 
ATOM     10  G   UNL     1      14.749 -33.325  22.168  1.00  0.00     0.000 G0
ENDBRANCH   6   7
ENDBRANCH   5   6
ENDBRANCH   3   5
ENDBRANCH   1   3
BRANCH   1  11
ATOM     11  C   UNL     1      17.947 -33.195  20.330  1.00  0.00     0.087 C 
BRANCH  11  12
ATOM     12  C   UNL     1      17.144 -34.039  21.352  1.00  0.00     0.066 C 
BRANCH  12  13
ATOM     13  C   UNL     1      15.650 -33.912  21.107  1.00  0.00     0.140 C 
ATOM     14  O   UNL     1      15.165 -34.329  20.065  1.00  0.00    -0.299 OA
BRANCH  13  15
ATOM     15  C   UNL     1      14.732 -33.329  22.151  1.00  0.00     0.106 CG0
ATOM     16  G   UNL     1      14.605 -31.827  21.982  1.00  0.00     0.000 G0
ENDBRANCH  13  15
ENDBRANCH  12  13
BRANCH  12  17
ATOM     17  C   UNL     1      17.562 -35.544  21.384  1.00  0.00    -0.006 C 
ATOM     18  C   UNL     1      18.041 -36.086  20.025  1.00  0.00     0.008 C 
ATOM     19  C   UNL     1      18.624 -35.815  22.462  1.00  0.00     0.008 C 
ENDBRANCH  12  17
ENDBRANCH  11  12
ENDBRANCH   1  11
TORSDOF 1
ENDMDL
MODEL 5
REMARK VINA RESULT:    -4.263      1.188      1.576
REMARK INTER + INTRA:          -6.454
REMARK INTER:                  -6.391
REMARK INTRA:                  -0.063
REMARK UNBOUND:                 0.051
REMARK SMILES CC1=CCC[C@@H](C)C(=O)C[C@H](C(C)C)C(=O)C1
REMARK SMILES IDX 8 1 9 2 6 3 7 4 5 5 4 6 3 7 2 8 1 9 10 11 11 12 15 13 16 14
REMARK SMILES IDX 17 15 12 17 13 18 14 19
REMARK H PARENT
REMARK Flexibility Score: 70.00
ROOT
ATOM      1  C   UNL     1      14.946 -33.075  21.716  1.00  0.00     0.136 C 
ATOM      2  O   UNL     1      14.058 -32.871  20.901  1.00  0.00    -0.299 OA
ENDROOT
BRANCH   1   3
ATOM      3  C   UNL     1      15.336 -31.987  22.696  1.00  0.00     0.053 C 
ATOM      4  C   UNL     1      14.069 -31.334  23.257  1.00  0.00     0.016 C 
BRANCH   3   5
ATOM      5  C   UNL     1      16.242 -30.920  22.039  1.00  0.00     0.015 C 
BRANCH   5   6
ATOM      6  C   UNL     1      17.713 -31.025  22.467  1.00  0.00     0.028 C 
BRANCH   6   7
ATOM      7  C   UNL     1      17.835 -31.495  23.898  1.00  0.00    -0.028 C 
ATOM      8  C   UNL     1      18.401 -32.655  24.302  1.00  0.00    -0.070 CG0
ATOM      9  C   UNL     1      18.431 -32.950  25.781  1.00  0.00     0.039 C 
ATOM     10  G   UNL     1      18.971 -33.681  23.341  1.00  0.00     0.000 G0
ENDBRANCH   6   7
ENDBRANCH   5   6
ENDBRANCH   3   5
ENDBRANCH   1   3
BRANCH   1  11
ATOM     11  C   UNL     1      15.623 -34.421  21.738  1.00  0.00     0.087 C 
BRANCH  11  12
ATOM     12  C   UNL     1      17.154 -34.301  21.536  1.00  0.00     0.066 C 
BRANCH  12  13
ATOM     13  C   UNL     1      17.899 -34.607  22.825  1.00  0.00     0.140 C 
ATOM     14  O   UNL     1      17.658 -35.637  23.438  1.00  0.00    -0.299 OA
BRANCH  13  15
ATOM     15  C   UNL     1      18.977 -33.690  23.343  1.00  0.00     0.106 CG0
ATOM     16  G   UNL     1      18.397 -32.653  24.286  1.00  0.00     0.000 G0
ENDBRANCH  13  15
ENDBRANCH  12  13
BRANCH  12  17
ATOM     17  C   UNL     1      17.701 -35.187  20.371  1.00  0.00    -0.006 C 
ATOM     18  C   UNL     1      16.699 -36.240  19.866  1.00  0.00     0.008 C 
ATOM     19  C   UNL     1      18.204 -34.332  19.196  1.00  0.00     0.008 C 
ENDBRANCH  12  17
ENDBRANCH  11  12
ENDBRANCH   1  11
TORSDOF 1
ENDMDL
MODEL 6
REMARK VINA RESULT:    -4.227      2.218      3.745
REMARK INTER + INTRA:          -6.400
REMARK INTER:                  -6.279
REMARK INTRA:                  -0.121
REMARK UNBOUND:                 0.051
REMARK SMILES CC1=CCC[C@@H](C)C(=O)C[C@H](C(C)C)C(=O)C1
REMARK SMILES IDX 8 1 9 2 6 3 7 4 5 5 4 6 3 7 2 8 1 9 10 11 11 12 15 13 16 14
REMARK SMILES IDX 17 15 12 17 13 18 14 19
REMARK H PARENT
REMARK Flexibility Score: 70.00
ROOT
ATOM      1  C   UNL     1      17.165 -30.417  21.639  1.00  0.00     0.136 C 
ATOM      2  O   UNL     1      17.497 -29.265  21.877  1.00  0.00    -0.299 OA
ENDROOT
BRANCH   1   3
ATOM      3  C   UNL     1      15.830 -30.935  22.132  1.00  0.00     0.053 C 
ATOM      4  C   UNL     1      14.784 -29.821  22.026  1.00  0.00     0.016 C 
BRANCH   3   5
ATOM      5  C   UNL     1      15.916 -31.451  23.587  1.00  0.00     0.015 C 
BRANCH   5   6
ATOM      6  C   UNL     1      15.404 -32.890  23.752  1.00  0.00     0.028 C 
BRANCH   6   7
ATOM      7  C   UNL     1      15.009 -33.488  22.422  1.00  0.00    -0.028 C 
ATOM      8  C   UNL     1      15.794 -34.264  21.642  1.00  0.00    -0.070 CG0
ATOM      9  C   UNL     1      15.220 -34.772  20.343  1.00  0.00     0.039 C 
ATOM     10  G   UNL     1      17.226 -34.617  21.994  1.00  0.00     0.000 G0
ENDBRANCH   6   7
ENDBRANCH   5   6
ENDBRANCH   3   5
ENDBRANCH   1   3
BRANCH   1  11
ATOM     11  C   UNL     1      18.093 -31.294  20.839  1.00  0.00     0.087 C 
BRANCH  11  12
ATOM     12  C   UNL     1      18.685 -32.443  21.694  1.00  0.00     0.066 C 
BRANCH  12  13
ATOM     13  C   UNL     1      18.209 -33.796  21.192  1.00  0.00     0.140 C 
ATOM     14  O   UNL     1      18.657 -34.249  20.148  1.00  0.00    -0.299 OA
BRANCH  13  15
ATOM     15  C   UNL     1      17.231 -34.626  21.983  1.00  0.00     0.106 CG0
ATOM     16  G   UNL     1      15.802 -34.255  21.635  1.00  0.00     0.000 G0
ENDBRANCH  13  15
ENDBRANCH  12  13
BRANCH  12  17
ATOM     17  C   UNL     1      20.244 -32.415  21.783  1.00  0.00    -0.006 C 
ATOM     18  C   UNL     1      20.885 -31.199  21.091  1.00  0.00     0.008 C 
ATOM     19  C   UNL     1      20.731 -32.511  23.239  1.00  0.00     0.008 C 
ENDBRANCH  12  17
ENDBRANCH  11  12
ENDBRANCH   1  11
TORSDOF 1
ENDMDL
MODEL 7
REMARK VINA RESULT:    -4.225      2.367      5.049
REMARK INTER + INTRA:          -6.397
REMARK INTER:                  -6.288
REMARK INTRA:                  -0.109
REMARK UNBOUND:                 0.051
REMARK SMILES CC1=CCC[C@@H](C)C(=O)C[C@H](C(C)C)C(=O)C1
REMARK SMILES IDX 8 1 9 2 6 3 7 4 5 5 4 6 3 7 2 8 1 9 10 11 11 12 15 13 16 14
REMARK SMILES IDX 17 15 12 17 13 18 14 19
REMARK H PARENT
REMARK Flexibility Score: 70.00
ROOT
ATOM      1  C   UNL     1      16.637 -34.126  24.453  1.00  0.00     0.136 C 
ATOM      2  O   UNL     1      17.181 -33.242  25.100  1.00  0.00    -0.299 OA
ENDROOT
BRANCH   1   3
ATOM      3  C   UNL     1      17.242 -35.515  24.416  1.00  0.00     0.053 C 
ATOM      4  C   UNL     1      17.301 -36.079  25.839  1.00  0.00     0.016 C 
BRANCH   3   5
ATOM      5  C   UNL     1      18.653 -35.509  23.783  1.00  0.00     0.015 C 
BRANCH   5   6
ATOM      6  C   UNL     1      18.718 -36.247  22.438  1.00  0.00     0.028 C 
BRANCH   6   7
ATOM      7  C   UNL     1      18.770 -35.275  21.281  1.00  0.00    -0.028 C 
ATOM      8  C   UNL     1      17.700 -34.759  20.636  1.00  0.00    -0.070 CG0
ATOM      9  C   UNL     1      17.954 -33.798  19.502  1.00  0.00     0.039 C 
ATOM     10  G   UNL     1      16.268 -35.126  20.975  1.00  0.00     0.000 G0
ENDBRANCH   6   7
ENDBRANCH   5   6
ENDBRANCH   3   5
ENDBRANCH   1   3
BRANCH   1  11
ATOM     11  C   UNL     1      15.358 -33.814  23.720  1.00  0.00     0.087 C 
BRANCH  11  12
ATOM     12  C   UNL     1      15.620 -33.029  22.410  1.00  0.00     0.066 C 
BRANCH  12  13
ATOM     13  C   UNL     1      15.404 -33.914  21.193  1.00  0.00     0.140 C 
ATOM     14  O   UNL     1      14.554 -33.614  20.366  1.00  0.00    -0.299 OA
BRANCH  13  15
ATOM     15  C   UNL     1      16.256 -35.132  20.949  1.00  0.00     0.106 CG0
ATOM     16  G   UNL     1      17.690 -34.738  20.654  1.00  0.00     0.000 G0
ENDBRANCH  13  15
ENDBRANCH  12  13
BRANCH  12  17
ATOM     17  C   UNL     1      14.775 -31.721  22.287  1.00  0.00    -0.006 C 
ATOM     18  C   UNL     1      14.014 -31.349  23.572  1.00  0.00     0.008 C 
ATOM     19  C   UNL     1      15.632 -30.533  21.819  1.00  0.00     0.008 C 
ENDBRANCH  12  17
ENDBRANCH  11  12
ENDBRANCH   1  11
TORSDOF 1
ENDMDL
MODEL 8
REMARK VINA RESULT:    -4.071      1.956      3.383
REMARK INTER + INTRA:          -6.162
REMARK INTER:                  -6.431
REMARK INTRA:                   0.269
REMARK UNBOUND:                 0.051
REMARK SMILES CC1=CCC[C@@H](C)C(=O)C[C@H](C(C)C)C(=O)C1
REMARK SMILES IDX 8 1 9 2 6 3 7 4 5 5 4 6 3 7 2 8 1 9 10 11 11 12 15 13 16 14
REMARK SMILES IDX 17 15 12 17 13 18 14 19
REMARK H PARENT
REMARK Flexibility Score: 70.00
ROOT
ATOM      1  C   UNL     1      13.723 -31.069  21.825  1.00  0.00     0.136 C 
ATOM      2  O   UNL     1      13.011 -31.620  20.998  1.00  0.00    -0.299 OA
ENDROOT
BRANCH   1   3
ATOM      3  C   UNL     1      13.212 -30.850  23.234  1.00  0.00     0.053 C 
ATOM      4  C   UNL     1      13.196 -29.349  23.539  1.00  0.00     0.016 C 
BRANCH   3   5
ATOM      5  C   UNL     1      14.071 -31.599  24.279  1.00  0.00     0.015 C 
BRANCH   5   6
ATOM      6  C   UNL     1      13.878 -33.123  24.243  1.00  0.00     0.028 C 
BRANCH   6   7
ATOM      7  C   UNL     1      15.197 -33.846  24.390  1.00  0.00    -0.028 C 
ATOM      8  C   UNL     1      15.983 -34.267  23.373  1.00  0.00    -0.070 CG0
ATOM      9  C   UNL     1      17.270 -34.973  23.719  1.00  0.00     0.039 C 
ATOM     10  G   UNL     1      15.615 -34.095  21.912  1.00  0.00     0.000 G0
ENDBRANCH   6   7
ENDBRANCH   5   6
ENDBRANCH   3   5
ENDBRANCH   1   3
BRANCH   1  11
ATOM     11  C   UNL     1      15.108 -30.634  21.422  1.00  0.00     0.087 C 
BRANCH  11  12
ATOM     12  C   UNL     1      16.201 -31.542  22.040  1.00  0.00     0.066 C 
BRANCH  12  13
ATOM     13  C   UNL     1      16.266 -32.880  21.323  1.00  0.00     0.140 C 
ATOM     14  O   UNL     1      16.882 -32.978  20.271  1.00  0.00    -0.299 OA
BRANCH  13  15
ATOM     15  C   UNL     1      15.630 -34.115  21.908  1.00  0.00     0.106 CG0
ATOM     16  G   UNL     1      16.006 -34.275  23.369  1.00  0.00     0.000 G0
ENDBRANCH  13  15
ENDBRANCH  12  13
BRANCH  12  17
ATOM     17  C   UNL     1      17.615 -30.879  22.079  1.00  0.00    -0.006 C 
ATOM     18  C   UNL     1      17.623 -29.404  21.641  1.00  0.00     0.008 C 
ATOM     19  C   UNL     1      18.270 -31.021  23.463  1.00  0.00     0.008 C 
ENDBRANCH  12  17
ENDBRANCH  11  12
ENDBRANCH   1  11
TORSDOF 1
ENDMDL
MODEL 9
REMARK VINA RESULT:    -3.934      1.835      4.179
REMARK INTER + INTRA:          -5.953
REMARK INTER:                  -5.803
REMARK INTRA:                  -0.149
REMARK UNBOUND:                 0.051
REMARK SMILES CC1=CCC[C@@H](C)C(=O)C[C@H](C(C)C)C(=O)C1
REMARK SMILES IDX 8 1 9 2 6 3 7 4 5 5 4 6 3 7 2 8 1 9 10 11 11 12 15 13 16 14
REMARK SMILES IDX 17 15 12 17 13 18 14 19
REMARK H PARENT
REMARK Flexibility Score: 70.00
ROOT
ATOM      1  C   UNL     1      15.928 -33.626  20.902  1.00  0.00     0.136 C 
ATOM      2  O   UNL     1      15.036 -34.351  20.484  1.00  0.00    -0.299 OA
ENDROOT
BRANCH   1   3
ATOM      3  C   UNL     1      17.355 -34.134  20.945  1.00  0.00     0.053 C 
ATOM      4  C   UNL     1      17.758 -34.629  19.552  1.00  0.00     0.016 C 
BRANCH   3   5
ATOM      5  C   UNL     1      17.531 -35.263  21.987  1.00  0.00     0.015 C 
BRANCH   5   6
ATOM      6  C   UNL     1      18.098 -34.770  23.327  1.00  0.00     0.028 C 
BRANCH   6   7
ATOM      7  C   UNL     1      19.221 -33.781  23.117  1.00  0.00    -0.028 C 
ATOM      8  C   UNL     1      19.218 -32.488  23.511  1.00  0.00    -0.070 CG0
ATOM      9  C   UNL     1      20.439 -31.654  23.213  1.00  0.00     0.039 C 
ATOM     10  G   UNL     1      18.038 -31.833  24.203  1.00  0.00     0.000 G0
ENDBRANCH   6   7
ENDBRANCH   5   6
ENDBRANCH   3   5
ENDBRANCH   1   3
BRANCH   1  11
ATOM     11  C   UNL     1      15.585 -32.229  21.351  1.00  0.00     0.087 C 
BRANCH  11  12
ATOM     12  C   UNL     1      15.765 -32.052  22.879  1.00  0.00     0.066 C 
BRANCH  12  13
ATOM     13  C   UNL     1      17.045 -31.295  23.191  1.00  0.00     0.140 C 
ATOM     14  O   UNL     1      17.266 -30.222  22.649  1.00  0.00    -0.299 OA
BRANCH  13  15
ATOM     15  C   UNL     1      18.034 -31.812  24.205  1.00  0.00     0.106 CG0
ATOM     16  G   UNL     1      19.208 -32.484  23.520  1.00  0.00     0.000 G0
ENDBRANCH  13  15
ENDBRANCH  12  13
BRANCH  12  17
ATOM     17  C   UNL     1      14.547 -31.366  23.576  1.00  0.00    -0.006 C 
ATOM     18  C   UNL     1      13.643 -30.575  22.613  1.00  0.00     0.008 C 
ATOM     19  C   UNL     1      13.707 -32.377  24.374  1.00  0.00     0.008 C 
ENDBRANCH  12  17
ENDBRANCH  11  12
ENDBRANCH   1  11
TORSDOF 1
ENDMDL
