MODEL 1
REMARK VINA RESULT:     1.092      0.000      0.000
REMARK INTER + INTRA:           1.504
REMARK INTER:                   1.315
REMARK INTRA:                   0.188
REMARK UNBOUND:                 0.188
REMARK SMILES Oc1cc(O)c2c(c1)O[C@H](c1ccc(O)c(O)c1)[C@@H](O)C2
REMARK SMILES IDX 21 1 19 2 10 3 9 4 7 5 8 6 2 7 3 8 4 9 6 10 20 11 11 13
REMARK SMILES IDX 18 14 12 15 16 16 13 17 14 18 17 19 15 21 5 23 1 25
REMARK H PARENT 20 12 17 20 15 22 5 24 1 26
REMARK Flexibility Score: inf
ROOT
ATOM      1  C   UNL     1       1.159  28.076  29.999  1.00  0.00     0.079 C 
ATOM      2  C   UNL     1       1.136  26.835  29.085  1.00  0.00     0.164 C 
ATOM      3  C   UNL     1      -0.108  25.975  29.385  1.00  0.00     0.232 C 
ATOM      4  O   UNL     1      -0.124  25.618  30.766  1.00  0.00    -0.482 OA
ATOM      5  C   UNL     1       0.274  26.504  31.772  1.00  0.00     0.131 A 
ATOM      6  C   UNL     1       0.054  26.155  33.108  1.00  0.00     0.093 A 
ATOM      7  C   UNL     1       0.427  27.027  34.136  1.00  0.00     0.122 A 
ATOM      8  C   UNL     1       1.014  28.256  33.826  1.00  0.00     0.092 A 
ATOM      9  C   UNL     1       1.243  28.622  32.494  1.00  0.00     0.126 A 
ATOM     10  C   UNL     1       0.907  27.727  31.451  1.00  0.00     0.039 A 
ENDROOT
BRANCH   2  11
ATOM     11  O   UNL     1       1.184  27.216  27.733  1.00  0.00    -0.389 OA
ATOM     12  H   UNL     1       0.323  26.954  27.315  1.00  0.00     0.211 HD
ENDBRANCH   2  11
BRANCH   3  13
ATOM     13  C   UNL     1      -0.124  24.724  28.536  1.00  0.00    -0.001 A 
ATOM     14  C   UNL     1      -0.088  23.454  29.135  1.00  0.00     0.057 A 
ATOM     15  C   UNL     1      -0.125  24.822  27.135  1.00  0.00     0.012 A 
ATOM     16  C   UNL     1      -0.074  22.294  28.345  1.00  0.00     0.157 A 
ATOM     17  C   UNL     1      -0.112  23.668  26.347  1.00  0.00     0.050 A 
ATOM     18  C   UNL     1      -0.088  22.404  26.945  1.00  0.00     0.157 A 
BRANCH  16  19
ATOM     19  O   UNL     1      -0.044  21.038  28.948  1.00  0.00    -0.504 OA
ATOM     20  H   UNL     1       0.823  20.528  29.072  1.00  0.00     0.293 HD
ENDBRANCH  16  19
BRANCH  18  21
ATOM     21  O   UNL     1      -0.076  21.270  26.132  1.00  0.00    -0.504 OA
ATOM     22  H   UNL     1       0.779  20.906  25.730  1.00  0.00     0.293 HD
ENDBRANCH  18  21
ENDBRANCH   3  13
BRANCH   9  23
ATOM     23  O   UNL     1       1.792  29.882  32.245  1.00  0.00    -0.507 OA
ATOM     24  H   UNL     1       1.766  30.332  31.340  1.00  0.00     0.293 HD
ENDBRANCH   9  23
BRANCH   7  25
ATOM     25  O   UNL     1       0.213  26.684  35.469  1.00  0.00    -0.508 OA
ATOM     26  H   UNL     1       0.934  26.238  36.024  1.00  0.00     0.293 HD
ENDBRANCH   7  25
TORSDOF 6
ENDMDL
MODEL 2
REMARK VINA RESULT:     1.152      1.566      6.945
REMARK INTER + INTRA:           1.576
REMARK INTER:                   1.184
REMARK INTRA:                   0.392
REMARK UNBOUND:                 0.188
REMARK SMILES Oc1cc(O)c2c(c1)O[C@H](c1ccc(O)c(O)c1)[C@@H](O)C2
REMARK SMILES IDX 21 1 19 2 10 3 9 4 7 5 8 6 2 7 3 8 4 9 6 10 20 11 11 13
REMARK SMILES IDX 18 14 12 15 16 16 13 17 14 18 17 19 15 21 5 23 1 25
REMARK H PARENT 20 12 17 20 15 22 5 24 1 26
REMARK Flexibility Score: inf
ROOT
ATOM      1  C   UNL     1       0.212  26.989  28.228  1.00  0.00     0.079 C 
ATOM      2  C   UNL     1      -0.040  27.763  29.537  1.00  0.00     0.164 C 
ATOM      3  C   UNL     1       0.807  27.167  30.680  1.00  0.00     0.232 C 
ATOM      4  O   UNL     1       0.516  25.777  30.819  1.00  0.00    -0.482 OA
ATOM      5  C   UNL     1       0.289  24.946  29.718  1.00  0.00     0.131 A 
ATOM      6  C   UNL     1       0.198  23.566  29.919  1.00  0.00     0.093 A 
ATOM      7  C   UNL     1      -0.014  22.707  28.835  1.00  0.00     0.122 A 
ATOM      8  C   UNL     1      -0.125  23.231  27.545  1.00  0.00     0.092 A 
ATOM      9  C   UNL     1      -0.036  24.611  27.324  1.00  0.00     0.126 A 
ATOM     10  C   UNL     1       0.135  25.488  28.422  1.00  0.00     0.039 A 
ENDROOT
BRANCH   2  11
ATOM     11  O   UNL     1       0.225  29.132  29.360  1.00  0.00    -0.389 OA
ATOM     12  H   UNL     1       1.199  29.270  29.492  1.00  0.00     0.211 HD
ENDBRANCH   2  11
BRANCH   3  13
ATOM     13  C   UNL     1       0.537  27.877  31.986  1.00  0.00    -0.001 A 
ATOM     14  C   UNL     1       0.319  29.265  32.013  1.00  0.00     0.057 A 
ATOM     15  C   UNL     1       0.551  27.162  33.195  1.00  0.00     0.012 A 
ATOM     16  C   UNL     1       0.096  29.928  33.229  1.00  0.00     0.157 A 
ATOM     17  C   UNL     1       0.329  27.821  34.407  1.00  0.00     0.050 A 
ATOM     18  C   UNL     1       0.099  29.200  34.431  1.00  0.00     0.157 A 
BRANCH  16  19
ATOM     19  O   UNL     1      -0.125  31.304  33.246  1.00  0.00    -0.504 OA
ATOM     20  H   UNL     1       0.601  31.956  33.519  1.00  0.00     0.293 HD
ENDBRANCH  16  19
BRANCH  18  21
ATOM     21  O   UNL     1      -0.120  29.830  35.656  1.00  0.00    -0.504 OA
ATOM     22  H   UNL     1      -0.604  30.717  35.725  1.00  0.00     0.293 HD
ENDBRANCH  18  21
ENDBRANCH   3  13
BRANCH   9  23
ATOM     23  O   UNL     1      -0.111  25.071  26.008  1.00  0.00    -0.507 OA
ATOM     24  H   UNL     1      -0.818  25.716  25.683  1.00  0.00     0.293 HD
ENDBRANCH   9  23
BRANCH   7  25
ATOM     25  O   UNL     1      -0.108  21.330  29.028  1.00  0.00    -0.508 OA
ATOM     26  H   UNL     1       0.309  20.879  29.833  1.00  0.00     0.293 HD
ENDBRANCH   7  25
TORSDOF 6
ENDMDL
