MODEL 1
REMARK VINA RESULT:    66.064      0.000      0.000
REMARK INTER + INTRA:         108.196
REMARK INTER:                 104.684
REMARK INTRA:                   3.511
REMARK UNBOUND:                 3.511
REMARK SMILES C[C@H]1O[C@@H](O[C@H]2CC[C@@]3(C)[C@@H](CC[C@@]4(C)[C@H]3C=C[C@@]35OC[C@]6(CCC(C)(C)C[C@H]63)[C@@H](O)C[C@@]45C)[C@@]2(C)CO)[C@H](O)[C@H](O[C@@H]2O[C@H](CO)[C@@H](O)[C@@H](O)[C@H]2O)[C@@H]1O
REMARK SMILES IDX 1 1 2 2 54 3 41 4 39 5 4 6 3 7 55 8 42 10 43 11 52 12 44 13
REMARK SMILES IDX 50 14 45 15 48 16 53 17 51 19 46 21 47 22 49 24 5 26 6 27
REMARK SMILES IDX 7 28 35 29 8 30 11 31 36 32 9 33 12 34 10 35 16 36 13 37
REMARK SMILES IDX 14 38 17 39 15 40 33 41 18 42 19 43 32 44 34 45 29 46 20 47
REMARK SMILES IDX 30 48 22 49 28 50 21 51 23 52 25 53 24 54 26 55 27 56 37 57
REMARK SMILES IDX 38 58 31 60 40 62
REMARK H PARENT 55 9 53 18 51 20 47 23 49 25 38 59 31 61 40 63
REMARK Flexibility Score: inf
ROOT
ATOM      1  C   UNL     1      13.741  22.739   8.954  1.00  0.00     0.041 C 
ATOM      2  C   UNL     1      14.280  21.359   9.283  1.00  0.00     0.150 C 
ATOM      3  C   UNL     1      15.795  21.385   9.619  1.00  0.00     0.175 C 
ATOM      4  C   UNL     1      16.613  21.413   8.292  1.00  0.00     0.186 C 
ATOM      5  C   UNL     1      16.176  20.298   7.337  1.00  0.00     0.202 C 
ATOM      6  C   UNL     1      14.649  20.381   7.091  1.00  0.00     0.282 C 
ATOM      7  O   UNL     1      13.909  20.383   8.308  1.00  0.00    -0.344 OA
ENDROOT
BRANCH   3   8
ATOM      8  O   UNL     1      16.067  20.282  10.450  1.00  0.00    -0.388 OA
ATOM      9  H   UNL     1      15.210  19.875  10.704  1.00  0.00     0.211 HD
ENDBRANCH   3   8
BRANCH   4  10
ATOM     10  O   UNL     1      18.018  21.667   8.290  1.00  0.00    -0.341 OA
BRANCH  10  11
ATOM     11  C   UNL     1      18.603  22.643   9.131  1.00  0.00     0.282 C 
ATOM     12  C   UNL     1      19.413  21.893  10.213  1.00  0.00     0.202 C 
ATOM     13  O   UNL     1      19.383  23.598   8.457  1.00  0.00    -0.341 OA
ATOM     14  C   UNL     1      20.457  22.819  10.897  1.00  0.00     0.179 C 
ATOM     15  C   UNL     1      19.821  24.689   9.287  1.00  0.00     0.178 C 
ATOM     16  C   UNL     1      20.041  24.309  10.787  1.00  0.00     0.177 C 
BRANCH  12  17
ATOM     17  O   UNL     1      18.563  21.307  11.192  1.00  0.00    -0.385 OA
ATOM     18  H   UNL     1      17.748  21.866  11.269  1.00  0.00     0.211 HD
ENDBRANCH  12  17
BRANCH  14  19
ATOM     19  O   UNL     1      20.672  22.428  12.225  1.00  0.00    -0.387 OA
ATOM     20  H   UNL     1      20.029  21.692  12.432  1.00  0.00     0.211 HD
ENDBRANCH  14  19
BRANCH  15  21
ATOM     21  C   UNL     1      21.118  25.227   8.657  1.00  0.00     0.191 C 
BRANCH  21  22
ATOM     22  O   UNL     1      20.912  26.228   7.694  1.00  0.00    -0.394 OA
ATOM     23  H   UNL     1      20.544  27.025   8.167  1.00  0.00     0.210 HD
ENDBRANCH  21  22
ENDBRANCH  15  21
BRANCH  16  24
ATOM     24  O   UNL     1      18.902  24.635  11.572  1.00  0.00    -0.387 OA
ATOM     25  H   UNL     1      18.873  25.612  11.714  1.00  0.00     0.211 HD
ENDBRANCH  16  24
ENDBRANCH  10  11
ENDBRANCH   4  10
BRANCH   6  26
ATOM     26  O   UNL     1      14.314  21.516   6.278  1.00  0.00    -0.346 OA
BRANCH  26  27
ATOM     27  C   UNL     1      12.912  21.635   5.973  1.00  0.00     0.130 C 
ATOM     28  C   UNL     1      12.610  22.975   5.218  1.00  0.00     0.033 C 
ATOM     29  C   UNL     1      12.384  20.364   5.213  1.00  0.00     0.020 C 
ATOM     30  C   UNL     1      12.266  22.859   3.710  1.00  0.00     0.010 C 
ATOM     31  C   UNL     1      12.740  20.372   3.642  1.00  0.00     0.006 C 
ATOM     32  C   UNL     1      10.824  20.369   5.397  1.00  0.00     0.017 C 
ATOM     33  C   UNL     1      13.093  21.762   3.007  1.00  0.00    -0.022 C 
ATOM     34  C   UNL     1      13.695  19.268   3.084  1.00  0.00     0.005 C 
ATOM     35  C   UNL     1      14.608  22.116   3.230  1.00  0.00     0.012 C 
ATOM     36  C   UNL     1      12.849  21.699   1.432  1.00  0.00     0.024 C 
ATOM     37  C   UNL     1      14.138  19.477   1.606  1.00  0.00     0.008 C 
ATOM     38  C   UNL     1      13.113  20.293   0.748  1.00  0.00    -0.017 C 
ATOM     39  C   UNL     1      11.592  22.261   0.804  1.00  0.00    -0.024 C 
ATOM     40  C   UNL     1      11.783  19.417   0.675  1.00  0.00     0.013 C 
ATOM     41  C   UNL     1      13.614  20.593  -0.757  1.00  0.00     0.009 C 
ATOM     42  C   UNL     1      11.498  22.171  -0.549  1.00  0.00     0.005 C 
ATOM     43  C   UNL     1      12.738  21.809  -1.396  1.00  0.00     0.096 C 
ATOM     44  C   UNL     1      15.140  20.978  -0.820  1.00  0.00     0.043 C 
ATOM     45  C   UNL     1      13.521  19.281  -1.608  1.00  0.00     0.015 C 
ATOM     46  C   UNL     1      13.571  23.106  -1.601  1.00  0.00     0.037 C 
ATOM     47  O   UNL     1      12.342  21.428  -2.705  1.00  0.00    -0.369 OA
ATOM     48  C   UNL     1      15.550  21.649  -2.173  1.00  0.00     0.124 C 
ATOM     49  C   UNL     1      14.444  22.642  -2.748  1.00  0.00     0.026 C 
ATOM     50  C   UNL     1      12.686  24.340  -1.939  1.00  0.00     0.014 C 
ATOM     51  C   UNL     1      13.379  21.863  -3.572  1.00  0.00     0.171 C 
ATOM     52  C   UNL     1      15.093  23.791  -3.583  1.00  0.00     0.013 C 
ATOM     53  C   UNL     1      13.493  25.504  -2.549  1.00  0.00    -0.035 C 
ATOM     54  C   UNL     1      14.173  24.999  -3.837  1.00  0.00     0.007 C 
ATOM     55  C   UNL     1      12.517  26.638  -2.910  1.00  0.00     0.011 C 
ATOM     56  C   UNL     1      14.532  26.059  -1.543  1.00  0.00     0.011 C 
BRANCH  29  57
ATOM     57  C   UNL     1      12.880  19.086   5.968  1.00  0.00     0.165 C 
BRANCH  57  58
ATOM     58  O   UNL     1      14.272  18.912   5.897  1.00  0.00    -0.396 OA
ATOM     59  H   UNL     1      14.464  17.953   5.765  1.00  0.00     0.210 HD
ENDBRANCH  57  58
ENDBRANCH  29  57
BRANCH  48  60
ATOM     60  O   UNL     1      16.800  22.268  -2.016  1.00  0.00    -0.392 OA
ATOM     61  H   UNL     1      16.743  23.177  -2.406  1.00  0.00     0.210 HD
ENDBRANCH  48  60
ENDBRANCH  26  27
ENDBRANCH   6  26
BRANCH   5  62
ATOM     62  O   UNL     1      16.503  19.043   7.868  1.00  0.00    -0.385 OA
ATOM     63  H   UNL     1      16.474  18.393   7.121  1.00  0.00     0.211 HD
ENDBRANCH   5  62
TORSDOF 14
ENDMDL
