MODEL 1
REMARK VINA RESULT:    -7.723      0.000      0.000
REMARK INTER + INTRA:          -9.471
REMARK INTER:                  -9.304
REMARK INTRA:                  -0.167
REMARK UNBOUND:                -0.167
REMARK SMILES O=c1c(O)c(-c2ccc(O)c(O)c2)oc2cc(O)cc(O)c12
REMARK SMILES IDX 5 1 3 2 2 3 1 4 22 5 20 6 19 7 17 8 16 9 15 10 14 11 6 12
REMARK SMILES IDX 7 13 8 14 9 15 13 16 11 17 10 18 12 20 4 22 21 24 18 26
REMARK H PARENT 10 19 12 21 4 23 21 25 18 27
REMARK Flexibility Score: inf
ROOT
ATOM      1  C   UNL     1     -15.382   8.562 -12.412  1.00  0.00     0.180 A 
ATOM      2  C   UNL     1     -16.549   8.507 -11.629  1.00  0.00     0.208 A 
ATOM      3  C   UNL     1     -17.745   8.070 -12.221  1.00  0.00     0.238 A 
ATOM      4  O   UNL     1     -18.797   8.075 -11.530  1.00  0.00    -0.285 OA
ATOM      5  C   UNL     1     -17.756   7.676 -13.581  1.00  0.00     0.111 A 
ATOM      6  C   UNL     1     -18.902   7.179 -14.271  1.00  0.00     0.134 A 
ATOM      7  C   UNL     1     -18.830   6.944 -15.650  1.00  0.00     0.093 A 
ATOM      8  C   UNL     1     -17.635   7.126 -16.350  1.00  0.00     0.123 A 
ATOM      9  C   UNL     1     -16.495   7.555 -15.673  1.00  0.00     0.094 A 
ATOM     10  C   UNL     1     -16.545   7.832 -14.305  1.00  0.00     0.146 A 
ATOM     11  O   UNL     1     -15.439   8.249 -13.701  1.00  0.00    -0.452 OA
ENDROOT
BRANCH   1  12
ATOM     12  C   UNL     1     -14.079   8.988 -11.854  1.00  0.00     0.025 A 
ATOM     13  C   UNL     1     -13.471   8.216 -10.852  1.00  0.00     0.016 A 
ATOM     14  C   UNL     1     -12.251   8.610 -10.296  1.00  0.00     0.051 A 
ATOM     15  C   UNL     1     -11.628   9.787 -10.721  1.00  0.00     0.157 A 
ATOM     16  C   UNL     1     -13.460  10.182 -12.266  1.00  0.00     0.062 A 
ATOM     17  C   UNL     1     -12.236  10.580 -11.707  1.00  0.00     0.158 A 
BRANCH  15  18
ATOM     18  O   UNL     1     -10.410  10.153 -10.150  1.00  0.00    -0.504 OA
ATOM     19  H   UNL     1     -10.268  11.060  -9.720  1.00  0.00     0.293 HD
ENDBRANCH  15  18
BRANCH  17  20
ATOM     20  O   UNL     1     -11.627  11.763 -12.125  1.00  0.00    -0.504 OA
ATOM     21  H   UNL     1     -11.642  12.599 -11.553  1.00  0.00     0.293 HD
ENDBRANCH  17  20
ENDBRANCH   1  12
BRANCH   2  22
ATOM     22  O   UNL     1     -16.520   8.921 -10.295  1.00  0.00    -0.502 OA
ATOM     23  H   UNL     1     -17.319   8.827  -9.679  1.00  0.00     0.293 HD
ENDBRANCH   2  22
BRANCH   6  24
ATOM     24  O   UNL     1     -20.116   6.875 -13.649  1.00  0.00    -0.507 OA
ATOM     25  H   UNL     1     -20.686   6.071 -13.862  1.00  0.00     0.293 HD
ENDBRANCH   6  24
BRANCH   8  26
ATOM     26  O   UNL     1     -17.567   6.875 -17.719  1.00  0.00    -0.508 OA
ATOM     27  H   UNL     1     -16.778   7.183 -18.274  1.00  0.00     0.293 HD
ENDBRANCH   8  26
TORSDOF 6
ENDMDL
MODEL 2
REMARK VINA RESULT:    -7.306      0.579      1.440
REMARK INTER + INTRA:          -8.969
REMARK INTER:                  -8.781
REMARK INTRA:                  -0.188
REMARK UNBOUND:                -0.167
REMARK SMILES O=c1c(O)c(-c2ccc(O)c(O)c2)oc2cc(O)cc(O)c12
REMARK SMILES IDX 5 1 3 2 2 3 1 4 22 5 20 6 19 7 17 8 16 9 15 10 14 11 6 12
REMARK SMILES IDX 7 13 8 14 9 15 13 16 11 17 10 18 12 20 4 22 21 24 18 26
REMARK H PARENT 10 19 12 21 4 23 21 25 18 27
REMARK Flexibility Score: inf
ROOT
ATOM      1  C   UNL     1     -15.455   8.627 -12.505  1.00  0.00     0.180 A 
ATOM      2  C   UNL     1     -16.637   8.564 -11.747  1.00  0.00     0.208 A 
ATOM      3  C   UNL     1     -17.815   8.110 -12.360  1.00  0.00     0.238 A 
ATOM      4  O   UNL     1     -18.882   8.107 -11.692  1.00  0.00    -0.285 OA
ATOM      5  C   UNL     1     -17.794   7.707 -13.717  1.00  0.00     0.111 A 
ATOM      6  C   UNL     1     -18.920   7.193 -14.428  1.00  0.00     0.134 A 
ATOM      7  C   UNL     1     -18.816   6.950 -15.804  1.00  0.00     0.093 A 
ATOM      8  C   UNL     1     -17.609   7.142 -16.480  1.00  0.00     0.123 A 
ATOM      9  C   UNL     1     -16.489   7.588 -15.782  1.00  0.00     0.094 A 
ATOM     10  C   UNL     1     -16.570   7.873 -14.417  1.00  0.00     0.146 A 
ATOM     11  O   UNL     1     -15.482   8.306 -13.793  1.00  0.00    -0.452 OA
ENDROOT
BRANCH   1  12
ATOM     12  C   UNL     1     -14.168   9.071 -11.923  1.00  0.00     0.025 A 
ATOM     13  C   UNL     1     -13.536  10.214 -12.435  1.00  0.00     0.016 A 
ATOM     14  C   UNL     1     -12.312  10.640 -11.914  1.00  0.00     0.051 A 
ATOM     15  C   UNL     1     -11.693   9.923 -10.886  1.00  0.00     0.157 A 
ATOM     16  C   UNL     1     -13.535   8.339 -10.902  1.00  0.00     0.062 A 
ATOM     17  C   UNL     1     -12.303   8.764 -10.380  1.00  0.00     0.158 A 
BRANCH  15  18
ATOM     18  O   UNL     1     -10.472  10.373 -10.385  1.00  0.00    -0.504 OA
ATOM     19  H   UNL     1     -10.317  11.342 -10.133  1.00  0.00     0.293 HD
ENDBRANCH  15  18
BRANCH  17  20
ATOM     20  O   UNL     1     -11.685   8.036  -9.364  1.00  0.00    -0.504 OA
ATOM     21  H   UNL     1     -12.218   7.451  -8.730  1.00  0.00     0.293 HD
ENDBRANCH  17  20
ENDBRANCH   1  12
BRANCH   2  22
ATOM     22  O   UNL     1     -16.641   8.986 -10.414  1.00  0.00    -0.502 OA
ATOM     23  H   UNL     1     -16.500   8.347  -9.641  1.00  0.00     0.293 HD
ENDBRANCH   2  22
BRANCH   6  24
ATOM     24  O   UNL     1     -20.143   6.879 -13.829  1.00  0.00    -0.507 OA
ATOM     25  H   UNL     1     -20.667   7.499 -13.231  1.00  0.00     0.293 HD
ENDBRANCH   6  24
BRANCH   8  26
ATOM     26  O   UNL     1     -17.510   6.883 -17.845  1.00  0.00    -0.508 OA
ATOM     27  H   UNL     1     -17.394   5.941 -18.198  1.00  0.00     0.293 HD
ENDBRANCH   8  26
TORSDOF 6
ENDMDL
MODEL 3
REMARK VINA RESULT:    -7.075      1.715      7.654
REMARK INTER + INTRA:          -8.690
REMARK INTER:                  -8.432
REMARK INTRA:                  -0.258
REMARK UNBOUND:                -0.167
REMARK SMILES O=c1c(O)c(-c2ccc(O)c(O)c2)oc2cc(O)cc(O)c12
REMARK SMILES IDX 5 1 3 2 2 3 1 4 22 5 20 6 19 7 17 8 16 9 15 10 14 11 6 12
REMARK SMILES IDX 7 13 8 14 9 15 13 16 11 17 10 18 12 20 4 22 21 24 18 26
REMARK H PARENT 10 19 12 21 4 23 21 25 18 27
REMARK Flexibility Score: inf
ROOT
ATOM      1  C   UNL     1     -13.929   9.017 -11.377  1.00  0.00     0.180 A 
ATOM      2  C   UNL     1     -13.313  10.190 -11.848  1.00  0.00     0.208 A 
ATOM      3  C   UNL     1     -12.118  10.619 -11.248  1.00  0.00     0.238 A 
ATOM      4  O   UNL     1     -11.601  11.699 -11.636  1.00  0.00    -0.285 OA
ATOM      5  C   UNL     1     -11.544   9.861 -10.199  1.00  0.00     0.111 A 
ATOM      6  C   UNL     1     -10.316  10.180  -9.547  1.00  0.00     0.134 A 
ATOM      7  C   UNL     1      -9.910   9.433  -8.434  1.00  0.00     0.093 A 
ATOM      8  C   UNL     1     -10.656   8.338  -7.990  1.00  0.00     0.123 A 
ATOM      9  C   UNL     1     -11.826   7.983  -8.657  1.00  0.00     0.094 A 
ATOM     10  C   UNL     1     -12.275   8.731  -9.749  1.00  0.00     0.146 A 
ATOM     11  O   UNL     1     -13.401   8.365 -10.348  1.00  0.00    -0.452 OA
ENDROOT
BRANCH   1  12
ATOM     12  C   UNL     1     -15.176   8.488 -11.975  1.00  0.00     0.025 A 
ATOM     13  C   UNL     1     -15.131   7.873 -13.235  1.00  0.00     0.016 A 
ATOM     14  C   UNL     1     -16.299   7.385 -13.827  1.00  0.00     0.051 A 
ATOM     15  C   UNL     1     -17.530   7.517 -13.177  1.00  0.00     0.157 A 
ATOM     16  C   UNL     1     -16.418   8.639 -11.331  1.00  0.00     0.062 A 
ATOM     17  C   UNL     1     -17.592   8.151 -11.926  1.00  0.00     0.158 A 
BRANCH  15  18
ATOM     18  O   UNL     1     -18.678   7.019 -13.791  1.00  0.00    -0.504 OA
ATOM     19  H   UNL     1     -18.883   7.188 -14.769  1.00  0.00     0.293 HD
ENDBRANCH  15  18
BRANCH  17  20
ATOM     20  O   UNL     1     -18.818   8.299 -11.278  1.00  0.00    -0.504 OA
ATOM     21  H   UNL     1     -19.591   7.668 -11.454  1.00  0.00     0.293 HD
ENDBRANCH  17  20
ENDBRANCH   1  12
BRANCH   2  22
ATOM     22  O   UNL     1     -13.908  10.935 -12.870  1.00  0.00    -0.502 OA
ATOM     23  H   UNL     1     -14.075  10.554 -13.794  1.00  0.00     0.293 HD
ENDBRANCH   2  22
BRANCH   6  24
ATOM     24  O   UNL     1      -9.450  11.194  -9.967  1.00  0.00    -0.507 OA
ATOM     25  H   UNL     1      -8.494  11.052 -10.252  1.00  0.00     0.293 HD
ENDBRANCH   6  24
BRANCH   8  26
ATOM     26  O   UNL     1     -10.237   7.590  -6.892  1.00  0.00    -0.508 OA
ATOM     27  H   UNL     1     -10.662   6.699  -6.667  1.00  0.00     0.293 HD
ENDBRANCH   8  26
TORSDOF 6
ENDMDL
MODEL 4
REMARK VINA RESULT:    -6.771      2.332      7.940
REMARK INTER + INTRA:          -8.324
REMARK INTER:                  -8.089
REMARK INTRA:                  -0.234
REMARK UNBOUND:                -0.167
REMARK SMILES O=c1c(O)c(-c2ccc(O)c(O)c2)oc2cc(O)cc(O)c12
REMARK SMILES IDX 5 1 3 2 2 3 1 4 22 5 20 6 19 7 17 8 16 9 15 10 14 11 6 12
REMARK SMILES IDX 7 13 8 14 9 15 13 16 11 17 10 18 12 20 4 22 21 24 18 26
REMARK H PARENT 10 19 12 21 4 23 21 25 18 27
REMARK Flexibility Score: inf
ROOT
ATOM      1  C   UNL     1     -12.996   9.341 -10.681  1.00  0.00     0.180 A 
ATOM      2  C   UNL     1     -12.112   8.516  -9.963  1.00  0.00     0.208 A 
ATOM      3  C   UNL     1     -10.912   9.062  -9.481  1.00  0.00     0.238 A 
ATOM      4  O   UNL     1     -10.100   8.305  -8.887  1.00  0.00    -0.285 OA
ATOM      5  C   UNL     1     -10.618  10.428  -9.706  1.00  0.00     0.111 A 
ATOM      6  C   UNL     1      -9.450  11.096  -9.230  1.00  0.00     0.134 A 
ATOM      7  C   UNL     1      -9.199  12.416  -9.623  1.00  0.00     0.093 A 
ATOM      8  C   UNL     1     -10.106  13.113 -10.425  1.00  0.00     0.123 A 
ATOM      9  C   UNL     1     -11.278  12.489 -10.847  1.00  0.00     0.094 A 
ATOM     10  C   UNL     1     -11.539  11.161 -10.500  1.00  0.00     0.146 A 
ATOM     11  O   UNL     1     -12.661  10.601 -10.933  1.00  0.00    -0.452 OA
ENDROOT
BRANCH   1  12
ATOM     12  C   UNL     1     -14.291   8.846 -11.199  1.00  0.00     0.025 A 
ATOM     13  C   UNL     1     -14.495   8.763 -12.584  1.00  0.00     0.016 A 
ATOM     14  C   UNL     1     -15.717   8.318 -13.095  1.00  0.00     0.051 A 
ATOM     15  C   UNL     1     -16.757   7.962 -12.232  1.00  0.00     0.157 A 
ATOM     16  C   UNL     1     -15.346   8.508 -10.331  1.00  0.00     0.062 A 
ATOM     17  C   UNL     1     -16.574   8.062 -10.843  1.00  0.00     0.158 A 
BRANCH  15  18
ATOM     18  O   UNL     1     -17.964   7.519 -12.770  1.00  0.00    -0.504 OA
ATOM     19  H   UNL     1     -18.125   7.475 -13.769  1.00  0.00     0.293 HD
ENDBRANCH  15  18
BRANCH  17  20
ATOM     20  O   UNL     1     -17.613   7.723  -9.976  1.00  0.00    -0.504 OA
ATOM     21  H   UNL     1     -17.659   6.811  -9.535  1.00  0.00     0.293 HD
ENDBRANCH  17  20
ENDBRANCH   1  12
BRANCH   2  22
ATOM     22  O   UNL     1     -12.412   7.165  -9.770  1.00  0.00    -0.502 OA
ATOM     23  H   UNL     1     -12.431   6.498 -10.533  1.00  0.00     0.293 HD
ENDBRANCH   2  22
BRANCH   6  24
ATOM     24  O   UNL     1      -8.528  10.521  -8.350  1.00  0.00    -0.507 OA
ATOM     25  H   UNL     1      -7.593  10.238  -8.601  1.00  0.00     0.293 HD
ENDBRANCH   6  24
BRANCH   8  26
ATOM     26  O   UNL     1      -9.856  14.432 -10.800  1.00  0.00    -0.508 OA
ATOM     27  H   UNL     1     -10.427  15.196 -10.458  1.00  0.00     0.293 HD
ENDBRANCH   8  26
TORSDOF 6
ENDMDL
MODEL 5
REMARK VINA RESULT:    -6.535      1.648      3.517
REMARK INTER + INTRA:          -8.040
REMARK INTER:                  -7.803
REMARK INTRA:                  -0.237
REMARK UNBOUND:                -0.167
REMARK SMILES O=c1c(O)c(-c2ccc(O)c(O)c2)oc2cc(O)cc(O)c12
REMARK SMILES IDX 5 1 3 2 2 3 1 4 22 5 20 6 19 7 17 8 16 9 15 10 14 11 6 12
REMARK SMILES IDX 7 13 8 14 9 15 13 16 11 17 10 18 12 20 4 22 21 24 18 26
REMARK H PARENT 10 19 12 21 4 23 21 25 18 27
REMARK Flexibility Score: inf
ROOT
ATOM      1  C   UNL     1     -15.872   8.435 -11.821  1.00  0.00     0.180 A 
ATOM      2  C   UNL     1     -16.300   7.988 -13.083  1.00  0.00     0.208 A 
ATOM      3  C   UNL     1     -17.663   7.720 -13.284  1.00  0.00     0.238 A 
ATOM      4  O   UNL     1     -18.032   7.268 -14.400  1.00  0.00    -0.285 OA
ATOM      5  C   UNL     1     -18.584   7.919 -12.228  1.00  0.00     0.111 A 
ATOM      6  C   UNL     1     -19.993   7.717 -12.331  1.00  0.00     0.134 A 
ATOM      7  C   UNL     1     -20.792   7.818 -11.185  1.00  0.00     0.093 A 
ATOM      8  C   UNL     1     -20.241   8.177  -9.953  1.00  0.00     0.123 A 
ATOM      9  C   UNL     1     -18.875   8.433  -9.854  1.00  0.00     0.094 A 
ATOM     10  C   UNL     1     -18.047   8.306 -10.972  1.00  0.00     0.146 A 
ATOM     11  O   UNL     1     -16.750   8.548 -10.831  1.00  0.00    -0.452 OA
ENDROOT
BRANCH   1  12
ATOM     12  C   UNL     1     -14.456   8.762 -11.539  1.00  0.00     0.025 A 
ATOM     13  C   UNL     1     -13.731   7.971 -10.635  1.00  0.00     0.016 A 
ATOM     14  C   UNL     1     -12.399   8.273 -10.339  1.00  0.00     0.051 A 
ATOM     15  C   UNL     1     -11.777   9.377 -10.929  1.00  0.00     0.157 A 
ATOM     16  C   UNL     1     -13.835   9.884 -12.117  1.00  0.00     0.062 A 
ATOM     17  C   UNL     1     -12.498  10.191 -11.818  1.00  0.00     0.158 A 
BRANCH  15  18
ATOM     18  O   UNL     1     -10.447   9.653 -10.617  1.00  0.00    -0.504 OA
ATOM     19  H   UNL     1      -9.783   8.922 -10.392  1.00  0.00     0.293 HD
ENDBRANCH  15  18
BRANCH  17  20
ATOM     20  O   UNL     1     -11.888  11.302 -12.400  1.00  0.00    -0.504 OA
ATOM     21  H   UNL     1     -11.359  11.227 -13.262  1.00  0.00     0.293 HD
ENDBRANCH  17  20
ENDBRANCH   1  12
BRANCH   2  22
ATOM     22  O   UNL     1     -15.371   7.777 -14.106  1.00  0.00    -0.502 OA
ATOM     23  H   UNL     1     -14.540   7.211 -13.979  1.00  0.00     0.293 HD
ENDBRANCH   2  22
BRANCH   6  24
ATOM     24  O   UNL     1     -20.656   7.447 -13.532  1.00  0.00    -0.507 OA
ATOM     25  H   UNL     1     -21.545   7.841 -13.800  1.00  0.00     0.293 HD
ENDBRANCH   6  24
BRANCH   8  26
ATOM     26  O   UNL     1     -21.045   8.290  -8.820  1.00  0.00    -0.508 OA
ATOM     27  H   UNL     1     -20.644   8.405  -7.897  1.00  0.00     0.293 HD
ENDBRANCH   8  26
TORSDOF 6
ENDMDL
MODEL 6
REMARK VINA RESULT:    -6.426      3.244      5.572
REMARK INTER + INTRA:          -7.908
REMARK INTER:                  -7.685
REMARK INTRA:                  -0.223
REMARK UNBOUND:                -0.167
REMARK SMILES O=c1c(O)c(-c2ccc(O)c(O)c2)oc2cc(O)cc(O)c12
REMARK SMILES IDX 5 1 3 2 2 3 1 4 22 5 20 6 19 7 17 8 16 9 15 10 14 11 6 12
REMARK SMILES IDX 7 13 8 14 9 15 13 16 11 17 10 18 12 20 4 22 21 24 18 26
REMARK H PARENT 10 19 12 21 4 23 21 25 18 27
REMARK Flexibility Score: inf
ROOT
ATOM      1  C   UNL     1     -12.070  10.060 -10.148  1.00  0.00     0.180 A 
ATOM      2  C   UNL     1     -12.586  10.094 -11.456  1.00  0.00     0.208 A 
ATOM      3  C   UNL     1     -13.830   9.497 -11.713  1.00  0.00     0.238 A 
ATOM      4  O   UNL     1     -14.261   9.483 -12.896  1.00  0.00    -0.285 OA
ATOM      5  C   UNL     1     -14.552   8.888 -10.658  1.00  0.00     0.111 A 
ATOM      6  C   UNL     1     -15.839   8.288 -10.797  1.00  0.00     0.134 A 
ATOM      7  C   UNL     1     -16.402   7.601  -9.714  1.00  0.00     0.093 A 
ATOM      8  C   UNL     1     -15.752   7.548  -8.478  1.00  0.00     0.123 A 
ATOM      9  C   UNL     1     -14.521   8.181  -8.317  1.00  0.00     0.094 A 
ATOM     10  C   UNL     1     -13.918   8.844  -9.388  1.00  0.00     0.146 A 
ATOM     11  O   UNL     1     -12.740   9.424  -9.194  1.00  0.00    -0.452 OA
ENDROOT
BRANCH   1  12
ATOM     12  C   UNL     1     -10.778  10.689  -9.794  1.00  0.00     0.025 A 
ATOM     13  C   UNL     1     -10.669  12.088  -9.792  1.00  0.00     0.016 A 
ATOM     14  C   UNL     1      -9.454  12.702  -9.481  1.00  0.00     0.051 A 
ATOM     15  C   UNL     1      -8.327  11.931  -9.182  1.00  0.00     0.157 A 
ATOM     16  C   UNL     1      -9.638   9.914  -9.513  1.00  0.00     0.062 A 
ATOM     17  C   UNL     1      -8.416  10.530  -9.203  1.00  0.00     0.158 A 
BRANCH  15  18
ATOM     18  O   UNL     1      -7.128  12.572  -8.873  1.00  0.00    -0.504 OA
ATOM     19  H   UNL     1      -6.313  12.065  -8.550  1.00  0.00     0.293 HD
ENDBRANCH  15  18
BRANCH  17  20
ATOM     20  O   UNL     1      -7.293   9.754  -8.920  1.00  0.00    -0.504 OA
ATOM     21  H   UNL     1      -7.081   8.915  -9.448  1.00  0.00     0.293 HD
ENDBRANCH  17  20
ENDBRANCH   1  12
BRANCH   2  22
ATOM     22  O   UNL     1     -11.847  10.681 -12.487  1.00  0.00    -0.502 OA
ATOM     23  H   UNL     1     -11.409  11.589 -12.394  1.00  0.00     0.293 HD
ENDBRANCH   2  22
BRANCH   6  24
ATOM     24  O   UNL     1     -16.613   8.364 -11.958  1.00  0.00    -0.507 OA
ATOM     25  H   UNL     1     -16.343   8.849 -12.800  1.00  0.00     0.293 HD
ENDBRANCH   6  24
BRANCH   8  26
ATOM     26  O   UNL     1     -16.325   6.875  -7.402  1.00  0.00    -0.508 OA
ATOM     27  H   UNL     1     -15.795   6.210  -6.851  1.00  0.00     0.293 HD
ENDBRANCH   8  26
TORSDOF 6
ENDMDL
MODEL 7
REMARK VINA RESULT:    -6.404      3.720      9.664
REMARK INTER + INTRA:          -7.881
REMARK INTER:                  -7.616
REMARK INTRA:                  -0.265
REMARK UNBOUND:                -0.167
REMARK SMILES O=c1c(O)c(-c2ccc(O)c(O)c2)oc2cc(O)cc(O)c12
REMARK SMILES IDX 5 1 3 2 2 3 1 4 22 5 20 6 19 7 17 8 16 9 15 10 14 11 6 12
REMARK SMILES IDX 7 13 8 14 9 15 13 16 11 17 10 18 12 20 4 22 21 24 18 26
REMARK H PARENT 10 19 12 21 4 23 21 25 18 27
REMARK Flexibility Score: inf
ROOT
ATOM      1  C   UNL     1     -10.888  11.003  -9.839  1.00  0.00     0.180 A 
ATOM      2  C   UNL     1      -9.657  10.358  -9.626  1.00  0.00     0.208 A 
ATOM      3  C   UNL     1      -8.657  11.024  -8.900  1.00  0.00     0.238 A 
ATOM      4  O   UNL     1      -7.538  10.465  -8.759  1.00  0.00    -0.285 OA
ATOM      5  C   UNL     1      -8.905  12.318  -8.380  1.00  0.00     0.111 A 
ATOM      6  C   UNL     1      -7.979  13.069  -7.596  1.00  0.00     0.134 A 
ATOM      7  C   UNL     1      -8.282  14.390  -7.246  1.00  0.00     0.093 A 
ATOM      8  C   UNL     1      -9.505  14.966  -7.597  1.00  0.00     0.123 A 
ATOM      9  C   UNL     1     -10.440  14.221  -8.312  1.00  0.00     0.094 A 
ATOM     10  C   UNL     1     -10.153  12.912  -8.706  1.00  0.00     0.146 A 
ATOM     11  O   UNL     1     -11.067  12.241  -9.396  1.00  0.00    -0.452 OA
ENDROOT
BRANCH   1  12
ATOM     12  C   UNL     1     -11.999  10.355 -10.572  1.00  0.00     0.025 A 
ATOM     13  C   UNL     1     -12.355  10.828 -11.845  1.00  0.00     0.016 A 
ATOM     14  C   UNL     1     -13.413  10.246 -12.546  1.00  0.00     0.051 A 
ATOM     15  C   UNL     1     -14.141   9.194 -11.983  1.00  0.00     0.157 A 
ATOM     16  C   UNL     1     -12.746   9.311  -9.998  1.00  0.00     0.062 A 
ATOM     17  C   UNL     1     -13.811   8.726 -10.701  1.00  0.00     0.158 A 
BRANCH  15  18
ATOM     18  O   UNL     1     -15.191   8.631 -12.708  1.00  0.00    -0.504 OA
ATOM     19  H   UNL     1     -15.994   8.211 -12.255  1.00  0.00     0.293 HD
ENDBRANCH  15  18
BRANCH  17  20
ATOM     20  O   UNL     1     -14.542   7.687 -10.126  1.00  0.00    -0.504 OA
ATOM     21  H   UNL     1     -14.128   6.777  -9.958  1.00  0.00     0.293 HD
ENDBRANCH  17  20
ENDBRANCH   1  12
BRANCH   2  22
ATOM     22  O   UNL     1      -9.424   9.090 -10.166  1.00  0.00    -0.502 OA
ATOM     23  H   UNL     1      -9.582   8.238  -9.641  1.00  0.00     0.293 HD
ENDBRANCH   2  22
BRANCH   6  24
ATOM     24  O   UNL     1      -6.770  12.557  -7.115  1.00  0.00    -0.507 OA
ATOM     25  H   UNL     1      -6.055  13.103  -6.660  1.00  0.00     0.293 HD
ENDBRANCH   6  24
BRANCH   8  26
ATOM     26  O   UNL     1      -9.806  16.276  -7.232  1.00  0.00    -0.508 OA
ATOM     27  H   UNL     1      -9.700  17.044  -7.884  1.00  0.00     0.293 HD
ENDBRANCH   8  26
TORSDOF 6
ENDMDL
MODEL 8
REMARK VINA RESULT:    -6.379      2.309      3.819
REMARK INTER + INTRA:          -7.852
REMARK INTER:                  -7.521
REMARK INTRA:                  -0.331
REMARK UNBOUND:                -0.167
REMARK SMILES O=c1c(O)c(-c2ccc(O)c(O)c2)oc2cc(O)cc(O)c12
REMARK SMILES IDX 5 1 3 2 2 3 1 4 22 5 20 6 19 7 17 8 16 9 15 10 14 11 6 12
REMARK SMILES IDX 7 13 8 14 9 15 13 16 11 17 10 18 12 20 4 22 21 24 18 26
REMARK H PARENT 10 19 12 21 4 23 21 25 18 27
REMARK Flexibility Score: inf
ROOT
ATOM      1  C   UNL     1     -13.012   9.232  -9.968  1.00  0.00     0.180 A 
ATOM      2  C   UNL     1     -13.840   8.839  -8.901  1.00  0.00     0.208 A 
ATOM      3  C   UNL     1     -15.094   8.275  -9.185  1.00  0.00     0.238 A 
ATOM      4  O   UNL     1     -15.853   7.975  -8.226  1.00  0.00    -0.285 OA
ATOM      5  C   UNL     1     -15.498   8.093 -10.529  1.00  0.00     0.111 A 
ATOM      6  C   UNL     1     -16.729   7.495 -10.933  1.00  0.00     0.134 A 
ATOM      7  C   UNL     1     -17.082   7.486 -12.288  1.00  0.00     0.093 A 
ATOM      8  C   UNL     1     -16.219   7.996 -13.260  1.00  0.00     0.123 A 
ATOM      9  C   UNL     1     -14.988   8.529 -12.882  1.00  0.00     0.094 A 
ATOM     10  C   UNL     1     -14.623   8.584 -11.534  1.00  0.00     0.146 A 
ATOM     11  O   UNL     1     -13.447   9.110 -11.217  1.00  0.00    -0.452 OA
ENDROOT
BRANCH   1  12
ATOM     12  C   UNL     1     -11.668   9.811  -9.750  1.00  0.00     0.025 A 
ATOM     13  C   UNL     1     -11.519  11.205  -9.679  1.00  0.00     0.016 A 
ATOM     14  C   UNL     1     -10.257  11.773  -9.493  1.00  0.00     0.051 A 
ATOM     15  C   UNL     1      -9.123  10.962  -9.392  1.00  0.00     0.157 A 
ATOM     16  C   UNL     1     -10.524   8.997  -9.669  1.00  0.00     0.062 A 
ATOM     17  C   UNL     1      -9.255   9.567  -9.485  1.00  0.00     0.158 A 
BRANCH  15  18
ATOM     18  O   UNL     1      -7.876  11.557  -9.206  1.00  0.00    -0.504 OA
ATOM     19  H   UNL     1      -7.027  11.162  -9.591  1.00  0.00     0.293 HD
ENDBRANCH  15  18
BRANCH  17  20
ATOM     20  O   UNL     1      -8.127   8.751  -9.399  1.00  0.00    -0.504 OA
ATOM     21  H   UNL     1      -7.196   9.142  -9.306  1.00  0.00     0.293 HD
ENDBRANCH  17  20
ENDBRANCH   1  12
BRANCH   2  22
ATOM     22  O   UNL     1     -13.431   9.047  -7.581  1.00  0.00    -0.502 OA
ATOM     23  H   UNL     1     -12.523   9.430  -7.347  1.00  0.00     0.293 HD
ENDBRANCH   2  22
BRANCH   6  24
ATOM     24  O   UNL     1     -17.620   6.875 -10.052  1.00  0.00    -0.507 OA
ATOM     25  H   UNL     1     -18.502   6.465 -10.319  1.00  0.00     0.293 HD
ENDBRANCH   6  24
BRANCH   8  26
ATOM     26  O   UNL     1     -16.571   7.970 -14.608  1.00  0.00    -0.508 OA
ATOM     27  H   UNL     1     -17.055   8.746 -15.043  1.00  0.00     0.293 HD
ENDBRANCH   8  26
TORSDOF 6
ENDMDL
MODEL 9
REMARK VINA RESULT:    -6.198      1.673      6.737
REMARK INTER + INTRA:          -7.633
REMARK INTER:                  -7.497
REMARK INTRA:                  -0.136
REMARK UNBOUND:                -0.167
REMARK SMILES O=c1c(O)c(-c2ccc(O)c(O)c2)oc2cc(O)cc(O)c12
REMARK SMILES IDX 5 1 3 2 2 3 1 4 22 5 20 6 19 7 17 8 16 9 15 10 14 11 6 12
REMARK SMILES IDX 7 13 8 14 9 15 13 16 11 17 10 18 12 20 4 22 21 24 18 26
REMARK H PARENT 10 19 12 21 4 23 21 25 18 27
REMARK Flexibility Score: inf
ROOT
ATOM      1  C   UNL     1     -17.667   7.728 -14.041  1.00  0.00     0.180 A 
ATOM      2  C   UNL     1     -18.545   7.361 -13.005  1.00  0.00     0.208 A 
ATOM      3  C   UNL     1     -18.104   7.452 -11.675  1.00  0.00     0.238 A 
ATOM      4  O   UNL     1     -18.874   7.069 -10.756  1.00  0.00    -0.285 OA
ATOM      5  C   UNL     1     -16.799   7.926 -11.395  1.00  0.00     0.111 A 
ATOM      6  C   UNL     1     -16.263   8.096 -10.084  1.00  0.00     0.134 A 
ATOM      7  C   UNL     1     -14.916   8.447  -9.929  1.00  0.00     0.093 A 
ATOM      8  C   UNL     1     -14.104   8.697 -11.038  1.00  0.00     0.123 A 
ATOM      9  C   UNL     1     -14.635   8.589 -12.322  1.00  0.00     0.094 A 
ATOM     10  C   UNL     1     -15.966   8.207 -12.509  1.00  0.00     0.146 A 
ATOM     11  O   UNL     1     -16.428   8.106 -13.749  1.00  0.00    -0.452 OA
ENDROOT
BRANCH   1  12
ATOM     12  C   UNL     1     -18.067   7.684 -15.465  1.00  0.00     0.025 A 
ATOM     13  C   UNL     1     -17.318   6.916 -16.369  1.00  0.00     0.016 A 
ATOM     14  C   UNL     1     -17.665   6.876 -17.722  1.00  0.00     0.051 A 
ATOM     15  C   UNL     1     -18.755   7.612 -18.194  1.00  0.00     0.157 A 
ATOM     16  C   UNL     1     -19.151   8.441 -15.945  1.00  0.00     0.062 A 
ATOM     17  C   UNL     1     -19.500   8.403 -17.304  1.00  0.00     0.158 A 
BRANCH  15  18
ATOM     18  O   UNL     1     -19.080   7.551 -19.549  1.00  0.00    -0.504 OA
ATOM     19  H   UNL     1     -18.379   7.634 -20.275  1.00  0.00     0.293 HD
ENDBRANCH  15  18
BRANCH  17  20
ATOM     20  O   UNL     1     -20.580   9.152 -17.771  1.00  0.00    -0.504 OA
ATOM     21  H   UNL     1     -20.504  10.150 -17.932  1.00  0.00     0.293 HD
ENDBRANCH  17  20
ENDBRANCH   1  12
BRANCH   2  22
ATOM     22  O   UNL     1     -19.820   6.875 -13.304  1.00  0.00    -0.502 OA
ATOM     23  H   UNL     1     -20.157   6.779 -14.255  1.00  0.00     0.293 HD
ENDBRANCH   2  22
BRANCH   6  24
ATOM     24  O   UNL     1     -17.012   7.963  -8.911  1.00  0.00    -0.507 OA
ATOM     25  H   UNL     1     -16.624   7.935  -7.981  1.00  0.00     0.293 HD
ENDBRANCH   6  24
BRANCH   8  26
ATOM     26  O   UNL     1     -12.769   9.060 -10.875  1.00  0.00    -0.508 OA
ATOM     27  H   UNL     1     -12.026   8.373 -10.912  1.00  0.00     0.293 HD
ENDBRANCH   8  26
TORSDOF 6
ENDMDL
