MODEL 1
REMARK VINA RESULT:    -3.116      0.000      0.000
REMARK INTER + INTRA:          -6.225
REMARK INTER:                  -4.938
REMARK INTRA:                  -1.287
REMARK UNBOUND:                -1.287
REMARK SMILES CCCCCCCCCCCC(=O)[O-]
REMARK SMILES IDX 7 1 8 2 9 3 10 4 11 5 12 6 13 7 14 8 6 9 5 10 4 11 3 12 2 13
REMARK SMILES IDX 1 14
REMARK H PARENT
REMARK Flexibility Score: inf
ROOT
ATOM      1  C   UNL     1      33.250  18.941  13.380  1.00  0.00     0.000 C 
ENDROOT
BRANCH   1   2
ATOM      2  C   UNL     1      33.033  19.905  12.204  1.00  0.00     0.000 C 
BRANCH   2   3
ATOM      3  C   UNL     1      33.376  21.359  12.561  1.00  0.00     0.000 C 
BRANCH   3   4
ATOM      4  C   UNL     1      34.370  21.994  11.572  1.00  0.00     0.006 C 
BRANCH   4   5
ATOM      5  C   UNL     1      35.346  20.962  10.990  1.00  0.00     0.053 C 
BRANCH   5   6
ATOM      6  C   UNL     1      35.851  21.374   9.641  1.00  0.00     0.041 C 
ATOM      7  O   UNL     1      37.002  21.030   9.263  1.00  0.00    -0.550 OA
ATOM      8  O   UNL     1      35.038  22.108   8.788  1.00  0.00    -0.550 OA
ENDBRANCH   5   6
ENDBRANCH   4   5
ENDBRANCH   3   4
ENDBRANCH   2   3
ENDBRANCH   1   2
BRANCH   1   9
ATOM      9  C   UNL     1      33.149  19.678  14.720  1.00  0.00     0.000 C 
BRANCH   9  10
ATOM     10  C   UNL     1      34.213  19.179  15.706  1.00  0.00    -0.000 C 
BRANCH  10  11
ATOM     11  C   UNL     1      35.161  20.317  16.113  1.00  0.00    -0.000 C 
BRANCH  11  12
ATOM     12  C   UNL     1      36.195  20.643  15.023  1.00  0.00    -0.000 C 
BRANCH  12  13
ATOM     13  C   UNL     1      36.311  22.151  14.751  1.00  0.00    -0.003 C 
ATOM     14  C   UNL     1      37.656  22.493  14.119  1.00  0.00     0.004 C 
ENDBRANCH  12  13
ENDBRANCH  11  12
ENDBRANCH  10  11
ENDBRANCH   9  10
ENDBRANCH   1   9
TORSDOF 10
ENDMDL
MODEL 2
REMARK VINA RESULT:    -3.065      2.455      4.559
REMARK INTER + INTRA:          -6.143
REMARK INTER:                  -5.197
REMARK INTRA:                  -0.945
REMARK UNBOUND:                -1.287
REMARK SMILES CCCCCCCCCCCC(=O)[O-]
REMARK SMILES IDX 7 1 8 2 9 3 10 4 11 5 12 6 13 7 14 8 6 9 5 10 4 11 3 12 2 13
REMARK SMILES IDX 1 14
REMARK H PARENT
REMARK Flexibility Score: inf
ROOT
ATOM      1  C   UNL     1      33.398  19.066  13.383  1.00  0.00     0.000 C 
ENDROOT
BRANCH   1   2
ATOM      2  C   UNL     1      33.348  19.872  14.688  1.00  0.00     0.000 C 
BRANCH   2   3
ATOM      3  C   UNL     1      34.394  19.407  15.712  1.00  0.00     0.000 C 
BRANCH   3   4
ATOM      4  C   UNL     1      35.432  20.497  16.035  1.00  0.00     0.006 C 
BRANCH   4   5
ATOM      5  C   UNL     1      36.480  20.646  14.924  1.00  0.00     0.053 C 
BRANCH   5   6
ATOM      6  C   UNL     1      37.188  21.965  15.001  1.00  0.00     0.041 C 
ATOM      7  O   UNL     1      36.580  22.987  15.416  1.00  0.00    -0.550 OA
ATOM      8  O   UNL     1      38.528  22.057  14.651  1.00  0.00    -0.550 OA
ENDBRANCH   5   6
ENDBRANCH   4   5
ENDBRANCH   3   4
ENDBRANCH   2   3
ENDBRANCH   1   2
BRANCH   1   9
ATOM      9  C   UNL     1      33.278  19.987  12.163  1.00  0.00     0.000 C 
BRANCH   9  10
ATOM     10  C   UNL     1      33.852  21.378  12.464  1.00  0.00    -0.000 C 
BRANCH  10  11
ATOM     11  C   UNL     1      34.573  21.952  11.235  1.00  0.00    -0.000 C 
BRANCH  11  12
ATOM     12  C   UNL     1      36.048  22.280  11.516  1.00  0.00    -0.000 C 
BRANCH  12  13
ATOM     13  C   UNL     1      36.895  22.336  10.236  1.00  0.00    -0.003 C 
ATOM     14  C   UNL     1      36.622  21.130   9.342  1.00  0.00     0.004 C 
ENDBRANCH  12  13
ENDBRANCH  11  12
ENDBRANCH  10  11
ENDBRANCH   9  10
ENDBRANCH   1   9
TORSDOF 10
ENDMDL
MODEL 3
REMARK VINA RESULT:    -2.882      1.366      2.787
REMARK INTER + INTRA:          -5.854
REMARK INTER:                  -4.800
REMARK INTRA:                  -1.054
REMARK UNBOUND:                -1.287
REMARK SMILES CCCCCCCCCCCC(=O)[O-]
REMARK SMILES IDX 7 1 8 2 9 3 10 4 11 5 12 6 13 7 14 8 6 9 5 10 4 11 3 12 2 13
REMARK SMILES IDX 1 14
REMARK H PARENT
REMARK Flexibility Score: inf
ROOT
ATOM      1  C   UNL     1      34.379  21.770  13.327  1.00  0.00     0.000 C 
ENDROOT
BRANCH   1   2
ATOM      2  C   UNL     1      34.040  20.731  12.249  1.00  0.00     0.000 C 
BRANCH   2   3
ATOM      3  C   UNL     1      33.336  21.349  11.032  1.00  0.00     0.000 C 
BRANCH   3   4
ATOM      4  C   UNL     1      34.123  22.524  10.426  1.00  0.00     0.006 C 
BRANCH   4   5
ATOM      5  C   UNL     1      34.955  22.096   9.209  1.00  0.00     0.053 C 
BRANCH   5   6
ATOM      6  C   UNL     1      36.373  21.792   9.585  1.00  0.00     0.041 C 
ATOM      7  O   UNL     1      37.015  22.581  10.329  1.00  0.00    -0.550 OA
ATOM      8  O   UNL     1      36.974  20.620   9.145  1.00  0.00    -0.550 OA
ENDBRANCH   5   6
ENDBRANCH   4   5
ENDBRANCH   3   4
ENDBRANCH   2   3
ENDBRANCH   1   2
BRANCH   1   9
ATOM      9  C   UNL     1      35.894  21.848  13.557  1.00  0.00     0.000 C 
BRANCH   9  10
ATOM     10  C   UNL     1      36.233  21.718  15.048  1.00  0.00    -0.000 C 
BRANCH  10  11
ATOM     11  C   UNL     1      35.882  20.318  15.571  1.00  0.00    -0.000 C 
BRANCH  11  12
ATOM     12  C   UNL     1      34.889  20.357  16.744  1.00  0.00    -0.000 C 
BRANCH  12  13
ATOM     13  C   UNL     1      33.504  19.811  16.365  1.00  0.00    -0.003 C 
ATOM     14  C   UNL     1      33.623  18.616  15.424  1.00  0.00     0.004 C 
ENDBRANCH  12  13
ENDBRANCH  11  12
ENDBRANCH  10  11
ENDBRANCH   9  10
ENDBRANCH   1   9
TORSDOF 10
ENDMDL
MODEL 4
REMARK VINA RESULT:    -2.774     13.506     16.238
REMARK INTER + INTRA:          -5.683
REMARK INTER:                  -5.159
REMARK INTRA:                  -0.524
REMARK UNBOUND:                -1.287
REMARK SMILES CCCCCCCCCCCC(=O)[O-]
REMARK SMILES IDX 7 1 8 2 9 3 10 4 11 5 12 6 13 7 14 8 6 9 5 10 4 11 3 12 2 13
REMARK SMILES IDX 1 14
REMARK H PARENT
REMARK Flexibility Score: inf
ROOT
ATOM      1  C   UNL     1      52.391  22.192  15.878  1.00  0.00     0.000 C 
ENDROOT
BRANCH   1   2
ATOM      2  C   UNL     1      51.984  20.893  15.168  1.00  0.00     0.000 C 
BRANCH   2   3
ATOM      3  C   UNL     1      50.573  20.966  14.564  1.00  0.00     0.000 C 
BRANCH   3   4
ATOM      4  C   UNL     1      49.531  21.511  15.557  1.00  0.00     0.006 C 
BRANCH   4   5
ATOM      5  C   UNL     1      48.170  20.819  15.405  1.00  0.00     0.053 C 
BRANCH   5   6
ATOM      6  C   UNL     1      47.147  21.394  16.337  1.00  0.00     0.041 C 
ATOM      7  O   UNL     1      45.919  21.247  16.099  1.00  0.00    -0.550 OA
ATOM      8  O   UNL     1      47.550  22.063  17.485  1.00  0.00    -0.550 OA
ENDBRANCH   5   6
ENDBRANCH   4   5
ENDBRANCH   3   4
ENDBRANCH   2   3
ENDBRANCH   1   2
BRANCH   1   9
ATOM      9  C   UNL     1      52.711  21.933  17.356  1.00  0.00     0.000 C 
BRANCH   9  10
ATOM     10  C   UNL     1      51.706  22.643  18.271  1.00  0.00    -0.000 C 
BRANCH  10  11
ATOM     11  C   UNL     1      51.707  22.022  19.675  1.00  0.00    -0.000 C 
BRANCH  11  12
ATOM     12  C   UNL     1      50.309  21.997  20.312  1.00  0.00    -0.000 C 
BRANCH  12  13
ATOM     13  C   UNL     1      50.328  22.393  21.796  1.00  0.00    -0.003 C 
ATOM     14  C   UNL     1      48.914  22.459  22.366  1.00  0.00     0.004 C 
ENDBRANCH  12  13
ENDBRANCH  11  12
ENDBRANCH  10  11
ENDBRANCH   9  10
ENDBRANCH   1   9
TORSDOF 10
ENDMDL
MODEL 5
REMARK VINA RESULT:    -2.721     14.430     16.951
REMARK INTER + INTRA:          -5.599
REMARK INTER:                  -4.854
REMARK INTRA:                  -0.745
REMARK UNBOUND:                -1.287
REMARK SMILES CCCCCCCCCCCC(=O)[O-]
REMARK SMILES IDX 7 1 8 2 9 3 10 4 11 5 12 6 13 7 14 8 6 9 5 10 4 11 3 12 2 13
REMARK SMILES IDX 1 14
REMARK H PARENT
REMARK Flexibility Score: inf
ROOT
ATOM      1  C   UNL     1      47.447  22.036  17.241  1.00  0.00     0.000 C 
ENDROOT
BRANCH   1   2
ATOM      2  C   UNL     1      48.448  23.071  17.772  1.00  0.00     0.000 C 
BRANCH   2   3
ATOM      3  C   UNL     1      48.892  22.780  19.214  1.00  0.00     0.000 C 
BRANCH   3   4
ATOM      4  C   UNL     1      50.399  22.487  19.323  1.00  0.00     0.006 C 
BRANCH   4   5
ATOM      5  C   UNL     1      50.903  22.578  20.769  1.00  0.00     0.053 C 
BRANCH   5   6
ATOM      6  C   UNL     1      50.975  21.230  21.419  1.00  0.00     0.041 C 
ATOM      7  O   UNL     1      52.045  20.567  21.388  1.00  0.00    -0.550 OA
ATOM      8  O   UNL     1      49.870  20.721  22.089  1.00  0.00    -0.550 OA
ENDBRANCH   5   6
ENDBRANCH   4   5
ENDBRANCH   3   4
ENDBRANCH   2   3
ENDBRANCH   1   2
BRANCH   1   9
ATOM      9  C   UNL     1      47.983  21.353  15.976  1.00  0.00     0.000 C 
BRANCH   9  10
ATOM     10  C   UNL     1      49.402  21.837  15.647  1.00  0.00    -0.000 C 
BRANCH  10  11
ATOM     11  C   UNL     1      50.234  20.710  15.017  1.00  0.00    -0.000 C 
BRANCH  11  12
ATOM     12  C   UNL     1      51.602  21.197  14.514  1.00  0.00    -0.000 C 
BRANCH  12  13
ATOM     13  C   UNL     1      52.678  21.174  15.610  1.00  0.00    -0.003 C 
ATOM     14  C   UNL     1      52.852  22.553  16.238  1.00  0.00     0.004 C 
ENDBRANCH  12  13
ENDBRANCH  11  12
ENDBRANCH  10  11
ENDBRANCH   9  10
ENDBRANCH   1   9
TORSDOF 10
ENDMDL
MODEL 6
REMARK VINA RESULT:    -2.676      2.270      4.597
REMARK INTER + INTRA:          -5.528
REMARK INTER:                  -4.666
REMARK INTRA:                  -0.862
REMARK UNBOUND:                -1.287
REMARK SMILES CCCCCCCCCCCC(=O)[O-]
REMARK SMILES IDX 7 1 8 2 9 3 10 4 11 5 12 6 13 7 14 8 6 9 5 10 4 11 3 12 2 13
REMARK SMILES IDX 1 14
REMARK H PARENT
REMARK Flexibility Score: inf
ROOT
ATOM      1  C   UNL     1      36.353  20.749  14.583  1.00  0.00     0.000 C 
ENDROOT
BRANCH   1   2
ATOM      2  C   UNL     1      36.066  20.044  15.916  1.00  0.00     0.000 C 
BRANCH   2   3
ATOM      3  C   UNL     1      34.581  20.096  16.305  1.00  0.00     0.000 C 
BRANCH   3   4
ATOM      4  C   UNL     1      33.667  20.425  15.112  1.00  0.00     0.006 C 
BRANCH   4   5
ATOM      5  C   UNL     1      32.943  19.182  14.577  1.00  0.00     0.053 C 
BRANCH   5   6
ATOM      6  C   UNL     1      32.961  19.130  13.079  1.00  0.00     0.041 C 
ATOM      7  O   UNL     1      32.875  18.025  12.482  1.00  0.00    -0.550 OA
ATOM      8  O   UNL     1      33.037  20.305  12.343  1.00  0.00    -0.550 OA
ENDBRANCH   5   6
ENDBRANCH   4   5
ENDBRANCH   3   4
ENDBRANCH   2   3
ENDBRANCH   1   2
BRANCH   1   9
ATOM      9  C   UNL     1      36.704  22.225  14.806  1.00  0.00     0.000 C 
BRANCH   9  10
ATOM     10  C   UNL     1      35.981  23.123  13.795  1.00  0.00    -0.000 C 
BRANCH  10  11
ATOM     11  C   UNL     1      35.879  22.437  12.425  1.00  0.00    -0.000 C 
BRANCH  11  12
ATOM     12  C   UNL     1      36.942  22.935  11.433  1.00  0.00    -0.000 C 
BRANCH  12  13
ATOM     13  C   UNL     1      36.768  22.337  10.029  1.00  0.00    -0.003 C 
ATOM     14  C   UNL     1      35.939  21.056  10.076  1.00  0.00     0.004 C 
ENDBRANCH  12  13
ENDBRANCH  11  12
ENDBRANCH  10  11
ENDBRANCH   9  10
ENDBRANCH   1   9
TORSDOF 10
ENDMDL
MODEL 7
REMARK VINA RESULT:    -2.629     14.173     16.261
REMARK INTER + INTRA:          -5.452
REMARK INTER:                  -4.805
REMARK INTRA:                  -0.648
REMARK UNBOUND:                -1.287
REMARK SMILES CCCCCCCCCCCC(=O)[O-]
REMARK SMILES IDX 7 1 8 2 9 3 10 4 11 5 12 6 13 7 14 8 6 9 5 10 4 11 3 12 2 13
REMARK SMILES IDX 1 14
REMARK H PARENT
REMARK Flexibility Score: inf
ROOT
ATOM      1  C   UNL     1      47.484  21.427  16.698  1.00  0.00     0.000 C 
ENDROOT
BRANCH   1   2
ATOM      2  C   UNL     1      48.283  20.924  15.488  1.00  0.00     0.000 C 
BRANCH   2   3
ATOM      3  C   UNL     1      49.672  21.572  15.385  1.00  0.00     0.000 C 
BRANCH   3   4
ATOM      4  C   UNL     1      50.727  20.623  14.790  1.00  0.00     0.006 C 
BRANCH   4   5
ATOM      5  C   UNL     1      52.106  21.286  14.678  1.00  0.00     0.053 C 
BRANCH   5   6
ATOM      6  C   UNL     1      52.638  21.689  16.019  1.00  0.00     0.041 C 
ATOM      7  O   UNL     1      53.103  20.821  16.804  1.00  0.00    -0.550 OA
ATOM      8  O   UNL     1      52.655  23.028  16.388  1.00  0.00    -0.550 OA
ENDBRANCH   5   6
ENDBRANCH   4   5
ENDBRANCH   3   4
ENDBRANCH   2   3
ENDBRANCH   1   2
BRANCH   1   9
ATOM      9  C   UNL     1      47.945  22.828  17.117  1.00  0.00     0.000 C 
BRANCH   9  10
ATOM     10  C   UNL     1      48.296  22.871  18.610  1.00  0.00    -0.000 C 
BRANCH  10  11
ATOM     11  C   UNL     1      49.818  22.864  18.816  1.00  0.00    -0.000 C 
BRANCH  11  12
ATOM     12  C   UNL     1      50.212  22.844  20.302  1.00  0.00    -0.000 C 
BRANCH  12  13
ATOM     13  C   UNL     1      50.233  21.424  20.888  1.00  0.00    -0.003 C 
ATOM     14  C   UNL     1      50.629  21.444  22.361  1.00  0.00     0.004 C 
ENDBRANCH  12  13
ENDBRANCH  11  12
ENDBRANCH  10  11
ENDBRANCH   9  10
ENDBRANCH   1   9
TORSDOF 10
ENDMDL
MODEL 8
REMARK VINA RESULT:    -2.541      2.955      5.356
REMARK INTER + INTRA:          -5.314
REMARK INTER:                  -4.801
REMARK INTRA:                  -0.513
REMARK UNBOUND:                -1.287
REMARK SMILES CCCCCCCCCCCC(=O)[O-]
REMARK SMILES IDX 7 1 8 2 9 3 10 4 11 5 12 6 13 7 14 8 6 9 5 10 4 11 3 12 2 13
REMARK SMILES IDX 1 14
REMARK H PARENT
REMARK Flexibility Score: inf
ROOT
ATOM      1  C   UNL     1      36.669  22.307  14.821  1.00  0.00     0.000 C 
ENDROOT
BRANCH   1   2
ATOM      2  C   UNL     1      36.758  20.957  15.547  1.00  0.00     0.000 C 
BRANCH   2   3
ATOM      3  C   UNL     1      35.508  20.089  15.339  1.00  0.00     0.000 C 
BRANCH   3   4
ATOM      4  C   UNL     1      34.446  20.308  16.431  1.00  0.00     0.006 C 
BRANCH   4   5
ATOM      5  C   UNL     1      33.052  19.849  15.984  1.00  0.00     0.053 C 
BRANCH   5   6
ATOM      6  C   UNL     1      33.122  18.641  15.100  1.00  0.00     0.041 C 
ATOM      7  O   UNL     1      33.437  18.762  13.886  1.00  0.00    -0.550 OA
ATOM      8  O   UNL     1      32.876  17.379  15.624  1.00  0.00    -0.550 OA
ENDBRANCH   5   6
ENDBRANCH   4   5
ENDBRANCH   3   4
ENDBRANCH   2   3
ENDBRANCH   1   2
BRANCH   1   9
ATOM      9  C   UNL     1      36.229  22.119  13.364  1.00  0.00     0.000 C 
BRANCH   9  10
ATOM     10  C   UNL     1      34.831  22.706  13.129  1.00  0.00    -0.000 C 
BRANCH  10  11
ATOM     11  C   UNL     1      34.022  21.829  12.163  1.00  0.00    -0.000 C 
BRANCH  11  12
ATOM     12  C   UNL     1      34.909  20.872  11.350  1.00  0.00    -0.000 C 
BRANCH  12  13
ATOM     13  C   UNL     1      35.151  21.364   9.915  1.00  0.00    -0.003 C 
ATOM     14  C   UNL     1      36.597  21.129   9.490  1.00  0.00     0.004 C 
ENDBRANCH  12  13
ENDBRANCH  11  12
ENDBRANCH  10  11
ENDBRANCH   9  10
ENDBRANCH   1   9
TORSDOF 10
ENDMDL
MODEL 9
REMARK VINA RESULT:    -2.275      3.460      5.498
REMARK INTER + INTRA:          -4.892
REMARK INTER:                  -4.483
REMARK INTRA:                  -0.410
REMARK UNBOUND:                -1.287
REMARK SMILES CCCCCCCCCCCC(=O)[O-]
REMARK SMILES IDX 7 1 8 2 9 3 10 4 11 5 12 6 13 7 14 8 6 9 5 10 4 11 3 12 2 13
REMARK SMILES IDX 1 14
REMARK H PARENT
REMARK Flexibility Score: inf
ROOT
ATOM      1  C   UNL     1      36.654  20.908  15.874  1.00  0.00     0.000 C 
ENDROOT
BRANCH   1   2
ATOM      2  C   UNL     1      35.548  19.887  15.577  1.00  0.00     0.000 C 
BRANCH   2   3
ATOM      3  C   UNL     1      34.675  20.291  14.379  1.00  0.00     0.000 C 
BRANCH   3   4
ATOM      4  C   UNL     1      33.173  20.299  14.715  1.00  0.00     0.006 C 
BRANCH   4   5
ATOM      5  C   UNL     1      32.879  19.630  16.065  1.00  0.00     0.053 C 
BRANCH   5   6
ATOM      6  C   UNL     1      32.943  18.136  15.970  1.00  0.00     0.041 C 
ATOM      7  O   UNL     1      33.027  17.437  17.014  1.00  0.00    -0.550 OA
ATOM      8  O   UNL     1      32.875  17.514  14.730  1.00  0.00    -0.550 OA
ENDBRANCH   5   6
ENDBRANCH   4   5
ENDBRANCH   3   4
ENDBRANCH   2   3
ENDBRANCH   1   2
BRANCH   1   9
ATOM      9  C   UNL     1      36.529  22.135  14.962  1.00  0.00     0.000 C 
BRANCH   9  10
ATOM     10  C   UNL     1      37.854  22.430  14.248  1.00  0.00    -0.000 C 
BRANCH  10  11
ATOM     11  C   UNL     1      37.609  23.124  12.900  1.00  0.00    -0.000 C 
BRANCH  11  12
ATOM     12  C   UNL     1      36.515  22.434  12.070  1.00  0.00    -0.000 C 
BRANCH  12  13
ATOM     13  C   UNL     1      36.772  22.527  10.559  1.00  0.00    -0.003 C 
ATOM     14  C   UNL     1      35.656  21.851   9.768  1.00  0.00     0.004 C 
ENDBRANCH  12  13
ENDBRANCH  11  12
ENDBRANCH  10  11
ENDBRANCH   9  10
ENDBRANCH   1   9
TORSDOF 10
ENDMDL
