MODEL 1
REMARK VINA RESULT:    -8.632      0.000      0.000
REMARK INTER + INTRA:          -9.413
REMARK INTER:                  -9.389
REMARK INTRA:                  -0.024
REMARK UNBOUND:                -0.024
REMARK SMILES CC(=O)[C@@H]1CC[C@H]2[C@@H]3CC=C4C[C@H](O)CC[C@]4(C)[C@H]3CC[C@]12C
REMARK SMILES IDX 4 1 5 2 6 3 7 4 22 5 21 6 20 7 19 8 8 9 9 10 10 11 11 12
REMARK SMILES IDX 17 13 16 14 15 15 13 16 12 17 18 18 23 19 2 20 1 21 3 22
REMARK SMILES IDX 14 23
REMARK H PARENT 14 24
REMARK Flexibility Score: inf
ROOT
ATOM      1  C   UNL     1     119.127 172.415 128.435  1.00  0.00     0.062 C 
ATOM      2  C   UNL     1     118.143 172.399 129.634  1.00  0.00     0.012 C 
ATOM      3  C   UNL     1     117.324 173.701 129.569  1.00  0.00     0.005 C 
ATOM      4  C   UNL     1     117.635 174.276 128.192  1.00  0.00    -0.001 C 
ATOM      5  C   UNL     1     119.091 173.883 127.924  1.00  0.00    -0.020 C 
ATOM      6  C   UNL     1     119.368 174.109 126.417  1.00  0.00     0.008 C 
ATOM      7  C   UNL     1     119.096 175.577 126.010  1.00  0.00     0.005 C 
ATOM      8  C   UNL     1     117.676 176.093 126.432  1.00  0.00     0.003 C 
ATOM      9  C   UNL     1     117.360 175.773 127.931  1.00  0.00     0.000 C 
ATOM     10  C   UNL     1     115.893 176.104 128.247  1.00  0.00     0.031 C 
ATOM     11  C   UNL     1     115.456 177.439 127.717  1.00  0.00    -0.027 C 
ATOM     12  C   UNL     1     116.066 178.068 126.693  1.00  0.00    -0.065 C 
ATOM     13  C   UNL     1     117.418 177.619 126.113  1.00  0.00    -0.008 C 
ATOM     14  C   UNL     1     117.397 177.880 124.563  1.00  0.00     0.014 C 
ATOM     15  C   UNL     1     115.996 177.699 123.954  1.00  0.00     0.033 C 
ATOM     16  C   UNL     1     114.977 178.715 124.533  1.00  0.00     0.118 C 
ATOM     17  C   UNL     1     115.332 179.171 125.965  1.00  0.00     0.063 C 
ATOM     18  C   UNL     1     118.512 178.524 126.736  1.00  0.00     0.016 C 
ATOM     19  C   UNL     1     120.125 174.693 128.772  1.00  0.00     0.012 C 
ENDROOT
BRANCH   1  20
ATOM     20  C   UNL     1     118.748 171.376 127.392  1.00  0.00     0.133 C 
ATOM     21  C   UNL     1     117.406 170.712 127.447  1.00  0.00     0.088 C 
ATOM     22  O   UNL     1     119.524 171.085 126.492  1.00  0.00    -0.300 OA
ENDBRANCH   1  20
BRANCH  16  23
ATOM     23  O   UNL     1     113.694 178.144 124.535  1.00  0.00    -0.393 OA
ATOM     24  H   UNL     1     113.164 178.635 125.217  1.00  0.00     0.210 HD
ENDBRANCH  16  23
TORSDOF 2
ENDMDL
MODEL 2
REMARK VINA RESULT:    -8.373      1.240      6.513
REMARK INTER + INTRA:          -9.131
REMARK INTER:                  -9.241
REMARK INTRA:                   0.111
REMARK UNBOUND:                -0.024
REMARK SMILES CC(=O)[C@@H]1CC[C@H]2[C@@H]3CC=C4C[C@H](O)CC[C@]4(C)[C@H]3CC[C@]12C
REMARK SMILES IDX 4 1 5 2 6 3 7 4 22 5 21 6 20 7 19 8 8 9 9 10 10 11 11 12
REMARK SMILES IDX 17 13 16 14 15 15 13 16 12 17 18 18 23 19 2 20 1 21 3 22
REMARK SMILES IDX 14 23
REMARK H PARENT 14 24
REMARK Flexibility Score: inf
ROOT
ATOM      1  C   UNL     1     117.195 178.590 125.398  1.00  0.00     0.062 C 
ATOM      2  C   UNL     1     118.063 178.219 124.167  1.00  0.00     0.012 C 
ATOM      3  C   UNL     1     118.877 176.969 124.545  1.00  0.00     0.005 C 
ATOM      4  C   UNL     1     118.244 176.481 125.841  1.00  0.00    -0.001 C 
ATOM      5  C   UNL     1     117.798 177.757 126.563  1.00  0.00    -0.020 C 
ATOM      6  C   UNL     1     116.833 177.340 127.701  1.00  0.00     0.008 C 
ATOM      7  C   UNL     1     117.511 176.348 128.676  1.00  0.00     0.005 C 
ATOM      8  C   UNL     1     118.154 175.107 127.964  1.00  0.00     0.003 C 
ATOM      9  C   UNL     1     119.049 175.527 126.751  1.00  0.00     0.000 C 
ATOM     10  C   UNL     1     119.489 174.287 125.958  1.00  0.00     0.031 C 
ATOM     11  C   UNL     1     119.984 173.169 126.829  1.00  0.00    -0.027 C 
ATOM     12  C   UNL     1     119.652 173.036 128.129  1.00  0.00    -0.065 C 
ATOM     13  C   UNL     1     118.936 174.134 128.933  1.00  0.00    -0.008 C 
ATOM     14  C   UNL     1     117.960 173.439 129.951  1.00  0.00     0.014 C 
ATOM     15  C   UNL     1     117.370 172.129 129.400  1.00  0.00     0.033 C 
ATOM     16  C   UNL     1     118.469 171.068 129.130  1.00  0.00     0.118 C 
ATOM     17  C   UNL     1     119.842 171.696 128.803  1.00  0.00     0.063 C 
ATOM     18  C   UNL     1     120.018 174.890 129.747  1.00  0.00     0.016 C 
ATOM     19  C   UNL     1     118.982 178.585 127.159  1.00  0.00     0.012 C 
ENDROOT
BRANCH   1  20
ATOM     20  C   UNL     1     115.720 178.331 125.136  1.00  0.00     0.133 C 
ATOM     21  C   UNL     1     115.284 177.726 123.836  1.00  0.00     0.088 C 
ATOM     22  O   UNL     1     114.880 178.596 125.985  1.00  0.00    -0.300 OA
ENDBRANCH   1  20
BRANCH  16  23
ATOM     23  O   UNL     1     118.074 170.244 128.063  1.00  0.00    -0.393 OA
ATOM     24  H   UNL     1     118.345 169.318 128.301  1.00  0.00     0.210 HD
ENDBRANCH  16  23
TORSDOF 2
ENDMDL
MODEL 3
REMARK VINA RESULT:    -8.035      3.287      6.228
REMARK INTER + INTRA:          -8.763
REMARK INTER:                  -8.593
REMARK INTRA:                  -0.170
REMARK UNBOUND:                -0.024
REMARK SMILES CC(=O)[C@@H]1CC[C@H]2[C@@H]3CC=C4C[C@H](O)CC[C@]4(C)[C@H]3CC[C@]12C
REMARK SMILES IDX 4 1 5 2 6 3 7 4 22 5 21 6 20 7 19 8 8 9 9 10 10 11 11 12
REMARK SMILES IDX 17 13 16 14 15 15 13 16 12 17 18 18 23 19 2 20 1 21 3 22
REMARK SMILES IDX 14 23
REMARK H PARENT 14 24
REMARK Flexibility Score: inf
ROOT
ATOM      1  C   UNL     1     122.229 177.875 125.507  1.00  0.00     0.062 C 
ATOM      2  C   UNL     1     122.387 178.540 126.899  1.00  0.00     0.012 C 
ATOM      3  C   UNL     1     121.437 177.807 127.864  1.00  0.00     0.005 C 
ATOM      4  C   UNL     1     120.996 176.569 127.094  1.00  0.00    -0.001 C 
ATOM      5  C   UNL     1     120.938 177.018 125.631  1.00  0.00    -0.020 C 
ATOM      6  C   UNL     1     120.854 175.744 124.752  1.00  0.00     0.008 C 
ATOM      7  C   UNL     1     119.623 174.884 125.127  1.00  0.00     0.005 C 
ATOM      8  C   UNL     1     119.532 174.552 126.658  1.00  0.00     0.003 C 
ATOM      9  C   UNL     1     119.719 175.827 127.545  1.00  0.00     0.000 C 
ATOM     10  C   UNL     1     119.832 175.433 129.026  1.00  0.00     0.031 C 
ATOM     11  C   UNL     1     118.796 174.435 129.457  1.00  0.00    -0.027 C 
ATOM     12  C   UNL     1     118.158 173.609 128.603  1.00  0.00    -0.065 C 
ATOM     13  C   UNL     1     118.231 173.759 127.074  1.00  0.00    -0.008 C 
ATOM     14  C   UNL     1     118.214 172.320 126.440  1.00  0.00     0.014 C 
ATOM     15  C   UNL     1     118.917 171.278 127.326  1.00  0.00     0.033 C 
ATOM     16  C   UNL     1     118.208 171.107 128.695  1.00  0.00     0.118 C 
ATOM     17  C   UNL     1     117.463 172.382 129.147  1.00  0.00     0.063 C 
ATOM     18  C   UNL     1     116.945 174.496 126.621  1.00  0.00     0.016 C 
ATOM     19  C   UNL     1     119.728 177.955 125.311  1.00  0.00     0.012 C 
ENDROOT
BRANCH   1  20
ATOM     20  C   UNL     1     123.472 177.089 125.123  1.00  0.00     0.133 C 
ATOM     21  C   UNL     1     123.977 177.125 123.712  1.00  0.00     0.088 C 
ATOM     22  O   UNL     1     124.080 176.436 125.960  1.00  0.00    -0.300 OA
ENDBRANCH   1  20
BRANCH  16  23
ATOM     23  O   UNL     1     119.152 170.753 129.673  1.00  0.00    -0.393 OA
ATOM     24  H   UNL     1     118.695 170.133 130.300  1.00  0.00     0.210 HD
ENDBRANCH  16  23
TORSDOF 2
ENDMDL
MODEL 4
REMARK VINA RESULT:    -7.973      1.929      2.889
REMARK INTER + INTRA:          -8.696
REMARK INTER:                  -8.564
REMARK INTRA:                  -0.132
REMARK UNBOUND:                -0.024
REMARK SMILES CC(=O)[C@@H]1CC[C@H]2[C@@H]3CC=C4C[C@H](O)CC[C@]4(C)[C@H]3CC[C@]12C
REMARK SMILES IDX 4 1 5 2 6 3 7 4 22 5 21 6 20 7 19 8 8 9 9 10 10 11 11 12
REMARK SMILES IDX 17 13 16 14 15 15 13 16 12 17 18 18 23 19 2 20 1 21 3 22
REMARK SMILES IDX 14 23
REMARK H PARENT 14 24
REMARK Flexibility Score: inf
ROOT
ATOM      1  C   UNL     1     117.625 170.134 129.616  1.00  0.00     0.062 C 
ATOM      2  C   UNL     1     117.557 170.605 131.092  1.00  0.00     0.012 C 
ATOM      3  C   UNL     1     117.649 172.142 131.084  1.00  0.00     0.005 C 
ATOM      4  C   UNL     1     117.460 172.525 129.622  1.00  0.00    -0.001 C 
ATOM      5  C   UNL     1     118.110 171.385 128.831  1.00  0.00    -0.020 C 
ATOM      6  C   UNL     1     117.647 171.512 127.358  1.00  0.00     0.008 C 
ATOM      7  C   UNL     1     118.025 172.893 126.769  1.00  0.00     0.005 C 
ATOM      8  C   UNL     1     117.543 174.102 127.645  1.00  0.00     0.003 C 
ATOM      9  C   UNL     1     117.924 173.921 129.152  1.00  0.00     0.000 C 
ATOM     10  C   UNL     1     117.260 175.013 130.003  1.00  0.00     0.031 C 
ATOM     11  C   UNL     1     117.392 176.389 129.416  1.00  0.00    -0.027 C 
ATOM     12  C   UNL     1     117.615 176.620 128.107  1.00  0.00    -0.065 C 
ATOM     13  C   UNL     1     118.005 175.516 127.110  1.00  0.00    -0.008 C 
ATOM     14  C   UNL     1     117.336 175.847 125.726  1.00  0.00     0.014 C 
ATOM     15  C   UNL     1     115.976 176.548 125.882  1.00  0.00     0.033 C 
ATOM     16  C   UNL     1     116.109 177.923 126.587  1.00  0.00     0.118 C 
ATOM     17  C   UNL     1     117.321 177.991 127.542  1.00  0.00     0.063 C 
ATOM     18  C   UNL     1     119.543 175.581 126.927  1.00  0.00     0.016 C 
ATOM     19  C   UNL     1     119.672 171.392 128.891  1.00  0.00     0.012 C 
ENDROOT
BRANCH   1  20
ATOM     20  C   UNL     1     116.290 169.576 129.149  1.00  0.00     0.133 C 
ATOM     21  C   UNL     1     116.246 168.527 128.080  1.00  0.00     0.088 C 
ATOM     22  O   UNL     1     115.243 169.965 129.650  1.00  0.00    -0.300 OA
ENDBRANCH   1  20
BRANCH  16  23
ATOM     23  O   UNL     1     114.937 178.196 127.310  1.00  0.00    -0.393 OA
ATOM     24  H   UNL     1     114.440 178.887 126.798  1.00  0.00     0.210 HD
ENDBRANCH  16  23
TORSDOF 2
ENDMDL
MODEL 5
REMARK VINA RESULT:    -7.607      6.030      7.859
REMARK INTER + INTRA:          -8.297
REMARK INTER:                  -8.710
REMARK INTRA:                   0.412
REMARK UNBOUND:                -0.024
REMARK SMILES CC(=O)[C@@H]1CC[C@H]2[C@@H]3CC=C4C[C@H](O)CC[C@]4(C)[C@H]3CC[C@]12C
REMARK SMILES IDX 4 1 5 2 6 3 7 4 22 5 21 6 20 7 19 8 8 9 9 10 10 11 11 12
REMARK SMILES IDX 17 13 16 14 15 15 13 16 12 17 18 18 23 19 2 20 1 21 3 22
REMARK SMILES IDX 14 23
REMARK H PARENT 14 24
REMARK Flexibility Score: inf
ROOT
ATOM      1  C   UNL     1     120.944 175.459 126.134  1.00  0.00     0.062 C 
ATOM      2  C   UNL     1     119.680 176.146 125.553  1.00  0.00     0.012 C 
ATOM      3  C   UNL     1     120.106 176.865 124.260  1.00  0.00     0.005 C 
ATOM      4  C   UNL     1     121.503 176.329 123.972  1.00  0.00    -0.001 C 
ATOM      5  C   UNL     1     122.126 176.097 125.352  1.00  0.00    -0.020 C 
ATOM      6  C   UNL     1     123.390 175.223 125.155  1.00  0.00     0.008 C 
ATOM      7  C   UNL     1     124.394 175.898 124.190  1.00  0.00     0.005 C 
ATOM      8  C   UNL     1     123.757 176.330 122.823  1.00  0.00     0.003 C 
ATOM      9  C   UNL     1     122.425 177.127 123.023  1.00  0.00     0.000 C 
ATOM     10  C   UNL     1     121.729 177.349 121.672  1.00  0.00     0.031 C 
ATOM     11  C   UNL     1     122.660 177.819 120.593  1.00  0.00    -0.027 C 
ATOM     12  C   UNL     1     123.993 177.617 120.621  1.00  0.00    -0.065 C 
ATOM     13  C   UNL     1     124.742 177.109 121.864  1.00  0.00    -0.008 C 
ATOM     14  C   UNL     1     125.918 176.183 121.382  1.00  0.00     0.014 C 
ATOM     15  C   UNL     1     125.569 175.406 120.101  1.00  0.00     0.033 C 
ATOM     16  C   UNL     1     125.306 176.355 118.902  1.00  0.00     0.118 C 
ATOM     17  C   UNL     1     124.783 177.741 119.338  1.00  0.00     0.063 C 
ATOM     18  C   UNL     1     125.363 178.344 122.566  1.00  0.00     0.016 C 
ATOM     19  C   UNL     1     122.513 177.417 126.094  1.00  0.00     0.012 C 
ENDROOT
BRANCH   1  20
ATOM     20  C   UNL     1     120.855 173.946 126.018  1.00  0.00     0.133 C 
ATOM     21  C   UNL     1     119.533 173.288 125.765  1.00  0.00     0.088 C 
ATOM     22  O   UNL     1     121.860 173.254 126.114  1.00  0.00    -0.300 OA
ENDBRANCH   1  20
BRANCH  16  23
ATOM     23  O   UNL     1     124.376 175.765 118.031  1.00  0.00    -0.393 OA
ATOM     24  H   UNL     1     124.315 174.806 118.285  1.00  0.00     0.210 HD
ENDBRANCH  16  23
TORSDOF 2
ENDMDL
MODEL 6
REMARK VINA RESULT:    -7.478      7.646      9.426
REMARK INTER + INTRA:          -8.158
REMARK INTER:                  -8.035
REMARK INTRA:                  -0.122
REMARK UNBOUND:                -0.024
REMARK SMILES CC(=O)[C@@H]1CC[C@H]2[C@@H]3CC=C4C[C@H](O)CC[C@]4(C)[C@H]3CC[C@]12C
REMARK SMILES IDX 4 1 5 2 6 3 7 4 22 5 21 6 20 7 19 8 8 9 9 10 10 11 11 12
REMARK SMILES IDX 17 13 16 14 15 15 13 16 12 17 18 18 23 19 2 20 1 21 3 22
REMARK SMILES IDX 14 23
REMARK H PARENT 14 24
REMARK Flexibility Score: inf
ROOT
ATOM      1  C   UNL     1     126.670 171.564 125.514  1.00  0.00     0.062 C 
ATOM      2  C   UNL     1     126.690 170.652 124.259  1.00  0.00     0.012 C 
ATOM      3  C   UNL     1     126.067 171.456 123.103  1.00  0.00     0.005 C 
ATOM      4  C   UNL     1     125.991 172.882 123.631  1.00  0.00    -0.001 C 
ATOM      5  C   UNL     1     125.717 172.730 125.131  1.00  0.00    -0.020 C 
ATOM      6  C   UNL     1     125.984 174.103 125.798  1.00  0.00     0.008 C 
ATOM      7  C   UNL     1     125.102 175.211 125.174  1.00  0.00     0.005 C 
ATOM      8  C   UNL     1     125.202 175.286 123.610  1.00  0.00     0.003 C 
ATOM      9  C   UNL     1     125.032 173.880 122.945  1.00  0.00     0.000 C 
ATOM     10  C   UNL     1     125.342 173.961 121.442  1.00  0.00     0.031 C 
ATOM     11  C   UNL     1     124.691 175.132 120.763  1.00  0.00    -0.027 C 
ATOM     12  C   UNL     1     124.295 176.243 121.414  1.00  0.00    -0.065 C 
ATOM     13  C   UNL     1     124.234 176.346 122.947  1.00  0.00    -0.008 C 
ATOM     14  C   UNL     1     124.630 177.812 123.357  1.00  0.00     0.014 C 
ATOM     15  C   UNL     1     125.669 178.429 122.405  1.00  0.00     0.033 C 
ATOM     16  C   UNL     1     125.122 178.563 120.959  1.00  0.00     0.118 C 
ATOM     17  C   UNL     1     124.045 177.509 120.625  1.00  0.00     0.063 C 
ATOM     18  C   UNL     1     122.761 176.112 123.368  1.00  0.00     0.016 C 
ATOM     19  C   UNL     1     124.261 172.264 125.457  1.00  0.00     0.012 C 
ENDROOT
BRANCH   1  20
ATOM     20  C   UNL     1     128.073 172.000 125.905  1.00  0.00     0.133 C 
ATOM     21  C   UNL     1     129.098 172.270 124.846  1.00  0.00     0.088 C 
ATOM     22  O   UNL     1     128.374 172.149 127.082  1.00  0.00    -0.300 OA
ENDBRANCH   1  20
BRANCH  16  23
ATOM     23  O   UNL     1     126.181 178.447 120.044  1.00  0.00    -0.393 OA
ATOM     24  H   UNL     1     126.913 177.968 120.514  1.00  0.00     0.210 HD
ENDBRANCH  16  23
TORSDOF 2
ENDMDL
MODEL 7
REMARK VINA RESULT:    -7.459      4.344      6.499
REMARK INTER + INTRA:          -8.137
REMARK INTER:                  -8.045
REMARK INTRA:                  -0.092
REMARK UNBOUND:                -0.024
REMARK SMILES CC(=O)[C@@H]1CC[C@H]2[C@@H]3CC=C4C[C@H](O)CC[C@]4(C)[C@H]3CC[C@]12C
REMARK SMILES IDX 4 1 5 2 6 3 7 4 22 5 21 6 20 7 19 8 8 9 9 10 10 11 11 12
REMARK SMILES IDX 17 13 16 14 15 15 13 16 12 17 18 18 23 19 2 20 1 21 3 22
REMARK SMILES IDX 14 23
REMARK H PARENT 14 24
REMARK Flexibility Score: inf
ROOT
ATOM      1  C   UNL     1     124.292 175.897 123.420  1.00  0.00     0.062 C 
ATOM      2  C   UNL     1     125.006 177.239 123.727  1.00  0.00     0.012 C 
ATOM      3  C   UNL     1     124.134 177.997 124.745  1.00  0.00     0.005 C 
ATOM      4  C   UNL     1     123.122 176.962 125.221  1.00  0.00    -0.001 C 
ATOM      5  C   UNL     1     122.860 176.080 123.997  1.00  0.00    -0.020 C 
ATOM      6  C   UNL     1     122.132 174.803 124.486  1.00  0.00     0.008 C 
ATOM      7  C   UNL     1     120.816 175.153 125.221  1.00  0.00     0.005 C 
ATOM      8  C   UNL     1     121.000 176.205 126.370  1.00  0.00     0.003 C 
ATOM      9  C   UNL     1     121.823 177.449 125.899  1.00  0.00     0.000 C 
ATOM     10  C   UNL     1     122.158 178.351 127.097  1.00  0.00     0.031 C 
ATOM     11  C   UNL     1     120.985 178.599 128.002  1.00  0.00    -0.027 C 
ATOM     12  C   UNL     1     119.914 177.783 128.071  1.00  0.00    -0.065 C 
ATOM     13  C   UNL     1     119.652 176.649 127.066  1.00  0.00    -0.008 C 
ATOM     14  C   UNL     1     118.990 175.451 127.841  1.00  0.00     0.014 C 
ATOM     15  C   UNL     1     119.493 175.337 129.290  1.00  0.00     0.033 C 
ATOM     16  C   UNL     1     119.130 176.591 130.130  1.00  0.00     0.118 C 
ATOM     17  C   UNL     1     119.001 177.869 129.273  1.00  0.00     0.063 C 
ATOM     18  C   UNL     1     118.624 177.177 126.032  1.00  0.00     0.016 C 
ATOM     19  C   UNL     1     122.002 176.779 122.893  1.00  0.00     0.012 C 
ENDROOT
BRANCH   1  20
ATOM     20  C   UNL     1     125.057 174.717 123.996  1.00  0.00     0.133 C 
ATOM     21  C   UNL     1     125.423 173.559 123.117  1.00  0.00     0.088 C 
ATOM     22  O   UNL     1     125.393 174.706 125.172  1.00  0.00    -0.300 OA
ENDBRANCH   1  20
BRANCH  16  23
ATOM     23  O   UNL     1     120.108 176.794 131.116  1.00  0.00    -0.393 OA
ATOM     24  H   UNL     1     120.099 175.988 131.698  1.00  0.00     0.210 HD
ENDBRANCH  16  23
TORSDOF 2
ENDMDL
MODEL 8
REMARK VINA RESULT:    -7.438      3.172      6.472
REMARK INTER + INTRA:          -8.114
REMARK INTER:                  -8.315
REMARK INTRA:                   0.202
REMARK UNBOUND:                -0.024
REMARK SMILES CC(=O)[C@@H]1CC[C@H]2[C@@H]3CC=C4C[C@H](O)CC[C@]4(C)[C@H]3CC[C@]12C
REMARK SMILES IDX 4 1 5 2 6 3 7 4 22 5 21 6 20 7 19 8 8 9 9 10 10 11 11 12
REMARK SMILES IDX 17 13 16 14 15 15 13 16 12 17 18 18 23 19 2 20 1 21 3 22
REMARK SMILES IDX 14 23
REMARK H PARENT 14 24
REMARK Flexibility Score: inf
ROOT
ATOM      1  C   UNL     1     122.437 177.120 124.050  1.00  0.00     0.062 C 
ATOM      2  C   UNL     1     123.695 176.239 124.264  1.00  0.00     0.012 C 
ATOM      3  C   UNL     1     123.271 175.045 125.138  1.00  0.00     0.005 C 
ATOM      4  C   UNL     1     121.749 175.103 125.147  1.00  0.00    -0.001 C 
ATOM      5  C   UNL     1     121.415 176.597 125.098  1.00  0.00    -0.020 C 
ATOM      6  C   UNL     1     119.913 176.731 124.741  1.00  0.00     0.008 C 
ATOM      7  C   UNL     1     119.024 175.988 125.767  1.00  0.00     0.005 C 
ATOM      8  C   UNL     1     119.445 174.494 125.997  1.00  0.00     0.003 C 
ATOM      9  C   UNL     1     120.982 174.353 126.258  1.00  0.00     0.000 C 
ATOM     10  C   UNL     1     121.385 172.871 126.271  1.00  0.00     0.031 C 
ATOM     11  C   UNL     1     120.463 172.010 127.085  1.00  0.00    -0.027 C 
ATOM     12  C   UNL     1     119.190 172.347 127.370  1.00  0.00    -0.065 C 
ATOM     13  C   UNL     1     118.611 173.749 127.114  1.00  0.00    -0.008 C 
ATOM     14  C   UNL     1     117.106 173.587 126.688  1.00  0.00     0.014 C 
ATOM     15  C   UNL     1     116.856 172.296 125.889  1.00  0.00     0.033 C 
ATOM     16  C   UNL     1     117.160 171.028 126.729  1.00  0.00     0.118 C 
ATOM     17  C   UNL     1     118.226 171.271 127.819  1.00  0.00     0.063 C 
ATOM     18  C   UNL     1     118.648 174.517 128.460  1.00  0.00     0.016 C 
ATOM     19  C   UNL     1     121.702 177.348 126.439  1.00  0.00     0.012 C 
ENDROOT
BRANCH   1  20
ATOM     20  C   UNL     1     121.952 177.056 122.611  1.00  0.00     0.133 C 
ATOM     21  C   UNL     1     122.721 176.267 121.595  1.00  0.00     0.088 C 
ATOM     22  O   UNL     1     120.927 177.630 122.272  1.00  0.00    -0.300 OA
ENDBRANCH   1  20
BRANCH  16  23
ATOM     23  O   UNL     1     117.595 169.996 125.880  1.00  0.00    -0.393 OA
ATOM     24  H   UNL     1     118.446 169.654 126.261  1.00  0.00     0.210 HD
ENDBRANCH  16  23
TORSDOF 2
ENDMDL
MODEL 9
REMARK VINA RESULT:    -7.385      7.591     11.041
REMARK INTER + INTRA:          -8.056
REMARK INTER:                  -7.945
REMARK INTRA:                  -0.112
REMARK UNBOUND:                -0.024
REMARK SMILES CC(=O)[C@@H]1CC[C@H]2[C@@H]3CC=C4C[C@H](O)CC[C@]4(C)[C@H]3CC[C@]12C
REMARK SMILES IDX 4 1 5 2 6 3 7 4 22 5 21 6 20 7 19 8 8 9 9 10 10 11 11 12
REMARK SMILES IDX 17 13 16 14 15 15 13 16 12 17 18 18 23 19 2 20 1 21 3 22
REMARK SMILES IDX 14 23
REMARK H PARENT 14 24
REMARK Flexibility Score: inf
ROOT
ATOM      1  C   UNL     1     123.817 177.636 121.245  1.00  0.00     0.062 C 
ATOM      2  C   UNL     1     124.861 177.664 120.098  1.00  0.00     0.012 C 
ATOM      3  C   UNL     1     125.852 176.514 120.356  1.00  0.00     0.005 C 
ATOM      4  C   UNL     1     125.191 175.682 121.447  1.00  0.00    -0.001 C 
ATOM      5  C   UNL     1     124.443 176.699 122.316  1.00  0.00    -0.020 C 
ATOM      6  C   UNL     1     123.462 175.911 123.220  1.00  0.00     0.008 C 
ATOM      7  C   UNL     1     124.209 174.871 124.088  1.00  0.00     0.005 C 
ATOM      8  C   UNL     1     125.143 173.919 123.261  1.00  0.00     0.003 C 
ATOM      9  C   UNL     1     126.063 174.713 122.275  1.00  0.00     0.000 C 
ATOM     10  C   UNL     1     126.806 173.743 121.344  1.00  0.00     0.031 C 
ATOM     11  C   UNL     1     127.410 172.572 122.063  1.00  0.00    -0.027 C 
ATOM     12  C   UNL     1     126.977 172.131 123.260  1.00  0.00    -0.065 C 
ATOM     13  C   UNL     1     125.990 172.915 124.141  1.00  0.00    -0.008 C 
ATOM     14  C   UNL     1     125.062 171.881 124.877  1.00  0.00     0.014 C 
ATOM     15  C   UNL     1     124.787 170.628 124.029  1.00  0.00     0.033 C 
ATOM     16  C   UNL     1     126.087 169.836 123.727  1.00  0.00     0.118 C 
ATOM     17  C   UNL     1     127.344 170.734 123.707  1.00  0.00     0.063 C 
ATOM     18  C   UNL     1     126.821 173.662 125.215  1.00  0.00     0.016 C 
ATOM     19  C   UNL     1     125.384 177.575 123.205  1.00  0.00     0.012 C 
ENDROOT
BRANCH   1  20
ATOM     20  C   UNL     1     122.452 177.194 120.743  1.00  0.00     0.133 C 
ATOM     21  C   UNL     1     122.346 176.301 119.544  1.00  0.00     0.088 C 
ATOM     22  O   UNL     1     121.432 177.549 121.318  1.00  0.00    -0.300 OA
ENDBRANCH   1  20
BRANCH  16  23
ATOM     23  O   UNL     1     125.965 169.187 122.488  1.00  0.00    -0.393 OA
ATOM     24  H   UNL     1     126.720 168.544 122.426  1.00  0.00     0.210 HD
ENDBRANCH  16  23
TORSDOF 2
ENDMDL
