MODEL 1
REMARK VINA RESULT:    -4.123      0.000      0.000
REMARK INTER + INTRA:          -7.381
REMARK INTER:                  -6.292
REMARK INTRA:                  -1.089
REMARK UNBOUND:                -1.089
REMARK SMILES CCCCCCCCCCC(=O)[O-]
REMARK SMILES IDX 7 1 8 2 9 3 10 4 11 5 12 6 13 7 6 8 5 9 4 10 3 11 2 12 1 13
REMARK H PARENT
REMARK Flexibility Score: inf
ROOT
ATOM      1  C   UNL     1     -39.064  18.960 -29.643  1.00  0.00     0.000 C 
ENDROOT
BRANCH   1   2
ATOM      2  C   UNL     1     -38.781  18.845 -28.138  1.00  0.00     0.000 C 
BRANCH   2   3
ATOM      3  C   UNL     1     -37.480  18.079 -27.837  1.00  0.00     0.006 C 
BRANCH   3   4
ATOM      4  C   UNL     1     -36.261  19.009 -27.784  1.00  0.00     0.053 C 
BRANCH   4   5
ATOM      5  C   UNL     1     -35.395  18.861 -28.998  1.00  0.00     0.041 C 
ATOM      6  O   UNL     1     -35.691  18.025 -29.891  1.00  0.00    -0.550 OA
ATOM      7  O   UNL     1     -34.275  19.669 -29.156  1.00  0.00    -0.550 OA
ENDBRANCH   4   5
ENDBRANCH   3   4
ENDBRANCH   2   3
ENDBRANCH   1   2
BRANCH   1   8
ATOM      8  C   UNL     1     -38.736  20.352 -30.205  1.00  0.00     0.000 C 
BRANCH   8   9
ATOM      9  C   UNL     1     -39.251  21.456 -29.273  1.00  0.00    -0.000 C 
BRANCH   9  10
ATOM     10  C   UNL     1     -38.117  22.411 -28.873  1.00  0.00    -0.000 C 
BRANCH  10  11
ATOM     11  C   UNL     1     -36.829  22.174 -29.679  1.00  0.00    -0.000 C 
BRANCH  11  12
ATOM     12  C   UNL     1     -35.713  23.164 -29.314  1.00  0.00    -0.003 C 
ATOM     13  C   UNL     1     -35.768  23.532 -27.834  1.00  0.00     0.004 C 
ENDBRANCH  11  12
ENDBRANCH  10  11
ENDBRANCH   9  10
ENDBRANCH   8   9
ENDBRANCH   1   8
TORSDOF 9
ENDMDL
MODEL 2
REMARK VINA RESULT:    -4.099      2.468      4.055
REMARK INTER + INTRA:          -7.345
REMARK INTER:                  -6.057
REMARK INTRA:                  -1.288
REMARK UNBOUND:                -1.089
REMARK SMILES CCCCCCCCCCC(=O)[O-]
REMARK SMILES IDX 7 1 8 2 9 3 10 4 11 5 12 6 13 7 6 8 5 9 4 10 3 11 2 12 1 13
REMARK H PARENT
REMARK Flexibility Score: inf
ROOT
ATOM      1  C   UNL     1     -38.582  18.396 -30.319  1.00  0.00     0.000 C 
ENDROOT
BRANCH   1   2
ATOM      2  C   UNL     1     -38.157  19.468 -31.333  1.00  0.00     0.000 C 
BRANCH   2   3
ATOM      3  C   UNL     1     -38.641  20.876 -30.943  1.00  0.00     0.006 C 
BRANCH   3   4
ATOM      4  C   UNL     1     -38.995  20.974 -29.453  1.00  0.00     0.053 C 
BRANCH   4   5
ATOM      5  C   UNL     1     -38.742  22.348 -28.910  1.00  0.00     0.041 C 
ATOM      6  O   UNL     1     -39.703  23.125 -28.675  1.00  0.00    -0.550 OA
ATOM      7  O   UNL     1     -37.443  22.758 -28.637  1.00  0.00    -0.550 OA
ENDBRANCH   4   5
ENDBRANCH   3   4
ENDBRANCH   2   3
ENDBRANCH   1   2
BRANCH   1   8
ATOM      8  C   UNL     1     -37.386  17.691 -29.661  1.00  0.00     0.000 C 
BRANCH   8   9
ATOM      9  C   UNL     1     -37.413  17.866 -28.138  1.00  0.00    -0.000 C 
BRANCH   9  10
ATOM     10  C   UNL     1     -36.323  18.844 -27.677  1.00  0.00    -0.000 C 
BRANCH  10  11
ATOM     11  C   UNL     1     -35.199  19.010 -28.712  1.00  0.00    -0.000 C 
BRANCH  11  12
ATOM     12  C   UNL     1     -34.928  20.482 -29.059  1.00  0.00    -0.003 C 
ATOM     13  C   UNL     1     -34.834  20.681 -30.569  1.00  0.00     0.004 C 
ENDBRANCH  11  12
ENDBRANCH  10  11
ENDBRANCH   9  10
ENDBRANCH   8   9
ENDBRANCH   1   8
TORSDOF 9
ENDMDL
MODEL 3
REMARK VINA RESULT:    -4.069      2.119      3.855
REMARK INTER + INTRA:          -7.298
REMARK INTER:                  -5.985
REMARK INTRA:                  -1.313
REMARK UNBOUND:                -1.089
REMARK SMILES CCCCCCCCCCC(=O)[O-]
REMARK SMILES IDX 7 1 8 2 9 3 10 4 11 5 12 6 13 7 6 8 5 9 4 10 3 11 2 12 1 13
REMARK H PARENT
REMARK Flexibility Score: inf
ROOT
ATOM      1  C   UNL     1     -36.582  17.977 -29.928  1.00  0.00     0.000 C 
ENDROOT
BRANCH   1   2
ATOM      2  C   UNL     1     -35.277  18.772 -29.775  1.00  0.00     0.000 C 
BRANCH   2   3
ATOM      3  C   UNL     1     -35.441  20.257 -30.146  1.00  0.00     0.006 C 
BRANCH   3   4
ATOM      4  C   UNL     1     -35.448  21.165 -28.909  1.00  0.00     0.053 C 
BRANCH   4   5
ATOM      5  C   UNL     1     -36.053  22.504 -29.205  1.00  0.00     0.041 C 
ATOM      6  O   UNL     1     -36.666  23.135 -28.305  1.00  0.00    -0.550 OA
ATOM      7  O   UNL     1     -35.915  23.065 -30.468  1.00  0.00    -0.550 OA
ENDBRANCH   4   5
ENDBRANCH   3   4
ENDBRANCH   2   3
ENDBRANCH   1   2
BRANCH   1   8
ATOM      8  C   UNL     1     -37.198  17.580 -28.577  1.00  0.00     0.000 C 
BRANCH   8   9
ATOM      9  C   UNL     1     -38.208  18.632 -28.103  1.00  0.00    -0.000 C 
BRANCH   9  10
ATOM     10  C   UNL     1     -39.047  19.157 -29.277  1.00  0.00    -0.000 C 
BRANCH  10  11
ATOM     11  C   UNL     1     -39.417  20.641 -29.124  1.00  0.00    -0.000 C 
BRANCH  11  12
ATOM     12  C   UNL     1     -39.210  21.439 -30.421  1.00  0.00    -0.003 C 
ATOM     13  C   UNL     1     -38.608  20.561 -31.514  1.00  0.00     0.004 C 
ENDBRANCH  11  12
ENDBRANCH  10  11
ENDBRANCH   9  10
ENDBRANCH   8   9
ENDBRANCH   1   8
TORSDOF 9
ENDMDL
MODEL 4
REMARK VINA RESULT:    -4.062      2.264      3.931
REMARK INTER + INTRA:          -7.288
REMARK INTER:                  -5.990
REMARK INTRA:                  -1.297
REMARK UNBOUND:                -1.089
REMARK SMILES CCCCCCCCCCC(=O)[O-]
REMARK SMILES IDX 7 1 8 2 9 3 10 4 11 5 12 6 13 7 6 8 5 9 4 10 3 11 2 12 1 13
REMARK H PARENT
REMARK Flexibility Score: inf
ROOT
ATOM      1  C   UNL     1     -38.746  18.627 -30.380  1.00  0.00     0.000 C 
ENDROOT
BRANCH   1   2
ATOM      2  C   UNL     1     -38.361  19.546 -31.549  1.00  0.00     0.000 C 
BRANCH   2   3
ATOM      3  C   UNL     1     -37.895  20.936 -31.080  1.00  0.00     0.006 C 
BRANCH   3   4
ATOM      4  C   UNL     1     -36.751  21.483 -31.944  1.00  0.00     0.053 C 
BRANCH   4   5
ATOM      5  C   UNL     1     -35.756  22.252 -31.128  1.00  0.00     0.041 C 
ATOM      6  O   UNL     1     -34.527  22.175 -31.388  1.00  0.00    -0.550 OA
ATOM      7  O   UNL     1     -36.191  23.075 -30.097  1.00  0.00    -0.550 OA
ENDBRANCH   4   5
ENDBRANCH   3   4
ENDBRANCH   2   3
ENDBRANCH   1   2
BRANCH   1   8
ATOM      8  C   UNL     1     -39.136  19.406 -29.114  1.00  0.00     0.000 C 
BRANCH   8   9
ATOM      9  C   UNL     1     -38.675  18.670 -27.851  1.00  0.00    -0.000 C 
BRANCH   9  10
ATOM     10  C   UNL     1     -37.344  17.943 -28.093  1.00  0.00    -0.000 C 
BRANCH  10  11
ATOM     11  C   UNL     1     -36.135  18.724 -27.555  1.00  0.00    -0.000 C 
BRANCH  11  12
ATOM     12  C   UNL     1     -35.434  19.552 -28.642  1.00  0.00    -0.003 C 
ATOM     13  C   UNL     1     -35.006  18.670 -29.812  1.00  0.00     0.004 C 
ENDBRANCH  11  12
ENDBRANCH  10  11
ENDBRANCH   9  10
ENDBRANCH   8   9
ENDBRANCH   1   8
TORSDOF 9
ENDMDL
MODEL 5
REMARK VINA RESULT:    -4.034      1.884      4.089
REMARK INTER + INTRA:          -7.245
REMARK INTER:                  -6.025
REMARK INTRA:                  -1.220
REMARK UNBOUND:                -1.089
REMARK SMILES CCCCCCCCCCC(=O)[O-]
REMARK SMILES IDX 7 1 8 2 9 3 10 4 11 5 12 6 13 7 6 8 5 9 4 10 3 11 2 12 1 13
REMARK H PARENT
REMARK Flexibility Score: inf
ROOT
ATOM      1  C   UNL     1     -38.409  20.426 -31.351  1.00  0.00     0.000 C 
ENDROOT
BRANCH   1   2
ATOM      2  C   UNL     1     -37.198  21.164 -31.941  1.00  0.00     0.000 C 
BRANCH   2   3
ATOM      3  C   UNL     1     -36.005  21.215 -30.970  1.00  0.00     0.006 C 
BRANCH   3   4
ATOM      4  C   UNL     1     -35.855  22.592 -30.309  1.00  0.00     0.053 C 
BRANCH   4   5
ATOM      5  C   UNL     1     -35.900  22.499 -28.814  1.00  0.00     0.041 C 
ATOM      6  O   UNL     1     -36.596  23.308 -28.148  1.00  0.00    -0.550 OA
ATOM      7  O   UNL     1     -35.193  21.499 -28.158  1.00  0.00    -0.550 OA
ENDBRANCH   4   5
ENDBRANCH   3   4
ENDBRANCH   2   3
ENDBRANCH   1   2
BRANCH   1   8
ATOM      8  C   UNL     1     -39.226  21.301 -30.387  1.00  0.00     0.000 C 
BRANCH   8   9
ATOM      9  C   UNL     1     -39.183  20.737 -28.962  1.00  0.00    -0.000 C 
BRANCH   9  10
ATOM     10  C   UNL     1     -39.247  19.202 -28.976  1.00  0.00    -0.000 C 
BRANCH  10  11
ATOM     11  C   UNL     1     -38.239  18.558 -28.010  1.00  0.00    -0.000 C 
BRANCH  11  12
ATOM     12  C   UNL     1     -36.841  18.408 -28.629  1.00  0.00    -0.003 C 
ATOM     13  C   UNL     1     -36.861  17.427 -29.798  1.00  0.00     0.004 C 
ENDBRANCH  11  12
ENDBRANCH  10  11
ENDBRANCH   9  10
ENDBRANCH   8   9
ENDBRANCH   1   8
TORSDOF 9
ENDMDL
MODEL 6
REMARK VINA RESULT:    -4.031      1.426      2.244
REMARK INTER + INTRA:          -7.240
REMARK INTER:                  -5.987
REMARK INTRA:                  -1.253
REMARK UNBOUND:                -1.089
REMARK SMILES CCCCCCCCCCC(=O)[O-]
REMARK SMILES IDX 7 1 8 2 9 3 10 4 11 5 12 6 13 7 6 8 5 9 4 10 3 11 2 12 1 13
REMARK H PARENT
REMARK Flexibility Score: inf
ROOT
ATOM      1  C   UNL     1     -39.038  21.219 -30.631  1.00  0.00     0.000 C 
ENDROOT
BRANCH   1   2
ATOM      2  C   UNL     1     -39.239  20.652 -29.217  1.00  0.00     0.000 C 
BRANCH   2   3
ATOM      3  C   UNL     1     -39.224  19.113 -29.191  1.00  0.00     0.006 C 
BRANCH   3   4
ATOM      4  C   UNL     1     -38.460  18.563 -27.978  1.00  0.00     0.053 C 
BRANCH   4   5
ATOM      5  C   UNL     1     -37.032  18.253 -28.315  1.00  0.00     0.041 C 
ATOM      6  O   UNL     1     -36.752  17.602 -29.354  1.00  0.00    -0.550 OA
ATOM      7  O   UNL     1     -36.010  18.710 -27.492  1.00  0.00    -0.550 OA
ENDBRANCH   4   5
ENDBRANCH   3   4
ENDBRANCH   2   3
ENDBRANCH   1   2
BRANCH   1   8
ATOM      8  C   UNL     1     -37.987  20.443 -31.439  1.00  0.00     0.000 C 
BRANCH   8   9
ATOM      9  C   UNL     1     -36.696  21.257 -31.586  1.00  0.00    -0.000 C 
BRANCH   9  10
ATOM     10  C   UNL     1     -35.559  20.639 -30.760  1.00  0.00    -0.000 C 
BRANCH  10  11
ATOM     11  C   UNL     1     -35.033  21.588 -29.671  1.00  0.00    -0.000 C 
BRANCH  11  12
ATOM     12  C   UNL     1     -35.803  22.917 -29.624  1.00  0.00    -0.003 C 
ATOM     13  C   UNL     1     -36.514  23.091 -28.285  1.00  0.00     0.004 C 
ENDBRANCH  11  12
ENDBRANCH  10  11
ENDBRANCH   9  10
ENDBRANCH   8   9
ENDBRANCH   1   8
TORSDOF 9
ENDMDL
MODEL 7
REMARK VINA RESULT:    -4.026      1.878      2.483
REMARK INTER + INTRA:          -7.233
REMARK INTER:                  -6.035
REMARK INTRA:                  -1.198
REMARK UNBOUND:                -1.089
REMARK SMILES CCCCCCCCCCC(=O)[O-]
REMARK SMILES IDX 7 1 8 2 9 3 10 4 11 5 12 6 13 7 6 8 5 9 4 10 3 11 2 12 1 13
REMARK H PARENT
REMARK Flexibility Score: inf
ROOT
ATOM      1  C   UNL     1     -38.505  20.750 -31.156  1.00  0.00     0.000 C 
ENDROOT
BRANCH   1   2
ATOM      2  C   UNL     1     -38.352  19.223 -31.096  1.00  0.00     0.000 C 
BRANCH   2   3
ATOM      3  C   UNL     1     -37.024  18.786 -30.451  1.00  0.00     0.006 C 
BRANCH   3   4
ATOM      4  C   UNL     1     -37.229  17.699 -29.386  1.00  0.00     0.053 C 
BRANCH   4   5
ATOM      5  C   UNL     1     -37.525  18.288 -28.040  1.00  0.00     0.041 C 
ATOM      6  O   UNL     1     -38.696  18.639 -27.744  1.00  0.00    -0.550 OA
ATOM      7  O   UNL     1     -36.508  18.423 -27.103  1.00  0.00    -0.550 OA
ENDBRANCH   4   5
ENDBRANCH   3   4
ENDBRANCH   2   3
ENDBRANCH   1   2
BRANCH   1   8
ATOM      8  C   UNL     1     -39.348  21.308 -29.999  1.00  0.00     0.000 C 
BRANCH   8   9
ATOM      9  C   UNL     1     -38.460  21.981 -28.945  1.00  0.00    -0.000 C 
BRANCH   9  10
ATOM     10  C   UNL     1     -37.133  22.446 -29.562  1.00  0.00    -0.000 C 
BRANCH  10  11
ATOM     11  C   UNL     1     -35.999  22.539 -28.527  1.00  0.00    -0.000 C 
BRANCH  11  12
ATOM     12  C   UNL     1     -35.058  21.326 -28.572  1.00  0.00    -0.003 C 
ATOM     13  C   UNL     1     -34.345  21.235 -29.918  1.00  0.00     0.004 C 
ENDBRANCH  11  12
ENDBRANCH  10  11
ENDBRANCH   9  10
ENDBRANCH   8   9
ENDBRANCH   1   8
TORSDOF 9
ENDMDL
MODEL 8
REMARK VINA RESULT:    -3.997      2.539      5.004
REMARK INTER + INTRA:          -7.188
REMARK INTER:                  -5.936
REMARK INTRA:                  -1.252
REMARK UNBOUND:                -1.089
REMARK SMILES CCCCCCCCCCC(=O)[O-]
REMARK SMILES IDX 7 1 8 2 9 3 10 4 11 5 12 6 13 7 6 8 5 9 4 10 3 11 2 12 1 13
REMARK H PARENT
REMARK Flexibility Score: inf
ROOT
ATOM      1  C   UNL     1     -35.569  20.785 -28.461  1.00  0.00     0.000 C 
ENDROOT
BRANCH   1   2
ATOM      2  C   UNL     1     -35.792  21.061 -29.956  1.00  0.00     0.000 C 
BRANCH   2   3
ATOM      3  C   UNL     1     -37.227  21.526 -30.264  1.00  0.00     0.006 C 
BRANCH   3   4
ATOM      4  C   UNL     1     -38.054  21.732 -28.988  1.00  0.00     0.053 C 
BRANCH   4   5
ATOM      5  C   UNL     1     -39.484  21.326 -29.181  1.00  0.00     0.041 C 
ATOM      6  O   UNL     1     -40.214  21.942 -30.000  1.00  0.00    -0.550 OA
ATOM      7  O   UNL     1     -40.001  20.246 -28.475  1.00  0.00    -0.550 OA
ENDBRANCH   4   5
ENDBRANCH   3   4
ENDBRANCH   2   3
ENDBRANCH   1   2
BRANCH   1   8
ATOM      8  C   UNL     1     -35.272  19.306 -28.168  1.00  0.00     0.000 C 
BRANCH   8   9
ATOM      9  C   UNL     1     -36.427  18.656 -27.397  1.00  0.00    -0.000 C 
BRANCH   9  10
ATOM     10  C   UNL     1     -37.442  18.021 -28.359  1.00  0.00    -0.000 C 
BRANCH  10  11
ATOM     11  C   UNL     1     -36.785  17.473 -29.636  1.00  0.00    -0.000 C 
BRANCH  11  12
ATOM     12  C   UNL     1     -37.814  17.066 -30.702  1.00  0.00    -0.003 C 
ATOM     13  C   UNL     1     -38.695  18.249 -31.093  1.00  0.00     0.004 C 
ENDBRANCH  11  12
ENDBRANCH  10  11
ENDBRANCH   9  10
ENDBRANCH   8   9
ENDBRANCH   1   8
TORSDOF 9
ENDMDL
MODEL 9
REMARK VINA RESULT:    -3.958      1.961      3.998
REMARK INTER + INTRA:          -7.129
REMARK INTER:                  -6.017
REMARK INTRA:                  -1.112
REMARK UNBOUND:                -1.089
REMARK SMILES CCCCCCCCCCC(=O)[O-]
REMARK SMILES IDX 7 1 8 2 9 3 10 4 11 5 12 6 13 7 6 8 5 9 4 10 3 11 2 12 1 13
REMARK H PARENT
REMARK Flexibility Score: inf
ROOT
ATOM      1  C   UNL     1     -38.733  20.413 -30.403  1.00  0.00     0.000 C 
ENDROOT
BRANCH   1   2
ATOM      2  C   UNL     1     -39.225  21.287 -29.240  1.00  0.00     0.000 C 
BRANCH   2   3
ATOM      3  C   UNL     1     -38.209  22.374 -28.846  1.00  0.00     0.006 C 
BRANCH   3   4
ATOM      4  C   UNL     1     -36.926  22.298 -29.685  1.00  0.00     0.053 C 
BRANCH   4   5
ATOM      5  C   UNL     1     -35.839  23.161 -29.118  1.00  0.00     0.041 C 
ATOM      6  O   UNL     1     -34.877  23.526 -29.841  1.00  0.00    -0.550 OA
ATOM      7  O   UNL     1     -35.906  23.584 -27.796  1.00  0.00    -0.550 OA
ENDBRANCH   4   5
ENDBRANCH   3   4
ENDBRANCH   2   3
ENDBRANCH   1   2
BRANCH   1   8
ATOM      8  C   UNL     1     -38.607  18.930 -30.021  1.00  0.00     0.000 C 
BRANCH   8   9
ATOM      9  C   UNL     1     -38.586  18.755 -28.498  1.00  0.00    -0.000 C 
BRANCH   9  10
ATOM     10  C   UNL     1     -37.400  17.883 -28.061  1.00  0.00    -0.000 C 
BRANCH  10  11
ATOM     11  C   UNL     1     -36.327  18.680 -27.301  1.00  0.00    -0.000 C 
BRANCH  11  12
ATOM     12  C   UNL     1     -35.374  19.433 -28.241  1.00  0.00    -0.003 C 
ATOM     13  C   UNL     1     -34.959  18.557 -29.419  1.00  0.00     0.004 C 
ENDBRANCH  11  12
ENDBRANCH  10  11
ENDBRANCH   9  10
ENDBRANCH   8   9
ENDBRANCH   1   8
TORSDOF 9
ENDMDL
