MODEL 1
REMARK VINA RESULT:    -3.756      0.000      0.000
REMARK INTER + INTRA:          -5.120
REMARK INTER:                  -4.854
REMARK INTRA:                  -0.266
REMARK UNBOUND:                -0.266
REMARK SMILES C=CC(=O)CCCCC
REMARK SMILES IDX 6 1 7 2 8 3 9 4 5 5 3 6 4 7 2 8 1 9
REMARK H PARENT
REMARK Flexibility Score: inf
ROOT
ATOM      1  C   UNL     1      -3.012  12.144   6.941  1.00  0.00     0.008 C 
ENDROOT
BRANCH   1   2
ATOM      2  C   UNL     1      -2.566  12.045   8.407  1.00  0.00     0.000 C 
BRANCH   2   3
ATOM      3  C   UNL     1      -2.581  10.601   8.931  1.00  0.00    -0.003 C 
ATOM      4  C   UNL     1      -1.253   9.877   8.710  1.00  0.00     0.004 C 
ENDBRANCH   2   3
ENDBRANCH   1   2
BRANCH   1   5
ATOM      5  C   UNL     1      -3.419  13.583   6.587  1.00  0.00     0.080 C 
BRANCH   5   6
ATOM      6  C   UNL     1      -4.916  13.798   6.608  1.00  0.00     0.155 C 
ATOM      7  O   UNL     1      -5.437  14.683   5.877  1.00  0.00    -0.295 OA
BRANCH   6   8
ATOM      8  C   UNL     1      -5.807  12.994   7.468  1.00  0.00     0.039 C 
ATOM      9  C   UNL     1      -6.111  13.321   8.724  1.00  0.00     0.012 C 
ENDBRANCH   6   8
ENDBRANCH   5   6
ENDBRANCH   1   5
TORSDOF 5
ENDMDL
MODEL 2
REMARK VINA RESULT:    -3.452      1.572      2.083
REMARK INTER + INTRA:          -4.727
REMARK INTER:                  -4.465
REMARK INTRA:                  -0.261
REMARK UNBOUND:                -0.266
REMARK SMILES C=CC(=O)CCCCC
REMARK SMILES IDX 6 1 7 2 8 3 9 4 5 5 3 6 4 7 2 8 1 9
REMARK H PARENT
REMARK Flexibility Score: inf
ROOT
ATOM      1  C   UNL     1      -3.044  12.153   8.463  1.00  0.00     0.008 C 
ENDROOT
BRANCH   1   2
ATOM      2  C   UNL     1      -2.528  11.180   7.393  1.00  0.00     0.000 C 
BRANCH   2   3
ATOM      3  C   UNL     1      -1.863   9.935   8.000  1.00  0.00    -0.003 C 
ATOM      4  C   UNL     1      -0.886  10.274   9.125  1.00  0.00     0.004 C 
ENDBRANCH   2   3
ENDBRANCH   1   2
BRANCH   1   5
ATOM      5  C   UNL     1      -4.526  11.893   8.774  1.00  0.00     0.080 C 
BRANCH   5   6
ATOM      6  C   UNL     1      -5.438  12.994   8.282  1.00  0.00     0.155 C 
ATOM      7  O   UNL     1      -6.200  13.590   9.091  1.00  0.00    -0.295 OA
BRANCH   6   8
ATOM      8  C   UNL     1      -5.469  13.406   6.865  1.00  0.00     0.039 C 
ATOM      9  C   UNL     1      -5.500  14.678   6.468  1.00  0.00     0.012 C 
ENDBRANCH   6   8
ENDBRANCH   5   6
ENDBRANCH   1   5
TORSDOF 5
ENDMDL
MODEL 3
REMARK VINA RESULT:    -3.421      1.598      2.136
REMARK INTER + INTRA:          -4.687
REMARK INTER:                  -4.379
REMARK INTRA:                  -0.307
REMARK UNBOUND:                -0.266
REMARK SMILES C=CC(=O)CCCCC
REMARK SMILES IDX 6 1 7 2 8 3 9 4 5 5 3 6 4 7 2 8 1 9
REMARK H PARENT
REMARK Flexibility Score: inf
ROOT
ATOM      1  C   UNL     1      -2.955  12.155   8.774  1.00  0.00     0.008 C 
ENDROOT
BRANCH   1   2
ATOM      2  C   UNL     1      -2.473  11.429   7.509  1.00  0.00     0.000 C 
BRANCH   2   3
ATOM      3  C   UNL     1      -1.779  10.096   7.822  1.00  0.00    -0.003 C 
ATOM      4  C   UNL     1      -0.969  10.139   9.117  1.00  0.00     0.004 C 
ENDBRANCH   2   3
ENDBRANCH   1   2
BRANCH   1   5
ATOM      5  C   UNL     1      -4.436  11.853   9.050  1.00  0.00     0.080 C 
BRANCH   5   6
ATOM      6  C   UNL     1      -5.344  12.245   7.907  1.00  0.00     0.155 C 
ATOM      7  O   UNL     1      -5.827  11.359   7.152  1.00  0.00    -0.295 OA
BRANCH   6   8
ATOM      8  C   UNL     1      -5.695  13.654   7.637  1.00  0.00     0.039 C 
ATOM      9  C   UNL     1      -5.260  14.331   6.575  1.00  0.00     0.012 C 
ENDBRANCH   6   8
ENDBRANCH   5   6
ENDBRANCH   1   5
TORSDOF 5
ENDMDL
MODEL 4
REMARK VINA RESULT:    -3.333      1.345      2.155
REMARK INTER + INTRA:          -4.573
REMARK INTER:                  -4.320
REMARK INTRA:                  -0.253
REMARK UNBOUND:                -0.266
REMARK SMILES C=CC(=O)CCCCC
REMARK SMILES IDX 6 1 7 2 8 3 9 4 5 5 3 6 4 7 2 8 1 9
REMARK H PARENT
REMARK Flexibility Score: inf
ROOT
ATOM      1  C   UNL     1      -4.273  12.428   9.077  1.00  0.00     0.008 C 
ENDROOT
BRANCH   1   2
ATOM      2  C   UNL     1      -3.568  11.064   9.123  1.00  0.00     0.000 C 
BRANCH   2   3
ATOM      3  C   UNL     1      -2.461  10.936   8.066  1.00  0.00    -0.003 C 
ATOM      4  C   UNL     1      -1.344   9.983   8.490  1.00  0.00     0.004 C 
ENDBRANCH   2   3
ENDBRANCH   1   2
BRANCH   1   5
ATOM      5  C   UNL     1      -5.664  12.306   8.438  1.00  0.00     0.080 C 
BRANCH   5   6
ATOM      6  C   UNL     1      -5.718  12.849   7.028  1.00  0.00     0.155 C 
ATOM      7  O   UNL     1      -6.479  12.317   6.175  1.00  0.00    -0.295 OA
BRANCH   6   8
ATOM      8  C   UNL     1      -4.898  14.002   6.604  1.00  0.00     0.039 C 
ATOM      9  C   UNL     1      -5.401  15.089   6.019  1.00  0.00     0.012 C 
ENDBRANCH   6   8
ENDBRANCH   5   6
ENDBRANCH   1   5
TORSDOF 5
ENDMDL
MODEL 5
REMARK VINA RESULT:    -3.065      2.383      4.527
REMARK INTER + INTRA:          -4.227
REMARK INTER:                  -4.050
REMARK INTRA:                  -0.176
REMARK UNBOUND:                -0.266
REMARK SMILES C=CC(=O)CCCCC
REMARK SMILES IDX 6 1 7 2 8 3 9 4 5 5 3 6 4 7 2 8 1 9
REMARK H PARENT
REMARK Flexibility Score: inf
ROOT
ATOM      1  C   UNL     1      -5.258  11.733   8.184  1.00  0.00     0.008 C 
ENDROOT
BRANCH   1   2
ATOM      2  C   UNL     1      -6.137  12.866   8.733  1.00  0.00     0.000 C 
BRANCH   2   3
ATOM      3  C   UNL     1      -5.886  14.205   8.022  1.00  0.00    -0.003 C 
ATOM      4  C   UNL     1      -5.475  14.031   6.561  1.00  0.00     0.004 C 
ENDBRANCH   2   3
ENDBRANCH   1   2
BRANCH   1   5
ATOM      5  C   UNL     1      -4.078  11.447   9.124  1.00  0.00     0.080 C 
BRANCH   5   6
ATOM      6  C   UNL     1      -2.826  11.019   8.392  1.00  0.00     0.155 C 
ATOM      7  O   UNL     1      -1.898  10.437   9.015  1.00  0.00    -0.295 OA
BRANCH   6   8
ATOM      8  C   UNL     1      -2.648  11.261   6.946  1.00  0.00     0.039 C 
ATOM      9  C   UNL     1      -2.465  12.471   6.418  1.00  0.00     0.012 C 
ENDBRANCH   6   8
ENDBRANCH   5   6
ENDBRANCH   1   5
TORSDOF 5
ENDMDL
MODEL 6
REMARK VINA RESULT:    -2.224      2.037      3.945
REMARK INTER + INTRA:          -3.140
REMARK INTER:                  -2.778
REMARK INTRA:                  -0.361
REMARK UNBOUND:                -0.266
REMARK SMILES C=CC(=O)CCCCC
REMARK SMILES IDX 6 1 7 2 8 3 9 4 5 5 3 6 4 7 2 8 1 9
REMARK H PARENT
REMARK Flexibility Score: inf
ROOT
ATOM      1  C   UNL     1      -3.310  13.662   6.176  1.00  0.00     0.008 C 
ENDROOT
BRANCH   1   2
ATOM      2  C   UNL     1      -4.819  13.397   6.292  1.00  0.00     0.000 C 
BRANCH   2   3
ATOM      3  C   UNL     1      -5.572  14.558   6.957  1.00  0.00    -0.003 C 
ATOM      4  C   UNL     1      -6.031  14.231   8.377  1.00  0.00     0.004 C 
ENDBRANCH   2   3
ENDBRANCH   1   2
BRANCH   1   5
ATOM      5  C   UNL     1      -2.560  13.113   7.399  1.00  0.00     0.080 C 
BRANCH   5   6
ATOM      6  C   UNL     1      -2.740  11.624   7.586  1.00  0.00     0.155 C 
ATOM      7  O   UNL     1      -2.345  10.823   6.696  1.00  0.00    -0.295 OA
BRANCH   6   8
ATOM      8  C   UNL     1      -3.373  11.061   8.796  1.00  0.00     0.039 C 
ATOM      9  C   UNL     1      -4.666  11.203   9.085  1.00  0.00     0.012 C 
ENDBRANCH   6   8
ENDBRANCH   5   6
ENDBRANCH   1   5
TORSDOF 5
ENDMDL
MODEL 7
REMARK VINA RESULT:    -1.973      1.879      3.608
REMARK INTER + INTRA:          -2.815
REMARK INTER:                  -3.309
REMARK INTRA:                   0.494
REMARK UNBOUND:                -0.266
REMARK SMILES C=CC(=O)CCCCC
REMARK SMILES IDX 6 1 7 2 8 3 9 4 5 5 3 6 4 7 2 8 1 9
REMARK H PARENT
REMARK Flexibility Score: inf
ROOT
ATOM      1  C   UNL     1      -4.885  11.724   7.783  1.00  0.00     0.008 C 
ENDROOT
BRANCH   1   2
ATOM      2  C   UNL     1      -5.126  12.577   9.037  1.00  0.00     0.000 C 
BRANCH   2   3
ATOM      3  C   UNL     1      -6.443  13.365   8.970  1.00  0.00    -0.003 C 
ATOM      4  C   UNL     1      -6.239  14.872   9.124  1.00  0.00     0.004 C 
ENDBRANCH   2   3
ENDBRANCH   1   2
BRANCH   1   5
ATOM      5  C   UNL     1      -5.543  12.361   6.550  1.00  0.00     0.080 C 
BRANCH   5   6
ATOM      6  C   UNL     1      -4.882  13.653   6.126  1.00  0.00     0.155 C 
ATOM      7  O   UNL     1      -5.585  14.626   5.741  1.00  0.00    -0.295 OA
BRANCH   6   8
ATOM      8  C   UNL     1      -3.415  13.822   6.147  1.00  0.00     0.039 C 
ATOM      9  C   UNL     1      -2.560  12.818   6.341  1.00  0.00     0.012 C 
ENDBRANCH   6   8
ENDBRANCH   5   6
ENDBRANCH   1   5
TORSDOF 5
ENDMDL
