MODEL 1
REMARK VINA RESULT:    -6.827      0.000      0.000
REMARK INTER + INTRA:         -12.703
REMARK INTER:                 -11.418
REMARK INTRA:                  -1.285
REMARK UNBOUND:                -1.285
REMARK SMILES COc1cc(-c2oc3cc(O)cc(O)c3c(=O)c2O[C@H]2O[C@H](CO[C@H]3O[C@H](C)[C@@H](O)[C@H](O)[C@@H]3O)[C@H](O)[C@@H](O)[C@@H]2O)ccc1O
REMARK SMILES IDX 22 1 35 2 37 3 39 4 20 5 21 6 23 7 24 8 25 9 28 10 27 11
REMARK SMILES IDX 29 12 26 13 31 14 33 15 30 16 32 18 34 20 36 22 38 24 19 26
REMARK SMILES IDX 18 27 6 28 16 29 7 30 15 31 17 32 8 33 13 34 9 35 12 36
REMARK SMILES IDX 10 37 5 38 4 39 41 40 3 41 42 42 43 43 2 44 1 45 44 46 14 48
REMARK SMILES IDX 11 50 40 52
REMARK H PARENT 30 17 32 19 34 21 36 23 38 25 44 47 14 49 11 51 40 53
REMARK Flexibility Score: inf
ROOT
ATOM      1  C   UNL     1     -12.496  34.433   9.174  1.00  0.00     0.180 C 
ATOM      2  C   UNL     1     -13.123  33.507  10.237  1.00  0.00     0.177 C 
ATOM      3  C   UNL     1     -12.492  32.099  10.143  1.00  0.00     0.180 C 
ATOM      4  C   UNL     1     -10.953  32.191  10.128  1.00  0.00     0.214 C 
ATOM      5  C   UNL     1     -10.475  33.245   9.101  1.00  0.00     0.339 C 
ATOM      6  O   UNL     1     -11.086  34.506   9.350  1.00  0.00    -0.332 OA
ENDROOT
BRANCH   1   7
ATOM      7  C   UNL     1     -13.125  35.841   9.215  1.00  0.00     0.198 C 
BRANCH   7   8
ATOM      8  O   UNL     1     -12.718  36.615   8.102  1.00  0.00    -0.347 OA
BRANCH   8   9
ATOM      9  C   UNL     1     -11.986  37.755   8.530  1.00  0.00     0.281 C 
ATOM     10  C   UNL     1     -12.620  40.516   6.161  1.00  0.00     0.041 C 
ATOM     11  C   UNL     1     -12.775  39.718   7.459  1.00  0.00     0.150 C 
ATOM     12  C   UNL     1     -12.473  40.582   8.691  1.00  0.00     0.174 C 
ATOM     13  O   UNL     1     -11.865  38.642   7.425  1.00  0.00    -0.344 OA
ATOM     14  C   UNL     1     -12.982  39.833   9.910  1.00  0.00     0.179 C 
ATOM     15  C   UNL     1     -12.608  38.319   9.871  1.00  0.00     0.202 C 
BRANCH  12  16
ATOM     16  O   UNL     1     -13.124  41.828   8.617  1.00  0.00    -0.388 OA
ATOM     17  H   UNL     1     -12.513  42.444   8.129  1.00  0.00     0.211 HD
ENDBRANCH  12  16
BRANCH  14  18
ATOM     18  O   UNL     1     -12.507  40.468  11.070  1.00  0.00    -0.387 OA
ATOM     19  H   UNL     1     -11.690  40.966  10.808  1.00  0.00     0.211 HD
ENDBRANCH  14  18
BRANCH  15  20
ATOM     20  O   UNL     1     -11.793  37.968  10.971  1.00  0.00    -0.385 OA
ATOM     21  H   UNL     1     -11.123  38.689  11.068  1.00  0.00     0.211 HD
ENDBRANCH  15  20
ENDBRANCH   8   9
ENDBRANCH   7   8
ENDBRANCH   1   7
BRANCH   2  22
ATOM     22  O   UNL     1     -12.917  34.042  11.521  1.00  0.00    -0.387 OA
ATOM     23  H   UNL     1     -11.935  34.077  11.665  1.00  0.00     0.211 HD
ENDBRANCH   2  22
BRANCH   3  24
ATOM     24  O   UNL     1     -12.956  31.455   8.979  1.00  0.00    -0.387 OA
ATOM     25  H   UNL     1     -12.227  31.529   8.310  1.00  0.00     0.211 HD
ENDBRANCH   3  24
BRANCH   5  26
ATOM     26  O   UNL     1     -10.710  32.827   7.751  1.00  0.00    -0.454 OA
BRANCH  26  27
ATOM     27  C   UNL     1      -9.759  32.169   6.957  1.00  0.00     0.214 A 
ATOM     28  C   UNL     1      -9.057  32.873   5.964  1.00  0.00     0.180 A 
ATOM     29  C   UNL     1      -9.568  30.784   7.069  1.00  0.00     0.239 A 
ATOM     30  O   UNL     1      -8.215  32.228   5.168  1.00  0.00    -0.452 OA
ATOM     31  C   UNL     1      -8.621  30.129   6.238  1.00  0.00     0.111 A 
ATOM     32  O   UNL     1     -10.281  30.143   7.882  1.00  0.00    -0.285 OA
ATOM     33  C   UNL     1      -7.968  30.924   5.261  1.00  0.00     0.146 A 
ATOM     34  C   UNL     1      -8.302  28.735   6.295  1.00  0.00     0.134 A 
ATOM     35  C   UNL     1      -7.063  30.359   4.360  1.00  0.00     0.094 A 
ATOM     36  C   UNL     1      -7.407  28.196   5.359  1.00  0.00     0.093 A 
ATOM     37  C   UNL     1      -6.795  28.997   4.395  1.00  0.00     0.123 A 
BRANCH  28  38
ATOM     38  C   UNL     1      -9.281  34.312   5.714  1.00  0.00     0.025 A 
ATOM     39  C   UNL     1      -8.250  35.230   5.995  1.00  0.00     0.062 A 
ATOM     40  C   UNL     1     -10.525  34.790   5.281  1.00  0.00     0.016 A 
ATOM     41  C   UNL     1      -8.465  36.615   5.848  1.00  0.00     0.161 A 
ATOM     42  C   UNL     1     -10.730  36.161   5.104  1.00  0.00     0.051 A 
ATOM     43  C   UNL     1      -9.713  37.076   5.411  1.00  0.00     0.157 A 
BRANCH  41  44
ATOM     44  O   UNL     1      -7.474  37.565   6.142  1.00  0.00    -0.493 OA
ATOM     45  C   UNL     1      -7.731  38.897   6.571  1.00  0.00     0.278 C 
ENDBRANCH  41  44
BRANCH  43  46
ATOM     46  O   UNL     1      -9.940  38.444   5.305  1.00  0.00    -0.504 OA
ATOM     47  H   UNL     1      -9.680  39.089   6.037  1.00  0.00     0.293 HD
ENDBRANCH  43  46
ENDBRANCH  28  38
BRANCH  34  48
ATOM     48  O   UNL     1      -8.811  27.844   7.248  1.00  0.00    -0.507 OA
ATOM     49  H   UNL     1      -9.717  27.905   7.690  1.00  0.00     0.293 HD
ENDBRANCH  34  48
BRANCH  37  50
ATOM     50  O   UNL     1      -5.902  28.457   3.472  1.00  0.00    -0.508 OA
ATOM     51  H   UNL     1      -5.961  28.675   2.485  1.00  0.00     0.293 HD
ENDBRANCH  37  50
ENDBRANCH  26  27
ENDBRANCH   5  26
BRANCH   4  52
ATOM     52  O   UNL     1     -10.501  32.538  11.414  1.00  0.00    -0.384 OA
ATOM     53  H   UNL     1     -11.101  33.253  11.753  1.00  0.00     0.211 HD
ENDBRANCH   4  52
TORSDOF 16
ENDMDL
MODEL 2
REMARK VINA RESULT:    -6.734      2.132      9.094
REMARK INTER + INTRA:         -12.547
REMARK INTER:                  -9.997
REMARK INTRA:                  -2.550
REMARK UNBOUND:                -1.285
REMARK SMILES COc1cc(-c2oc3cc(O)cc(O)c3c(=O)c2O[C@H]2O[C@H](CO[C@H]3O[C@H](C)[C@@H](O)[C@H](O)[C@@H]3O)[C@H](O)[C@@H](O)[C@@H]2O)ccc1O
REMARK SMILES IDX 22 1 35 2 37 3 39 4 20 5 21 6 23 7 24 8 25 9 28 10 27 11
REMARK SMILES IDX 29 12 26 13 31 14 33 15 30 16 32 18 34 20 36 22 38 24 19 26
REMARK SMILES IDX 18 27 6 28 16 29 7 30 15 31 17 32 8 33 13 34 9 35 12 36
REMARK SMILES IDX 10 37 5 38 4 39 41 40 3 41 42 42 43 43 2 44 1 45 44 46 14 48
REMARK SMILES IDX 11 50 40 52
REMARK H PARENT 30 17 32 19 34 21 36 23 38 25 44 47 14 49 11 51 40 53
REMARK Flexibility Score: inf
ROOT
ATOM      1  C   UNL     1      -9.338  30.651   5.633  1.00  0.00     0.180 C 
ATOM      2  C   UNL     1      -7.978  30.916   4.952  1.00  0.00     0.177 C 
ATOM      3  C   UNL     1      -7.529  32.369   5.228  1.00  0.00     0.180 C 
ATOM      4  C   UNL     1      -7.623  32.693   6.731  1.00  0.00     0.214 C 
ATOM      5  C   UNL     1      -8.995  32.263   7.303  1.00  0.00     0.339 C 
ATOM      6  O   UNL     1      -9.245  30.888   7.033  1.00  0.00    -0.332 OA
ENDROOT
BRANCH   1   7
ATOM      7  C   UNL     1      -9.835  29.218   5.353  1.00  0.00     0.198 C 
BRANCH   7   8
ATOM      8  O   UNL     1     -11.117  29.004   5.915  1.00  0.00    -0.347 OA
BRANCH   8   9
ATOM      9  C   UNL     1     -11.112  27.849   6.742  1.00  0.00     0.281 C 
ATOM     10  C   UNL     1      -7.608  26.880   7.386  1.00  0.00     0.041 C 
ATOM     11  C   UNL     1      -8.971  27.503   7.700  1.00  0.00     0.150 C 
ATOM     12  C   UNL     1      -9.575  26.921   8.985  1.00  0.00     0.174 C 
ATOM     13  O   UNL     1      -9.839  27.227   6.624  1.00  0.00    -0.344 OA
ATOM     14  C   UNL     1     -10.723  27.823   9.399  1.00  0.00     0.179 C 
ATOM     15  C   UNL     1     -11.625  28.225   8.190  1.00  0.00     0.202 C 
BRANCH  12  16
ATOM     16  O   UNL     1      -8.628  26.881  10.026  1.00  0.00    -0.388 OA
ATOM     17  H   UNL     1      -8.402  25.922  10.172  1.00  0.00     0.211 HD
ENDBRANCH  12  16
BRANCH  14  18
ATOM     18  O   UNL     1     -11.456  27.194  10.421  1.00  0.00    -0.387 OA
ATOM     19  H   UNL     1     -12.415  27.291  10.185  1.00  0.00     0.211 HD
ENDBRANCH  14  18
BRANCH  15  20
ATOM     20  O   UNL     1     -12.950  27.772   8.372  1.00  0.00    -0.385 OA
ATOM     21  H   UNL     1     -13.102  27.063   7.699  1.00  0.00     0.211 HD
ENDBRANCH  15  20
ENDBRANCH   8   9
ENDBRANCH   7   8
ENDBRANCH   1   7
BRANCH   2  22
ATOM     22  O   UNL     1      -7.014  30.013   5.439  1.00  0.00    -0.387 OA
ATOM     23  H   UNL     1      -6.535  30.474   6.176  1.00  0.00     0.211 HD
ENDBRANCH   2  22
BRANCH   3  24
ATOM     24  O   UNL     1      -8.331  33.255   4.483  1.00  0.00    -0.387 OA
ATOM     25  H   UNL     1      -9.265  32.932   4.576  1.00  0.00     0.211 HD
ENDBRANCH   3  24
BRANCH   5  26
ATOM     26  O   UNL     1     -10.065  33.078   6.807  1.00  0.00    -0.454 OA
BRANCH  26  27
ATOM     27  C   UNL     1     -10.382  34.347   7.312  1.00  0.00     0.214 A 
ATOM     28  C   UNL     1     -11.134  34.471   8.492  1.00  0.00     0.180 A 
ATOM     29  C   UNL     1     -10.047  35.506   6.597  1.00  0.00     0.239 A 
ATOM     30  O   UNL     1     -11.494  35.673   8.922  1.00  0.00    -0.452 OA
ATOM     31  C   UNL     1     -10.401  36.782   7.108  1.00  0.00     0.111 A 
ATOM     32  O   UNL     1      -9.473  35.382   5.484  1.00  0.00    -0.285 OA
ATOM     33  C   UNL     1     -11.165  36.804   8.303  1.00  0.00     0.146 A 
ATOM     34  C   UNL     1     -10.069  38.034   6.498  1.00  0.00     0.134 A 
ATOM     35  C   UNL     1     -11.609  38.009   8.852  1.00  0.00     0.094 A 
ATOM     36  C   UNL     1     -10.552  39.224   7.062  1.00  0.00     0.093 A 
ATOM     37  C   UNL     1     -11.320  39.214   8.226  1.00  0.00     0.123 A 
BRANCH  28  38
ATOM     38  C   UNL     1     -11.615  33.295   9.246  1.00  0.00     0.025 A 
ATOM     39  C   UNL     1     -10.927  32.889  10.405  1.00  0.00     0.062 A 
ATOM     40  C   UNL     1     -12.692  32.527   8.784  1.00  0.00     0.016 A 
ATOM     41  C   UNL     1     -11.311  31.721  11.094  1.00  0.00     0.161 A 
ATOM     42  C   UNL     1     -13.095  31.386   9.484  1.00  0.00     0.051 A 
ATOM     43  C   UNL     1     -12.391  30.966  10.621  1.00  0.00     0.157 A 
BRANCH  41  44
ATOM     44  O   UNL     1     -10.636  31.267  12.238  1.00  0.00    -0.493 OA
ATOM     45  C   UNL     1      -9.348  31.711  12.648  1.00  0.00     0.278 C 
ENDBRANCH  41  44
BRANCH  43  46
ATOM     46  O   UNL     1     -12.745  29.792  11.276  1.00  0.00    -0.504 OA
ATOM     47  H   UNL     1     -13.560  29.256  11.014  1.00  0.00     0.293 HD
ENDBRANCH  43  46
ENDBRANCH  28  38
BRANCH  34  48
ATOM     48  O   UNL     1      -9.264  38.172   5.360  1.00  0.00    -0.507 OA
ATOM     49  H   UNL     1      -8.526  38.850   5.236  1.00  0.00     0.293 HD
ENDBRANCH  34  48
BRANCH  37  50
ATOM     50  O   UNL     1     -11.791  40.400   8.787  1.00  0.00    -0.508 OA
ATOM     51  H   UNL     1     -12.632  40.850   8.446  1.00  0.00     0.293 HD
ENDBRANCH  37  50
ENDBRANCH  26  27
ENDBRANCH   5  26
BRANCH   4  52
ATOM     52  O   UNL     1      -6.591  32.022   7.413  1.00  0.00    -0.384 OA
ATOM     53  H   UNL     1      -6.494  32.459   8.299  1.00  0.00     0.211 HD
ENDBRANCH   4  52
TORSDOF 16
ENDMDL
MODEL 3
REMARK VINA RESULT:    -6.654      2.526      8.925
REMARK INTER + INTRA:         -12.413
REMARK INTER:                 -10.102
REMARK INTRA:                  -2.311
REMARK UNBOUND:                -1.285
REMARK SMILES COc1cc(-c2oc3cc(O)cc(O)c3c(=O)c2O[C@H]2O[C@H](CO[C@H]3O[C@H](C)[C@@H](O)[C@H](O)[C@@H]3O)[C@H](O)[C@@H](O)[C@@H]2O)ccc1O
REMARK SMILES IDX 22 1 35 2 37 3 39 4 20 5 21 6 23 7 24 8 25 9 28 10 27 11
REMARK SMILES IDX 29 12 26 13 31 14 33 15 30 16 32 18 34 20 36 22 38 24 19 26
REMARK SMILES IDX 18 27 6 28 16 29 7 30 15 31 17 32 8 33 13 34 9 35 12 36
REMARK SMILES IDX 10 37 5 38 4 39 41 40 3 41 42 42 43 43 2 44 1 45 44 46 14 48
REMARK SMILES IDX 11 50 40 52
REMARK H PARENT 30 17 32 19 34 21 36 23 38 25 44 47 14 49 11 51 40 53
REMARK Flexibility Score: inf
ROOT
ATOM      1  C   UNL     1      -8.762  28.773   6.647  1.00  0.00     0.180 C 
ATOM      2  C   UNL     1      -9.831  27.773   7.139  1.00  0.00     0.177 C 
ATOM      3  C   UNL     1     -10.986  28.539   7.821  1.00  0.00     0.180 C 
ATOM      4  C   UNL     1     -11.480  29.693   6.928  1.00  0.00     0.214 C 
ATOM      5  C   UNL     1     -10.290  30.537   6.411  1.00  0.00     0.339 C 
ATOM      6  O   UNL     1      -9.338  29.712   5.748  1.00  0.00    -0.332 OA
ENDROOT
BRANCH   1   7
ATOM      7  C   UNL     1      -7.574  28.043   5.987  1.00  0.00     0.198 C 
BRANCH   7   8
ATOM      8  O   UNL     1      -7.178  28.690   4.791  1.00  0.00    -0.347 OA
BRANCH   8   9
ATOM      9  C   UNL     1      -5.810  29.066   4.857  1.00  0.00     0.281 C 
ATOM     10  C   UNL     1      -5.575  32.367   6.494  1.00  0.00     0.041 C 
ATOM     11  C   UNL     1      -5.493  30.841   6.396  1.00  0.00     0.150 C 
ATOM     12  C   UNL     1      -4.104  30.324   6.797  1.00  0.00     0.174 C 
ATOM     13  O   UNL     1      -5.747  30.471   5.060  1.00  0.00    -0.344 OA
ATOM     14  C   UNL     1      -4.219  28.825   7.008  1.00  0.00     0.179 C 
ATOM     15  C   UNL     1      -5.047  28.132   5.882  1.00  0.00     0.202 C 
BRANCH  12  16
ATOM     16  O   UNL     1      -3.659  30.920   7.992  1.00  0.00    -0.388 OA
ATOM     17  H   UNL     1      -2.790  31.361   7.787  1.00  0.00     0.211 HD
ENDBRANCH  12  16
BRANCH  14  18
ATOM     18  O   UNL     1      -2.929  28.279   7.131  1.00  0.00    -0.387 OA
ATOM     19  H   UNL     1      -2.982  27.578   7.831  1.00  0.00     0.211 HD
ENDBRANCH  14  18
BRANCH  15  20
ATOM     20  O   UNL     1      -4.266  27.182   5.187  1.00  0.00    -0.385 OA
ATOM     21  H   UNL     1      -4.450  26.303   5.604  1.00  0.00     0.211 HD
ENDBRANCH  15  20
ENDBRANCH   8   9
ENDBRANCH   7   8
ENDBRANCH   1   7
BRANCH   2  22
ATOM     22  O   UNL     1     -10.322  27.025   6.054  1.00  0.00    -0.387 OA
ATOM     23  H   UNL     1      -9.884  26.137   6.094  1.00  0.00     0.211 HD
ENDBRANCH   2  22
BRANCH   3  24
ATOM     24  O   UNL     1     -10.550  29.033   9.066  1.00  0.00    -0.387 OA
ATOM     25  H   UNL     1     -10.374  30.001   8.935  1.00  0.00     0.211 HD
ENDBRANCH   3  24
BRANCH   5  26
ATOM     26  O   UNL     1      -9.665  31.286   7.461  1.00  0.00    -0.454 OA
BRANCH  26  27
ATOM     27  C   UNL     1      -9.703  32.685   7.555  1.00  0.00     0.214 A 
ATOM     28  C   UNL     1     -10.419  33.305   8.592  1.00  0.00     0.180 A 
ATOM     29  C   UNL     1      -9.116  33.485   6.564  1.00  0.00     0.239 A 
ATOM     30  O   UNL     1     -10.512  34.628   8.631  1.00  0.00    -0.452 OA
ATOM     31  C   UNL     1      -9.187  34.900   6.660  1.00  0.00     0.111 A 
ATOM     32  O   UNL     1      -8.574  32.922   5.579  1.00  0.00    -0.285 OA
ATOM     33  C   UNL     1      -9.939  35.431   7.739  1.00  0.00     0.146 A 
ATOM     34  C   UNL     1      -8.586  35.818   5.742  1.00  0.00     0.134 A 
ATOM     35  C   UNL     1     -10.114  36.809   7.885  1.00  0.00     0.094 A 
ATOM     36  C   UNL     1      -8.802  37.195   5.904  1.00  0.00     0.093 A 
ATOM     37  C   UNL     1      -9.564  37.688   6.963  1.00  0.00     0.123 A 
BRANCH  28  38
ATOM     38  C   UNL     1     -11.152  32.530   9.614  1.00  0.00     0.025 A 
ATOM     39  C   UNL     1     -10.487  32.139  10.792  1.00  0.00     0.062 A 
ATOM     40  C   UNL     1     -12.470  32.106   9.399  1.00  0.00     0.016 A 
ATOM     41  C   UNL     1     -11.134  31.327  11.745  1.00  0.00     0.161 A 
ATOM     42  C   UNL     1     -13.125  31.327  10.357  1.00  0.00     0.051 A 
ATOM     43  C   UNL     1     -12.453  30.914  11.515  1.00  0.00     0.157 A 
BRANCH  41  44
ATOM     44  O   UNL     1     -10.499  30.893  12.919  1.00  0.00    -0.493 OA
ATOM     45  C   UNL     1      -9.163  31.216  13.284  1.00  0.00     0.278 C 
ENDBRANCH  41  44
BRANCH  43  46
ATOM     46  O   UNL     1     -13.079  30.078  12.434  1.00  0.00    -0.504 OA
ATOM     47  H   UNL     1     -12.835  30.079  13.414  1.00  0.00     0.293 HD
ENDBRANCH  43  46
ENDBRANCH  28  38
BRANCH  34  48
ATOM     48  O   UNL     1      -7.759  35.444   4.674  1.00  0.00    -0.507 OA
ATOM     49  H   UNL     1      -6.759  35.574   4.626  1.00  0.00     0.293 HD
ENDBRANCH  34  48
BRANCH  37  50
ATOM     50  O   UNL     1      -9.770  39.058   7.123  1.00  0.00    -0.508 OA
ATOM     51  H   UNL     1     -10.668  39.485   6.932  1.00  0.00     0.293 HD
ENDBRANCH  37  50
ENDBRANCH  26  27
ENDBRANCH   5  26
BRANCH   4  52
ATOM     52  O   UNL     1     -12.195  29.160   5.840  1.00  0.00    -0.384 OA
ATOM     53  H   UNL     1     -12.627  29.922   5.373  1.00  0.00     0.211 HD
ENDBRANCH   4  52
TORSDOF 16
ENDMDL
MODEL 4
REMARK VINA RESULT:    -6.340      1.897      9.706
REMARK INTER + INTRA:         -11.887
REMARK INTER:                 -10.387
REMARK INTRA:                  -1.500
REMARK UNBOUND:                -1.285
REMARK SMILES COc1cc(-c2oc3cc(O)cc(O)c3c(=O)c2O[C@H]2O[C@H](CO[C@H]3O[C@H](C)[C@@H](O)[C@H](O)[C@@H]3O)[C@H](O)[C@@H](O)[C@@H]2O)ccc1O
REMARK SMILES IDX 22 1 35 2 37 3 39 4 20 5 21 6 23 7 24 8 25 9 28 10 27 11
REMARK SMILES IDX 29 12 26 13 31 14 33 15 30 16 32 18 34 20 36 22 38 24 19 26
REMARK SMILES IDX 18 27 6 28 16 29 7 30 15 31 17 32 8 33 13 34 9 35 12 36
REMARK SMILES IDX 10 37 5 38 4 39 41 40 3 41 42 42 43 43 2 44 1 45 44 46 14 48
REMARK SMILES IDX 11 50 40 52
REMARK H PARENT 30 17 32 19 34 21 36 23 38 25 44 47 14 49 11 51 40 53
REMARK Flexibility Score: inf
ROOT
ATOM      1  C   UNL     1      -9.325  30.949   5.861  1.00  0.00     0.180 C 
ATOM      2  C   UNL     1      -8.307  31.444   4.811  1.00  0.00     0.177 C 
ATOM      3  C   UNL     1      -8.079  32.963   4.980  1.00  0.00     0.180 C 
ATOM      4  C   UNL     1      -7.777  33.310   6.451  1.00  0.00     0.214 C 
ATOM      5  C   UNL     1      -8.808  32.646   7.395  1.00  0.00     0.339 C 
ATOM      6  O   UNL     1      -8.864  31.241   7.175  1.00  0.00    -0.332 OA
ENDROOT
BRANCH   1   7
ATOM      7  C   UNL     1      -9.603  29.440   5.704  1.00  0.00     0.198 C 
BRANCH   7   8
ATOM      8  O   UNL     1      -8.960  28.919   4.555  1.00  0.00    -0.347 OA
BRANCH   8   9
ATOM      9  C   UNL     1      -8.136  27.816   4.903  1.00  0.00     0.281 C 
ATOM     10  C   UNL     1      -4.836  28.264   3.309  1.00  0.00     0.041 C 
ATOM     11  C   UNL     1      -5.856  28.286   4.450  1.00  0.00     0.150 C 
ATOM     12  C   UNL     1      -5.385  27.445   5.644  1.00  0.00     0.174 C 
ATOM     13  O   UNL     1      -7.068  27.750   3.968  1.00  0.00    -0.344 OA
ATOM     14  C   UNL     1      -6.264  27.801   6.829  1.00  0.00     0.179 C 
ATOM     15  C   UNL     1      -7.773  27.883   6.442  1.00  0.00     0.202 C 
BRANCH  12  16
ATOM     16  O   UNL     1      -4.044  27.723   5.971  1.00  0.00    -0.388 OA
ATOM     17  H   UNL     1      -4.017  27.899   6.951  1.00  0.00     0.211 HD
ENDBRANCH  12  16
BRANCH  14  18
ATOM     18  O   UNL     1      -6.031  26.882   7.867  1.00  0.00    -0.387 OA
ATOM     19  H   UNL     1      -5.106  27.042   8.187  1.00  0.00     0.211 HD
ENDBRANCH  14  18
BRANCH  15  20
ATOM     20  O   UNL     1      -8.535  26.937   7.164  1.00  0.00    -0.385 OA
ATOM     21  H   UNL     1      -8.106  26.844   8.050  1.00  0.00     0.211 HD
ENDBRANCH  15  20
ENDBRANCH   8   9
ENDBRANCH   7   8
ENDBRANCH   1   7
BRANCH   2  22
ATOM     22  O   UNL     1      -7.090  30.754   4.962  1.00  0.00    -0.387 OA
ATOM     23  H   UNL     1      -6.423  31.414   5.285  1.00  0.00     0.211 HD
ENDBRANCH   2  22
BRANCH   3  24
ATOM     24  O   UNL     1      -9.219  33.659   4.535  1.00  0.00    -0.387 OA
ATOM     25  H   UNL     1      -9.910  33.542   5.238  1.00  0.00     0.211 HD
ENDBRANCH   3  24
BRANCH   5  26
ATOM     26  O   UNL     1     -10.111  33.230   7.266  1.00  0.00    -0.454 OA
BRANCH  26  27
ATOM     27  C   UNL     1     -10.541  34.355   7.984  1.00  0.00     0.214 A 
ATOM     28  C   UNL     1     -11.155  34.202   9.238  1.00  0.00     0.180 A 
ATOM     29  C   UNL     1     -10.461  35.637   7.421  1.00  0.00     0.239 A 
ATOM     30  O   UNL     1     -11.626  35.265   9.877  1.00  0.00    -0.452 OA
ATOM     31  C   UNL     1     -10.927  36.763   8.150  1.00  0.00     0.111 A 
ATOM     32  O   UNL     1     -10.014  35.754   6.251  1.00  0.00    -0.285 OA
ATOM     33  C   UNL     1     -11.537  36.505   9.404  1.00  0.00     0.146 A 
ATOM     34  C   UNL     1     -10.851  38.121   7.705  1.00  0.00     0.134 A 
ATOM     35  C   UNL     1     -12.077  37.542  10.169  1.00  0.00     0.094 A 
ATOM     36  C   UNL     1     -11.425  39.135   8.486  1.00  0.00     0.093 A 
ATOM     37  C   UNL     1     -12.038  38.850   9.706  1.00  0.00     0.123 A 
BRANCH  28  38
ATOM     38  C   UNL     1     -11.371  32.875   9.851  1.00  0.00     0.025 A 
ATOM     39  C   UNL     1     -10.742  32.567  11.072  1.00  0.00     0.062 A 
ATOM     40  C   UNL     1     -12.124  31.888   9.200  1.00  0.00     0.016 A 
ATOM     41  C   UNL     1     -10.861  31.281  11.635  1.00  0.00     0.161 A 
ATOM     42  C   UNL     1     -12.270  30.622   9.773  1.00  0.00     0.051 A 
ATOM     43  C   UNL     1     -11.619  30.307  10.974  1.00  0.00     0.157 A 
BRANCH  41  44
ATOM     44  O   UNL     1     -10.228  30.924  12.836  1.00  0.00    -0.493 OA
ATOM     45  C   UNL     1      -8.975  31.436  13.275  1.00  0.00     0.278 C 
ENDBRANCH  41  44
BRANCH  43  46
ATOM     46  O   UNL     1     -11.703  29.025  11.507  1.00  0.00    -0.504 OA
ATOM     47  H   UNL     1     -12.025  28.855  12.448  1.00  0.00     0.293 HD
ENDBRANCH  43  46
ENDBRANCH  28  38
BRANCH  34  48
ATOM     48  O   UNL     1     -10.215  38.534   6.526  1.00  0.00    -0.507 OA
ATOM     49  H   UNL     1      -9.276  38.293   6.245  1.00  0.00     0.293 HD
ENDBRANCH  34  48
BRANCH  37  50
ATOM     50  O   UNL     1     -12.601  39.862  10.481  1.00  0.00    -0.508 OA
ATOM     51  H   UNL     1     -12.027  40.552  10.951  1.00  0.00     0.293 HD
ENDBRANCH  37  50
ENDBRANCH  26  27
ENDBRANCH   5  26
BRANCH   4  52
ATOM     52  O   UNL     1      -6.482  32.866   6.773  1.00  0.00    -0.384 OA
ATOM     53  H   UNL     1      -6.174  32.294   6.022  1.00  0.00     0.211 HD
ENDBRANCH   4  52
TORSDOF 16
ENDMDL
MODEL 5
REMARK VINA RESULT:    -6.170      2.620      9.112
REMARK INTER + INTRA:         -11.603
REMARK INTER:                  -9.270
REMARK INTRA:                  -2.333
REMARK UNBOUND:                -1.285
REMARK SMILES COc1cc(-c2oc3cc(O)cc(O)c3c(=O)c2O[C@H]2O[C@H](CO[C@H]3O[C@H](C)[C@@H](O)[C@H](O)[C@@H]3O)[C@H](O)[C@@H](O)[C@@H]2O)ccc1O
REMARK SMILES IDX 22 1 35 2 37 3 39 4 20 5 21 6 23 7 24 8 25 9 28 10 27 11
REMARK SMILES IDX 29 12 26 13 31 14 33 15 30 16 32 18 34 20 36 22 38 24 19 26
REMARK SMILES IDX 18 27 6 28 16 29 7 30 15 31 17 32 8 33 13 34 9 35 12 36
REMARK SMILES IDX 10 37 5 38 4 39 41 40 3 41 42 42 43 43 2 44 1 45 44 46 14 48
REMARK SMILES IDX 11 50 40 52
REMARK H PARENT 30 17 32 19 34 21 36 23 38 25 44 47 14 49 11 51 40 53
REMARK Flexibility Score: inf
ROOT
ATOM      1  C   UNL     1     -10.234  29.004   6.308  1.00  0.00     0.180 C 
ATOM      2  C   UNL     1     -10.362  27.533   6.759  1.00  0.00     0.177 C 
ATOM      3  C   UNL     1     -10.747  27.477   8.254  1.00  0.00     0.180 C 
ATOM      4  C   UNL     1     -11.951  28.395   8.543  1.00  0.00     0.214 C 
ATOM      5  C   UNL     1     -11.733  29.798   7.928  1.00  0.00     0.339 C 
ATOM      6  O   UNL     1     -11.453  29.700   6.536  1.00  0.00    -0.332 OA
ENDROOT
BRANCH   1   7
ATOM      7  C   UNL     1      -9.818  29.101   4.826  1.00  0.00     0.198 C 
BRANCH   7   8
ATOM      8  O   UNL     1      -8.653  29.892   4.673  1.00  0.00    -0.347 OA
BRANCH   8   9
ATOM      9  C   UNL     1      -7.756  29.670   5.752  1.00  0.00     0.281 C 
ATOM     10  C   UNL     1      -5.130  27.327   4.636  1.00  0.00     0.041 C 
ATOM     11  C   UNL     1      -5.738  28.688   4.988  1.00  0.00     0.150 C 
ATOM     12  C   UNL     1      -4.910  29.416   6.055  1.00  0.00     0.174 C 
ATOM     13  O   UNL     1      -7.038  28.472   5.491  1.00  0.00    -0.344 OA
ATOM     14  C   UNL     1      -5.372  30.862   6.082  1.00  0.00     0.179 C 
ATOM     15  C   UNL     1      -6.927  30.987   6.039  1.00  0.00     0.202 C 
BRANCH  12  16
ATOM     16  O   UNL     1      -3.536  29.382   5.752  1.00  0.00    -0.388 OA
ATOM     17  H   UNL     1      -3.132  30.197   6.158  1.00  0.00     0.211 HD
ENDBRANCH  12  16
BRANCH  14  18
ATOM     18  O   UNL     1      -4.820  31.500   7.207  1.00  0.00    -0.387 OA
ATOM     19  H   UNL     1      -5.581  31.762   7.788  1.00  0.00     0.211 HD
ENDBRANCH  14  18
BRANCH  15  20
ATOM     20  O   UNL     1      -7.418  31.630   7.197  1.00  0.00    -0.385 OA
ATOM     21  H   UNL     1      -6.689  32.210   7.530  1.00  0.00     0.211 HD
ENDBRANCH  15  20
ENDBRANCH   8   9
ENDBRANCH   7   8
ENDBRANCH   1   7
BRANCH   2  22
ATOM     22  O   UNL     1     -11.337  26.878   5.985  1.00  0.00    -0.387 OA
ATOM     23  H   UNL     1     -11.621  26.077   6.497  1.00  0.00     0.211 HD
ENDBRANCH   2  22
BRANCH   3  24
ATOM     24  O   UNL     1      -9.640  27.857   9.037  1.00  0.00    -0.387 OA
ATOM     25  H   UNL     1      -8.843  27.447   8.611  1.00  0.00     0.211 HD
ENDBRANCH   3  24
BRANCH   5  26
ATOM     26  O   UNL     1     -10.699  30.527   8.601  1.00  0.00    -0.454 OA
BRANCH  26  27
ATOM     27  C   UNL     1     -10.754  31.903   8.867  1.00  0.00     0.214 A 
ATOM     28  C   UNL     1     -11.144  32.364  10.135  1.00  0.00     0.180 A 
ATOM     29  C   UNL     1     -10.523  32.838   7.847  1.00  0.00     0.239 A 
ATOM     30  O   UNL     1     -11.265  33.666  10.355  1.00  0.00    -0.452 OA
ATOM     31  C   UNL     1     -10.611  34.227   8.125  1.00  0.00     0.111 A 
ATOM     32  O   UNL     1     -10.286  32.416   6.686  1.00  0.00    -0.285 OA
ATOM     33  C   UNL     1     -11.018  34.594   9.434  1.00  0.00     0.146 A 
ATOM     34  C   UNL     1     -10.348  35.273   7.184  1.00  0.00     0.134 A 
ATOM     35  C   UNL     1     -11.188  35.934   9.786  1.00  0.00     0.094 A 
ATOM     36  C   UNL     1     -10.552  36.608   7.564  1.00  0.00     0.093 A 
ATOM     37  C   UNL     1     -10.974  36.938   8.852  1.00  0.00     0.123 A 
BRANCH  28  38
ATOM     38  C   UNL     1     -11.505  31.440  11.231  1.00  0.00     0.025 A 
ATOM     39  C   UNL     1     -10.501  30.977  12.102  1.00  0.00     0.062 A 
ATOM     40  C   UNL     1     -12.811  30.953  11.369  1.00  0.00     0.016 A 
ATOM     41  C   UNL     1     -10.800  30.030  13.101  1.00  0.00     0.161 A 
ATOM     42  C   UNL     1     -13.117  30.037  12.380  1.00  0.00     0.051 A 
ATOM     43  C   UNL     1     -12.112  29.555  13.228  1.00  0.00     0.157 A 
BRANCH  41  44
ATOM     44  O   UNL     1      -9.825  29.522  13.973  1.00  0.00    -0.493 OA
ATOM     45  C   UNL     1      -8.885  30.316  14.688  1.00  0.00     0.278 C 
ENDBRANCH  41  44
BRANCH  43  46
ATOM     46  O   UNL     1     -12.401  28.589  14.187  1.00  0.00    -0.504 OA
ATOM     47  H   UNL     1     -11.689  28.199  14.788  1.00  0.00     0.293 HD
ENDBRANCH  43  46
ENDBRANCH  28  38
BRANCH  34  48
ATOM     48  O   UNL     1      -9.872  35.066   5.883  1.00  0.00    -0.507 OA
ATOM     49  H   UNL     1      -9.656  35.788   5.211  1.00  0.00     0.293 HD
ENDBRANCH  34  48
BRANCH  37  50
ATOM     50  O   UNL     1     -11.168  38.267   9.226  1.00  0.00    -0.508 OA
ATOM     51  H   UNL     1     -10.860  39.033   8.640  1.00  0.00     0.293 HD
ENDBRANCH  37  50
ENDBRANCH  26  27
ENDBRANCH   5  26
BRANCH   4  52
ATOM     52  O   UNL     1     -13.113  27.813   8.005  1.00  0.00    -0.384 OA
ATOM     53  H   UNL     1     -12.823  27.178   7.300  1.00  0.00     0.211 HD
ENDBRANCH   4  52
TORSDOF 16
ENDMDL
MODEL 6
REMARK VINA RESULT:    -6.093      2.276      9.403
REMARK INTER + INTRA:         -11.475
REMARK INTER:                 -10.040
REMARK INTRA:                  -1.435
REMARK UNBOUND:                -1.285
REMARK SMILES COc1cc(-c2oc3cc(O)cc(O)c3c(=O)c2O[C@H]2O[C@H](CO[C@H]3O[C@H](C)[C@@H](O)[C@H](O)[C@@H]3O)[C@H](O)[C@@H](O)[C@@H]2O)ccc1O
REMARK SMILES IDX 22 1 35 2 37 3 39 4 20 5 21 6 23 7 24 8 25 9 28 10 27 11
REMARK SMILES IDX 29 12 26 13 31 14 33 15 30 16 32 18 34 20 36 22 38 24 19 26
REMARK SMILES IDX 18 27 6 28 16 29 7 30 15 31 17 32 8 33 13 34 9 35 12 36
REMARK SMILES IDX 10 37 5 38 4 39 41 40 3 41 42 42 43 43 2 44 1 45 44 46 14 48
REMARK SMILES IDX 11 50 40 52
REMARK H PARENT 30 17 32 19 34 21 36 23 38 25 44 47 14 49 11 51 40 53
REMARK Flexibility Score: inf
ROOT
ATOM      1  C   UNL     1      -8.930  31.128   6.461  1.00  0.00     0.180 C 
ATOM      2  C   UNL     1      -8.031  31.135   5.207  1.00  0.00     0.177 C 
ATOM      3  C   UNL     1      -7.846  32.586   4.705  1.00  0.00     0.180 C 
ATOM      4  C   UNL     1      -7.426  33.514   5.862  1.00  0.00     0.214 C 
ATOM      5  C   UNL     1      -8.342  33.309   7.092  1.00  0.00     0.339 C 
ATOM      6  O   UNL     1      -8.363  31.940   7.482  1.00  0.00    -0.332 OA
ENDROOT
BRANCH   1   7
ATOM      7  C   UNL     1      -9.164  29.691   6.974  1.00  0.00     0.198 C 
BRANCH   7   8
ATOM      8  O   UNL     1      -8.299  28.773   6.332  1.00  0.00    -0.347 OA
BRANCH   8   9
ATOM      9  C   UNL     1      -9.048  27.771   5.659  1.00  0.00     0.281 C 
ATOM     10  C   UNL     1     -12.384  27.545   7.225  1.00  0.00     0.041 C 
ATOM     11  C   UNL     1     -11.357  27.955   6.166  1.00  0.00     0.150 C 
ATOM     12  C   UNL     1     -11.763  27.468   4.768  1.00  0.00     0.174 C 
ATOM     13  O   UNL     1     -10.118  27.375   6.506  1.00  0.00    -0.344 OA
ATOM     14  C   UNL     1     -10.898  28.203   3.760  1.00  0.00     0.179 C 
ATOM     15  C   UNL     1      -9.400  28.257   4.195  1.00  0.00     0.202 C 
BRANCH  12  16
ATOM     16  O   UNL     1     -13.116  27.750   4.499  1.00  0.00    -0.388 OA
ATOM     17  H   UNL     1     -13.296  28.663   4.854  1.00  0.00     0.211 HD
ENDBRANCH  12  16
BRANCH  14  18
ATOM     18  O   UNL     1     -11.062  27.610   2.496  1.00  0.00    -0.387 OA
ATOM     19  H   UNL     1     -10.287  27.004   2.363  1.00  0.00     0.211 HD
ENDBRANCH  14  18
BRANCH  15  20
ATOM     20  O   UNL     1      -8.573  27.607   3.252  1.00  0.00    -0.385 OA
ATOM     21  H   UNL     1      -8.057  28.315   2.792  1.00  0.00     0.211 HD
ENDBRANCH  15  20
ENDBRANCH   8   9
ENDBRANCH   7   8
ENDBRANCH   1   7
BRANCH   2  22
ATOM     22  O   UNL     1      -6.780  30.568   5.510  1.00  0.00    -0.387 OA
ATOM     23  H   UNL     1      -6.302  31.217   6.088  1.00  0.00     0.211 HD
ENDBRANCH   2  22
BRANCH   3  24
ATOM     24  O   UNL     1      -9.048  33.036   4.125  1.00  0.00    -0.387 OA
ATOM     25  H   UNL     1      -8.797  33.481   3.274  1.00  0.00     0.211 HD
ENDBRANCH   3  24
BRANCH   5  26
ATOM     26  O   UNL     1      -9.672  33.789   6.860  1.00  0.00    -0.454 OA
BRANCH  26  27
ATOM     27  C   UNL     1     -10.243  34.875   7.540  1.00  0.00     0.214 A 
ATOM     28  C   UNL     1     -11.028  34.659   8.685  1.00  0.00     0.180 A 
ATOM     29  C   UNL     1     -10.127  36.178   7.033  1.00  0.00     0.239 A 
ATOM     30  O   UNL     1     -11.626  35.684   9.277  1.00  0.00    -0.452 OA
ATOM     31  C   UNL     1     -10.735  37.262   7.718  1.00  0.00     0.111 A 
ATOM     32  O   UNL     1      -9.518  36.348   5.946  1.00  0.00    -0.285 OA
ATOM     33  C   UNL     1     -11.513  36.942   8.861  1.00  0.00     0.146 A 
ATOM     34  C   UNL     1     -10.644  38.636   7.329  1.00  0.00     0.134 A 
ATOM     35  C   UNL     1     -12.197  37.934   9.567  1.00  0.00     0.094 A 
ATOM     36  C   UNL     1     -11.363  39.604   8.047  1.00  0.00     0.093 A 
ATOM     37  C   UNL     1     -12.138  39.258   9.153  1.00  0.00     0.123 A 
BRANCH  28  38
ATOM     38  C   UNL     1     -11.284  33.305   9.219  1.00  0.00     0.025 A 
ATOM     39  C   UNL     1     -10.900  33.001  10.539  1.00  0.00     0.062 A 
ATOM     40  C   UNL     1     -11.826  32.296   8.412  1.00  0.00     0.016 A 
ATOM     41  C   UNL     1     -11.053  31.694  11.046  1.00  0.00     0.161 A 
ATOM     42  C   UNL     1     -12.008  31.008   8.923  1.00  0.00     0.051 A 
ATOM     43  C   UNL     1     -11.599  30.698  10.227  1.00  0.00     0.157 A 
BRANCH  41  44
ATOM     44  O   UNL     1     -10.659  31.341  12.346  1.00  0.00    -0.493 OA
ATOM     45  C   UNL     1      -9.321  31.388  12.827  1.00  0.00     0.278 C 
ENDBRANCH  41  44
BRANCH  43  46
ATOM     46  O   UNL     1     -11.712  29.399  10.712  1.00  0.00    -0.504 OA
ATOM     47  H   UNL     1     -12.607  28.948  10.835  1.00  0.00     0.293 HD
ENDBRANCH  43  46
ENDBRANCH  28  38
BRANCH  34  48
ATOM     48  O   UNL     1      -9.858  39.109   6.270  1.00  0.00    -0.507 OA
ATOM     49  H   UNL     1      -9.800  40.068   5.959  1.00  0.00     0.293 HD
ENDBRANCH  34  48
BRANCH  37  50
ATOM     50  O   UNL     1     -12.844  40.225   9.867  1.00  0.00    -0.508 OA
ATOM     51  H   UNL     1     -12.520  40.564  10.764  1.00  0.00     0.293 HD
ENDBRANCH  37  50
ENDBRANCH  26  27
ENDBRANCH   5  26
BRANCH   4  52
ATOM     52  O   UNL     1      -6.091  33.241   6.210  1.00  0.00    -0.384 OA
ATOM     53  H   UNL     1      -5.780  32.504   5.621  1.00  0.00     0.211 HD
ENDBRANCH   4  52
TORSDOF 16
ENDMDL
MODEL 7
REMARK VINA RESULT:    -6.037      1.987      8.044
REMARK INTER + INTRA:         -11.380
REMARK INTER:                 -10.170
REMARK INTRA:                  -1.211
REMARK UNBOUND:                -1.285
REMARK SMILES COc1cc(-c2oc3cc(O)cc(O)c3c(=O)c2O[C@H]2O[C@H](CO[C@H]3O[C@H](C)[C@@H](O)[C@H](O)[C@@H]3O)[C@H](O)[C@@H](O)[C@@H]2O)ccc1O
REMARK SMILES IDX 22 1 35 2 37 3 39 4 20 5 21 6 23 7 24 8 25 9 28 10 27 11
REMARK SMILES IDX 29 12 26 13 31 14 33 15 30 16 32 18 34 20 36 22 38 24 19 26
REMARK SMILES IDX 18 27 6 28 16 29 7 30 15 31 17 32 8 33 13 34 9 35 12 36
REMARK SMILES IDX 10 37 5 38 4 39 41 40 3 41 42 42 43 43 2 44 1 45 44 46 14 48
REMARK SMILES IDX 11 50 40 52
REMARK H PARENT 30 17 32 19 34 21 36 23 38 25 44 47 14 49 11 51 40 53
REMARK Flexibility Score: inf
ROOT
ATOM      1  C   UNL     1      -8.944  33.987   5.511  1.00  0.00     0.180 C 
ATOM      2  C   UNL     1      -8.850  35.237   4.610  1.00  0.00     0.177 C 
ATOM      3  C   UNL     1      -9.815  36.328   5.127  1.00  0.00     0.180 C 
ATOM      4  C   UNL     1      -9.626  36.552   6.640  1.00  0.00     0.214 C 
ATOM      5  C   UNL     1      -9.620  35.203   7.400  1.00  0.00     0.339 C 
ATOM      6  O   UNL     1      -8.640  34.324   6.859  1.00  0.00    -0.332 OA
ENDROOT
BRANCH   1   7
ATOM      7  C   UNL     1      -8.016  32.862   5.007  1.00  0.00     0.198 C 
BRANCH   7   8
ATOM      8  O   UNL     1      -6.781  32.870   5.700  1.00  0.00    -0.347 OA
BRANCH   8   9
ATOM      9  C   UNL     1      -6.608  31.659   6.422  1.00  0.00     0.281 C 
ATOM     10  C   UNL     1      -7.628  28.845   4.261  1.00  0.00     0.041 C 
ATOM     11  C   UNL     1      -6.650  29.790   4.964  1.00  0.00     0.150 C 
ATOM     12  C   UNL     1      -5.643  29.019   5.828  1.00  0.00     0.174 C 
ATOM     13  O   UNL     1      -7.392  30.654   5.794  1.00  0.00    -0.344 OA
ATOM     14  C   UNL     1      -4.525  29.979   6.193  1.00  0.00     0.179 C 
ATOM     15  C   UNL     1      -5.065  31.376   6.631  1.00  0.00     0.202 C 
BRANCH  12  16
ATOM     16  O   UNL     1      -5.096  27.927   5.128  1.00  0.00    -0.388 OA
ATOM     17  H   UNL     1      -4.309  28.273   4.625  1.00  0.00     0.211 HD
ENDBRANCH  12  16
BRANCH  14  18
ATOM     18  O   UNL     1      -3.717  29.389   7.181  1.00  0.00    -0.387 OA
ATOM     19  H   UNL     1      -2.775  29.553   6.914  1.00  0.00     0.211 HD
ENDBRANCH  14  18
BRANCH  15  20
ATOM     20  O   UNL     1      -4.690  31.672   7.960  1.00  0.00    -0.385 OA
ATOM     21  H   UNL     1      -5.529  31.764   8.478  1.00  0.00     0.211 HD
ENDBRANCH  15  20
ENDBRANCH   8   9
ENDBRANCH   7   8
ENDBRANCH   1   7
BRANCH   2  22
ATOM     22  O   UNL     1      -7.530  35.725   4.604  1.00  0.00    -0.387 OA
ATOM     23  H   UNL     1      -7.031  35.196   3.929  1.00  0.00     0.211 HD
ENDBRANCH   2  22
BRANCH   3  24
ATOM     24  O   UNL     1     -11.142  35.947   4.849  1.00  0.00    -0.387 OA
ATOM     25  H   UNL     1     -11.681  36.219   5.637  1.00  0.00     0.211 HD
ENDBRANCH   3  24
BRANCH   5  26
ATOM     26  O   UNL     1     -10.911  34.580   7.401  1.00  0.00    -0.454 OA
BRANCH  26  27
ATOM     27  C   UNL     1     -11.424  33.841   8.477  1.00  0.00     0.214 A 
ATOM     28  C   UNL     1     -12.098  34.490   9.525  1.00  0.00     0.180 A 
ATOM     29  C   UNL     1     -11.185  32.462   8.576  1.00  0.00     0.239 A 
ATOM     30  O   UNL     1     -12.513  33.793  10.574  1.00  0.00    -0.452 OA
ATOM     31  C   UNL     1     -11.687  31.733   9.686  1.00  0.00     0.111 A 
ATOM     32  O   UNL     1     -10.484  31.908   7.691  1.00  0.00    -0.285 OA
ATOM     33  C   UNL     1     -12.348  32.478  10.695  1.00  0.00     0.146 A 
ATOM     34  C   UNL     1     -11.552  30.320   9.871  1.00  0.00     0.134 A 
ATOM     35  C   UNL     1     -12.826  31.859  11.852  1.00  0.00     0.094 A 
ATOM     36  C   UNL     1     -12.022  29.734  11.056  1.00  0.00     0.093 A 
ATOM     37  C   UNL     1     -12.649  30.495  12.042  1.00  0.00     0.123 A 
BRANCH  28  38
ATOM     38  C   UNL     1     -12.297  35.954   9.544  1.00  0.00     0.025 A 
ATOM     39  C   UNL     1     -12.551  36.631   8.336  1.00  0.00     0.062 A 
ATOM     40  C   UNL     1     -12.157  36.691  10.727  1.00  0.00     0.016 A 
ATOM     41  C   UNL     1     -12.660  38.036   8.312  1.00  0.00     0.161 A 
ATOM     42  C   UNL     1     -12.296  38.082  10.711  1.00  0.00     0.051 A 
ATOM     43  C   UNL     1     -12.520  38.758   9.504  1.00  0.00     0.157 A 
BRANCH  41  44
ATOM     44  O   UNL     1     -12.886  38.753   7.126  1.00  0.00    -0.493 OA
ATOM     45  C   UNL     1     -11.876  39.418   6.377  1.00  0.00     0.278 C 
ENDBRANCH  41  44
BRANCH  43  46
ATOM     46  O   UNL     1     -12.585  40.147   9.475  1.00  0.00    -0.504 OA
ATOM     47  H   UNL     1     -11.783  40.726   9.677  1.00  0.00     0.293 HD
ENDBRANCH  43  46
ENDBRANCH  28  38
BRANCH  34  48
ATOM     48  O   UNL     1     -10.989  29.448   8.930  1.00  0.00    -0.507 OA
ATOM     49  H   UNL     1     -11.472  29.027   8.150  1.00  0.00     0.293 HD
ENDBRANCH  34  48
BRANCH  37  50
ATOM     50  O   UNL     1     -13.121  29.905  13.213  1.00  0.00    -0.508 OA
ATOM     51  H   UNL     1     -12.836  28.974  13.491  1.00  0.00     0.293 HD
ENDBRANCH  37  50
ENDBRANCH  26  27
ENDBRANCH   5  26
BRANCH   4  52
ATOM     52  O   UNL     1      -8.411  37.227   6.858  1.00  0.00    -0.384 OA
ATOM     53  H   UNL     1      -8.485  37.686   7.735  1.00  0.00     0.211 HD
ENDBRANCH   4  52
TORSDOF 16
ENDMDL
MODEL 8
REMARK VINA RESULT:    -5.904      2.982      7.505
REMARK INTER + INTRA:         -11.158
REMARK INTER:                  -9.503
REMARK INTRA:                  -1.655
REMARK UNBOUND:                -1.285
REMARK SMILES COc1cc(-c2oc3cc(O)cc(O)c3c(=O)c2O[C@H]2O[C@H](CO[C@H]3O[C@H](C)[C@@H](O)[C@H](O)[C@@H]3O)[C@H](O)[C@@H](O)[C@@H]2O)ccc1O
REMARK SMILES IDX 22 1 35 2 37 3 39 4 20 5 21 6 23 7 24 8 25 9 28 10 27 11
REMARK SMILES IDX 29 12 26 13 31 14 33 15 30 16 32 18 34 20 36 22 38 24 19 26
REMARK SMILES IDX 18 27 6 28 16 29 7 30 15 31 17 32 8 33 13 34 9 35 12 36
REMARK SMILES IDX 10 37 5 38 4 39 41 40 3 41 42 42 43 43 2 44 1 45 44 46 14 48
REMARK SMILES IDX 11 50 40 52
REMARK H PARENT 30 17 32 19 34 21 36 23 38 25 44 47 14 49 11 51 40 53
REMARK Flexibility Score: inf
ROOT
ATOM      1  C   UNL     1     -11.950  29.052   8.832  1.00  0.00     0.180 C 
ATOM      2  C   UNL     1     -12.069  27.523   8.656  1.00  0.00     0.177 C 
ATOM      3  C   UNL     1     -11.126  27.053   7.525  1.00  0.00     0.180 C 
ATOM      4  C   UNL     1      -9.706  27.616   7.728  1.00  0.00     0.214 C 
ATOM      5  C   UNL     1      -9.753  29.136   8.015  1.00  0.00     0.339 C 
ATOM      6  O   UNL     1     -10.606  29.415   9.120  1.00  0.00    -0.332 OA
ENDROOT
BRANCH   1   7
ATOM      7  C   UNL     1     -12.902  29.565   9.932  1.00  0.00     0.198 C 
BRANCH   7   8
ATOM      8  O   UNL     1     -12.535  29.057  11.202  1.00  0.00    -0.347 OA
BRANCH   8   9
ATOM      9  C   UNL     1     -12.189  30.118  12.081  1.00  0.00     0.281 C 
ATOM     10  C   UNL     1      -9.369  29.021  14.197  1.00  0.00     0.041 C 
ATOM     11  C   UNL     1     -10.051  29.760  13.042  1.00  0.00     0.150 C 
ATOM     12  C   UNL     1      -9.751  31.265  13.079  1.00  0.00     0.174 C 
ATOM     13  O   UNL     1     -11.444  29.572  13.161  1.00  0.00    -0.344 OA
ATOM     14  C   UNL     1     -10.161  31.845  11.737  1.00  0.00     0.179 C 
ATOM     15  C   UNL     1     -11.546  31.307  11.259  1.00  0.00     0.202 C 
BRANCH  12  16
ATOM     16  O   UNL     1      -8.380  31.510  13.282  1.00  0.00    -0.388 OA
ATOM     17  H   UNL     1      -7.887  30.755  12.859  1.00  0.00     0.211 HD
ENDBRANCH  12  16
BRANCH  14  18
ATOM     18  O   UNL     1     -10.136  33.248  11.817  1.00  0.00    -0.387 OA
ATOM     19  H   UNL     1      -9.586  33.479  12.610  1.00  0.00     0.211 HD
ENDBRANCH  14  18
BRANCH  15  20
ATOM     20  O   UNL     1     -12.477  32.359  11.113  1.00  0.00    -0.385 OA
ATOM     21  H   UNL     1     -13.310  32.065  11.559  1.00  0.00     0.211 HD
ENDBRANCH  15  20
ENDBRANCH   8   9
ENDBRANCH   7   8
ENDBRANCH   1   7
BRANCH   2  22
ATOM     22  O   UNL     1     -11.738  26.875   9.860  1.00  0.00    -0.387 OA
ATOM     23  H   UNL     1     -10.832  27.189  10.116  1.00  0.00     0.211 HD
ENDBRANCH   2  22
BRANCH   3  24
ATOM     24  O   UNL     1     -11.645  27.464   6.282  1.00  0.00    -0.387 OA
ATOM     25  H   UNL     1     -11.046  27.081   5.589  1.00  0.00     0.211 HD
ENDBRANCH   3  24
BRANCH   5  26
ATOM     26  O   UNL     1     -10.156  29.889   6.864  1.00  0.00    -0.454 OA
BRANCH  26  27
ATOM     27  C   UNL     1      -9.645  31.153   6.535  1.00  0.00     0.214 A 
ATOM     28  C   UNL     1      -8.501  31.266   5.727  1.00  0.00     0.180 A 
ATOM     29  C   UNL     1     -10.201  32.316   7.087  1.00  0.00     0.239 A 
ATOM     30  O   UNL     1      -7.980  32.461   5.483  1.00  0.00    -0.452 OA
ATOM     31  C   UNL     1      -9.654  33.586   6.766  1.00  0.00     0.111 A 
ATOM     32  O   UNL     1     -11.154  32.200   7.899  1.00  0.00    -0.285 OA
ATOM     33  C   UNL     1      -8.495  33.596   5.948  1.00  0.00     0.146 A 
ATOM     34  C   UNL     1     -10.165  34.842   7.224  1.00  0.00     0.134 A 
ATOM     35  C   UNL     1      -7.851  34.792   5.625  1.00  0.00     0.094 A 
ATOM     36  C   UNL     1      -9.480  36.023   6.901  1.00  0.00     0.093 A 
ATOM     37  C   UNL     1      -8.330  36.000   6.113  1.00  0.00     0.123 A 
BRANCH  28  38
ATOM     38  C   UNL     1      -7.796  30.081   5.194  1.00  0.00     0.025 A 
ATOM     39  C   UNL     1      -6.471  29.827   5.598  1.00  0.00     0.062 A 
ATOM     40  C   UNL     1      -8.391  29.253   4.233  1.00  0.00     0.016 A 
ATOM     41  C   UNL     1      -5.746  28.754   5.040  1.00  0.00     0.161 A 
ATOM     42  C   UNL     1      -7.685  28.170   3.702  1.00  0.00     0.051 A 
ATOM     43  C   UNL     1      -6.357  27.934   4.083  1.00  0.00     0.157 A 
BRANCH  41  44
ATOM     44  O   UNL     1      -4.416  28.482   5.394  1.00  0.00    -0.493 OA
ATOM     45  C   UNL     1      -3.735  29.068   6.497  1.00  0.00     0.278 C 
ENDBRANCH  41  44
BRANCH  43  46
ATOM     46  O   UNL     1      -5.629  26.901   3.501  1.00  0.00    -0.504 OA
ATOM     47  H   UNL     1      -4.793  26.527   3.927  1.00  0.00     0.293 HD
ENDBRANCH  43  46
ENDBRANCH  28  38
BRANCH  34  48
ATOM     48  O   UNL     1     -11.337  34.993   7.976  1.00  0.00    -0.507 OA
ATOM     49  H   UNL     1     -12.135  34.376   7.958  1.00  0.00     0.293 HD
ENDBRANCH  34  48
BRANCH  37  50
ATOM     50  O   UNL     1      -7.657  37.178   5.789  1.00  0.00    -0.508 OA
ATOM     51  H   UNL     1      -7.842  37.674   4.926  1.00  0.00     0.293 HD
ENDBRANCH  37  50
ENDBRANCH  26  27
ENDBRANCH   5  26
BRANCH   4  52
ATOM     52  O   UNL     1      -9.094  26.947   8.803  1.00  0.00    -0.384 OA
ATOM     53  H   UNL     1      -8.117  27.103   8.726  1.00  0.00     0.211 HD
ENDBRANCH   4  52
TORSDOF 16
ENDMDL
MODEL 9
REMARK VINA RESULT:    -5.323      2.590      7.883
REMARK INTER + INTRA:         -10.187
REMARK INTER:                  -8.832
REMARK INTRA:                  -1.356
REMARK UNBOUND:                -1.285
REMARK SMILES COc1cc(-c2oc3cc(O)cc(O)c3c(=O)c2O[C@H]2O[C@H](CO[C@H]3O[C@H](C)[C@@H](O)[C@H](O)[C@@H]3O)[C@H](O)[C@@H](O)[C@@H]2O)ccc1O
REMARK SMILES IDX 22 1 35 2 37 3 39 4 20 5 21 6 23 7 24 8 25 9 28 10 27 11
REMARK SMILES IDX 29 12 26 13 31 14 33 15 30 16 32 18 34 20 36 22 38 24 19 26
REMARK SMILES IDX 18 27 6 28 16 29 7 30 15 31 17 32 8 33 13 34 9 35 12 36
REMARK SMILES IDX 10 37 5 38 4 39 41 40 3 41 42 42 43 43 2 44 1 45 44 46 14 48
REMARK SMILES IDX 11 50 40 52
REMARK H PARENT 30 17 32 19 34 21 36 23 38 25 44 47 14 49 11 51 40 53
REMARK Flexibility Score: inf
ROOT
ATOM      1  C   UNL     1     -12.183  30.560   8.783  1.00  0.00     0.180 C 
ATOM      2  C   UNL     1     -12.314  29.096   8.310  1.00  0.00     0.177 C 
ATOM      3  C   UNL     1     -11.483  28.887   7.024  1.00  0.00     0.180 C 
ATOM      4  C   UNL     1     -10.052  29.429   7.204  1.00  0.00     0.214 C 
ATOM      5  C   UNL     1     -10.075  30.858   7.799  1.00  0.00     0.339 C 
ATOM      6  O   UNL     1     -10.818  30.887   9.012  1.00  0.00    -0.332 OA
ENDROOT
BRANCH   1   7
ATOM      7  C   UNL     1     -13.026  30.817  10.049  1.00  0.00     0.198 C 
BRANCH   7   8
ATOM      8  O   UNL     1     -12.819  29.802  11.015  1.00  0.00    -0.347 OA
BRANCH   8   9
ATOM      9  C   UNL     1     -12.308  30.356  12.218  1.00  0.00     0.281 C 
ATOM     10  C   UNL     1     -12.441  27.773  14.853  1.00  0.00     0.041 C 
ATOM     11  C   UNL     1     -11.788  28.652  13.782  1.00  0.00     0.150 C 
ATOM     12  C   UNL     1     -10.610  29.453  14.352  1.00  0.00     0.174 C 
ATOM     13  O   UNL     1     -12.759  29.553  13.301  1.00  0.00    -0.344 OA
ATOM     14  C   UNL     1      -9.824  30.007  13.177  1.00  0.00     0.179 C 
ATOM     15  C   UNL     1     -10.753  30.606  12.075  1.00  0.00     0.202 C 
BRANCH  12  16
ATOM     16  O   UNL     1      -9.760  28.638  15.125  1.00  0.00    -0.388 OA
ATOM     17  H   UNL     1      -9.465  29.186  15.902  1.00  0.00     0.211 HD
ENDBRANCH  12  16
BRANCH  14  18
ATOM     18  O   UNL     1      -8.890  30.945  13.651  1.00  0.00    -0.387 OA
ATOM     19  H   UNL     1      -9.395  31.777  13.843  1.00  0.00     0.211 HD
ENDBRANCH  14  18
BRANCH  15  20
ATOM     20  O   UNL     1     -10.494  31.981  11.885  1.00  0.00    -0.385 OA
ATOM     21  H   UNL     1      -9.761  32.044  11.224  1.00  0.00     0.211 HD
ENDBRANCH  15  20
ENDBRANCH   8   9
ENDBRANCH   7   8
ENDBRANCH   1   7
BRANCH   2  22
ATOM     22  O   UNL     1     -11.867  28.225   9.320  1.00  0.00    -0.387 OA
ATOM     23  H   UNL     1     -10.975  28.551   9.607  1.00  0.00     0.211 HD
ENDBRANCH   2  22
BRANCH   3  24
ATOM     24  O   UNL     1     -12.120  29.531   5.945  1.00  0.00    -0.387 OA
ATOM     25  H   UNL     1     -12.515  28.812   5.386  1.00  0.00     0.211 HD
ENDBRANCH   3  24
BRANCH   5  26
ATOM     26  O   UNL     1     -10.589  31.820   6.869  1.00  0.00    -0.454 OA
BRANCH  26  27
ATOM     27  C   UNL     1     -10.072  33.114   6.713  1.00  0.00     0.214 A 
ATOM     28  C   UNL     1      -8.757  33.302   6.257  1.00  0.00     0.180 A 
ATOM     29  C   UNL     1     -10.819  34.235   7.107  1.00  0.00     0.239 A 
ATOM     30  O   UNL     1      -8.251  34.525   6.184  1.00  0.00    -0.452 OA
ATOM     31  C   UNL     1     -10.270  35.537   6.969  1.00  0.00     0.111 A 
ATOM     32  O   UNL     1     -11.952  34.052   7.620  1.00  0.00    -0.285 OA
ATOM     33  C   UNL     1      -8.932  35.622   6.505  1.00  0.00     0.146 A 
ATOM     34  C   UNL     1     -10.951  36.755   7.286  1.00  0.00     0.134 A 
ATOM     35  C   UNL     1      -8.287  36.855   6.391  1.00  0.00     0.094 A 
ATOM     36  C   UNL     1     -10.265  37.974   7.184  1.00  0.00     0.093 A 
ATOM     37  C   UNL     1      -8.943  38.026   6.745  1.00  0.00     0.123 A 
BRANCH  28  38
ATOM     38  C   UNL     1      -7.872  32.166   5.922  1.00  0.00     0.025 A 
ATOM     39  C   UNL     1      -8.284  31.233   4.953  1.00  0.00     0.062 A 
ATOM     40  C   UNL     1      -6.669  31.956   6.609  1.00  0.00     0.016 A 
ATOM     41  C   UNL     1      -7.501  30.094   4.676  1.00  0.00     0.161 A 
ATOM     42  C   UNL     1      -5.875  30.845   6.313  1.00  0.00     0.051 A 
ATOM     43  C   UNL     1      -6.299  29.900   5.369  1.00  0.00     0.157 A 
BRANCH  41  44
ATOM     44  O   UNL     1      -7.888  29.125   3.737  1.00  0.00    -0.493 OA
ATOM     45  C   UNL     1      -8.971  28.219   3.907  1.00  0.00     0.278 C 
ENDBRANCH  41  44
BRANCH  43  46
ATOM     46  O   UNL     1      -5.546  28.756   5.127  1.00  0.00    -0.504 OA
ATOM     47  H   UNL     1      -4.578  28.801   4.844  1.00  0.00     0.293 HD
ENDBRANCH  43  46
ENDBRANCH  28  38
BRANCH  34  48
ATOM     48  O   UNL     1     -12.293  36.832   7.685  1.00  0.00    -0.507 OA
ATOM     49  H   UNL     1     -12.866  36.056   7.982  1.00  0.00     0.293 HD
ENDBRANCH  34  48
BRANCH  37  50
ATOM     50  O   UNL     1      -8.268  39.242   6.639  1.00  0.00    -0.508 OA
ATOM     51  H   UNL     1      -7.839  39.683   7.443  1.00  0.00     0.293 HD
ENDBRANCH  37  50
ENDBRANCH  26  27
ENDBRANCH   5  26
BRANCH   4  52
ATOM     52  O   UNL     1      -9.337  28.569   8.057  1.00  0.00    -0.384 OA
ATOM     53  H   UNL     1      -9.763  27.675   7.994  1.00  0.00     0.211 HD
ENDBRANCH   4  52
TORSDOF 16
ENDMDL
