MODEL 1
REMARK VINA RESULT:    -3.429      0.000      0.000
REMARK INTER + INTRA:          -3.746
REMARK INTER:                  -3.730
REMARK INTRA:                  -0.016
REMARK UNBOUND:                -0.016
REMARK SMILES OCc1ccco1
REMARK SMILES IDX 2 1 3 2 5 3 6 4 4 5 7 6 1 7
REMARK H PARENT 1 8
REMARK Flexibility Score: inf
ROOT
ATOM      1  C   UNL     1      14.140  31.619  -9.047  1.00  0.00     0.231 C 
ENDROOT
BRANCH   1   2
ATOM      2  C   UNL     1      14.997  32.716  -9.594  1.00  0.00     0.129 A 
ATOM      3  C   UNL     1      16.536  34.268  -9.813  1.00  0.00     0.042 A 
ATOM      4  C   UNL     1      15.709  34.227 -10.917  1.00  0.00     0.195 A 
ATOM      5  C   UNL     1      16.075  33.294  -8.954  1.00  0.00     0.048 A 
ATOM      6  O   UNL     1      14.799  33.293 -10.756  1.00  0.00    -0.467 OA
ENDBRANCH   1   2
BRANCH   1   7
ATOM      7  O   UNL     1      14.489  31.354  -7.717  1.00  0.00    -0.388 OA
ATOM      8  H   UNL     1      13.850  30.670  -7.387  1.00  0.00     0.211 HD
ENDBRANCH   1   7
TORSDOF 2
ENDMDL
MODEL 2
REMARK VINA RESULT:    -3.301      0.944      1.391
REMARK INTER + INTRA:          -3.606
REMARK INTER:                  -3.584
REMARK INTRA:                  -0.022
REMARK UNBOUND:                -0.016
REMARK SMILES OCc1ccco1
REMARK SMILES IDX 2 1 3 2 5 3 6 4 4 5 7 6 1 7
REMARK H PARENT 1 8
REMARK Flexibility Score: inf
ROOT
ATOM      1  C   UNL     1      14.085  31.687  -9.076  1.00  0.00     0.231 C 
ENDROOT
BRANCH   1   2
ATOM      2  C   UNL     1      14.951  32.774  -9.629  1.00  0.00     0.129 A 
ATOM      3  C   UNL     1      15.871  34.246 -10.975  1.00  0.00     0.042 A 
ATOM      4  C   UNL     1      16.498  34.234  -9.745  1.00  0.00     0.195 A 
ATOM      5  C   UNL     1      14.871  33.299 -10.903  1.00  0.00     0.048 A 
ATOM      6  O   UNL     1      15.929  33.344  -8.965  1.00  0.00    -0.467 OA
ENDBRANCH   1   2
BRANCH   1   7
ATOM      7  O   UNL     1      14.484  31.372  -7.771  1.00  0.00    -0.388 OA
ATOM      8  H   UNL     1      15.463  31.534  -7.726  1.00  0.00     0.211 HD
ENDBRANCH   1   7
TORSDOF 2
ENDMDL
MODEL 3
REMARK VINA RESULT:    -3.138     19.902     20.570
REMARK INTER + INTRA:          -3.429
REMARK INTER:                  -3.414
REMARK INTRA:                  -0.016
REMARK UNBOUND:                -0.016
REMARK SMILES OCc1ccco1
REMARK SMILES IDX 2 1 3 2 5 3 6 4 4 5 7 6 1 7
REMARK H PARENT 1 8
REMARK Flexibility Score: inf
ROOT
ATOM      1  C   UNL     1      28.390  17.630  -1.047  1.00  0.00     0.231 C 
ENDROOT
BRANCH   1   2
ATOM      2  C   UNL     1      28.481  18.585  -2.195  1.00  0.00     0.129 A 
ATOM      3  C   UNL     1      28.214  20.330  -3.501  1.00  0.00     0.042 A 
ATOM      4  C   UNL     1      28.985  19.364  -4.113  1.00  0.00     0.195 A 
ATOM      5  C   UNL     1      27.883  19.827  -2.260  1.00  0.00     0.048 A 
ATOM      6  O   UNL     1      29.125  18.333  -3.311  1.00  0.00    -0.467 OA
ENDBRANCH   1   2
BRANCH   1   7
ATOM      7  O   UNL     1      27.248  17.904  -0.284  1.00  0.00    -0.388 OA
ATOM      8  H   UNL     1      27.142  18.891  -0.275  1.00  0.00     0.211 HD
ENDBRANCH   1   7
TORSDOF 2
ENDMDL
MODEL 4
REMARK VINA RESULT:    -3.045      1.590      2.901
REMARK INTER + INTRA:          -3.328
REMARK INTER:                  -3.313
REMARK INTRA:                  -0.015
REMARK UNBOUND:                -0.016
REMARK SMILES OCc1ccco1
REMARK SMILES IDX 2 1 3 2 5 3 6 4 4 5 7 6 1 7
REMARK H PARENT 1 8
REMARK Flexibility Score: inf
ROOT
ATOM      1  C   UNL     1      16.315  32.657  -8.854  1.00  0.00     0.231 C 
ENDROOT
BRANCH   1   2
ATOM      2  C   UNL     1      14.979  32.338  -9.444  1.00  0.00     0.129 A 
ATOM      3  C   UNL     1      13.210  32.312 -10.747  1.00  0.00     0.042 A 
ATOM      4  C   UNL     1      13.034  31.492  -9.651  1.00  0.00     0.195 A 
ATOM      5  C   UNL     1      14.467  32.864 -10.613  1.00  0.00     0.048 A 
ATOM      6  O   UNL     1      14.104  31.530  -8.891  1.00  0.00    -0.467 OA
ENDBRANCH   1   2
BRANCH   1   7
ATOM      7  O   UNL     1      17.128  31.517  -8.860  1.00  0.00    -0.388 OA
ATOM      8  H   UNL     1      16.678  30.844  -8.285  1.00  0.00     0.211 HD
ENDBRANCH   1   7
TORSDOF 2
ENDMDL
MODEL 5
REMARK VINA RESULT:    -2.955      1.318      2.977
REMARK INTER + INTRA:          -3.230
REMARK INTER:                  -3.215
REMARK INTRA:                  -0.016
REMARK UNBOUND:                -0.016
REMARK SMILES OCc1ccco1
REMARK SMILES IDX 2 1 3 2 5 3 6 4 4 5 7 6 1 7
REMARK H PARENT 1 8
REMARK Flexibility Score: inf
ROOT
ATOM      1  C   UNL     1      16.105  34.150 -10.538  1.00  0.00     0.231 C 
ENDROOT
BRANCH   1   2
ATOM      2  C   UNL     1      15.322  33.145  -9.754  1.00  0.00     0.129 A 
ATOM      3  C   UNL     1      14.652  31.772  -8.176  1.00  0.00     0.042 A 
ATOM      4  C   UNL     1      13.831  31.697  -9.283  1.00  0.00     0.195 A 
ATOM      5  C   UNL     1      15.620  32.706  -8.480  1.00  0.00     0.048 A 
ATOM      6  O   UNL     1      14.258  32.525 -10.209  1.00  0.00    -0.467 OA
ENDBRANCH   1   2
BRANCH   1   7
ATOM      7  O   UNL     1      17.096  34.723  -9.731  1.00  0.00    -0.388 OA
ATOM      8  H   UNL     1      17.516  35.446 -10.267  1.00  0.00     0.211 HD
ENDBRANCH   1   7
TORSDOF 2
ENDMDL
MODEL 6
REMARK VINA RESULT:    -2.949     13.944     14.553
REMARK INTER + INTRA:          -3.224
REMARK INTER:                  -3.206
REMARK INTRA:                  -0.018
REMARK UNBOUND:                -0.016
REMARK SMILES OCc1ccco1
REMARK SMILES IDX 2 1 3 2 5 3 6 4 4 5 7 6 1 7
REMARK H PARENT 1 8
REMARK Flexibility Score: inf
ROOT
ATOM      1  C   UNL     1      15.419  18.837  -9.318  1.00  0.00     0.231 C 
ENDROOT
BRANCH   1   2
ATOM      2  C   UNL     1      16.683  18.582 -10.077  1.00  0.00     0.129 A 
ATOM      3  C   UNL     1      18.341  17.593 -11.124  1.00  0.00     0.042 A 
ATOM      4  C   UNL     1      18.546  18.955 -11.042  1.00  0.00     0.195 A 
ATOM      5  C   UNL     1      17.137  17.349 -10.497  1.00  0.00     0.048 A 
ATOM      6  O   UNL     1      17.541  19.518 -10.410  1.00  0.00    -0.467 OA
ENDBRANCH   1   2
BRANCH   1   7
ATOM      7  O   UNL     1      14.744  19.936  -9.863  1.00  0.00    -0.388 OA
ATOM      8  H   UNL     1      14.434  19.660 -10.766  1.00  0.00     0.211 HD
ENDBRANCH   1   7
TORSDOF 2
ENDMDL
MODEL 7
REMARK VINA RESULT:    -2.867      3.417      5.429
REMARK INTER + INTRA:          -3.134
REMARK INTER:                  -3.118
REMARK INTRA:                  -0.016
REMARK UNBOUND:                -0.016
REMARK SMILES OCc1ccco1
REMARK SMILES IDX 2 1 3 2 5 3 6 4 4 5 7 6 1 7
REMARK H PARENT 1 8
REMARK Flexibility Score: inf
ROOT
ATOM      1  C   UNL     1      13.207  31.046  -9.154  1.00  0.00     0.231 C 
ENDROOT
BRANCH   1   2
ATOM      2  C   UNL     1      12.159  29.986  -9.037  1.00  0.00     0.129 A 
ATOM      3  C   UNL     1      10.960  28.286  -8.330  1.00  0.00     0.042 A 
ATOM      4  C   UNL     1      10.495  28.755  -9.542  1.00  0.00     0.195 A 
ATOM      5  C   UNL     1      12.040  29.079  -8.003  1.00  0.00     0.048 A 
ATOM      6  O   UNL     1      11.231  29.767  -9.940  1.00  0.00    -0.467 OA
ENDBRANCH   1   2
BRANCH   1   7
ATOM      7  O   UNL     1      14.056  31.007  -8.040  1.00  0.00    -0.388 OA
ATOM      8  H   UNL     1      13.480  30.841  -7.249  1.00  0.00     0.211 HD
ENDBRANCH   1   7
TORSDOF 2
ENDMDL
MODEL 8
REMARK VINA RESULT:    -2.754     16.790     17.420
REMARK INTER + INTRA:          -3.011
REMARK INTER:                  -2.998
REMARK INTRA:                  -0.013
REMARK UNBOUND:                -0.016
REMARK SMILES OCc1ccco1
REMARK SMILES IDX 2 1 3 2 5 3 6 4 4 5 7 6 1 7
REMARK H PARENT 1 8
REMARK Flexibility Score: inf
ROOT
ATOM      1  C   UNL     1      27.157  24.353  -0.976  1.00  0.00     0.231 C 
ENDROOT
BRANCH   1   2
ATOM      2  C   UNL     1      27.818  23.635  -2.109  1.00  0.00     0.129 A 
ATOM      3  C   UNL     1      28.428  22.089  -3.545  1.00  0.00     0.042 A 
ATOM      4  C   UNL     1      29.125  23.262  -3.751  1.00  0.00     0.195 A 
ATOM      5  C   UNL     1      27.584  22.326  -2.481  1.00  0.00     0.048 A 
ATOM      6  O   UNL     1      28.741  24.165  -2.877  1.00  0.00    -0.467 OA
ENDBRANCH   1   2
BRANCH   1   7
ATOM      7  O   UNL     1      25.769  24.373  -1.164  1.00  0.00    -0.388 OA
ATOM      8  H   UNL     1      25.386  23.725  -0.516  1.00  0.00     0.211 HD
ENDBRANCH   1   7
TORSDOF 2
ENDMDL
