MODEL 1
REMARK VINA RESULT:    -4.924      0.000      0.000
REMARK INTER + INTRA:         -12.045
REMARK INTER:                  -9.530
REMARK INTRA:                  -2.515
REMARK UNBOUND:                -2.515
REMARK SMILES CCCCCCCCCCCCCCCCCC(=O)[O-]
REMARK SMILES IDX 10 1 11 2 12 3 13 4 14 5 15 6 16 7 17 8 18 9 19 10 20 11
REMARK SMILES IDX 9 12 8 13 7 14 6 15 5 16 4 17 3 18 2 19 1 20
REMARK H PARENT
REMARK Flexibility Score: inf
ROOT
ATOM      1  C   UNL     1      13.325  21.552  28.741  1.00  0.00     0.000 C 
ENDROOT
BRANCH   1   2
ATOM      2  C   UNL     1      13.263  22.178  30.145  1.00  0.00     0.000 C 
BRANCH   2   3
ATOM      3  C   UNL     1      13.731  23.648  30.189  1.00  0.00     0.000 C 
BRANCH   3   4
ATOM      4  C   UNL     1      12.736  24.551  30.942  1.00  0.00     0.000 C 
BRANCH   4   5
ATOM      5  C   UNL     1      11.269  24.149  30.682  1.00  0.00     0.000 C 
BRANCH   5   6
ATOM      6  C   UNL     1      10.374  24.240  31.929  1.00  0.00     0.000 C 
BRANCH   6   7
ATOM      7  C   UNL     1       9.411  23.050  32.063  1.00  0.00     0.006 C 
BRANCH   7   8
ATOM      8  C   UNL     1       9.995  21.761  31.470  1.00  0.00     0.053 C 
BRANCH   8   9
ATOM      9  C   UNL     1       9.097  21.174  30.424  1.00  0.00     0.041 C 
ATOM     10  O   UNL     1       9.431  20.120  29.822  1.00  0.00    -0.550 OA
ATOM     11  O   UNL     1       7.874  21.770  30.142  1.00  0.00    -0.550 OA
ENDBRANCH   8   9
ENDBRANCH   7   8
ENDBRANCH   6   7
ENDBRANCH   5   6
ENDBRANCH   4   5
ENDBRANCH   3   4
ENDBRANCH   2   3
ENDBRANCH   1   2
BRANCH   1  12
ATOM     12  C   UNL     1      14.092  20.220  28.716  1.00  0.00     0.000 C 
BRANCH  12  13
ATOM     13  C   UNL     1      14.601  19.806  30.107  1.00  0.00    -0.000 C 
BRANCH  13  14
ATOM     14  C   UNL     1      16.125  19.967  30.253  1.00  0.00    -0.000 C 
BRANCH  14  15
ATOM     15  C   UNL     1      16.512  21.000  31.323  1.00  0.00    -0.000 C 
BRANCH  15  16
ATOM     16  C   UNL     1      17.111  22.282  30.717  1.00  0.00    -0.000 C 
BRANCH  16  17
ATOM     17  C   UNL     1      17.321  22.175  29.198  1.00  0.00    -0.000 C 
BRANCH  17  18
ATOM     18  C   UNL     1      16.992  23.487  28.464  1.00  0.00    -0.000 C 
BRANCH  18  19
ATOM     19  C   UNL     1      16.444  23.247  27.048  1.00  0.00    -0.003 C 
ATOM     20  C   UNL     1      16.749  21.844  26.524  1.00  0.00     0.004 C 
ENDBRANCH  18  19
ENDBRANCH  17  18
ENDBRANCH  16  17
ENDBRANCH  15  16
ENDBRANCH  14  15
ENDBRANCH  13  14
ENDBRANCH  12  13
ENDBRANCH   1  12
TORSDOF 16
ENDMDL
MODEL 2
REMARK VINA RESULT:    -4.900      3.265      6.541
REMARK INTER + INTRA:         -11.999
REMARK INTER:                  -9.431
REMARK INTRA:                  -2.568
REMARK UNBOUND:                -2.515
REMARK SMILES CCCCCCCCCCCCCCCCCC(=O)[O-]
REMARK SMILES IDX 10 1 11 2 12 3 13 4 14 5 15 6 16 7 17 8 18 9 19 10 20 11
REMARK SMILES IDX 9 12 8 13 7 14 6 15 5 16 4 17 3 18 2 19 1 20
REMARK H PARENT
REMARK Flexibility Score: inf
ROOT
ATOM      1  C   UNL     1      11.670  24.158  30.211  1.00  0.00     0.000 C 
ENDROOT
BRANCH   1   2
ATOM      2  C   UNL     1      13.150  24.211  30.624  1.00  0.00     0.000 C 
BRANCH   2   3
ATOM      3  C   UNL     1      14.127  23.876  29.477  1.00  0.00     0.000 C 
BRANCH   3   4
ATOM      4  C   UNL     1      15.432  23.243  29.993  1.00  0.00     0.000 C 
BRANCH   4   5
ATOM      5  C   UNL     1      16.531  23.203  28.909  1.00  0.00     0.000 C 
BRANCH   5   6
ATOM      6  C   UNL     1      16.956  21.779  28.515  1.00  0.00     0.000 C 
BRANCH   6   7
ATOM      7  C   UNL     1      17.006  21.569  26.993  1.00  0.00     0.006 C 
BRANCH   7   8
ATOM      8  C   UNL     1      15.688  21.954  26.310  1.00  0.00     0.053 C 
BRANCH   8   9
ATOM      9  C   UNL     1      15.915  22.843  25.125  1.00  0.00     0.041 C 
ATOM     10  O   UNL     1      15.873  22.367  23.960  1.00  0.00    -0.550 OA
ATOM     11  O   UNL     1      16.136  24.202  25.307  1.00  0.00    -0.550 OA
ENDBRANCH   8   9
ENDBRANCH   7   8
ENDBRANCH   6   7
ENDBRANCH   5   6
ENDBRANCH   4   5
ENDBRANCH   3   4
ENDBRANCH   2   3
ENDBRANCH   1   2
BRANCH   1  12
ATOM     12  C   UNL     1      10.721  24.009  31.412  1.00  0.00     0.000 C 
BRANCH  12  13
ATOM     13  C   UNL     1       9.535  23.076  31.114  1.00  0.00    -0.000 C 
BRANCH  13  14
ATOM     14  C   UNL     1       9.747  22.235  29.844  1.00  0.00    -0.000 C 
BRANCH  14  15
ATOM     15  C   UNL     1       9.694  20.723  30.118  1.00  0.00    -0.000 C 
BRANCH  15  16
ATOM     16  C   UNL     1      10.346  20.343  31.460  1.00  0.00    -0.000 C 
BRANCH  16  17
ATOM     17  C   UNL     1      11.660  19.566  31.278  1.00  0.00    -0.000 C 
BRANCH  17  18
ATOM     18  C   UNL     1      12.883  20.493  31.173  1.00  0.00    -0.000 C 
BRANCH  18  19
ATOM     19  C   UNL     1      13.798  20.129  29.992  1.00  0.00    -0.003 C 
ATOM     20  C   UNL     1      13.147  20.396  28.634  1.00  0.00     0.004 C 
ENDBRANCH  18  19
ENDBRANCH  17  18
ENDBRANCH  16  17
ENDBRANCH  15  16
ENDBRANCH  14  15
ENDBRANCH  13  14
ENDBRANCH  12  13
ENDBRANCH   1  12
TORSDOF 16
ENDMDL
MODEL 3
REMARK VINA RESULT:    -4.899      2.921      6.412
REMARK INTER + INTRA:         -11.997
REMARK INTER:                  -9.460
REMARK INTRA:                  -2.536
REMARK UNBOUND:                -2.515
REMARK SMILES CCCCCCCCCCCCCCCCCC(=O)[O-]
REMARK SMILES IDX 10 1 11 2 12 3 13 4 14 5 15 6 16 7 17 8 18 9 19 10 20 11
REMARK SMILES IDX 9 12 8 13 7 14 6 15 5 16 4 17 3 18 2 19 1 20
REMARK H PARENT
REMARK Flexibility Score: inf
ROOT
ATOM      1  C   UNL     1      13.211  21.258  28.272  1.00  0.00     0.000 C 
ENDROOT
BRANCH   1   2
ATOM      2  C   UNL     1      13.937  19.995  28.765  1.00  0.00     0.000 C 
BRANCH   2   3
ATOM      3  C   UNL     1      15.266  20.288  29.495  1.00  0.00     0.000 C 
BRANCH   3   4
ATOM      4  C   UNL     1      15.101  21.355  30.592  1.00  0.00     0.000 C 
BRANCH   4   5
ATOM      5  C   UNL     1      16.194  22.444  30.517  1.00  0.00     0.000 C 
BRANCH   5   6
ATOM      6  C   UNL     1      17.089  22.333  29.272  1.00  0.00     0.000 C 
BRANCH   6   7
ATOM      7  C   UNL     1      17.071  23.604  28.408  1.00  0.00     0.006 C 
BRANCH   7   8
ATOM      8  C   UNL     1      15.737  23.786  27.671  1.00  0.00     0.053 C 
BRANCH   8   9
ATOM      9  C   UNL     1      15.888  23.591  26.193  1.00  0.00     0.041 C 
ATOM     10  O   UNL     1      15.705  22.454  25.683  1.00  0.00    -0.550 OA
ATOM     11  O   UNL     1      16.195  24.671  25.376  1.00  0.00    -0.550 OA
ENDBRANCH   8   9
ENDBRANCH   7   8
ENDBRANCH   6   7
ENDBRANCH   5   6
ENDBRANCH   4   5
ENDBRANCH   3   4
ENDBRANCH   2   3
ENDBRANCH   1   2
BRANCH   1  12
ATOM     12  C   UNL     1      11.728  21.289  28.677  1.00  0.00     0.000 C 
BRANCH  12  13
ATOM     13  C   UNL     1      11.427  20.383  29.883  1.00  0.00    -0.000 C 
BRANCH  13  14
ATOM     14  C   UNL     1       9.923  20.287  30.192  1.00  0.00    -0.000 C 
BRANCH  14  15
ATOM     15  C   UNL     1       9.513  21.130  31.409  1.00  0.00    -0.000 C 
BRANCH  15  16
ATOM     16  C   UNL     1       9.077  22.555  31.021  1.00  0.00    -0.000 C 
BRANCH  16  17
ATOM     17  C   UNL     1       9.845  23.638  31.796  1.00  0.00    -0.000 C 
BRANCH  17  18
ATOM     18  C   UNL     1      10.820  24.423  30.901  1.00  0.00    -0.000 C 
BRANCH  18  19
ATOM     19  C   UNL     1      12.281  23.988  31.101  1.00  0.00    -0.003 C 
ATOM     20  C   UNL     1      13.221  24.566  30.043  1.00  0.00     0.004 C 
ENDBRANCH  18  19
ENDBRANCH  17  18
ENDBRANCH  16  17
ENDBRANCH  15  16
ENDBRANCH  14  15
ENDBRANCH  13  14
ENDBRANCH  12  13
ENDBRANCH   1  12
TORSDOF 16
ENDMDL
MODEL 4
REMARK VINA RESULT:    -4.847      1.530      4.354
REMARK INTER + INTRA:         -11.897
REMARK INTER:                  -9.514
REMARK INTRA:                  -2.382
REMARK UNBOUND:                -2.515
REMARK SMILES CCCCCCCCCCCCCCCCCC(=O)[O-]
REMARK SMILES IDX 10 1 11 2 12 3 13 4 14 5 15 6 16 7 17 8 18 9 19 10 20 11
REMARK SMILES IDX 9 12 8 13 7 14 6 15 5 16 4 17 3 18 2 19 1 20
REMARK H PARENT
REMARK Flexibility Score: inf
ROOT
ATOM      1  C   UNL     1      14.422  21.503  26.186  1.00  0.00     0.000 C 
ENDROOT
BRANCH   1   2
ATOM      2  C   UNL     1      13.622  21.218  27.469  1.00  0.00     0.000 C 
BRANCH   2   3
ATOM      3  C   UNL     1      14.398  20.382  28.510  1.00  0.00     0.000 C 
BRANCH   3   4
ATOM      4  C   UNL     1      13.604  19.144  28.968  1.00  0.00     0.000 C 
BRANCH   4   5
ATOM      5  C   UNL     1      13.491  19.058  30.505  1.00  0.00     0.000 C 
BRANCH   5   6
ATOM      6  C   UNL     1      13.042  20.373  31.164  1.00  0.00     0.000 C 
BRANCH   6   7
ATOM      7  C   UNL     1      11.620  20.296  31.744  1.00  0.00     0.006 C 
BRANCH   7   8
ATOM      8  C   UNL     1      10.648  19.572  30.804  1.00  0.00     0.053 C 
BRANCH   8   9
ATOM      9  C   UNL     1       9.922  20.531  29.910  1.00  0.00     0.041 C 
ATOM     10  O   UNL     1      10.445  20.906  28.827  1.00  0.00    -0.550 OA
ATOM     11  O   UNL     1       8.653  20.980  30.255  1.00  0.00    -0.550 OA
ENDBRANCH   8   9
ENDBRANCH   7   8
ENDBRANCH   6   7
ENDBRANCH   5   6
ENDBRANCH   4   5
ENDBRANCH   3   4
ENDBRANCH   2   3
ENDBRANCH   1   2
BRANCH   1  12
ATOM     12  C   UNL     1      15.883  21.888  26.468  1.00  0.00     0.000 C 
BRANCH  12  13
ATOM     13  C   UNL     1      16.074  23.407  26.615  1.00  0.00    -0.000 C 
BRANCH  13  14
ATOM     14  C   UNL     1      16.895  23.784  27.860  1.00  0.00    -0.000 C 
BRANCH  14  15
ATOM     15  C   UNL     1      16.111  23.591  29.168  1.00  0.00    -0.000 C 
BRANCH  15  16
ATOM     16  C   UNL     1      14.667  24.116  29.074  1.00  0.00    -0.000 C 
BRANCH  16  17
ATOM     17  C   UNL     1      13.800  23.671  30.262  1.00  0.00    -0.000 C 
BRANCH  17  18
ATOM     18  C   UNL     1      12.304  23.953  30.037  1.00  0.00    -0.000 C 
BRANCH  18  19
ATOM     19  C   UNL     1      11.580  24.357  31.332  1.00  0.00    -0.003 C 
ATOM     20  C   UNL     1      10.089  24.020  31.307  1.00  0.00     0.004 C 
ENDBRANCH  18  19
ENDBRANCH  17  18
ENDBRANCH  16  17
ENDBRANCH  15  16
ENDBRANCH  14  15
ENDBRANCH  13  14
ENDBRANCH  12  13
ENDBRANCH   1  12
TORSDOF 16
ENDMDL
MODEL 5
REMARK VINA RESULT:    -4.741      3.247      6.935
REMARK INTER + INTRA:         -11.690
REMARK INTER:                  -9.473
REMARK INTRA:                  -2.218
REMARK UNBOUND:                -2.515
REMARK SMILES CCCCCCCCCCCCCCCCCC(=O)[O-]
REMARK SMILES IDX 10 1 11 2 12 3 13 4 14 5 15 6 16 7 17 8 18 9 19 10 20 11
REMARK SMILES IDX 9 12 8 13 7 14 6 15 5 16 4 17 3 18 2 19 1 20
REMARK H PARENT
REMARK Flexibility Score: inf
ROOT
ATOM      1  C   UNL     1      14.243  23.734  30.215  1.00  0.00     0.000 C 
ENDROOT
BRANCH   1   2
ATOM      2  C   UNL     1      14.901  22.425  30.683  1.00  0.00     0.000 C 
BRANCH   2   3
ATOM      3  C   UNL     1      14.033  21.172  30.437  1.00  0.00     0.000 C 
BRANCH   3   4
ATOM      4  C   UNL     1      14.666  20.221  29.405  1.00  0.00     0.000 C 
BRANCH   4   5
ATOM      5  C   UNL     1      13.988  20.323  28.022  1.00  0.00     0.000 C 
BRANCH   5   6
ATOM      6  C   UNL     1      14.522  21.477  27.157  1.00  0.00     0.000 C 
BRANCH   6   7
ATOM      7  C   UNL     1      16.017  21.751  27.384  1.00  0.00     0.006 C 
BRANCH   7   8
ATOM      8  C   UNL     1      16.812  21.757  26.072  1.00  0.00     0.053 C 
BRANCH   8   9
ATOM      9  C   UNL     1      16.170  22.630  25.037  1.00  0.00     0.041 C 
ATOM     10  O   UNL     1      16.055  23.868  25.236  1.00  0.00    -0.550 OA
ATOM     11  O   UNL     1      15.732  22.082  23.838  1.00  0.00    -0.550 OA
ENDBRANCH   8   9
ENDBRANCH   7   8
ENDBRANCH   6   7
ENDBRANCH   5   6
ENDBRANCH   4   5
ENDBRANCH   3   4
ENDBRANCH   2   3
ENDBRANCH   1   2
BRANCH   1  12
ATOM     12  C   UNL     1      12.712  23.716  30.361  1.00  0.00     0.000 C 
BRANCH  12  13
ATOM     13  C   UNL     1      12.204  24.760  31.370  1.00  0.00    -0.000 C 
BRANCH  13  14
ATOM     14  C   UNL     1      10.903  24.325  32.068  1.00  0.00    -0.000 C 
BRANCH  14  15
ATOM     15  C   UNL     1       9.869  23.748  31.089  1.00  0.00    -0.000 C 
BRANCH  15  16
ATOM     16  C   UNL     1       9.007  22.642  31.723  1.00  0.00    -0.000 C 
BRANCH  16  17
ATOM     17  C   UNL     1       8.879  21.404  30.822  1.00  0.00    -0.000 C 
BRANCH  17  18
ATOM     18  C   UNL     1      10.198  20.619  30.707  1.00  0.00    -0.000 C 
BRANCH  18  19
ATOM     19  C   UNL     1      10.576  20.315  29.248  1.00  0.00    -0.003 C 
ATOM     20  C   UNL     1      10.708  21.576  28.395  1.00  0.00     0.004 C 
ENDBRANCH  18  19
ENDBRANCH  17  18
ENDBRANCH  16  17
ENDBRANCH  15  16
ENDBRANCH  14  15
ENDBRANCH  13  14
ENDBRANCH  12  13
ENDBRANCH   1  12
TORSDOF 16
ENDMDL
MODEL 6
REMARK VINA RESULT:    -4.698      2.051      3.040
REMARK INTER + INTRA:         -11.607
REMARK INTER:                  -9.590
REMARK INTRA:                  -2.017
REMARK UNBOUND:                -2.515
REMARK SMILES CCCCCCCCCCCCCCCCCC(=O)[O-]
REMARK SMILES IDX 10 1 11 2 12 3 13 4 14 5 15 6 16 7 17 8 18 9 19 10 20 11
REMARK SMILES IDX 9 12 8 13 7 14 6 15 5 16 4 17 3 18 2 19 1 20
REMARK H PARENT
REMARK Flexibility Score: inf
ROOT
ATOM      1  C   UNL     1      13.394  21.317  28.683  1.00  0.00     0.000 C 
ENDROOT
BRANCH   1   2
ATOM      2  C   UNL     1      11.918  20.888  28.747  1.00  0.00     0.000 C 
BRANCH   2   3
ATOM      3  C   UNL     1      11.661  19.688  29.683  1.00  0.00     0.000 C 
BRANCH   3   4
ATOM      4  C   UNL     1      10.363  19.852  30.494  1.00  0.00     0.000 C 
BRANCH   4   5
ATOM      5  C   UNL     1       9.582  21.123  30.096  1.00  0.00     0.000 C 
BRANCH   5   6
ATOM      6  C   UNL     1       9.011  21.895  31.297  1.00  0.00     0.000 C 
BRANCH   6   7
ATOM      7  C   UNL     1       9.615  23.301  31.445  1.00  0.00     0.006 C 
BRANCH   7   8
ATOM      8  C   UNL     1      11.124  23.260  31.716  1.00  0.00     0.053 C 
BRANCH   8   9
ATOM      9  C   UNL     1      11.886  24.108  30.743  1.00  0.00     0.041 C 
ATOM     10  O   UNL     1      11.416  24.337  29.598  1.00  0.00    -0.550 OA
ATOM     11  O   UNL     1      13.098  24.676  31.116  1.00  0.00    -0.550 OA
ENDBRANCH   8   9
ENDBRANCH   7   8
ENDBRANCH   6   7
ENDBRANCH   5   6
ENDBRANCH   4   5
ENDBRANCH   3   4
ENDBRANCH   2   3
ENDBRANCH   1   2
BRANCH   1  12
ATOM     12  C   UNL     1      14.363  20.123  28.715  1.00  0.00     0.000 C 
BRANCH  12  13
ATOM     13  C   UNL     1      15.472  20.292  29.766  1.00  0.00    -0.000 C 
BRANCH  13  14
ATOM     14  C   UNL     1      16.689  21.064  29.226  1.00  0.00    -0.000 C 
BRANCH  14  15
ATOM     15  C   UNL     1      16.827  22.462  29.847  1.00  0.00    -0.000 C 
BRANCH  15  16
ATOM     16  C   UNL     1      16.186  23.560  28.980  1.00  0.00    -0.000 C 
BRANCH  16  17
ATOM     17  C   UNL     1      16.943  23.787  27.661  1.00  0.00    -0.000 C 
BRANCH  17  18
ATOM     18  C   UNL     1      16.046  23.588  26.426  1.00  0.00    -0.000 C 
BRANCH  18  19
ATOM     19  C   UNL     1      16.160  22.172  25.838  1.00  0.00    -0.003 C 
ATOM     20  C   UNL     1      15.965  22.143  24.322  1.00  0.00     0.004 C 
ENDBRANCH  18  19
ENDBRANCH  17  18
ENDBRANCH  16  17
ENDBRANCH  15  16
ENDBRANCH  14  15
ENDBRANCH  13  14
ENDBRANCH  12  13
ENDBRANCH   1  12
TORSDOF 16
ENDMDL
MODEL 7
REMARK VINA RESULT:    -4.669      1.667      3.664
REMARK INTER + INTRA:         -11.552
REMARK INTER:                  -9.246
REMARK INTRA:                  -2.307
REMARK UNBOUND:                -2.515
REMARK SMILES CCCCCCCCCCCCCCCCCC(=O)[O-]
REMARK SMILES IDX 10 1 11 2 12 3 13 4 14 5 15 6 16 7 17 8 18 9 19 10 20 11
REMARK SMILES IDX 9 12 8 13 7 14 6 15 5 16 4 17 3 18 2 19 1 20
REMARK H PARENT
REMARK Flexibility Score: inf
ROOT
ATOM      1  C   UNL     1      11.115  24.158  30.733  1.00  0.00     0.000 C 
ENDROOT
BRANCH   1   2
ATOM      2  C   UNL     1      10.353  24.117  32.069  1.00  0.00     0.000 C 
BRANCH   2   3
ATOM      3  C   UNL     1       9.258  23.031  32.125  1.00  0.00     0.000 C 
BRANCH   3   4
ATOM      4  C   UNL     1       8.858  22.537  30.723  1.00  0.00     0.000 C 
BRANCH   4   5
ATOM      5  C   UNL     1       8.847  20.997  30.627  1.00  0.00     0.000 C 
BRANCH   5   6
ATOM      6  C   UNL     1      10.048  20.328  31.315  1.00  0.00     0.000 C 
BRANCH   6   7
ATOM      7  C   UNL     1      11.041  19.711  30.318  1.00  0.00     0.006 C 
BRANCH   7   8
ATOM      8  C   UNL     1      12.259  20.612  30.076  1.00  0.00     0.053 C 
BRANCH   8   9
ATOM      9  C   UNL     1      12.288  21.143  28.676  1.00  0.00     0.041 C 
ATOM     10  O   UNL     1      13.312  20.986  27.960  1.00  0.00    -0.550 OA
ATOM     11  O   UNL     1      11.170  21.779  28.149  1.00  0.00    -0.550 OA
ENDBRANCH   8   9
ENDBRANCH   7   8
ENDBRANCH   6   7
ENDBRANCH   5   6
ENDBRANCH   4   5
ENDBRANCH   3   4
ENDBRANCH   2   3
ENDBRANCH   1   2
BRANCH   1  12
ATOM     12  C   UNL     1      12.641  24.122  30.917  1.00  0.00     0.000 C 
BRANCH  12  13
ATOM     13  C   UNL     1      13.391  24.809  29.763  1.00  0.00    -0.000 C 
BRANCH  13  14
ATOM     14  C   UNL     1      14.667  24.054  29.352  1.00  0.00    -0.000 C 
BRANCH  14  15
ATOM     15  C   UNL     1      15.077  22.982  30.374  1.00  0.00    -0.000 C 
BRANCH  15  16
ATOM     16  C   UNL     1      16.097  21.980  29.804  1.00  0.00    -0.000 C 
BRANCH  16  17
ATOM     17  C   UNL     1      16.770  22.491  28.520  1.00  0.00    -0.000 C 
BRANCH  17  18
ATOM     18  C   UNL     1      16.772  21.438  27.397  1.00  0.00    -0.000 C 
BRANCH  18  19
ATOM     19  C   UNL     1      16.543  22.059  26.009  1.00  0.00    -0.003 C 
ATOM     20  C   UNL     1      16.119  23.526  26.078  1.00  0.00     0.004 C 
ENDBRANCH  18  19
ENDBRANCH  17  18
ENDBRANCH  16  17
ENDBRANCH  15  16
ENDBRANCH  14  15
ENDBRANCH  13  14
ENDBRANCH  12  13
ENDBRANCH   1  12
TORSDOF 16
ENDMDL
MODEL 8
REMARK VINA RESULT:    -4.556      1.331      2.961
REMARK INTER + INTRA:         -11.333
REMARK INTER:                  -9.038
REMARK INTRA:                  -2.295
REMARK UNBOUND:                -2.515
REMARK SMILES CCCCCCCCCCCCCCCCCC(=O)[O-]
REMARK SMILES IDX 10 1 11 2 12 3 13 4 14 5 15 6 16 7 17 8 18 9 19 10 20 11
REMARK SMILES IDX 9 12 8 13 7 14 6 15 5 16 4 17 3 18 2 19 1 20
REMARK H PARENT
REMARK Flexibility Score: inf
ROOT
ATOM      1  C   UNL     1      13.241  19.429  28.747  1.00  0.00     0.000 C 
ENDROOT
BRANCH   1   2
ATOM      2  C   UNL     1      12.361  19.975  29.885  1.00  0.00     0.000 C 
BRANCH   2   3
ATOM      3  C   UNL     1      13.166  20.583  31.054  1.00  0.00     0.000 C 
BRANCH   3   4
ATOM      4  C   UNL     1      12.592  21.936  31.512  1.00  0.00     0.000 C 
BRANCH   4   5
ATOM      5  C   UNL     1      12.731  23.027  30.429  1.00  0.00     0.000 C 
BRANCH   5   6
ATOM      6  C   UNL     1      11.448  23.844  30.209  1.00  0.00     0.000 C 
BRANCH   6   7
ATOM      7  C   UNL     1      10.373  23.568  31.273  1.00  0.00     0.006 C 
BRANCH   7   8
ATOM      8  C   UNL     1       9.084  23.004  30.663  1.00  0.00     0.053 C 
BRANCH   8   9
ATOM      9  C   UNL     1       8.575  21.823  31.433  1.00  0.00     0.041 C 
ATOM     10  O   UNL     1       7.345  21.552  31.437  1.00  0.00    -0.550 OA
ATOM     11  O   UNL     1       9.464  21.001  32.115  1.00  0.00    -0.550 OA
ENDBRANCH   8   9
ENDBRANCH   7   8
ENDBRANCH   6   7
ENDBRANCH   5   6
ENDBRANCH   4   5
ENDBRANCH   3   4
ENDBRANCH   2   3
ENDBRANCH   1   2
BRANCH   1  12
ATOM     12  C   UNL     1      14.395  20.376  28.379  1.00  0.00     0.000 C 
BRANCH  12  13
ATOM     13  C   UNL     1      13.946  21.523  27.459  1.00  0.00    -0.000 C 
BRANCH  13  14
ATOM     14  C   UNL     1      14.768  21.598  26.160  1.00  0.00    -0.000 C 
BRANCH  14  15
ATOM     15  C   UNL     1      15.975  22.542  26.277  1.00  0.00    -0.000 C 
BRANCH  15  16
ATOM     16  C   UNL     1      15.733  23.691  27.271  1.00  0.00    -0.000 C 
BRANCH  16  17
ATOM     17  C   UNL     1      16.875  23.841  28.289  1.00  0.00    -0.000 C 
BRANCH  17  18
ATOM     18  C   UNL     1      17.084  22.570  29.132  1.00  0.00    -0.000 C 
BRANCH  18  19
ATOM     19  C   UNL     1      16.336  22.626  30.474  1.00  0.00    -0.003 C 
ATOM     20  C   UNL     1      16.748  21.505  31.429  1.00  0.00     0.004 C 
ENDBRANCH  18  19
ENDBRANCH  17  18
ENDBRANCH  16  17
ENDBRANCH  15  16
ENDBRANCH  14  15
ENDBRANCH  13  14
ENDBRANCH  12  13
ENDBRANCH   1  12
TORSDOF 16
ENDMDL
MODEL 9
REMARK VINA RESULT:    -4.528      2.549      4.986
REMARK INTER + INTRA:         -11.278
REMARK INTER:                  -9.336
REMARK INTRA:                  -1.943
REMARK UNBOUND:                -2.515
REMARK SMILES CCCCCCCCCCCCCCCCCC(=O)[O-]
REMARK SMILES IDX 10 1 11 2 12 3 13 4 14 5 15 6 16 7 17 8 18 9 19 10 20 11
REMARK SMILES IDX 9 12 8 13 7 14 6 15 5 16 4 17 3 18 2 19 1 20
REMARK H PARENT
REMARK Flexibility Score: inf
ROOT
ATOM      1  C   UNL     1       9.839  23.820  31.668  1.00  0.00     0.000 C 
ENDROOT
BRANCH   1   2
ATOM      2  C   UNL     1       9.372  22.356  31.599  1.00  0.00     0.000 C 
BRANCH   2   3
ATOM      3  C   UNL     1      10.461  21.381  31.102  1.00  0.00     0.000 C 
BRANCH   3   4
ATOM      4  C   UNL     1      10.181  20.877  29.674  1.00  0.00     0.000 C 
BRANCH   4   5
ATOM      5  C   UNL     1      11.466  20.785  28.825  1.00  0.00     0.000 C 
BRANCH   5   6
ATOM      6  C   UNL     1      12.466  19.733  29.332  1.00  0.00     0.000 C 
BRANCH   6   7
ATOM      7  C   UNL     1      13.901  19.986  28.844  1.00  0.00     0.006 C 
BRANCH   7   8
ATOM      8  C   UNL     1      14.932  19.147  29.609  1.00  0.00     0.053 C 
BRANCH   8   9
ATOM      9  C   UNL     1      16.013  20.000  30.200  1.00  0.00     0.041 C 
ATOM     10  O   UNL     1      17.149  20.048  29.658  1.00  0.00    -0.550 OA
ATOM     11  O   UNL     1      15.755  20.769  31.328  1.00  0.00    -0.550 OA
ENDBRANCH   8   9
ENDBRANCH   7   8
ENDBRANCH   6   7
ENDBRANCH   5   6
ENDBRANCH   4   5
ENDBRANCH   3   4
ENDBRANCH   2   3
ENDBRANCH   1   2
BRANCH   1  12
ATOM     12  C   UNL     1      10.954  24.138  30.659  1.00  0.00     0.000 C 
BRANCH  12  13
ATOM     13  C   UNL     1      12.266  24.557  31.343  1.00  0.00    -0.000 C 
BRANCH  13  14
ATOM     14  C   UNL     1      13.422  24.746  30.344  1.00  0.00    -0.000 C 
BRANCH  14  15
ATOM     15  C   UNL     1      14.086  23.417  29.949  1.00  0.00    -0.000 C 
BRANCH  15  16
ATOM     16  C   UNL     1      14.812  23.499  28.594  1.00  0.00    -0.000 C 
BRANCH  16  17
ATOM     17  C   UNL     1      16.342  23.512  28.744  1.00  0.00    -0.000 C 
BRANCH  17  18
ATOM     18  C   UNL     1      17.066  23.241  27.413  1.00  0.00    -0.000 C 
BRANCH  18  19
ATOM     19  C   UNL     1      16.605  21.934  26.748  1.00  0.00    -0.003 C 
ATOM     20  C   UNL     1      16.051  22.150  25.339  1.00  0.00     0.004 C 
ENDBRANCH  18  19
ENDBRANCH  17  18
ENDBRANCH  16  17
ENDBRANCH  15  16
ENDBRANCH  14  15
ENDBRANCH  13  14
ENDBRANCH  12  13
ENDBRANCH   1  12
TORSDOF 16
ENDMDL
