MODEL 1
REMARK VINA RESULT:    -4.126      0.000      0.000
REMARK INTER + INTRA:          -4.845
REMARK INTER:                  -4.729
REMARK INTRA:                  -0.116
REMARK UNBOUND:                -0.116
REMARK SMILES COc1ccc(C(C)=O)cc1O
REMARK SMILES IDX 6 1 10 2 11 3 3 4 4 5 5 6 7 7 8 8 9 9 12 10 2 12 1 13
REMARK H PARENT 12 11
REMARK Flexibility Score: inf
ROOT
ATOM      1  C   UNL     1       7.075 -35.152  16.330  1.00  0.00     0.021 A 
ATOM      2  C   UNL     1       7.034 -35.112  17.735  1.00  0.00     0.062 A 
ATOM      3  C   UNL     1       7.434 -33.967  18.434  1.00  0.00     0.158 A 
ATOM      4  C   UNL     1       7.884 -32.834  17.735  1.00  0.00     0.160 A 
ATOM      5  C   UNL     1       7.928 -32.870  16.329  1.00  0.00     0.051 A 
ATOM      6  C   UNL     1       7.527 -34.015  15.636  1.00  0.00     0.016 A 
ENDROOT
BRANCH   1   7
ATOM      7  C   UNL     1       6.652 -36.364  15.575  1.00  0.00     0.159 C 
ATOM      8  C   UNL     1       5.875 -37.470  16.224  1.00  0.00     0.093 C 
ATOM      9  O   UNL     1       6.950 -36.477  14.355  1.00  0.00    -0.295 OA
ENDBRANCH   1   7
BRANCH   3  10
ATOM     10  O   UNL     1       7.375 -33.975  19.827  1.00  0.00    -0.504 OA
ATOM     11  H   UNL     1       8.206 -33.919  20.404  1.00  0.00     0.293 HD
ENDBRANCH   3  10
BRANCH   4  12
ATOM     12  O   UNL     1       8.280 -31.700  18.462  1.00  0.00    -0.493 OA
ATOM     13  C   UNL     1       9.630 -31.359  18.755  1.00  0.00     0.278 C 
ENDBRANCH   4  12
TORSDOF 3
ENDMDL
MODEL 2
REMARK VINA RESULT:    -3.898      0.991      2.052
REMARK INTER + INTRA:          -4.583
REMARK INTER:                  -4.519
REMARK INTRA:                  -0.064
REMARK UNBOUND:                -0.116
REMARK SMILES COc1ccc(C(C)=O)cc1O
REMARK SMILES IDX 6 1 10 2 11 3 3 4 4 5 5 6 7 7 8 8 9 9 12 10 2 12 1 13
REMARK H PARENT 12 11
REMARK Flexibility Score: inf
ROOT
ATOM      1  C   UNL     1       7.537 -35.048  16.022  1.00  0.00     0.021 A 
ATOM      2  C   UNL     1       8.250 -33.931  15.551  1.00  0.00     0.062 A 
ATOM      3  C   UNL     1       8.510 -32.840  16.388  1.00  0.00     0.158 A 
ATOM      4  C   UNL     1       8.059 -32.847  17.720  1.00  0.00     0.160 A 
ATOM      5  C   UNL     1       7.345 -33.962  18.194  1.00  0.00     0.051 A 
ATOM      6  C   UNL     1       7.089 -35.049  17.354  1.00  0.00     0.016 A 
ENDROOT
BRANCH   1   7
ATOM      7  C   UNL     1       7.255 -36.215  15.141  1.00  0.00     0.159 C 
ATOM      8  C   UNL     1       6.111 -37.148  15.405  1.00  0.00     0.093 C 
ATOM      9  O   UNL     1       7.991 -36.438  14.142  1.00  0.00    -0.295 OA
ENDBRANCH   1   7
BRANCH   3  10
ATOM     10  O   UNL     1       9.221 -31.754  15.877  1.00  0.00    -0.504 OA
ATOM     11  H   UNL     1       9.504 -31.702  14.905  1.00  0.00     0.293 HD
ENDBRANCH   3  10
BRANCH   4  12
ATOM     12  O   UNL     1       8.334 -31.738  18.536  1.00  0.00    -0.493 OA
ATOM     13  C   UNL     1       9.585 -31.494  19.172  1.00  0.00     0.278 C 
ENDBRANCH   4  12
TORSDOF 3
ENDMDL
MODEL 3
REMARK VINA RESULT:    -3.823      3.177      5.057
REMARK INTER + INTRA:          -4.498
REMARK INTER:                  -4.395
REMARK INTRA:                  -0.104
REMARK UNBOUND:                -0.116
REMARK SMILES COc1ccc(C(C)=O)cc1O
REMARK SMILES IDX 6 1 10 2 11 3 3 4 4 5 5 6 7 7 8 8 9 9 12 10 2 12 1 13
REMARK H PARENT 12 11
REMARK Flexibility Score: inf
ROOT
ATOM      1  C   UNL     1       8.300 -33.360  15.865  1.00  0.00     0.021 A 
ATOM      2  C   UNL     1       9.079 -32.436  15.145  1.00  0.00     0.062 A 
ATOM      3  C   UNL     1       9.974 -32.867  14.158  1.00  0.00     0.158 A 
ATOM      4  C   UNL     1      10.106 -34.237  13.872  1.00  0.00     0.160 A 
ATOM      5  C   UNL     1       9.330 -35.163  14.591  1.00  0.00     0.051 A 
ATOM      6  C   UNL     1       8.437 -34.729  15.574  1.00  0.00     0.016 A 
ENDROOT
BRANCH   1   7
ATOM      7  C   UNL     1       7.344 -32.915  16.916  1.00  0.00     0.159 C 
ATOM      8  C   UNL     1       7.716 -32.894  18.369  1.00  0.00     0.093 C 
ATOM      9  O   UNL     1       6.184 -32.543  16.590  1.00  0.00    -0.295 OA
ENDBRANCH   1   7
BRANCH   3  10
ATOM     10  O   UNL     1      10.725 -31.914  13.470  1.00  0.00    -0.504 OA
ATOM     11  H   UNL     1      10.326 -31.040  13.147  1.00  0.00     0.293 HD
ENDBRANCH   3  10
BRANCH   4  12
ATOM     12  O   UNL     1      11.012 -34.639  12.878  1.00  0.00    -0.493 OA
ATOM     13  C   UNL     1      11.933 -35.717  13.012  1.00  0.00     0.278 C 
ENDBRANCH   4  12
TORSDOF 3
ENDMDL
MODEL 4
REMARK VINA RESULT:    -3.800     14.601     16.141
REMARK INTER + INTRA:          -4.471
REMARK INTER:                  -4.338
REMARK INTRA:                  -0.133
REMARK UNBOUND:                -0.116
REMARK SMILES COc1ccc(C(C)=O)cc1O
REMARK SMILES IDX 6 1 10 2 11 3 3 4 4 5 5 6 7 7 8 8 9 9 12 10 2 12 1 13
REMARK H PARENT 12 11
REMARK Flexibility Score: inf
ROOT
ATOM      1  C   UNL     1      16.945 -36.832  28.860  1.00  0.00     0.021 A 
ATOM      2  C   UNL     1      16.887 -35.627  29.585  1.00  0.00     0.062 A 
ATOM      3  C   UNL     1      16.352 -35.591  30.878  1.00  0.00     0.158 A 
ATOM      4  C   UNL     1      15.863 -36.767  31.474  1.00  0.00     0.160 A 
ATOM      5  C   UNL     1      15.919 -37.973  30.753  1.00  0.00     0.051 A 
ATOM      6  C   UNL     1      16.455 -38.004  29.462  1.00  0.00     0.016 A 
ENDROOT
BRANCH   1   7
ATOM      7  C   UNL     1      17.512 -36.883  27.485  1.00  0.00     0.159 C 
ATOM      8  C   UNL     1      17.449 -38.125  26.648  1.00  0.00     0.093 C 
ATOM      9  O   UNL     1      18.064 -35.860  26.997  1.00  0.00    -0.295 OA
ENDBRANCH   1   7
BRANCH   3  10
ATOM     10  O   UNL     1      16.315 -34.374  31.557  1.00  0.00    -0.504 OA
ATOM     11  H   UNL     1      17.152 -33.837  31.753  1.00  0.00     0.293 HD
ENDBRANCH   3  10
BRANCH   4  12
ATOM     12  O   UNL     1      15.332 -36.701  32.772  1.00  0.00    -0.493 OA
ATOM     13  C   UNL     1      13.994 -37.046  33.115  1.00  0.00     0.278 C 
ENDBRANCH   4  12
TORSDOF 3
ENDMDL
MODEL 5
REMARK VINA RESULT:    -3.551      2.198      3.831
REMARK INTER + INTRA:          -4.186
REMARK INTER:                  -4.086
REMARK INTRA:                  -0.100
REMARK UNBOUND:                -0.116
REMARK SMILES COc1ccc(C(C)=O)cc1O
REMARK SMILES IDX 6 1 10 2 11 3 3 4 4 5 5 6 7 7 8 8 9 9 12 10 2 12 1 13
REMARK H PARENT 12 11
REMARK Flexibility Score: inf
ROOT
ATOM      1  C   UNL     1       8.476 -33.548  14.911  1.00  0.00     0.021 A 
ATOM      2  C   UNL     1       8.476 -32.878  16.147  1.00  0.00     0.062 A 
ATOM      3  C   UNL     1       8.113 -33.541  17.325  1.00  0.00     0.158 A 
ATOM      4  C   UNL     1       7.742 -34.897  17.287  1.00  0.00     0.160 A 
ATOM      5  C   UNL     1       7.740 -35.571  16.053  1.00  0.00     0.051 A 
ATOM      6  C   UNL     1       8.104 -34.904  14.880  1.00  0.00     0.016 A 
ENDROOT
BRANCH   1   7
ATOM      7  C   UNL     1       8.861 -32.854  13.652  1.00  0.00     0.159 C 
ATOM      8  C   UNL     1      10.295 -32.644  13.268  1.00  0.00     0.093 C 
ATOM      9  O   UNL     1       7.965 -32.424  12.875  1.00  0.00    -0.295 OA
ENDBRANCH   1   7
BRANCH   3  10
ATOM     10  O   UNL     1       8.127 -32.834  18.527  1.00  0.00    -0.504 OA
ATOM     11  H   UNL     1       7.447 -32.998  19.260  1.00  0.00     0.293 HD
ENDBRANCH   3  10
BRANCH   4  12
ATOM     12  O   UNL     1       7.382 -35.536  18.484  1.00  0.00    -0.493 OA
ATOM     13  C   UNL     1       7.811 -36.839  18.864  1.00  0.00     0.278 C 
ENDBRANCH   4  12
TORSDOF 3
ENDMDL
MODEL 6
REMARK VINA RESULT:    -3.446      1.730      5.160
REMARK INTER + INTRA:          -4.065
REMARK INTER:                  -3.969
REMARK INTRA:                  -0.097
REMARK UNBOUND:                -0.116
REMARK SMILES COc1ccc(C(C)=O)cc1O
REMARK SMILES IDX 6 1 10 2 11 3 3 4 4 5 5 6 7 7 8 8 9 9 12 10 2 12 1 13
REMARK H PARENT 12 11
REMARK Flexibility Score: inf
ROOT
ATOM      1  C   UNL     1       7.320 -33.711  16.880  1.00  0.00     0.021 A 
ATOM      2  C   UNL     1       7.366 -33.011  15.661  1.00  0.00     0.062 A 
ATOM      3  C   UNL     1       6.887 -33.591  14.481  1.00  0.00     0.158 A 
ATOM      4  C   UNL     1       6.348 -34.890  14.499  1.00  0.00     0.160 A 
ATOM      5  C   UNL     1       6.301 -35.593  15.716  1.00  0.00     0.051 A 
ATOM      6  C   UNL     1       6.781 -35.009  16.891  1.00  0.00     0.016 A 
ENDROOT
BRANCH   1   7
ATOM      7  C   UNL     1       7.827 -33.105  18.142  1.00  0.00     0.159 C 
ATOM      8  C   UNL     1       8.874 -32.032  18.141  1.00  0.00     0.093 C 
ATOM      9  O   UNL     1       7.371 -33.496  19.251  1.00  0.00    -0.295 OA
ENDBRANCH   1   7
BRANCH   3  10
ATOM     10  O   UNL     1       6.953 -32.858  13.296  1.00  0.00    -0.504 OA
ATOM     11  H   UNL     1       7.060 -33.301  12.391  1.00  0.00     0.293 HD
ENDBRANCH   3  10
BRANCH   4  12
ATOM     12  O   UNL     1       5.875 -35.446  13.300  1.00  0.00    -0.493 OA
ATOM     13  C   UNL     1       5.897 -36.836  12.991  1.00  0.00     0.278 C 
ENDBRANCH   4  12
TORSDOF 3
ENDMDL
MODEL 7
REMARK VINA RESULT:    -3.364      2.815      3.912
REMARK INTER + INTRA:          -3.972
REMARK INTER:                  -3.858
REMARK INTRA:                  -0.114
REMARK UNBOUND:                -0.116
REMARK SMILES COc1ccc(C(C)=O)cc1O
REMARK SMILES IDX 6 1 10 2 11 3 3 4 4 5 5 6 7 7 8 8 9 9 12 10 2 12 1 13
REMARK H PARENT 12 11
REMARK Flexibility Score: inf
ROOT
ATOM      1  C   UNL     1       8.014 -34.739  15.882  1.00  0.00     0.021 A 
ATOM      2  C   UNL     1       8.778 -35.234  14.809  1.00  0.00     0.062 A 
ATOM      3  C   UNL     1       9.597 -34.383  14.057  1.00  0.00     0.158 A 
ATOM      4  C   UNL     1       9.669 -33.014  14.368  1.00  0.00     0.160 A 
ATOM      5  C   UNL     1       8.906 -32.516  15.440  1.00  0.00     0.051 A 
ATOM      6  C   UNL     1       8.090 -33.369  16.187  1.00  0.00     0.016 A 
ENDROOT
BRANCH   1   7
ATOM      7  C   UNL     1       7.140 -35.634  16.688  1.00  0.00     0.159 C 
ATOM      8  C   UNL     1       5.947 -36.322  16.095  1.00  0.00     0.093 C 
ATOM      9  O   UNL     1       7.397 -35.827  17.908  1.00  0.00    -0.295 OA
ENDBRANCH   1   7
BRANCH   3  10
ATOM     10  O   UNL     1      10.336 -34.920  13.003  1.00  0.00    -0.504 OA
ATOM     11  H   UNL     1      11.322 -35.136  13.087  1.00  0.00     0.293 HD
ENDBRANCH   3  10
BRANCH   4  12
ATOM     12  O   UNL     1      10.499 -32.185  13.597  1.00  0.00    -0.493 OA
ATOM     13  C   UNL     1      11.803 -31.765  13.982  1.00  0.00     0.278 C 
ENDBRANCH   4  12
TORSDOF 3
ENDMDL
MODEL 8
REMARK VINA RESULT:    -3.361      1.834      4.842
REMARK INTER + INTRA:          -3.969
REMARK INTER:                  -3.841
REMARK INTRA:                  -0.127
REMARK UNBOUND:                -0.116
REMARK SMILES COc1ccc(C(C)=O)cc1O
REMARK SMILES IDX 6 1 10 2 11 3 3 4 4 5 5 6 7 7 8 8 9 9 12 10 2 12 1 13
REMARK H PARENT 12 11
REMARK Flexibility Score: inf
ROOT
ATOM      1  C   UNL     1       8.353 -33.075  16.744  1.00  0.00     0.021 A 
ATOM      2  C   UNL     1       7.793 -34.359  16.615  1.00  0.00     0.062 A 
ATOM      3  C   UNL     1       7.945 -35.094  15.434  1.00  0.00     0.158 A 
ATOM      4  C   UNL     1       8.666 -34.556  14.354  1.00  0.00     0.160 A 
ATOM      5  C   UNL     1       9.228 -33.273  14.479  1.00  0.00     0.051 A 
ATOM      6  C   UNL     1       9.074 -32.543  15.660  1.00  0.00     0.016 A 
ENDROOT
BRANCH   1   7
ATOM      7  C   UNL     1       8.199 -32.283  17.995  1.00  0.00     0.159 C 
ATOM      8  C   UNL     1       9.374 -31.668  18.694  1.00  0.00     0.093 C 
ATOM      9  O   UNL     1       7.052 -32.117  18.493  1.00  0.00    -0.295 OA
ENDBRANCH   1   7
BRANCH   3  10
ATOM     10  O   UNL     1       7.371 -36.362  15.353  1.00  0.00    -0.504 OA
ATOM     11  H   UNL     1       7.922 -37.211  15.405  1.00  0.00     0.293 HD
ENDBRANCH   3  10
BRANCH   4  12
ATOM     12  O   UNL     1       8.803 -35.316  13.181  1.00  0.00    -0.493 OA
ATOM     13  C   UNL     1       9.927 -36.134  12.875  1.00  0.00     0.278 C 
ENDBRANCH   4  12
TORSDOF 3
ENDMDL
MODEL 9
REMARK VINA RESULT:    -3.336      2.784      3.507
REMARK INTER + INTRA:          -3.940
REMARK INTER:                  -3.874
REMARK INTRA:                  -0.066
REMARK UNBOUND:                -0.116
REMARK SMILES COc1ccc(C(C)=O)cc1O
REMARK SMILES IDX 6 1 10 2 11 3 3 4 4 5 5 6 7 7 8 8 9 9 12 10 2 12 1 13
REMARK H PARENT 12 11
REMARK Flexibility Score: inf
ROOT
ATOM      1  C   UNL     1       7.944 -35.107  15.103  1.00  0.00     0.021 A 
ATOM      2  C   UNL     1       8.205 -33.928  15.824  1.00  0.00     0.062 A 
ATOM      3  C   UNL     1       9.034 -32.931  15.296  1.00  0.00     0.158 A 
ATOM      4  C   UNL     1       9.619 -33.097  14.028  1.00  0.00     0.160 A 
ATOM      5  C   UNL     1       9.361 -34.275  13.304  1.00  0.00     0.051 A 
ATOM      6  C   UNL     1       8.532 -35.266  13.836  1.00  0.00     0.016 A 
ENDROOT
BRANCH   1   7
ATOM      7  C   UNL     1       7.064 -36.174  15.654  1.00  0.00     0.159 C 
ATOM      8  C   UNL     1       6.522 -37.276  14.795  1.00  0.00     0.093 C 
ATOM      9  O   UNL     1       6.757 -36.162  16.877  1.00  0.00    -0.295 OA
ENDBRANCH   1   7
BRANCH   3  10
ATOM     10  O   UNL     1       9.264 -31.779  16.047  1.00  0.00    -0.504 OA
ATOM     11  H   UNL     1      10.155 -31.296  16.039  1.00  0.00     0.293 HD
ENDBRANCH   3  10
BRANCH   4  12
ATOM     12  O   UNL     1      10.446 -32.081  13.523  1.00  0.00    -0.493 OA
ATOM     13  C   UNL     1      11.803 -31.880  13.904  1.00  0.00     0.278 C 
ENDBRANCH   4  12
TORSDOF 3
ENDMDL
