MODEL 1
REMARK VINA RESULT:    -4.414      0.000      0.000
REMARK INTER + INTRA:          -8.145
REMARK INTER:                  -5.963
REMARK INTRA:                  -2.182
REMARK UNBOUND:                -2.182
REMARK SMILES CC[C@@H](CC[C@H](C)[C@@H]1CC[C@@H]2[C@@H]3CC(=O)C4=CC(=O)CC[C@]4(C)[C@@H]3CC[C@@]21C)C(C)C
REMARK SMILES IDX 4 1 3 2 2 3 1 4 29 5 30 6 31 7 5 8 6 9 7 10 8 11 9 12 27 13
REMARK SMILES IDX 10 14 11 15 26 16 28 17 12 18 25 19 24 20 13 21 22 22 14 23
REMARK SMILES IDX 16 24 21 25 23 26 15 27 17 28 20 29 18 30 19 31
REMARK H PARENT
REMARK Flexibility Score: inf
ROOT
ATOM      1  C   UNL     1      52.816   7.409   3.430  1.00  0.00     0.004 C 
ENDROOT
BRANCH   1   2
ATOM      2  C   UNL     1      54.133   8.214   3.225  1.00  0.00    -0.009 C 
BRANCH   2   3
ATOM      3  C   UNL     1      54.216   9.408   4.220  1.00  0.00     0.000 C 
ATOM      4  C   UNL     1      55.076   9.146   5.456  1.00  0.00     0.004 C 
ENDBRANCH   2   3
BRANCH   2   5
ATOM      5  C   UNL     1      54.269   8.600   1.707  1.00  0.00    -0.014 C 
ATOM      6  C   UNL     1      53.052   8.191   0.861  1.00  0.00     0.007 C 
ATOM      7  C   UNL     1      55.574   8.116   1.050  1.00  0.00     0.007 C 
ENDBRANCH   2   5
ENDBRANCH   1   2
BRANCH   1   8
ATOM      8  C   UNL     1      52.957   5.908   3.777  1.00  0.00     0.004 C 
BRANCH   8   9
ATOM      9  C   UNL     1      53.604   5.033   2.674  1.00  0.00    -0.011 C 
ATOM     10  C   UNL     1      52.538   4.473   1.697  1.00  0.00     0.008 C 
BRANCH   9  11
ATOM     11  C   UNL     1      54.639   4.004   3.262  1.00  0.00    -0.002 C 
ATOM     12  C   UNL     1      54.299   3.557   4.687  1.00  0.00     0.005 C 
ATOM     13  C   UNL     1      56.190   4.243   3.210  1.00  0.00    -0.026 C 
ATOM     14  C   UNL     1      55.577   3.001   5.296  1.00  0.00     0.005 C 
ATOM     15  C   UNL     1      56.731   3.276   4.315  1.00  0.00    -0.001 C 
ATOM     16  C   UNL     1      56.638   5.716   3.474  1.00  0.00     0.007 C 
ATOM     17  C   UNL     1      56.768   3.804   1.837  1.00  0.00     0.012 C 
ATOM     18  C   UNL     1      58.047   3.758   5.004  1.00  0.00     0.004 C 
ATOM     19  C   UNL     1      56.810   6.033   4.962  1.00  0.00     0.005 C 
ATOM     20  C   UNL     1      58.012   5.249   5.539  1.00  0.00     0.003 C 
ATOM     21  C   UNL     1      58.603   2.698   5.975  1.00  0.00     0.085 C 
ATOM     22  C   UNL     1      58.299   5.536   7.088  1.00  0.00    -0.000 C 
ATOM     23  C   UNL     1      59.563   3.299   6.933  1.00  0.00     0.159 C 
ATOM     24  C   UNL     1      59.070   4.400   7.752  1.00  0.00     0.005 C 
ATOM     25  C   UNL     1      57.002   5.782   7.922  1.00  0.00     0.020 C 
ATOM     26  C   UNL     1      59.193   6.808   7.172  1.00  0.00     0.017 C 
ATOM     27  O   UNL     1      60.712   2.811   7.104  1.00  0.00    -0.295 OA
ATOM     28  C   UNL     1      59.159   4.302   9.088  1.00  0.00     0.055 C 
ATOM     29  C   UNL     1      57.282   6.058   9.413  1.00  0.00     0.081 C 
ATOM     30  C   UNL     1      58.353   5.160   9.969  1.00  0.00     0.156 C 
ATOM     31  O   UNL     1      58.552   5.132  11.212  1.00  0.00    -0.295 OA
ENDBRANCH   9  11
ENDBRANCH   8   9
ENDBRANCH   1   8
TORSDOF 6
ENDMDL
MODEL 2
REMARK VINA RESULT:    -4.401      1.314      2.247
REMARK INTER + INTRA:          -8.127
REMARK INTER:                  -6.289
REMARK INTRA:                  -1.838
REMARK UNBOUND:                -2.182
REMARK SMILES CC[C@@H](CC[C@H](C)[C@@H]1CC[C@@H]2[C@@H]3CC(=O)C4=CC(=O)CC[C@]4(C)[C@@H]3CC[C@@]21C)C(C)C
REMARK SMILES IDX 4 1 3 2 2 3 1 4 29 5 30 6 31 7 5 8 6 9 7 10 8 11 9 12 27 13
REMARK SMILES IDX 10 14 11 15 26 16 28 17 12 18 25 19 24 20 13 21 22 22 14 23
REMARK SMILES IDX 16 24 21 25 23 26 15 27 17 28 20 29 18 30 19 31
REMARK H PARENT
REMARK Flexibility Score: inf
ROOT
ATOM      1  C   UNL     1      52.486   5.096   1.790  1.00  0.00     0.004 C 
ENDROOT
BRANCH   1   2
ATOM      2  C   UNL     1      52.200   6.088   2.956  1.00  0.00    -0.009 C 
BRANCH   2   3
ATOM      3  C   UNL     1      51.249   7.231   2.494  1.00  0.00     0.000 C 
ATOM      4  C   UNL     1      49.816   7.113   3.012  1.00  0.00     0.004 C 
ENDBRANCH   2   3
BRANCH   2   5
ATOM      5  C   UNL     1      53.564   6.565   3.574  1.00  0.00    -0.014 C 
ATOM      6  C   UNL     1      53.800   6.047   5.003  1.00  0.00     0.007 C 
ATOM      7  C   UNL     1      53.790   8.084   3.502  1.00  0.00     0.007 C 
ENDBRANCH   2   5
ENDBRANCH   1   2
BRANCH   1   8
ATOM      8  C   UNL     1      53.111   3.732   2.165  1.00  0.00     0.004 C 
BRANCH   8   9
ATOM      9  C   UNL     1      54.539   3.486   1.616  1.00  0.00    -0.011 C 
ATOM     10  C   UNL     1      54.504   2.994   0.146  1.00  0.00     0.008 C 
BRANCH   9  11
ATOM     11  C   UNL     1      55.429   2.663   2.620  1.00  0.00    -0.002 C 
ATOM     12  C   UNL     1      54.835   2.592   4.031  1.00  0.00     0.005 C 
ATOM     13  C   UNL     1      56.972   2.910   2.780  1.00  0.00    -0.026 C 
ATOM     14  C   UNL     1      55.973   2.236   4.975  1.00  0.00     0.005 C 
ATOM     15  C   UNL     1      57.286   2.271   4.172  1.00  0.00    -0.001 C 
ATOM     16  C   UNL     1      57.406   4.409   2.730  1.00  0.00     0.007 C 
ATOM     17  C   UNL     1      57.767   2.143   1.689  1.00  0.00     0.012 C 
ATOM     18  C   UNL     1      58.476   2.939   4.933  1.00  0.00     0.004 C 
ATOM     19  C   UNL     1      57.326   5.102   4.092  1.00  0.00     0.005 C 
ATOM     20  C   UNL     1      58.388   4.516   5.052  1.00  0.00     0.003 C 
ATOM     21  C   UNL     1      58.826   2.176   6.226  1.00  0.00     0.085 C 
ATOM     22  C   UNL     1      58.411   5.199   6.501  1.00  0.00    -0.000 C 
ATOM     23  C   UNL     1      59.621   3.022   7.149  1.00  0.00     0.159 C 
ATOM     24  C   UNL     1      59.024   4.287   7.559  1.00  0.00     0.005 C 
ATOM     25  C   UNL     1      56.996   5.627   7.004  1.00  0.00     0.020 C 
ATOM     26  C   UNL     1      59.311   6.466   6.410  1.00  0.00     0.017 C 
ATOM     27  O   UNL     1      60.709   2.615   7.638  1.00  0.00    -0.295 OA
ATOM     28  C   UNL     1      58.878   4.538   8.869  1.00  0.00     0.055 C 
ATOM     29  C   UNL     1      57.021   6.283   8.400  1.00  0.00     0.081 C 
ATOM     30  C   UNL     1      57.955   5.579   9.346  1.00  0.00     0.156 C 
ATOM     31  O   UNL     1      57.935   5.876  10.570  1.00  0.00    -0.295 OA
ENDBRANCH   9  11
ENDBRANCH   8   9
ENDBRANCH   1   8
TORSDOF 6
ENDMDL
MODEL 3
REMARK VINA RESULT:    -4.350     11.178     14.163
REMARK INTER + INTRA:          -8.058
REMARK INTER:                  -5.652
REMARK INTRA:                  -2.406
REMARK UNBOUND:                -2.182
REMARK SMILES CC[C@@H](CC[C@H](C)[C@@H]1CC[C@@H]2[C@@H]3CC(=O)C4=CC(=O)CC[C@]4(C)[C@@H]3CC[C@@]21C)C(C)C
REMARK SMILES IDX 4 1 3 2 2 3 1 4 29 5 30 6 31 7 5 8 6 9 7 10 8 11 9 12 27 13
REMARK SMILES IDX 10 14 11 15 26 16 28 17 12 18 25 19 24 20 13 21 22 22 14 23
REMARK SMILES IDX 16 24 21 25 23 26 15 27 17 28 20 29 18 30 19 31
REMARK H PARENT
REMARK Flexibility Score: inf
ROOT
ATOM      1  C   UNL     1      62.546  13.194   0.072  1.00  0.00     0.004 C 
ENDROOT
BRANCH   1   2
ATOM      2  C   UNL     1      62.539  14.718  -0.251  1.00  0.00    -0.009 C 
BRANCH   2   3
ATOM      3  C   UNL     1      61.123  15.186  -0.694  1.00  0.00     0.000 C 
ATOM      4  C   UNL     1      60.057  14.091  -0.676  1.00  0.00     0.004 C 
ENDBRANCH   2   3
BRANCH   2   5
ATOM      5  C   UNL     1      63.696  15.034  -1.267  1.00  0.00    -0.014 C 
ATOM      6  C   UNL     1      64.589  16.207  -0.830  1.00  0.00     0.007 C 
ATOM      7  C   UNL     1      63.223  15.222  -2.719  1.00  0.00     0.007 C 
ENDBRANCH   2   5
ENDBRANCH   1   2
BRANCH   1   8
ATOM      8  C   UNL     1      62.625  12.791   1.563  1.00  0.00     0.004 C 
BRANCH   8   9
ATOM      9  C   UNL     1      63.500  13.713   2.451  1.00  0.00    -0.011 C 
ATOM     10  C   UNL     1      64.760  12.973   2.969  1.00  0.00     0.008 C 
BRANCH   9  11
ATOM     11  C   UNL     1      62.646  14.495   3.517  1.00  0.00    -0.002 C 
ATOM     12  C   UNL     1      61.136  14.366   3.290  1.00  0.00     0.005 C 
ATOM     13  C   UNL     1      62.931  15.993   3.894  1.00  0.00    -0.026 C 
ATOM     14  C   UNL     1      60.476  15.520   4.029  1.00  0.00     0.005 C 
ATOM     15  C   UNL     1      61.586  16.451   4.548  1.00  0.00    -0.001 C 
ATOM     16  C   UNL     1      63.321  16.911   2.692  1.00  0.00     0.007 C 
ATOM     17  C   UNL     1      64.059  16.087   4.956  1.00  0.00     0.012 C 
ATOM     18  C   UNL     1      61.271  17.971   4.375  1.00  0.00     0.004 C 
ATOM     19  C   UNL     1      62.107  17.501   1.969  1.00  0.00     0.005 C 
ATOM     20  C   UNL     1      61.377  18.508   2.888  1.00  0.00     0.003 C 
ATOM     21  C   UNL     1      60.011  18.385   5.161  1.00  0.00     0.085 C 
ATOM     22  C   UNL     1      60.106  19.210   2.212  1.00  0.00    -0.000 C 
ATOM     23  C   UNL     1      59.467  19.672   4.662  1.00  0.00     0.159 C 
ATOM     24  C   UNL     1      59.116  19.732   3.248  1.00  0.00     0.005 C 
ATOM     25  C   UNL     1      59.325  18.270   1.239  1.00  0.00     0.020 C 
ATOM     26  C   UNL     1      60.620  20.440   1.408  1.00  0.00     0.017 C 
ATOM     27  O   UNL     1      59.220  20.628   5.445  1.00  0.00    -0.295 OA
ATOM     28  C   UNL     1      57.867  20.085   2.907  1.00  0.00     0.055 C 
ATOM     29  C   UNL     1      58.102  18.949   0.590  1.00  0.00     0.081 C 
ATOM     30  C   UNL     1      57.333  19.795   1.567  1.00  0.00     0.156 C 
ATOM     31  O   UNL     1      56.206  20.251   1.237  1.00  0.00    -0.295 OA
ENDBRANCH   9  11
ENDBRANCH   8   9
ENDBRANCH   1   8
TORSDOF 6
ENDMDL
MODEL 4
REMARK VINA RESULT:    -4.317     10.477     13.400
REMARK INTER + INTRA:          -8.013
REMARK INTER:                  -5.360
REMARK INTRA:                  -2.654
REMARK UNBOUND:                -2.182
REMARK SMILES CC[C@@H](CC[C@H](C)[C@@H]1CC[C@@H]2[C@@H]3CC(=O)C4=CC(=O)CC[C@]4(C)[C@@H]3CC[C@@]21C)C(C)C
REMARK SMILES IDX 4 1 3 2 2 3 1 4 29 5 30 6 31 7 5 8 6 9 7 10 8 11 9 12 27 13
REMARK SMILES IDX 10 14 11 15 26 16 28 17 12 18 25 19 24 20 13 21 22 22 14 23
REMARK SMILES IDX 16 24 21 25 23 26 15 27 17 28 20 29 18 30 19 31
REMARK H PARENT
REMARK Flexibility Score: inf
ROOT
ATOM      1  C   UNL     1      60.323  11.732   0.280  1.00  0.00     0.004 C 
ENDROOT
BRANCH   1   2
ATOM      2  C   UNL     1      60.453  13.055  -0.532  1.00  0.00    -0.009 C 
BRANCH   2   3
ATOM      3  C   UNL     1      59.068  13.745  -0.696  1.00  0.00     0.000 C 
ATOM      4  C   UNL     1      58.376  14.101   0.619  1.00  0.00     0.004 C 
ENDBRANCH   2   3
BRANCH   2   5
ATOM      5  C   UNL     1      61.217  12.762  -1.874  1.00  0.00    -0.014 C 
ATOM      6  C   UNL     1      61.180  11.281  -2.287  1.00  0.00     0.007 C 
ATOM      7  C   UNL     1      62.658  13.299  -1.908  1.00  0.00     0.007 C 
ENDBRANCH   2   5
ENDBRANCH   1   2
BRANCH   1   8
ATOM      8  C   UNL     1      61.037  11.676   1.652  1.00  0.00     0.004 C 
BRANCH   8   9
ATOM      9  C   UNL     1      62.417  12.379   1.707  1.00  0.00    -0.011 C 
ATOM     10  C   UNL     1      63.569  11.355   1.879  1.00  0.00     0.008 C 
BRANCH   9  11
ATOM     11  C   UNL     1      62.414  13.616   2.680  1.00  0.00    -0.002 C 
ATOM     12  C   UNL     1      61.023  13.945   3.230  1.00  0.00     0.005 C 
ATOM     13  C   UNL     1      63.101  14.980   2.314  1.00  0.00    -0.026 C 
ATOM     14  C   UNL     1      61.066  15.387   3.714  1.00  0.00     0.005 C 
ATOM     15  C   UNL     1      62.417  15.990   3.293  1.00  0.00    -0.001 C 
ATOM     16  C   UNL     1      62.931  15.424   0.826  1.00  0.00     0.007 C 
ATOM     17  C   UNL     1      64.621  14.932   2.629  1.00  0.00     0.012 C 
ATOM     18  C   UNL     1      62.317  17.450   2.744  1.00  0.00     0.004 C 
ATOM     19  C   UNL     1      61.637  16.204   0.578  1.00  0.00     0.005 C 
ATOM     20  C   UNL     1      61.694  17.574   1.293  1.00  0.00     0.003 C 
ATOM     21  C   UNL     1      61.767  18.421   3.808  1.00  0.00     0.085 C 
ATOM     22  C   UNL     1      60.397  18.486   1.068  1.00  0.00    -0.000 C 
ATOM     23  C   UNL     1      61.262  19.669   3.184  1.00  0.00     0.159 C 
ATOM     24  C   UNL     1      60.222  19.523   2.173  1.00  0.00     0.005 C 
ATOM     25  C   UNL     1      59.073  17.664   0.974  1.00  0.00     0.020 C 
ATOM     26  C   UNL     1      60.595  19.265  -0.265  1.00  0.00     0.017 C 
ATOM     27  O   UNL     1      61.638  20.802   3.587  1.00  0.00    -0.295 OA
ATOM     28  C   UNL     1      59.065  20.183   2.336  1.00  0.00     0.055 C 
ATOM     29  C   UNL     1      57.825  18.545   0.758  1.00  0.00     0.081 C 
ATOM     30  C   UNL     1      57.856  19.794   1.595  1.00  0.00     0.156 C 
ATOM     31  O   UNL     1      56.823  20.510   1.676  1.00  0.00    -0.295 OA
ENDBRANCH   9  11
ENDBRANCH   8   9
ENDBRANCH   1   8
TORSDOF 6
ENDMDL
MODEL 5
REMARK VINA RESULT:    -4.211      1.709      2.606
REMARK INTER + INTRA:          -7.871
REMARK INTER:                  -5.298
REMARK INTRA:                  -2.573
REMARK UNBOUND:                -2.182
REMARK SMILES CC[C@@H](CC[C@H](C)[C@@H]1CC[C@@H]2[C@@H]3CC(=O)C4=CC(=O)CC[C@]4(C)[C@@H]3CC[C@@]21C)C(C)C
REMARK SMILES IDX 4 1 3 2 2 3 1 4 29 5 30 6 31 7 5 8 6 9 7 10 8 11 9 12 27 13
REMARK SMILES IDX 10 14 11 15 26 16 28 17 12 18 25 19 24 20 13 21 22 22 14 23
REMARK SMILES IDX 16 24 21 25 23 26 15 27 17 28 20 29 18 30 19 31
REMARK H PARENT
REMARK Flexibility Score: inf
ROOT
ATOM      1  C   UNL     1      53.110   3.331   2.507  1.00  0.00     0.004 C 
ENDROOT
BRANCH   1   2
ATOM      2  C   UNL     1      54.093   4.423   3.024  1.00  0.00    -0.009 C 
BRANCH   2   3
ATOM      3  C   UNL     1      53.833   4.740   4.525  1.00  0.00     0.000 C 
ATOM      4  C   UNL     1      54.122   6.186   4.929  1.00  0.00     0.004 C 
ENDBRANCH   2   3
BRANCH   2   5
ATOM      5  C   UNL     1      54.037   5.664   2.060  1.00  0.00    -0.014 C 
ATOM      6  C   UNL     1      52.833   5.641   1.105  1.00  0.00     0.007 C 
ATOM      7  C   UNL     1      55.341   5.917   1.285  1.00  0.00     0.007 C 
ENDBRANCH   2   5
ENDBRANCH   1   2
BRANCH   1   8
ATOM      8  C   UNL     1      53.649   1.884   2.420  1.00  0.00     0.004 C 
BRANCH   8   9
ATOM      9  C   UNL     1      55.076   1.745   1.833  1.00  0.00    -0.011 C 
ATOM     10  C   UNL     1      55.062   0.983   0.482  1.00  0.00     0.008 C 
BRANCH   9  11
ATOM     11  C   UNL     1      56.118   1.264   2.910  1.00  0.00    -0.002 C 
ATOM     12  C   UNL     1      55.557   1.275   4.335  1.00  0.00     0.005 C 
ATOM     13  C   UNL     1      57.581   1.830   2.983  1.00  0.00    -0.026 C 
ATOM     14  C   UNL     1      56.748   1.287   5.281  1.00  0.00     0.005 C 
ATOM     15  C   UNL     1      58.024   1.468   4.439  1.00  0.00    -0.001 C 
ATOM     16  C   UNL     1      57.706   3.364   2.715  1.00  0.00     0.007 C 
ATOM     17  C   UNL     1      58.508   1.090   1.981  1.00  0.00     0.012 C 
ATOM     18  C   UNL     1      59.059   2.458   5.062  1.00  0.00     0.004 C 
ATOM     19  C   UNL     1      57.495   4.212   3.972  1.00  0.00     0.005 C 
ATOM     20  C   UNL     1      58.658   3.988   4.967  1.00  0.00     0.003 C 
ATOM     21  C   UNL     1      59.562   1.968   6.434  1.00  0.00     0.085 C 
ATOM     22  C   UNL     1      58.551   4.858   6.308  1.00  0.00    -0.000 C 
ATOM     23  C   UNL     1      60.176   3.075   7.207  1.00  0.00     0.159 C 
ATOM     24  C   UNL     1      59.340   4.242   7.460  1.00  0.00     0.005 C 
ATOM     25  C   UNL     1      57.081   5.064   6.795  1.00  0.00     0.020 C 
ATOM     26  C   UNL     1      59.178   6.252   6.016  1.00  0.00     0.017 C 
ATOM     27  O   UNL     1      61.326   2.965   7.710  1.00  0.00    -0.295 OA
ATOM     28  C   UNL     1      59.152   4.641   8.728  1.00  0.00     0.055 C 
ATOM     29  C   UNL     1      56.981   5.901   8.086  1.00  0.00     0.081 C 
ATOM     30  C   UNL     1      58.042   5.536   9.088  1.00  0.00     0.156 C 
ATOM     31  O   UNL     1      57.969   5.991  10.260  1.00  0.00    -0.295 OA
ENDBRANCH   9  11
ENDBRANCH   8   9
ENDBRANCH   1   8
TORSDOF 6
ENDMDL
MODEL 6
REMARK VINA RESULT:    -4.167      1.892      4.687
REMARK INTER + INTRA:          -7.811
REMARK INTER:                  -5.627
REMARK INTRA:                  -2.184
REMARK UNBOUND:                -2.182
REMARK SMILES CC[C@@H](CC[C@H](C)[C@@H]1CC[C@@H]2[C@@H]3CC(=O)C4=CC(=O)CC[C@]4(C)[C@@H]3CC[C@@]21C)C(C)C
REMARK SMILES IDX 4 1 3 2 2 3 1 4 29 5 30 6 31 7 5 8 6 9 7 10 8 11 9 12 27 13
REMARK SMILES IDX 10 14 11 15 26 16 28 17 12 18 25 19 24 20 13 21 22 22 14 23
REMARK SMILES IDX 16 24 21 25 23 26 15 27 17 28 20 29 18 30 19 31
REMARK H PARENT
REMARK Flexibility Score: inf
ROOT
ATOM      1  C   UNL     1      53.267   3.332   2.478  1.00  0.00     0.004 C 
ENDROOT
BRANCH   1   2
ATOM      2  C   UNL     1      54.356   2.251   2.746  1.00  0.00    -0.009 C 
BRANCH   2   3
ATOM      3  C   UNL     1      53.713   0.932   3.265  1.00  0.00     0.000 C 
ATOM      4  C   UNL     1      52.195   0.987   3.433  1.00  0.00     0.004 C 
ENDBRANCH   2   3
BRANCH   2   5
ATOM      5  C   UNL     1      55.470   2.860   3.672  1.00  0.00    -0.014 C 
ATOM      6  C   UNL     1      56.884   2.749   3.079  1.00  0.00     0.007 C 
ATOM      7  C   UNL     1      55.444   2.334   5.117  1.00  0.00     0.007 C 
ENDBRANCH   2   5
ENDBRANCH   1   2
BRANCH   1   8
ATOM      8  C   UNL     1      53.716   4.613   1.735  1.00  0.00     0.004 C 
BRANCH   8   9
ATOM      9  C   UNL     1      53.282   5.946   2.396  1.00  0.00    -0.011 C 
ATOM     10  C   UNL     1      52.109   6.605   1.626  1.00  0.00     0.008 C 
BRANCH   9  11
ATOM     11  C   UNL     1      54.511   6.865   2.743  1.00  0.00    -0.002 C 
ATOM     12  C   UNL     1      55.860   6.193   2.469  1.00  0.00     0.005 C 
ATOM     13  C   UNL     1      54.641   7.621   4.114  1.00  0.00    -0.026 C 
ATOM     14  C   UNL     1      56.904   6.943   3.284  1.00  0.00     0.005 C 
ATOM     15  C   UNL     1      56.169   7.946   4.191  1.00  0.00    -0.001 C 
ATOM     16  C   UNL     1      54.168   6.808   5.361  1.00  0.00     0.007 C 
ATOM     17  C   UNL     1      53.849   8.956   4.082  1.00  0.00     0.012 C 
ATOM     18  C   UNL     1      56.738   8.021   5.644  1.00  0.00     0.004 C 
ATOM     19  C   UNL     1      55.264   5.913   5.944  1.00  0.00     0.005 C 
ATOM     20  C   UNL     1      56.387   6.779   6.562  1.00  0.00     0.003 C 
ATOM     21  C   UNL     1      58.209   8.484   5.656  1.00  0.00     0.085 C 
ATOM     22  C   UNL     1      57.572   5.935   7.232  1.00  0.00    -0.000 C 
ATOM     23  C   UNL     1      58.868   8.139   6.939  1.00  0.00     0.159 C 
ATOM     24  C   UNL     1      58.870   6.732   7.319  1.00  0.00     0.005 C 
ATOM     25  C   UNL     1      57.882   4.601   6.481  1.00  0.00     0.020 C 
ATOM     26  C   UNL     1      57.142   5.597   8.690  1.00  0.00     0.017 C 
ATOM     27  O   UNL     1      59.489   9.006   7.611  1.00  0.00    -0.295 OA
ATOM     28  C   UNL     1      60.044   6.131   7.572  1.00  0.00     0.055 C 
ATOM     29  C   UNL     1      59.023   3.791   7.129  1.00  0.00     0.081 C 
ATOM     30  C   UNL     1      60.163   4.666   7.573  1.00  0.00     0.156 C 
ATOM     31  O   UNL     1      61.246   4.133   7.938  1.00  0.00    -0.295 OA
ENDBRANCH   9  11
ENDBRANCH   8   9
ENDBRANCH   1   8
TORSDOF 6
ENDMDL
MODEL 7
REMARK VINA RESULT:    -4.156      2.215      5.087
REMARK INTER + INTRA:          -7.797
REMARK INTER:                  -5.529
REMARK INTRA:                  -2.267
REMARK UNBOUND:                -2.182
REMARK SMILES CC[C@@H](CC[C@H](C)[C@@H]1CC[C@@H]2[C@@H]3CC(=O)C4=CC(=O)CC[C@]4(C)[C@@H]3CC[C@@]21C)C(C)C
REMARK SMILES IDX 4 1 3 2 2 3 1 4 29 5 30 6 31 7 5 8 6 9 7 10 8 11 9 12 27 13
REMARK SMILES IDX 10 14 11 15 26 16 28 17 12 18 25 19 24 20 13 21 22 22 14 23
REMARK SMILES IDX 16 24 21 25 23 26 15 27 17 28 20 29 18 30 19 31
REMARK H PARENT
REMARK Flexibility Score: inf
ROOT
ATOM      1  C   UNL     1      56.871   2.465   2.793  1.00  0.00     0.004 C 
ENDROOT
BRANCH   1   2
ATOM      2  C   UNL     1      55.944   2.106   3.991  1.00  0.00    -0.009 C 
BRANCH   2   3
ATOM      3  C   UNL     1      56.734   1.351   5.099  1.00  0.00     0.000 C 
ATOM      4  C   UNL     1      58.063   1.998   5.484  1.00  0.00     0.004 C 
ENDBRANCH   2   3
BRANCH   2   5
ATOM      5  C   UNL     1      54.671   1.358   3.451  1.00  0.00    -0.014 C 
ATOM      6  C   UNL     1      54.817   0.875   1.998  1.00  0.00     0.007 C 
ATOM      7  C   UNL     1      53.358   2.138   3.634  1.00  0.00     0.007 C 
ENDBRANCH   2   5
ENDBRANCH   1   2
BRANCH   1   8
ATOM      8  C   UNL     1      57.007   3.964   2.433  1.00  0.00     0.004 C 
BRANCH   8   9
ATOM      9  C   UNL     1      55.670   4.711   2.200  1.00  0.00    -0.011 C 
ATOM     10  C   UNL     1      55.273   4.710   0.701  1.00  0.00     0.008 C 
BRANCH   9  11
ATOM     11  C   UNL     1      55.625   6.096   2.946  1.00  0.00    -0.002 C 
ATOM     12  C   UNL     1      57.003   6.753   3.076  1.00  0.00     0.005 C 
ATOM     13  C   UNL     1      54.886   6.293   4.318  1.00  0.00    -0.026 C 
ATOM     14  C   UNL     1      56.905   7.771   4.203  1.00  0.00     0.005 C 
ATOM     15  C   UNL     1      55.531   7.604   4.877  1.00  0.00    -0.001 C 
ATOM     16  C   UNL     1      55.041   5.109   5.324  1.00  0.00     0.007 C 
ATOM     17  C   UNL     1      53.370   6.539   4.095  1.00  0.00     0.012 C 
ATOM     18  C   UNL     1      55.577   7.684   6.436  1.00  0.00     0.004 C 
ATOM     19  C   UNL     1      56.304   5.212   6.182  1.00  0.00     0.005 C 
ATOM     20  C   UNL     1      56.194   6.413   7.151  1.00  0.00     0.003 C 
ATOM     21  C   UNL     1      56.088   9.055   6.922  1.00  0.00     0.085 C 
ATOM     22  C   UNL     1      57.456   6.590   8.121  1.00  0.00    -0.000 C 
ATOM     23  C   UNL     1      56.545   8.988   8.331  1.00  0.00     0.159 C 
ATOM     24  C   UNL     1      57.591   8.019   8.637  1.00  0.00     0.005 C 
ATOM     25  C   UNL     1      58.811   6.197   7.451  1.00  0.00     0.020 C 
ATOM     26  C   UNL     1      57.230   5.675   9.360  1.00  0.00     0.017 C 
ATOM     27  O   UNL     1      56.126   9.804   9.196  1.00  0.00    -0.295 OA
ATOM     28  C   UNL     1      58.722   8.450   9.217  1.00  0.00     0.055 C 
ATOM     29  C   UNL     1      60.024   6.369   8.388  1.00  0.00     0.081 C 
ATOM     30  C   UNL     1      59.945   7.634   9.197  1.00  0.00     0.156 C 
ATOM     31  O   UNL     1      60.951   8.010   9.858  1.00  0.00    -0.295 OA
ENDBRANCH   9  11
ENDBRANCH   8   9
ENDBRANCH   1   8
TORSDOF 6
ENDMDL
MODEL 8
REMARK VINA RESULT:    -4.125      9.500     12.743
REMARK INTER + INTRA:          -7.754
REMARK INTER:                  -5.926
REMARK INTRA:                  -1.828
REMARK UNBOUND:                -2.182
REMARK SMILES CC[C@@H](CC[C@H](C)[C@@H]1CC[C@@H]2[C@@H]3CC(=O)C4=CC(=O)CC[C@]4(C)[C@@H]3CC[C@@]21C)C(C)C
REMARK SMILES IDX 4 1 3 2 2 3 1 4 29 5 30 6 31 7 5 8 6 9 7 10 8 11 9 12 27 13
REMARK SMILES IDX 10 14 11 15 26 16 28 17 12 18 25 19 24 20 13 21 22 22 14 23
REMARK SMILES IDX 16 24 21 25 23 26 15 27 17 28 20 29 18 30 19 31
REMARK H PARENT
REMARK Flexibility Score: inf
ROOT
ATOM      1  C   UNL     1      58.382  19.238   0.673  1.00  0.00     0.004 C 
ENDROOT
BRANCH   1   2
ATOM      2  C   UNL     1      57.651  18.613   1.898  1.00  0.00    -0.009 C 
BRANCH   2   3
ATOM      3  C   UNL     1      56.683  17.479   1.449  1.00  0.00     0.000 C 
ATOM      4  C   UNL     1      57.358  16.322   0.713  1.00  0.00     0.004 C 
ENDBRANCH   2   3
BRANCH   2   5
ATOM      5  C   UNL     1      56.989  19.760   2.744  1.00  0.00    -0.014 C 
ATOM      6  C   UNL     1      56.343  20.858   1.883  1.00  0.00     0.007 C 
ATOM      7  C   UNL     1      57.918  20.376   3.804  1.00  0.00     0.007 C 
ENDBRANCH   2   5
ENDBRANCH   1   2
BRANCH   1   8
ATOM      8  C   UNL     1      59.925  19.319   0.741  1.00  0.00     0.004 C 
BRANCH   8   9
ATOM      9  C   UNL     1      60.604  18.249   1.632  1.00  0.00    -0.011 C 
ATOM     10  C   UNL     1      61.208  18.878   2.914  1.00  0.00     0.008 C 
BRANCH   9  11
ATOM     11  C   UNL     1      61.538  17.291   0.804  1.00  0.00    -0.002 C 
ATOM     12  C   UNL     1      61.031  17.042  -0.621  1.00  0.00     0.005 C 
ATOM     13  C   UNL     1      62.044  15.913   1.361  1.00  0.00    -0.026 C 
ATOM     14  C   UNL     1      61.700  15.768  -1.115  1.00  0.00     0.005 C 
ATOM     15  C   UNL     1      62.465  15.144   0.066  1.00  0.00    -0.001 C 
ATOM     16  C   UNL     1      60.987  15.108   2.183  1.00  0.00     0.007 C 
ATOM     17  C   UNL     1      63.298  16.109   2.255  1.00  0.00     0.012 C 
ATOM     18  C   UNL     1      62.322  13.591   0.164  1.00  0.00     0.004 C 
ATOM     19  C   UNL     1      60.087  14.231   1.307  1.00  0.00     0.005 C 
ATOM     20  C   UNL     1      60.912  13.084   0.678  1.00  0.00     0.003 C 
ATOM     21  C   UNL     1      62.886  12.887  -1.086  1.00  0.00     0.085 C 
ATOM     22  C   UNL     1      60.054  12.084  -0.235  1.00  0.00    -0.000 C 
ATOM     23  C   UNL     1      62.368  11.502  -1.201  1.00  0.00     0.159 C 
ATOM     24  C   UNL     1      60.919  11.345  -1.250  1.00  0.00     0.005 C 
ATOM     25  C   UNL     1      58.904  12.795  -1.017  1.00  0.00     0.020 C 
ATOM     26  C   UNL     1      59.428  11.011   0.703  1.00  0.00     0.017 C 
ATOM     27  O   UNL     1      63.145  10.522  -1.356  1.00  0.00    -0.295 OA
ATOM     28  C   UNL     1      60.375  10.692  -2.289  1.00  0.00     0.055 C 
ATOM     29  C   UNL     1      58.081  11.830  -1.894  1.00  0.00     0.081 C 
ATOM     30  C   UNL     1      58.946  10.829  -2.610  1.00  0.00     0.156 C 
ATOM     31  O   UNL     1      58.442  10.107  -3.510  1.00  0.00    -0.295 OA
ENDBRANCH   9  11
ENDBRANCH   8   9
ENDBRANCH   1   8
TORSDOF 6
ENDMDL
MODEL 9
REMARK VINA RESULT:    -4.063      1.980      4.670
REMARK INTER + INTRA:          -7.670
REMARK INTER:                  -5.585
REMARK INTRA:                  -2.085
REMARK UNBOUND:                -2.182
REMARK SMILES CC[C@@H](CC[C@H](C)[C@@H]1CC[C@@H]2[C@@H]3CC(=O)C4=CC(=O)CC[C@]4(C)[C@@H]3CC[C@@]21C)C(C)C
REMARK SMILES IDX 4 1 3 2 2 3 1 4 29 5 30 6 31 7 5 8 6 9 7 10 8 11 9 12 27 13
REMARK SMILES IDX 10 14 11 15 26 16 28 17 12 18 25 19 24 20 13 21 22 22 14 23
REMARK SMILES IDX 16 24 21 25 23 26 15 27 17 28 20 29 18 30 19 31
REMARK H PARENT
REMARK Flexibility Score: inf
ROOT
ATOM      1  C   UNL     1      55.894   3.387   2.645  1.00  0.00     0.004 C 
ENDROOT
BRANCH   1   2
ATOM      2  C   UNL     1      54.538   3.113   3.361  1.00  0.00    -0.009 C 
BRANCH   2   3
ATOM      3  C   UNL     1      54.762   2.742   4.855  1.00  0.00     0.000 C 
ATOM      4  C   UNL     1      56.184   2.294   5.192  1.00  0.00     0.004 C 
ENDBRANCH   2   3
BRANCH   2   5
ATOM      5  C   UNL     1      53.719   2.061   2.527  1.00  0.00    -0.014 C 
ATOM      6  C   UNL     1      53.004   2.671   1.310  1.00  0.00     0.007 C 
ATOM      7  C   UNL     1      52.743   1.218   3.365  1.00  0.00     0.007 C 
ENDBRANCH   2   5
ENDBRANCH   1   2
BRANCH   1   8
ATOM      8  C   UNL     1      56.068   4.770   1.973  1.00  0.00     0.004 C 
BRANCH   8   9
ATOM      9  C   UNL     1      55.131   5.885   2.503  1.00  0.00    -0.011 C 
ATOM     10  C   UNL     1      54.117   6.335   1.421  1.00  0.00     0.008 C 
BRANCH   9  11
ATOM     11  C   UNL     1      55.922   7.020   3.252  1.00  0.00    -0.002 C 
ATOM     12  C   UNL     1      57.428   6.747   3.338  1.00  0.00     0.005 C 
ATOM     13  C   UNL     1      55.474   7.583   4.648  1.00  0.00    -0.026 C 
ATOM     14  C   UNL     1      57.971   7.607   4.469  1.00  0.00     0.005 C 
ATOM     15  C   UNL     1      56.777   8.260   5.188  1.00  0.00    -0.001 C 
ATOM     16  C   UNL     1      54.934   6.511   5.647  1.00  0.00     0.007 C 
ATOM     17  C   UNL     1      54.381   8.672   4.476  1.00  0.00     0.012 C 
ATOM     18  C   UNL     1      56.902   8.266   6.745  1.00  0.00     0.004 C 
ATOM     19  C   UNL     1      56.042   5.840   6.463  1.00  0.00     0.005 C 
ATOM     20  C   UNL     1      56.679   6.859   7.437  1.00  0.00     0.003 C 
ATOM     21  C   UNL     1      58.130   9.071   7.215  1.00  0.00     0.085 C 
ATOM     22  C   UNL     1      57.832   6.247   8.365  1.00  0.00    -0.000 C 
ATOM     23  C   UNL     1      58.498   8.721   8.608  1.00  0.00     0.159 C 
ATOM     24  C   UNL     1      58.789   7.318   8.878  1.00  0.00     0.005 C 
ATOM     25  C   UNL     1      58.684   5.151   7.650  1.00  0.00     0.020 C 
ATOM     26  C   UNL     1      57.146   5.611   9.609  1.00  0.00     0.017 C 
ATOM     27  O   UNL     1      58.657   9.610   9.487  1.00  0.00    -0.295 OA
ATOM     28  C   UNL     1      59.974   6.996   9.421  1.00  0.00     0.055 C 
ATOM     29  C   UNL     1      59.793   4.564   8.547  1.00  0.00     0.081 C 
ATOM     30  C   UNL     1      60.489   5.620   9.360  1.00  0.00     0.156 C 
ATOM     31  O   UNL     1      61.541   5.325   9.987  1.00  0.00    -0.295 OA
ENDBRANCH   9  11
ENDBRANCH   8   9
ENDBRANCH   1   8
TORSDOF 6
ENDMDL
