MODEL 1
REMARK VINA RESULT:    -3.497      0.000      0.000
REMARK INTER + INTRA:          -4.073
REMARK INTER:                  -4.008
REMARK INTRA:                  -0.065
REMARK UNBOUND:                -0.065
REMARK SMILES CC(C)[C@@H]([NH3+])C(=O)[O-]
REMARK SMILES IDX 4 1 5 2 6 6 7 7 8 8 2 9 1 10 3 11
REMARK H PARENT 5 3 5 4 5 5
REMARK Flexibility Score: inf
ROOT
ATOM      1  C   UNL     1     213.777 197.105 214.928  1.00  0.00     0.230 C 
ENDROOT
BRANCH   1   2
ATOM      2  N   UNL     1     213.374 195.812 214.357  1.00  0.00    -0.350 N 
ATOM      3  H   UNL     1     214.078 195.497 213.650  1.00  0.00     0.345 HD
ATOM      4  H   UNL     1     213.278 195.080 215.095  1.00  0.00     0.345 HD
ATOM      5  H   UNL     1     212.454 195.917 213.870  1.00  0.00     0.345 HD
ENDBRANCH   1   2
BRANCH   1   6
ATOM      6  C   UNL     1     213.337 198.241 214.034  1.00  0.00     0.099 C 
ATOM      7  O   UNL     1     213.751 199.410 214.253  1.00  0.00    -0.544 OA
ATOM      8  O   UNL     1     212.452 198.017 212.985  1.00  0.00    -0.544 OA
ENDBRANCH   1   6
BRANCH   1   9
ATOM      9  C   UNL     1     213.278 197.268 216.395  1.00  0.00     0.047 C 
ATOM     10  C   UNL     1     214.124 196.498 217.425  1.00  0.00     0.014 C 
ATOM     11  C   UNL     1     211.799 196.874 216.530  1.00  0.00     0.014 C 
ENDBRANCH   1   9
TORSDOF 3
ENDMDL
MODEL 2
REMARK VINA RESULT:    -3.436      2.527      3.522
REMARK INTER + INTRA:          -4.002
REMARK INTER:                  -3.950
REMARK INTRA:                  -0.053
REMARK UNBOUND:                -0.065
REMARK SMILES CC(C)[C@@H]([NH3+])C(=O)[O-]
REMARK SMILES IDX 4 1 5 2 6 6 7 7 8 8 2 9 1 10 3 11
REMARK H PARENT 5 3 5 4 5 5
REMARK Flexibility Score: inf
ROOT
ATOM      1  C   UNL     1     213.535 197.514 214.881  1.00  0.00     0.230 C 
ENDROOT
BRANCH   1   2
ATOM      2  N   UNL     1     213.599 198.982 214.864  1.00  0.00    -0.350 N 
ATOM      3  H   UNL     1     214.535 199.296 214.521  1.00  0.00     0.345 HD
ATOM      4  H   UNL     1     212.855 199.391 214.255  1.00  0.00     0.345 HD
ATOM      5  H   UNL     1     213.472 199.348 215.836  1.00  0.00     0.345 HD
ENDBRANCH   1   2
BRANCH   1   6
ATOM      6  C   UNL     1     213.046 197.019 216.222  1.00  0.00     0.099 C 
ATOM      7  O   UNL     1     211.815 196.828 216.411  1.00  0.00    -0.544 OA
ATOM      8  O   UNL     1     213.937 196.797 217.265  1.00  0.00    -0.544 OA
ENDBRANCH   1   6
BRANCH   1   9
ATOM      9  C   UNL     1     212.694 196.958 213.693  1.00  0.00     0.047 C 
ATOM     10  C   UNL     1     213.397 195.838 212.907  1.00  0.00     0.014 C 
ATOM     11  C   UNL     1     212.266 198.083 212.737  1.00  0.00     0.014 C 
ENDBRANCH   1   9
TORSDOF 3
ENDMDL
MODEL 3
REMARK VINA RESULT:    -3.341      3.362      4.772
REMARK INTER + INTRA:          -3.894
REMARK INTER:                  -3.848
REMARK INTRA:                  -0.046
REMARK UNBOUND:                -0.065
REMARK SMILES CC(C)[C@@H]([NH3+])C(=O)[O-]
REMARK SMILES IDX 4 1 5 2 6 6 7 7 8 8 2 9 1 10 3 11
REMARK H PARENT 5 3 5 4 5 5
REMARK Flexibility Score: inf
ROOT
ATOM      1  C   UNL     1     212.236 198.007 212.113  1.00  0.00     0.230 C 
ENDROOT
BRANCH   1   2
ATOM      2  N   UNL     1     211.436 199.064 212.748  1.00  0.00    -0.350 N 
ATOM      3  H   UNL     1     210.417 198.863 212.628  1.00  0.00     0.345 HD
ATOM      4  H   UNL     1     211.652 199.150 213.767  1.00  0.00     0.345 HD
ATOM      5  H   UNL     1     211.641 199.981 212.286  1.00  0.00     0.345 HD
ENDBRANCH   1   2
BRANCH   1   6
ATOM      6  C   UNL     1     212.608 196.944 213.120  1.00  0.00     0.099 C 
ATOM      7  O   UNL     1     212.458 197.164 214.352  1.00  0.00    -0.544 OA
ATOM      8  O   UNL     1     213.144 195.731 212.706  1.00  0.00    -0.544 OA
ENDBRANCH   1   6
BRANCH   1   9
ATOM      9  C   UNL     1     211.523 197.421 210.857  1.00  0.00     0.047 C 
ATOM     10  C   UNL     1     212.416 197.376 209.605  1.00  0.00     0.014 C 
ATOM     11  C   UNL     1     210.221 198.176 210.549  1.00  0.00     0.014 C 
ENDBRANCH   1   9
TORSDOF 3
ENDMDL
MODEL 4
REMARK VINA RESULT:    -3.315      2.176      2.674
REMARK INTER + INTRA:          -3.864
REMARK INTER:                  -3.801
REMARK INTRA:                  -0.063
REMARK UNBOUND:                -0.065
REMARK SMILES CC(C)[C@@H]([NH3+])C(=O)[O-]
REMARK SMILES IDX 4 1 5 2 6 6 7 7 8 8 2 9 1 10 3 11
REMARK H PARENT 5 3 5 4 5 5
REMARK Flexibility Score: inf
ROOT
ATOM      1  C   UNL     1     212.553 197.403 213.809  1.00  0.00     0.230 C 
ENDROOT
BRANCH   1   2
ATOM      2  N   UNL     1     212.250 198.670 213.128  1.00  0.00    -0.350 N 
ATOM      3  H   UNL     1     212.646 198.660 212.160  1.00  0.00     0.345 HD
ATOM      4  H   UNL     1     211.220 198.840 213.075  1.00  0.00     0.345 HD
ATOM      5  H   UNL     1     212.692 199.461 213.650  1.00  0.00     0.345 HD
ENDBRANCH   1   2
BRANCH   1   6
ATOM      6  C   UNL     1     213.012 196.361 212.816  1.00  0.00     0.099 C 
ATOM      7  O   UNL     1     214.069 195.711 213.029  1.00  0.00    -0.544 OA
ATOM      8  O   UNL     1     212.294 196.130 211.648  1.00  0.00    -0.544 OA
ENDBRANCH   1   6
BRANCH   1   9
ATOM      9  C   UNL     1     213.566 197.605 214.977  1.00  0.00     0.047 C 
ATOM     10  C   UNL     1     212.993 197.249 216.360  1.00  0.00     0.014 C 
ATOM     11  C   UNL     1     214.125 199.037 214.991  1.00  0.00     0.014 C 
ENDBRANCH   1   9
TORSDOF 3
ENDMDL
MODEL 5
REMARK VINA RESULT:    -3.308      1.870      3.378
REMARK INTER + INTRA:          -3.855
REMARK INTER:                  -3.871
REMARK INTRA:                   0.016
REMARK UNBOUND:                -0.065
REMARK SMILES CC(C)[C@@H]([NH3+])C(=O)[O-]
REMARK SMILES IDX 4 1 5 2 6 6 7 7 8 8 2 9 1 10 3 11
REMARK H PARENT 5 3 5 4 5 5
REMARK Flexibility Score: inf
ROOT
ATOM      1  C   UNL     1     212.705 197.116 214.095  1.00  0.00     0.230 C 
ENDROOT
BRANCH   1   2
ATOM      2  N   UNL     1     213.266 195.765 214.231  1.00  0.00    -0.350 N 
ATOM      3  H   UNL     1     212.821 195.121 213.538  1.00  0.00     0.345 HD
ATOM      4  H   UNL     1     214.301 195.763 214.087  1.00  0.00     0.345 HD
ATOM      5  H   UNL     1     213.063 195.398 215.189  1.00  0.00     0.345 HD
ENDBRANCH   1   2
BRANCH   1   6
ATOM      6  C   UNL     1     213.456 198.094 214.968  1.00  0.00     0.099 C 
ATOM      7  O   UNL     1     213.458 197.948 216.219  1.00  0.00    -0.544 OA
ATOM      8  O   UNL     1     214.125 199.176 214.408  1.00  0.00    -0.544 OA
ENDBRANCH   1   6
BRANCH   1   9
ATOM      9  C   UNL     1     212.642 197.568 212.605  1.00  0.00     0.047 C 
ATOM     10  C   UNL     1     211.574 198.639 212.328  1.00  0.00     0.014 C 
ATOM     11  C   UNL     1     212.442 196.369 211.665  1.00  0.00     0.014 C 
ENDBRANCH   1   9
TORSDOF 3
ENDMDL
MODEL 6
REMARK VINA RESULT:    -3.224      3.423      4.984
REMARK INTER + INTRA:          -3.760
REMARK INTER:                  -3.703
REMARK INTRA:                  -0.057
REMARK UNBOUND:                -0.065
REMARK SMILES CC(C)[C@@H]([NH3+])C(=O)[O-]
REMARK SMILES IDX 4 1 5 2 6 6 7 7 8 8 2 9 1 10 3 11
REMARK H PARENT 5 3 5 4 5 5
REMARK Flexibility Score: inf
ROOT
ATOM      1  C   UNL     1     211.910 196.684 211.530  1.00  0.00     0.230 C 
ENDROOT
BRANCH   1   2
ATOM      2  N   UNL     1     212.614 195.569 210.881  1.00  0.00    -0.350 N 
ATOM      3  H   UNL     1     213.255 195.105 211.564  1.00  0.00     0.345 HD
ATOM      4  H   UNL     1     211.945 194.862 210.501  1.00  0.00     0.345 HD
ATOM      5  H   UNL     1     213.194 195.936 210.091  1.00  0.00     0.345 HD
ENDBRANCH   1   2
BRANCH   1   6
ATOM      6  C   UNL     1     212.593 197.064 212.823  1.00  0.00     0.099 C 
ATOM      7  O   UNL     1     212.630 198.270 213.184  1.00  0.00    -0.544 OA
ATOM      8  O   UNL     1     213.209 196.098 213.610  1.00  0.00    -0.544 OA
ENDBRANCH   1   6
BRANCH   1   9
ATOM      9  C   UNL     1     211.736 197.896 210.565  1.00  0.00     0.047 C 
ATOM     10  C   UNL     1     210.277 198.357 210.408  1.00  0.00     0.014 C 
ATOM     11  C   UNL     1     212.348 197.606 209.186  1.00  0.00     0.014 C 
ENDBRANCH   1   9
TORSDOF 3
ENDMDL
MODEL 7
REMARK VINA RESULT:    -3.215      4.295      5.124
REMARK INTER + INTRA:          -3.750
REMARK INTER:                  -3.677
REMARK INTRA:                  -0.072
REMARK UNBOUND:                -0.065
REMARK SMILES CC(C)[C@@H]([NH3+])C(=O)[O-]
REMARK SMILES IDX 4 1 5 2 6 6 7 7 8 8 2 9 1 10 3 11
REMARK H PARENT 5 3 5 4 5 5
REMARK Flexibility Score: inf
ROOT
ATOM      1  C   UNL     1     211.814 197.860 210.140  1.00  0.00     0.230 C 
ENDROOT
BRANCH   1   2
ATOM      2  N   UNL     1     211.736 196.952 208.987  1.00  0.00    -0.350 N 
ATOM      3  H   UNL     1     212.299 196.090 209.171  1.00  0.00     0.345 HD
ATOM      4  H   UNL     1     210.750 196.681 208.778  1.00  0.00     0.345 HD
ATOM      5  H   UNL     1     212.137 197.425 208.143  1.00  0.00     0.345 HD
ENDBRANCH   1   2
BRANCH   1   6
ATOM      6  C   UNL     1     210.633 198.802 210.156  1.00  0.00     0.099 C 
ATOM      7  O   UNL     1     210.783 200.006 209.820  1.00  0.00    -0.544 OA
ATOM      8  O   UNL     1     209.381 198.361 210.569  1.00  0.00    -0.544 OA
ENDBRANCH   1   6
BRANCH   1   9
ATOM      9  C   UNL     1     211.979 197.080 211.478  1.00  0.00     0.047 C 
ATOM     10  C   UNL     1     212.283 197.982 212.687  1.00  0.00     0.014 C 
ATOM     11  C   UNL     1     213.049 195.983 211.359  1.00  0.00     0.014 C 
ENDBRANCH   1   9
TORSDOF 3
ENDMDL
MODEL 8
REMARK VINA RESULT:    -3.162      4.120      5.892
REMARK INTER + INTRA:          -3.689
REMARK INTER:                  -3.636
REMARK INTRA:                  -0.052
REMARK UNBOUND:                -0.065
REMARK SMILES CC(C)[C@@H]([NH3+])C(=O)[O-]
REMARK SMILES IDX 4 1 5 2 6 6 7 7 8 8 2 9 1 10 3 11
REMARK H PARENT 5 3 5 4 5 5
REMARK Flexibility Score: inf
ROOT
ATOM      1  C   UNL     1     210.906 198.393 211.060  1.00  0.00     0.230 C 
ENDROOT
BRANCH   1   2
ATOM      2  N   UNL     1     210.187 197.286 210.414  1.00  0.00    -0.350 N 
ATOM      3  H   UNL     1     210.846 196.724 209.828  1.00  0.00     0.345 HD
ATOM      4  H   UNL     1     209.735 196.660 211.118  1.00  0.00     0.345 HD
ATOM      5  H   UNL     1     209.445 197.672 209.786  1.00  0.00     0.345 HD
ENDBRANCH   1   2
BRANCH   1   6
ATOM      6  C   UNL     1     211.982 197.865 211.980  1.00  0.00     0.099 C 
ATOM      7  O   UNL     1     212.423 196.695 211.826  1.00  0.00    -0.544 OA
ATOM      8  O   UNL     1     212.474 198.647 213.018  1.00  0.00    -0.544 OA
ENDBRANCH   1   6
BRANCH   1   9
ATOM      9  C   UNL     1     211.457 199.410 210.014  1.00  0.00     0.047 C 
ATOM     10  C   UNL     1     210.377 200.331 209.420  1.00  0.00     0.014 C 
ATOM     11  C   UNL     1     212.219 198.696 208.887  1.00  0.00     0.014 C 
ENDBRANCH   1   9
TORSDOF 3
ENDMDL
MODEL 9
REMARK VINA RESULT:    -3.043      8.920     10.414
REMARK INTER + INTRA:          -3.553
REMARK INTER:                  -3.507
REMARK INTRA:                  -0.045
REMARK UNBOUND:                -0.065
REMARK SMILES CC(C)[C@@H]([NH3+])C(=O)[O-]
REMARK SMILES IDX 4 1 5 2 6 6 7 7 8 8 2 9 1 10 3 11
REMARK H PARENT 5 3 5 4 5 5
REMARK Flexibility Score: inf
ROOT
ATOM      1  C   UNL     1     209.369 202.920 207.994  1.00  0.00     0.230 C 
ENDROOT
BRANCH   1   2
ATOM      2  N   UNL     1     210.774 203.259 208.261  1.00  0.00    -0.350 N 
ATOM      3  H   UNL     1     211.010 204.180 207.827  1.00  0.00     0.345 HD
ATOM      4  H   UNL     1     210.971 203.302 209.286  1.00  0.00     0.345 HD
ATOM      5  H   UNL     1     211.395 202.532 207.834  1.00  0.00     0.345 HD
ENDBRANCH   1   2
BRANCH   1   6
ATOM      6  C   UNL     1     208.871 201.895 208.986  1.00  0.00     0.099 C 
ATOM      7  O   UNL     1     207.770 202.071 209.573  1.00  0.00    -0.544 OA
ATOM      8  O   UNL     1     209.630 200.769 209.284  1.00  0.00    -0.544 OA
ENDBRANCH   1   6
BRANCH   1   9
ATOM      9  C   UNL     1     208.470 204.192 207.942  1.00  0.00     0.047 C 
ATOM     10  C   UNL     1     207.444 204.177 206.796  1.00  0.00     0.014 C 
ATOM     11  C   UNL     1     209.315 205.473 207.875  1.00  0.00     0.014 C 
ENDBRANCH   1   9
TORSDOF 3
ENDMDL
