MODEL 1
REMARK VINA RESULT:    -4.511      0.000      0.000
REMARK INTER + INTRA:          -6.295
REMARK INTER:                  -5.566
REMARK INTRA:                  -0.728
REMARK UNBOUND:                -0.728
REMARK SMILES CC(C)=CCC[C@@H](C)c1ccc(C)cc1
REMARK SMILES IDX 6 1 7 2 8 3 9 4 13 5 12 6 11 7 14 8 10 9 15 10 5 11 4 12
REMARK SMILES IDX 2 13 1 14 3 15
REMARK H PARENT
REMARK Flexibility Score: inf
ROOT
ATOM      1  C   UNL     1     -12.197  23.615   9.581  1.00  0.00     0.012 C 
ENDROOT
BRANCH   1   2
ATOM      2  C   UNL     1     -13.708  23.831   9.855  1.00  0.00     0.016 C 
ATOM      3  C   UNL     1     -14.371  24.814   8.877  1.00  0.00     0.013 C 
BRANCH   2   4
ATOM      4  C   UNL     1     -14.459  22.514   9.999  1.00  0.00    -0.045 A 
ATOM      5  C   UNL     1     -16.705  18.850  10.476  1.00  0.00     0.044 C 
ATOM      6  C   UNL     1     -15.926  20.126  10.343  1.00  0.00    -0.051 A 
ATOM      7  C   UNL     1     -14.525  20.102  10.355  1.00  0.00     0.004 A 
ATOM      8  C   UNL     1     -16.592  21.343  10.146  1.00  0.00     0.004 A 
ATOM      9  C   UNL     1     -13.797  21.285  10.196  1.00  0.00     0.004 A 
ATOM     10  C   UNL     1     -15.866  22.526   9.986  1.00  0.00     0.004 A 
ENDBRANCH   2   4
ENDBRANCH   1   2
BRANCH   1  11
ATOM     11  C   UNL     1     -11.241  24.093  10.692  1.00  0.00     0.028 C 
BRANCH  11  12
ATOM     12  C   UNL     1     -10.417  25.291  10.278  1.00  0.00    -0.028 C 
ATOM     13  C   UNL     1     -10.820  26.565  10.469  1.00  0.00    -0.080 C 
ATOM     14  C   UNL     1      -9.920  27.684  10.013  1.00  0.00     0.039 C 
ATOM     15  C   UNL     1     -12.142  26.886  11.125  1.00  0.00     0.039 C 
ENDBRANCH  11  12
ENDBRANCH   1  11
TORSDOF 4
ENDMDL
MODEL 2
REMARK VINA RESULT:    -4.486      0.954      6.707
REMARK INTER + INTRA:          -6.264
REMARK INTER:                  -5.578
REMARK INTRA:                  -0.686
REMARK UNBOUND:                -0.728
REMARK SMILES CC(C)=CCC[C@@H](C)c1ccc(C)cc1
REMARK SMILES IDX 6 1 7 2 8 3 9 4 13 5 12 6 11 7 14 8 10 9 15 10 5 11 4 12
REMARK SMILES IDX 2 13 1 14 3 15
REMARK H PARENT
REMARK Flexibility Score: inf
ROOT
ATOM      1  C   UNL     1     -13.464  22.086   9.811  1.00  0.00     0.012 C 
ENDROOT
BRANCH   1   2
ATOM      2  C   UNL     1     -13.905  23.480   9.297  1.00  0.00     0.016 C 
ATOM      3  C   UNL     1     -15.349  23.844   9.679  1.00  0.00     0.013 C 
BRANCH   2   4
ATOM      4  C   UNL     1     -12.891  24.565   9.638  1.00  0.00    -0.045 A 
ATOM      5  C   UNL     1      -9.926  27.539  10.665  1.00  0.00     0.044 C 
ATOM      6  C   UNL     1     -10.957  26.498  10.340  1.00  0.00    -0.051 A 
ATOM      7  C   UNL     1     -12.318  26.835  10.318  1.00  0.00     0.004 A 
ATOM      8  C   UNL     1     -10.565  25.198   9.998  1.00  0.00     0.004 A 
ATOM      9  C   UNL     1     -13.277  25.877   9.981  1.00  0.00     0.004 A 
ATOM     10  C   UNL     1     -11.523  24.238   9.661  1.00  0.00     0.004 A 
ENDBRANCH   2   4
ENDBRANCH   1   2
BRANCH   1  11
ATOM     11  C   UNL     1     -14.369  21.452  10.886  1.00  0.00     0.028 C 
BRANCH  11  12
ATOM     12  C   UNL     1     -15.063  20.200  10.401  1.00  0.00    -0.028 C 
ATOM     13  C   UNL     1     -16.394  20.005  10.507  1.00  0.00    -0.080 C 
ATOM     14  C   UNL     1     -16.980  18.716   9.995  1.00  0.00     0.039 C 
ATOM     15  C   UNL     1     -17.298  21.047  11.123  1.00  0.00     0.039 C 
ENDBRANCH  11  12
ENDBRANCH   1  11
TORSDOF 4
ENDMDL
MODEL 3
REMARK VINA RESULT:    -4.483      1.255      7.038
REMARK INTER + INTRA:          -6.260
REMARK INTER:                  -5.576
REMARK INTRA:                  -0.684
REMARK UNBOUND:                -0.728
REMARK SMILES CC(C)=CCC[C@@H](C)c1ccc(C)cc1
REMARK SMILES IDX 6 1 7 2 8 3 9 4 13 5 12 6 11 7 14 8 10 9 15 10 5 11 4 12
REMARK SMILES IDX 2 13 1 14 3 15
REMARK H PARENT
REMARK Flexibility Score: inf
ROOT
ATOM      1  C   UNL     1     -13.867  25.006   9.856  1.00  0.00     0.012 C 
ENDROOT
BRANCH   1   2
ATOM      2  C   UNL     1     -12.432  24.656  10.326  1.00  0.00     0.016 C 
ATOM      3  C   UNL     1     -11.783  23.522   9.516  1.00  0.00     0.013 C 
BRANCH   2   4
ATOM      4  C   UNL     1     -11.552  25.893  10.456  1.00  0.00    -0.045 A 
ATOM      5  C   UNL     1      -9.120  29.459  10.700  1.00  0.00     0.044 C 
ATOM      6  C   UNL     1      -9.951  28.215  10.586  1.00  0.00    -0.051 A 
ATOM      7  C   UNL     1      -9.463  26.992  11.065  1.00  0.00     0.004 A 
ATOM      8  C   UNL     1     -11.246  28.278  10.054  1.00  0.00     0.004 A 
ATOM      9  C   UNL     1     -10.250  25.840  10.992  1.00  0.00     0.004 A 
ATOM     10  C   UNL     1     -12.034  27.126   9.980  1.00  0.00     0.004 A 
ENDBRANCH   2   4
ENDBRANCH   1   2
BRANCH   1  11
ATOM     11  C   UNL     1     -14.561  23.946   8.977  1.00  0.00     0.028 C 
BRANCH  11  12
ATOM     12  C   UNL     1     -15.753  23.314   9.656  1.00  0.00    -0.028 C 
ATOM     13  C   UNL     1     -15.706  22.106  10.257  1.00  0.00    -0.080 C 
ATOM     14  C   UNL     1     -16.957  21.568  10.900  1.00  0.00     0.039 C 
ATOM     15  C   UNL     1     -14.434  21.292  10.297  1.00  0.00     0.039 C 
ENDBRANCH  11  12
ENDBRANCH   1  11
TORSDOF 4
ENDMDL
MODEL 4
REMARK VINA RESULT:    -4.469      1.311      6.759
REMARK INTER + INTRA:          -6.243
REMARK INTER:                  -5.686
REMARK INTRA:                  -0.556
REMARK UNBOUND:                -0.728
REMARK SMILES CC(C)=CCC[C@@H](C)c1ccc(C)cc1
REMARK SMILES IDX 6 1 7 2 8 3 9 4 13 5 12 6 11 7 14 8 10 9 15 10 5 11 4 12
REMARK SMILES IDX 2 13 1 14 3 15
REMARK H PARENT
REMARK Flexibility Score: inf
ROOT
ATOM      1  C   UNL     1     -15.932  22.287   9.627  1.00  0.00     0.012 C 
ENDROOT
BRANCH   1   2
ATOM      2  C   UNL     1     -15.807  23.803   9.923  1.00  0.00     0.016 C 
ATOM      3  C   UNL     1     -16.649  24.262  11.125  1.00  0.00     0.013 C 
BRANCH   2   4
ATOM      4  C   UNL     1     -14.356  24.259   9.986  1.00  0.00    -0.045 A 
ATOM      5  C   UNL     1     -10.279  25.693  10.128  1.00  0.00     0.044 C 
ATOM      6  C   UNL     1     -11.696  25.205  10.047  1.00  0.00    -0.051 A 
ATOM      7  C   UNL     1     -11.966  23.880   9.680  1.00  0.00     0.004 A 
ATOM      8  C   UNL     1     -12.756  26.052  10.397  1.00  0.00     0.004 A 
ATOM      9  C   UNL     1     -13.283  23.413   9.639  1.00  0.00     0.004 A 
ATOM     10  C   UNL     1     -14.073  25.587  10.356  1.00  0.00     0.004 A 
ENDBRANCH   2   4
ENDBRANCH   1   2
BRANCH   1  11
ATOM     11  C   UNL     1     -16.066  21.372  10.861  1.00  0.00     0.028 C 
BRANCH  11  12
ATOM     12  C   UNL     1     -17.311  20.517  10.822  1.00  0.00    -0.028 C 
ATOM     13  C   UNL     1     -17.321  19.249  10.359  1.00  0.00    -0.080 C 
ATOM     14  C   UNL     1     -18.620  18.488  10.361  1.00  0.00     0.039 C 
ATOM     15  C   UNL     1     -16.065  18.586   9.845  1.00  0.00     0.039 C 
ENDBRANCH  11  12
ENDBRANCH   1  11
TORSDOF 4
ENDMDL
MODEL 5
REMARK VINA RESULT:    -4.409      1.172      2.220
REMARK INTER + INTRA:          -6.168
REMARK INTER:                  -5.466
REMARK INTRA:                  -0.702
REMARK UNBOUND:                -0.728
REMARK SMILES CC(C)=CCC[C@@H](C)c1ccc(C)cc1
REMARK SMILES IDX 6 1 7 2 8 3 9 4 13 5 12 6 11 7 14 8 10 9 15 10 5 11 4 12
REMARK SMILES IDX 2 13 1 14 3 15
REMARK H PARENT
REMARK Flexibility Score: inf
ROOT
ATOM      1  C   UNL     1     -13.352  22.183  10.022  1.00  0.00     0.012 C 
ENDROOT
BRANCH   1   2
ATOM      2  C   UNL     1     -14.812  22.489  10.445  1.00  0.00     0.016 C 
ATOM      3  C   UNL     1     -15.448  23.642   9.652  1.00  0.00     0.013 C 
BRANCH   2   4
ATOM      4  C   UNL     1     -15.672  21.233  10.492  1.00  0.00    -0.045 A 
ATOM      5  C   UNL     1     -18.035  17.613  10.508  1.00  0.00     0.044 C 
ATOM      6  C   UNL     1     -17.224  18.875  10.472  1.00  0.00    -0.051 A 
ATOM      7  C   UNL     1     -17.789  20.089  10.884  1.00  0.00     0.004 A 
ATOM      8  C   UNL     1     -15.879  18.839  10.082  1.00  0.00     0.004 A 
ATOM      9  C   UNL     1     -17.025  21.259  10.885  1.00  0.00     0.004 A 
ATOM     10  C   UNL     1     -15.114  20.008  10.082  1.00  0.00     0.004 A 
ENDBRANCH   2   4
ENDBRANCH   1   2
BRANCH   1  11
ATOM     11  C   UNL     1     -12.686  23.231   9.108  1.00  0.00     0.028 C 
BRANCH  11  12
ATOM     12  C   UNL     1     -11.456  23.850   9.729  1.00  0.00    -0.028 C 
ATOM     13  C   UNL     1     -11.449  25.081  10.283  1.00  0.00    -0.080 C 
ATOM     14  C   UNL     1     -10.164  25.603  10.870  1.00  0.00     0.039 C 
ATOM     15  C   UNL     1     -12.694  25.935  10.326  1.00  0.00     0.039 C 
ENDBRANCH  11  12
ENDBRANCH   1  11
TORSDOF 4
ENDMDL
MODEL 6
REMARK VINA RESULT:    -4.376      2.758      5.464
REMARK INTER + INTRA:          -6.128
REMARK INTER:                  -5.358
REMARK INTRA:                  -0.769
REMARK UNBOUND:                -0.728
REMARK SMILES CC(C)=CCC[C@@H](C)c1ccc(C)cc1
REMARK SMILES IDX 6 1 7 2 8 3 9 4 13 5 12 6 11 7 14 8 10 9 15 10 5 11 4 12
REMARK SMILES IDX 2 13 1 14 3 15
REMARK H PARENT
REMARK Flexibility Score: inf
ROOT
ATOM      1  C   UNL     1     -17.081  20.415   9.857  1.00  0.00     0.012 C 
ENDROOT
BRANCH   1   2
ATOM      2  C   UNL     1     -17.173  19.005  10.493  1.00  0.00     0.016 C 
ATOM      3  C   UNL     1     -18.572  18.376  10.383  1.00  0.00     0.013 C 
BRANCH   2   4
ATOM      4  C   UNL     1     -16.054  18.087  10.021  1.00  0.00    -0.045 A 
ATOM      5  C   UNL     1     -12.860  15.567   8.557  1.00  0.00     0.044 C 
ATOM      6  C   UNL     1     -13.985  16.435   9.038  1.00  0.00    -0.051 A 
ATOM      7  C   UNL     1     -15.007  15.892   9.829  1.00  0.00     0.004 A 
ATOM      8  C   UNL     1     -13.992  17.806   8.750  1.00  0.00     0.004 A 
ATOM      9  C   UNL     1     -16.037  16.707  10.307  1.00  0.00     0.004 A 
ATOM     10  C   UNL     1     -15.021  18.621   9.227  1.00  0.00     0.004 A 
ENDBRANCH   2   4
ENDBRANCH   1   2
BRANCH   1  11
ATOM     11  C   UNL     1     -16.618  21.545  10.798  1.00  0.00     0.028 C 
BRANCH  11  12
ATOM     12  C   UNL     1     -16.114  22.758  10.052  1.00  0.00    -0.028 C 
ATOM     13  C   UNL     1     -14.807  22.971   9.786  1.00  0.00    -0.080 C 
ATOM     14  C   UNL     1     -14.415  24.218   9.038  1.00  0.00     0.039 C 
ATOM     15  C   UNL     1     -13.743  21.991  10.219  1.00  0.00     0.039 C 
ENDBRANCH  11  12
ENDBRANCH   1  11
TORSDOF 4
ENDMDL
MODEL 7
REMARK VINA RESULT:    -4.323      2.694      7.350
REMARK INTER + INTRA:          -6.063
REMARK INTER:                  -5.244
REMARK INTRA:                  -0.819
REMARK UNBOUND:                -0.728
REMARK SMILES CC(C)=CCC[C@@H](C)c1ccc(C)cc1
REMARK SMILES IDX 6 1 7 2 8 3 9 4 13 5 12 6 11 7 14 8 10 9 15 10 5 11 4 12
REMARK SMILES IDX 2 13 1 14 3 15
REMARK H PARENT
REMARK Flexibility Score: inf
ROOT
ATOM      1  C   UNL     1     -10.200  26.564   9.890  1.00  0.00     0.012 C 
ENDROOT
BRANCH   1   2
ATOM      2  C   UNL     1     -10.185  27.950  10.583  1.00  0.00     0.016 C 
ATOM      3  C   UNL     1      -8.795  28.608  10.604  1.00  0.00     0.013 C 
BRANCH   2   4
ATOM      4  C   UNL     1     -11.285  28.865  10.062  1.00  0.00    -0.045 A 
ATOM      5  C   UNL     1     -14.405  31.388   8.452  1.00  0.00     0.044 C 
ATOM      6  C   UNL     1     -13.302  30.522   8.986  1.00  0.00    -0.051 A 
ATOM      7  C   UNL     1     -12.407  31.026   9.940  1.00  0.00     0.004 A 
ATOM      8  C   UNL     1     -13.195  29.185   8.582  1.00  0.00     0.004 A 
ATOM      9  C   UNL     1     -11.402  30.211  10.466  1.00  0.00     0.004 A 
ATOM     10  C   UNL     1     -12.191  28.368   9.106  1.00  0.00     0.004 A 
ENDBRANCH   2   4
ENDBRANCH   1   2
BRANCH   1  11
ATOM     11  C   UNL     1     -10.602  25.373  10.783  1.00  0.00     0.028 C 
BRANCH  11  12
ATOM     12  C   UNL     1     -11.252  24.252  10.005  1.00  0.00    -0.028 C 
ATOM     13  C   UNL     1     -12.588  24.144   9.843  1.00  0.00    -0.080 C 
ATOM     14  C   UNL     1     -13.129  22.983   9.052  1.00  0.00     0.039 C 
ATOM     15  C   UNL     1     -13.540  25.157  10.434  1.00  0.00     0.039 C 
ENDBRANCH  11  12
ENDBRANCH   1  11
TORSDOF 4
ENDMDL
MODEL 8
REMARK VINA RESULT:    -4.307      1.271      6.659
REMARK INTER + INTRA:          -6.043
REMARK INTER:                  -5.527
REMARK INTRA:                  -0.516
REMARK UNBOUND:                -0.728
REMARK SMILES CC(C)=CCC[C@@H](C)c1ccc(C)cc1
REMARK SMILES IDX 6 1 7 2 8 3 9 4 13 5 12 6 11 7 14 8 10 9 15 10 5 11 4 12
REMARK SMILES IDX 2 13 1 14 3 15
REMARK H PARENT
REMARK Flexibility Score: inf
ROOT
ATOM      1  C   UNL     1     -13.556  21.900  10.904  1.00  0.00     0.012 C 
ENDROOT
BRANCH   1   2
ATOM      2  C   UNL     1     -13.790  22.951   9.789  1.00  0.00     0.016 C 
ATOM      3  C   UNL     1     -15.266  23.348   9.624  1.00  0.00     0.013 C 
BRANCH   2   4
ATOM      4  C   UNL     1     -12.848  24.141   9.913  1.00  0.00    -0.045 A 
ATOM      5  C   UNL     1     -10.279  27.606  10.200  1.00  0.00     0.044 C 
ATOM      6  C   UNL     1     -11.171  26.407  10.068  1.00  0.00    -0.051 A 
ATOM      7  C   UNL     1     -10.618  25.127   9.929  1.00  0.00     0.004 A 
ATOM      8  C   UNL     1     -12.563  26.551  10.142  1.00  0.00     0.004 A 
ATOM      9  C   UNL     1     -11.447  24.005   9.842  1.00  0.00     0.004 A 
ATOM     10  C   UNL     1     -13.393  25.431  10.055  1.00  0.00     0.004 A 
ENDBRANCH   2   4
ENDBRANCH   1   2
BRANCH   1  11
ATOM     11  C   UNL     1     -14.475  20.663  10.862  1.00  0.00     0.028 C 
BRANCH  11  12
ATOM     12  C   UNL     1     -13.956  19.580   9.944  1.00  0.00    -0.028 C 
ATOM     13  C   UNL     1     -14.742  18.615   9.423  1.00  0.00    -0.080 C 
ATOM     14  C   UNL     1     -14.118  17.582   8.522  1.00  0.00     0.039 C 
ATOM     15  C   UNL     1     -16.221  18.553   9.722  1.00  0.00     0.039 C 
ENDBRANCH  11  12
ENDBRANCH   1  11
TORSDOF 4
ENDMDL
MODEL 9
REMARK VINA RESULT:    -4.225      1.300      2.362
REMARK INTER + INTRA:          -5.942
REMARK INTER:                  -5.241
REMARK INTRA:                  -0.701
REMARK UNBOUND:                -0.728
REMARK SMILES CC(C)=CCC[C@@H](C)c1ccc(C)cc1
REMARK SMILES IDX 6 1 7 2 8 3 9 4 13 5 12 6 11 7 14 8 10 9 15 10 5 11 4 12
REMARK SMILES IDX 2 13 1 14 3 15
REMARK H PARENT
REMARK Flexibility Score: inf
ROOT
ATOM      1  C   UNL     1     -14.040  25.060   9.204  1.00  0.00     0.012 C 
ENDROOT
BRANCH   1   2
ATOM      2  C   UNL     1     -13.404  23.647   9.258  1.00  0.00     0.016 C 
ATOM      3  C   UNL     1     -12.046  23.616   9.977  1.00  0.00     0.013 C 
BRANCH   2   4
ATOM      4  C   UNL     1     -14.384  22.594   9.758  1.00  0.00    -0.045 A 
ATOM      5  C   UNL     1     -17.074  19.498  11.125  1.00  0.00     0.044 C 
ATOM      6  C   UNL     1     -16.143  20.561  10.620  1.00  0.00    -0.051 A 
ATOM      7  C   UNL     1     -16.645  21.810  10.227  1.00  0.00     0.004 A 
ATOM      8  C   UNL     1     -14.761  20.336  10.594  1.00  0.00     0.004 A 
ATOM      9  C   UNL     1     -15.776  22.813   9.790  1.00  0.00     0.004 A 
ATOM     10  C   UNL     1     -13.891  21.338  10.157  1.00  0.00     0.004 A 
ENDBRANCH   2   4
ENDBRANCH   1   2
BRANCH   1  11
ATOM     11  C   UNL     1     -13.727  25.981  10.400  1.00  0.00     0.028 C 
BRANCH  11  12
ATOM     12  C   UNL     1     -13.670  27.441  10.014  1.00  0.00    -0.028 C 
ATOM     13  C   UNL     1     -12.514  28.101   9.791  1.00  0.00    -0.080 C 
ATOM     14  C   UNL     1     -12.573  29.558   9.416  1.00  0.00     0.039 C 
ATOM     15  C   UNL     1     -11.175  27.411   9.908  1.00  0.00     0.039 C 
ENDBRANCH  11  12
ENDBRANCH   1  11
TORSDOF 4
ENDMDL
