MODEL 1
REMARK VINA RESULT:    -7.221      0.000      0.000
REMARK INTER + INTRA:         -12.092
REMARK INTER:                 -10.598
REMARK INTRA:                  -1.494
REMARK UNBOUND:                -1.494
REMARK SMILES O=c1c(O[C@@H]2O[C@@H](CO)[C@@H](O)[C@@H](O)[C@@H]2O)c(-c2ccc(O)c(O)c2)oc2cc(O)cc(O)c12
REMARK SMILES IDX 4 1 3 2 16 3 25 4 2 5 26 6 1 7 33 8 27 9 31 10 28 11 30 12
REMARK SMILES IDX 17 13 18 14 19 15 20 16 24 17 22 18 21 19 23 21 32 23 29 25
REMARK SMILES IDX 5 27 14 28 6 29 12 30 7 31 10 32 15 33 13 35 8 37 9 38 11 40
REMARK H PARENT 21 20 23 22 32 24 29 26 15 34 13 36 9 39 11 41
REMARK Flexibility Score: inf
ROOT
ATOM      1  O   UNL     1     160.839 172.334 172.606  1.00  0.00    -0.454 OA
ENDROOT
BRANCH   1   2
ATOM      2  C   UNL     1     161.945 171.802 171.918  1.00  0.00     0.214 A 
ATOM      3  C   UNL     1     161.920 170.443 171.563  1.00  0.00     0.180 A 
ATOM      4  O   UNL     1     162.994 169.875 171.024  1.00  0.00    -0.452 OA
ATOM      5  C   UNL     1     163.102 172.555 171.622  1.00  0.00     0.239 A 
ATOM      6  C   UNL     1     164.126 170.527 170.789  1.00  0.00     0.146 A 
ATOM      7  O   UNL     1     163.079 173.803 171.779  1.00  0.00    -0.285 OA
ATOM      8  C   UNL     1     164.251 171.905 171.103  1.00  0.00     0.111 A 
ATOM      9  C   UNL     1     165.194 169.829 170.217  1.00  0.00     0.094 A 
ATOM     10  C   UNL     1     165.506 172.545 170.867  1.00  0.00     0.134 A 
ATOM     11  C   UNL     1     166.399 170.475 169.943  1.00  0.00     0.123 A 
ATOM     12  C   UNL     1     166.547 171.826 170.264  1.00  0.00     0.093 A 
BRANCH   3  13
ATOM     13  C   UNL     1     160.725 169.597 171.805  1.00  0.00     0.025 A 
ATOM     14  C   UNL     1     159.773 169.373 170.791  1.00  0.00     0.016 A 
ATOM     15  C   UNL     1     158.651 168.574 171.037  1.00  0.00     0.051 A 
ATOM     16  C   UNL     1     158.471 167.981 172.296  1.00  0.00     0.157 A 
ATOM     17  C   UNL     1     160.552 168.980 173.059  1.00  0.00     0.062 A 
ATOM     18  C   UNL     1     159.422 168.180 173.308  1.00  0.00     0.158 A 
BRANCH  16  19
ATOM     19  O   UNL     1     157.355 167.182 172.546  1.00  0.00    -0.504 OA
ATOM     20  H   UNL     1     156.647 167.453 173.221  1.00  0.00     0.293 HD
ENDBRANCH  16  19
BRANCH  18  21
ATOM     21  O   UNL     1     159.239 167.587 174.556  1.00  0.00    -0.504 OA
ATOM     22  H   UNL     1     159.755 167.888 175.375  1.00  0.00     0.293 HD
ENDBRANCH  18  21
ENDBRANCH   3  13
BRANCH  10  23
ATOM     23  O   UNL     1     165.786 173.862 171.241  1.00  0.00    -0.507 OA
ATOM     24  H   UNL     1     165.146 174.469 171.729  1.00  0.00     0.293 HD
ENDBRANCH  10  23
BRANCH  11  25
ATOM     25  O   UNL     1     167.449 169.763 169.361  1.00  0.00    -0.508 OA
ATOM     26  H   UNL     1     167.670 168.814 169.639  1.00  0.00     0.293 HD
ENDBRANCH  11  25
ENDBRANCH   1   2
BRANCH   1  27
ATOM     27  C   UNL     1     160.885 173.138 173.789  1.00  0.00     0.339 C 
ATOM     28  C   UNL     1     159.906 174.319 173.670  1.00  0.00     0.214 C 
ATOM     29  O   UNL     1     160.616 172.370 174.955  1.00  0.00    -0.332 OA
ATOM     30  C   UNL     1     158.442 173.823 173.708  1.00  0.00     0.180 C 
ATOM     31  C   UNL     1     159.331 171.764 174.896  1.00  0.00     0.179 C 
ATOM     32  C   UNL     1     158.217 172.839 174.879  1.00  0.00     0.177 C 
BRANCH  28  33
ATOM     33  O   UNL     1     160.162 175.014 172.479  1.00  0.00    -0.384 OA
ATOM     34  H   UNL     1     160.845 174.495 171.982  1.00  0.00     0.211 HD
ENDBRANCH  28  33
BRANCH  30  35
ATOM     35  O   UNL     1     157.570 174.920 173.812  1.00  0.00    -0.387 OA
ATOM     36  H   UNL     1     156.681 174.546 174.055  1.00  0.00     0.211 HD
ENDBRANCH  30  35
BRANCH  31  37
ATOM     37  C   UNL     1     159.174 170.803 176.082  1.00  0.00     0.191 C 
BRANCH  37  38
ATOM     38  O   UNL     1     160.019 171.208 177.128  1.00  0.00    -0.394 OA
ATOM     39  H   UNL     1     159.615 172.029 177.516  1.00  0.00     0.210 HD
ENDBRANCH  37  38
ENDBRANCH  31  37
BRANCH  32  40
ATOM     40  O   UNL     1     158.122 173.517 176.113  1.00  0.00    -0.387 OA
ATOM     41  H   UNL     1     157.164 173.549 176.379  1.00  0.00     0.211 HD
ENDBRANCH  32  40
ENDBRANCH   1  27
TORSDOF 12
ENDMDL
MODEL 2
REMARK VINA RESULT:    -6.924      3.477      7.901
REMARK INTER + INTRA:         -11.657
REMARK INTER:                 -10.009
REMARK INTRA:                  -1.648
REMARK UNBOUND:                -1.494
REMARK SMILES O=c1c(O[C@@H]2O[C@@H](CO)[C@@H](O)[C@@H](O)[C@@H]2O)c(-c2ccc(O)c(O)c2)oc2cc(O)cc(O)c12
REMARK SMILES IDX 4 1 3 2 16 3 25 4 2 5 26 6 1 7 33 8 27 9 31 10 28 11 30 12
REMARK SMILES IDX 17 13 18 14 19 15 20 16 24 17 22 18 21 19 23 21 32 23 29 25
REMARK SMILES IDX 5 27 14 28 6 29 12 30 7 31 10 32 15 33 13 35 8 37 9 38 11 40
REMARK H PARENT 21 20 23 22 32 24 29 26 15 34 13 36 9 39 11 41
REMARK Flexibility Score: inf
ROOT
ATOM      1  O   UNL     1     157.723 167.995 175.017  1.00  0.00    -0.454 OA
ENDROOT
BRANCH   1   2
ATOM      2  C   UNL     1     157.773 166.709 174.448  1.00  0.00     0.214 A 
ATOM      3  C   UNL     1     158.419 166.551 173.210  1.00  0.00     0.180 A 
ATOM      4  O   UNL     1     158.379 165.380 172.583  1.00  0.00    -0.452 OA
ATOM      5  C   UNL     1     157.152 165.585 175.032  1.00  0.00     0.239 A 
ATOM      6  C   UNL     1     157.751 164.314 173.063  1.00  0.00     0.146 A 
ATOM      7  O   UNL     1     156.716 165.667 176.210  1.00  0.00    -0.285 OA
ATOM      8  C   UNL     1     157.075 164.367 174.309  1.00  0.00     0.111 A 
ATOM      9  C   UNL     1     157.774 163.132 172.317  1.00  0.00     0.094 A 
ATOM     10  C   UNL     1     156.381 163.202 174.756  1.00  0.00     0.134 A 
ATOM     11  C   UNL     1     157.137 161.983 172.786  1.00  0.00     0.123 A 
ATOM     12  C   UNL     1     156.450 162.022 174.001  1.00  0.00     0.093 A 
BRANCH   3  13
ATOM     13  C   UNL     1     159.128 167.677 172.552  1.00  0.00     0.025 A 
ATOM     14  C   UNL     1     160.242 168.289 173.158  1.00  0.00     0.016 A 
ATOM     15  C   UNL     1     160.897 169.351 172.525  1.00  0.00     0.051 A 
ATOM     16  C   UNL     1     160.454 169.807 171.274  1.00  0.00     0.157 A 
ATOM     17  C   UNL     1     158.700 168.123 171.287  1.00  0.00     0.062 A 
ATOM     18  C   UNL     1     159.356 169.193 170.652  1.00  0.00     0.158 A 
BRANCH  16  19
ATOM     19  O   UNL     1     161.104 170.865 170.638  1.00  0.00    -0.504 OA
ATOM     20  H   UNL     1     161.907 171.324 171.056  1.00  0.00     0.293 HD
ENDBRANCH  16  19
BRANCH  18  21
ATOM     21  O   UNL     1     158.921 169.650 169.408  1.00  0.00    -0.504 OA
ATOM     22  H   UNL     1     158.812 170.638 169.208  1.00  0.00     0.293 HD
ENDBRANCH  18  21
ENDBRANCH   3  13
BRANCH  10  23
ATOM     23  O   UNL     1     155.587 163.166 175.906  1.00  0.00    -0.507 OA
ATOM     24  H   UNL     1     154.638 163.500 175.958  1.00  0.00     0.293 HD
ENDBRANCH  10  23
BRANCH  11  25
ATOM     25  O   UNL     1     157.182 160.810 172.032  1.00  0.00    -0.508 OA
ATOM     26  H   UNL     1     158.057 160.419 171.704  1.00  0.00     0.293 HD
ENDBRANCH  11  25
ENDBRANCH   1   2
BRANCH   1  27
ATOM     27  C   UNL     1     156.800 169.035 174.679  1.00  0.00     0.339 C 
ATOM     28  C   UNL     1     155.882 169.343 175.875  1.00  0.00     0.214 C 
ATOM     29  O   UNL     1     157.471 170.209 174.238  1.00  0.00    -0.332 OA
ATOM     30  C   UNL     1     156.677 170.015 177.017  1.00  0.00     0.180 C 
ATOM     31  C   UNL     1     158.345 170.717 175.237  1.00  0.00     0.179 C 
ATOM     32  C   UNL     1     157.548 171.176 176.483  1.00  0.00     0.177 C 
BRANCH  28  33
ATOM     33  O   UNL     1     155.286 168.153 176.320  1.00  0.00    -0.384 OA
ATOM     34  H   UNL     1     154.356 168.151 175.979  1.00  0.00     0.211 HD
ENDBRANCH  28  33
BRANCH  30  35
ATOM     35  O   UNL     1     155.792 170.478 178.006  1.00  0.00    -0.387 OA
ATOM     36  H   UNL     1     156.247 171.244 178.449  1.00  0.00     0.211 HD
ENDBRANCH  30  35
BRANCH  31  37
ATOM     37  C   UNL     1     159.177 171.861 174.643  1.00  0.00     0.191 C 
BRANCH  37  38
ATOM     38  O   UNL     1     159.746 172.615 175.682  1.00  0.00    -0.394 OA
ATOM     39  H   UNL     1     160.586 173.005 175.322  1.00  0.00     0.210 HD
ENDBRANCH  37  38
ENDBRANCH  31  37
BRANCH  32  40
ATOM     40  O   UNL     1     156.772 172.324 176.216  1.00  0.00    -0.387 OA
ATOM     41  H   UNL     1     155.898 172.030 175.842  1.00  0.00     0.211 HD
ENDBRANCH  32  40
ENDBRANCH   1  27
TORSDOF 12
ENDMDL
MODEL 3
REMARK VINA RESULT:    -6.912      5.750      9.689
REMARK INTER + INTRA:         -11.638
REMARK INTER:                 -10.048
REMARK INTRA:                  -1.590
REMARK UNBOUND:                -1.494
REMARK SMILES O=c1c(O[C@@H]2O[C@@H](CO)[C@@H](O)[C@@H](O)[C@@H]2O)c(-c2ccc(O)c(O)c2)oc2cc(O)cc(O)c12
REMARK SMILES IDX 4 1 3 2 16 3 25 4 2 5 26 6 1 7 33 8 27 9 31 10 28 11 30 12
REMARK SMILES IDX 17 13 18 14 19 15 20 16 24 17 22 18 21 19 23 21 32 23 29 25
REMARK SMILES IDX 5 27 14 28 6 29 12 30 7 31 10 32 15 33 13 35 8 37 9 38 11 40
REMARK H PARENT 21 20 23 22 32 24 29 26 15 34 13 36 9 39 11 41
REMARK Flexibility Score: inf
ROOT
ATOM      1  O   UNL     1     168.607 172.420 166.895  1.00  0.00    -0.454 OA
ENDROOT
BRANCH   1   2
ATOM      2  C   UNL     1     169.698 171.843 167.570  1.00  0.00     0.214 A 
ATOM      3  C   UNL     1     169.522 171.444 168.906  1.00  0.00     0.180 A 
ATOM      4  O   UNL     1     170.559 171.010 169.614  1.00  0.00    -0.452 OA
ATOM      5  C   UNL     1     170.976 171.703 166.988  1.00  0.00     0.239 A 
ATOM      6  C   UNL     1     171.792 170.925 169.129  1.00  0.00     0.146 A 
ATOM      7  O   UNL     1     171.112 171.897 165.752  1.00  0.00    -0.285 OA
ATOM      8  C   UNL     1     172.073 171.296 167.789  1.00  0.00     0.111 A 
ATOM      9  C   UNL     1     172.809 170.454 169.965  1.00  0.00     0.094 A 
ATOM     10  C   UNL     1     173.425 171.222 167.333  1.00  0.00     0.134 A 
ATOM     11  C   UNL     1     174.117 170.338 169.495  1.00  0.00     0.123 A 
ATOM     12  C   UNL     1     174.417 170.716 168.185  1.00  0.00     0.093 A 
BRANCH   3  13
ATOM     13  C   UNL     1     168.199 171.523 169.575  1.00  0.00     0.025 A 
ATOM     14  C   UNL     1     167.792 172.692 170.246  1.00  0.00     0.016 A 
ATOM     15  C   UNL     1     166.542 172.749 170.872  1.00  0.00     0.051 A 
ATOM     16  C   UNL     1     165.680 171.642 170.827  1.00  0.00     0.157 A 
ATOM     17  C   UNL     1     167.322 170.424 169.512  1.00  0.00     0.062 A 
ATOM     18  C   UNL     1     166.067 170.479 170.145  1.00  0.00     0.158 A 
BRANCH  16  19
ATOM     19  O   UNL     1     164.432 171.695 171.449  1.00  0.00    -0.504 OA
ATOM     20  H   UNL     1     164.050 172.566 171.802  1.00  0.00     0.293 HD
ENDBRANCH  16  19
BRANCH  18  21
ATOM     21  O   UNL     1     165.206 169.383 170.103  1.00  0.00    -0.504 OA
ATOM     22  H   UNL     1     165.286 168.612 170.756  1.00  0.00     0.293 HD
ENDBRANCH  18  21
ENDBRANCH   3  13
BRANCH  10  23
ATOM     23  O   UNL     1     173.844 171.667 166.076  1.00  0.00    -0.507 OA
ATOM     24  H   UNL     1     173.682 171.177 165.210  1.00  0.00     0.293 HD
ENDBRANCH  10  23
BRANCH  11  25
ATOM     25  O   UNL     1     175.115 169.854 170.342  1.00  0.00    -0.508 OA
ATOM     26  H   UNL     1     176.079 169.772 170.041  1.00  0.00     0.293 HD
ENDBRANCH  11  25
ENDBRANCH   1   2
BRANCH   1  27
ATOM     27  C   UNL     1     168.565 173.728 166.318  1.00  0.00     0.339 C 
ATOM     28  C   UNL     1     168.112 173.650 164.849  1.00  0.00     0.214 C 
ATOM     29  O   UNL     1     167.725 174.603 167.061  1.00  0.00    -0.332 OA
ATOM     30  C   UNL     1     166.625 173.238 164.755  1.00  0.00     0.180 C 
ATOM     31  C   UNL     1     166.390 174.116 167.125  1.00  0.00     0.179 C 
ATOM     32  C   UNL     1     165.752 174.079 165.714  1.00  0.00     0.177 C 
BRANCH  28  33
ATOM     33  O   UNL     1     168.924 172.733 164.164  1.00  0.00    -0.384 OA
ATOM     34  H   UNL     1     168.877 171.877 164.662  1.00  0.00     0.211 HD
ENDBRANCH  28  33
BRANCH  30  35
ATOM     35  O   UNL     1     166.175 173.376 163.431  1.00  0.00    -0.387 OA
ATOM     36  H   UNL     1     166.743 174.080 163.017  1.00  0.00     0.211 HD
ENDBRANCH  30  35
BRANCH  31  37
ATOM     37  C   UNL     1     165.581 174.992 168.091  1.00  0.00     0.191 C 
BRANCH  37  38
ATOM     38  O   UNL     1     164.553 174.228 168.666  1.00  0.00    -0.394 OA
ATOM     39  H   UNL     1     163.842 174.145 167.977  1.00  0.00     0.210 HD
ENDBRANCH  37  38
ENDBRANCH  31  37
BRANCH  32  40
ATOM     40  O   UNL     1     165.526 175.375 165.205  1.00  0.00    -0.387 OA
ATOM     41  H   UNL     1     164.822 175.319 164.505  1.00  0.00     0.211 HD
ENDBRANCH  32  40
ENDBRANCH   1  27
TORSDOF 12
ENDMDL
MODEL 4
REMARK VINA RESULT:    -6.662      2.766      6.832
REMARK INTER + INTRA:         -11.272
REMARK INTER:                  -9.882
REMARK INTRA:                  -1.390
REMARK UNBOUND:                -1.494
REMARK SMILES O=c1c(O[C@@H]2O[C@@H](CO)[C@@H](O)[C@@H](O)[C@@H]2O)c(-c2ccc(O)c(O)c2)oc2cc(O)cc(O)c12
REMARK SMILES IDX 4 1 3 2 16 3 25 4 2 5 26 6 1 7 33 8 27 9 31 10 28 11 30 12
REMARK SMILES IDX 17 13 18 14 19 15 20 16 24 17 22 18 21 19 23 21 32 23 29 25
REMARK SMILES IDX 5 27 14 28 6 29 12 30 7 31 10 32 15 33 13 35 8 37 9 38 11 40
REMARK H PARENT 21 20 23 22 32 24 29 26 15 34 13 36 9 39 11 41
REMARK Flexibility Score: inf
ROOT
ATOM      1  O   UNL     1     157.919 170.048 173.919  1.00  0.00    -0.454 OA
ENDROOT
BRANCH   1   2
ATOM      2  C   UNL     1     158.057 168.648 173.913  1.00  0.00     0.214 A 
ATOM      3  C   UNL     1     158.894 168.064 172.947  1.00  0.00     0.180 A 
ATOM      4  O   UNL     1     158.954 166.742 172.829  1.00  0.00    -0.452 OA
ATOM      5  C   UNL     1     157.347 167.801 174.790  1.00  0.00     0.239 A 
ATOM      6  C   UNL     1     158.254 165.907 173.588  1.00  0.00     0.146 A 
ATOM      7  O   UNL     1     156.727 168.304 175.763  1.00  0.00    -0.285 OA
ATOM      8  C   UNL     1     157.386 166.396 174.598  1.00  0.00     0.111 A 
ATOM      9  C   UNL     1     158.395 164.532 173.376  1.00  0.00     0.094 A 
ATOM     10  C   UNL     1     156.627 165.454 175.356  1.00  0.00     0.134 A 
ATOM     11  C   UNL     1     157.688 163.617 174.156  1.00  0.00     0.123 A 
ATOM     12  C   UNL     1     156.814 164.081 175.142  1.00  0.00     0.093 A 
BRANCH   3  13
ATOM     13  C   UNL     1     159.703 168.889 172.015  1.00  0.00     0.025 A 
ATOM     14  C   UNL     1     160.982 169.354 172.377  1.00  0.00     0.016 A 
ATOM     15  C   UNL     1     161.730 170.133 171.487  1.00  0.00     0.051 A 
ATOM     16  C   UNL     1     161.213 170.449 170.221  1.00  0.00     0.157 A 
ATOM     17  C   UNL     1     159.198 169.190 170.736  1.00  0.00     0.062 A 
ATOM     18  C   UNL     1     159.947 169.976 169.843  1.00  0.00     0.158 A 
BRANCH  16  19
ATOM     19  O   UNL     1     161.955 171.224 169.330  1.00  0.00    -0.504 OA
ATOM     20  H   UNL     1     162.643 171.896 169.655  1.00  0.00     0.293 HD
ENDBRANCH  16  19
BRANCH  18  21
ATOM     21  O   UNL     1     159.439 170.292 168.583  1.00  0.00    -0.504 OA
ATOM     22  H   UNL     1     160.015 170.714 167.863  1.00  0.00     0.293 HD
ENDBRANCH  18  21
ENDBRANCH   3  13
BRANCH  10  23
ATOM     23  O   UNL     1     155.657 165.816 176.295  1.00  0.00    -0.507 OA
ATOM     24  H   UNL     1     154.776 166.253 176.072  1.00  0.00     0.293 HD
ENDBRANCH  10  23
BRANCH  11  25
ATOM     25  O   UNL     1     157.852 162.249 173.937  1.00  0.00    -0.508 OA
ATOM     26  H   UNL     1     158.741 161.787 174.082  1.00  0.00     0.293 HD
ENDBRANCH  11  25
ENDBRANCH   1   2
BRANCH   1  27
ATOM     27  C   UNL     1     158.608 170.962 174.778  1.00  0.00     0.339 C 
ATOM     28  C   UNL     1     158.743 172.336 174.098  1.00  0.00     0.214 C 
ATOM     29  O   UNL     1     157.963 171.082 176.040  1.00  0.00    -0.332 OA
ATOM     30  C   UNL     1     157.365 173.026 173.977  1.00  0.00     0.180 C 
ATOM     31  C   UNL     1     156.626 171.545 175.901  1.00  0.00     0.179 C 
ATOM     32  C   UNL     1     156.598 172.980 175.319  1.00  0.00     0.177 C 
BRANCH  28  33
ATOM     33  O   UNL     1     159.325 172.170 172.832  1.00  0.00    -0.384 OA
ATOM     34  H   UNL     1     158.705 172.574 172.173  1.00  0.00     0.211 HD
ENDBRANCH  28  33
BRANCH  30  35
ATOM     35  O   UNL     1     157.532 174.354 173.551  1.00  0.00    -0.387 OA
ATOM     36  H   UNL     1     156.903 174.484 172.792  1.00  0.00     0.211 HD
ENDBRANCH  30  35
BRANCH  31  37
ATOM     37  C   UNL     1     155.925 171.472 177.264  1.00  0.00     0.191 C 
BRANCH  37  38
ATOM     38  O   UNL     1     156.033 170.169 177.778  1.00  0.00    -0.394 OA
ATOM     39  H   UNL     1     156.998 169.932 177.747  1.00  0.00     0.210 HD
ENDBRANCH  37  38
ENDBRANCH  31  37
BRANCH  32  40
ATOM     40  O   UNL     1     157.102 173.928 176.235  1.00  0.00    -0.387 OA
ATOM     41  H   UNL     1     158.087 173.805 176.301  1.00  0.00     0.211 HD
ENDBRANCH  32  40
ENDBRANCH   1  27
TORSDOF 12
ENDMDL
MODEL 5
REMARK VINA RESULT:    -6.616      1.509      2.023
REMARK INTER + INTRA:         -11.204
REMARK INTER:                  -9.255
REMARK INTRA:                  -1.949
REMARK UNBOUND:                -1.494
REMARK SMILES O=c1c(O[C@@H]2O[C@@H](CO)[C@@H](O)[C@@H](O)[C@@H]2O)c(-c2ccc(O)c(O)c2)oc2cc(O)cc(O)c12
REMARK SMILES IDX 4 1 3 2 16 3 25 4 2 5 26 6 1 7 33 8 27 9 31 10 28 11 30 12
REMARK SMILES IDX 17 13 18 14 19 15 20 16 24 17 22 18 21 19 23 21 32 23 29 25
REMARK SMILES IDX 5 27 14 28 6 29 12 30 7 31 10 32 15 33 13 35 8 37 9 38 11 40
REMARK H PARENT 21 20 23 22 32 24 29 26 15 34 13 36 9 39 11 41
REMARK Flexibility Score: inf
ROOT
ATOM      1  O   UNL     1     159.590 171.693 172.841  1.00  0.00    -0.454 OA
ENDROOT
BRANCH   1   2
ATOM      2  C   UNL     1     160.813 171.490 172.175  1.00  0.00     0.214 A 
ATOM      3  C   UNL     1     161.188 170.174 171.854  1.00  0.00     0.180 A 
ATOM      4  O   UNL     1     162.388 169.931 171.338  1.00  0.00    -0.452 OA
ATOM      5  C   UNL     1     161.706 172.539 171.870  1.00  0.00     0.239 A 
ATOM      6  C   UNL     1     163.286 170.878 171.096  1.00  0.00     0.146 A 
ATOM      7  O   UNL     1     161.321 173.730 171.996  1.00  0.00    -0.285 OA
ATOM      8  C   UNL     1     163.002 172.239 171.378  1.00  0.00     0.111 A 
ATOM      9  C   UNL     1     164.519 170.507 170.551  1.00  0.00     0.094 A 
ATOM     10  C   UNL     1     164.021 173.210 171.136  1.00  0.00     0.134 A 
ATOM     11  C   UNL     1     165.490 171.469 170.271  1.00  0.00     0.123 A 
ATOM     12  C   UNL     1     165.235 172.811 170.559  1.00  0.00     0.093 A 
BRANCH   3  13
ATOM     13  C   UNL     1     160.286 169.023 172.107  1.00  0.00     0.025 A 
ATOM     14  C   UNL     1     160.354 168.297 173.312  1.00  0.00     0.016 A 
ATOM     15  C   UNL     1     159.496 167.213 173.534  1.00  0.00     0.051 A 
ATOM     16  C   UNL     1     158.554 166.849 172.559  1.00  0.00     0.157 A 
ATOM     17  C   UNL     1     159.324 168.669 171.142  1.00  0.00     0.062 A 
ATOM     18  C   UNL     1     158.465 167.577 171.363  1.00  0.00     0.158 A 
BRANCH  16  19
ATOM     19  O   UNL     1     157.697 165.770 172.776  1.00  0.00    -0.504 OA
ATOM     20  H   UNL     1     156.847 165.649 172.235  1.00  0.00     0.293 HD
ENDBRANCH  16  19
BRANCH  18  21
ATOM     21  O   UNL     1     157.526 167.211 170.399  1.00  0.00    -0.504 OA
ATOM     22  H   UNL     1     156.789 166.542 170.594  1.00  0.00     0.293 HD
ENDBRANCH  18  21
ENDBRANCH   3  13
BRANCH  10  23
ATOM     23  O   UNL     1     163.902 174.560 171.478  1.00  0.00    -0.507 OA
ATOM     24  H   UNL     1     163.171 175.173 171.153  1.00  0.00     0.293 HD
ENDBRANCH  10  23
BRANCH  11  25
ATOM     25  O   UNL     1     166.709 171.079 169.716  1.00  0.00    -0.508 OA
ATOM     26  H   UNL     1     167.469 171.735 169.580  1.00  0.00     0.293 HD
ENDBRANCH  11  25
ENDBRANCH   1   2
BRANCH   1  27
ATOM     27  C   UNL     1     159.419 171.944 174.239  1.00  0.00     0.339 C 
ATOM     28  C   UNL     1     158.635 173.250 174.456  1.00  0.00     0.214 C 
ATOM     29  O   UNL     1     158.781 170.854 174.893  1.00  0.00    -0.332 OA
ATOM     30  C   UNL     1     157.166 173.089 174.004  1.00  0.00     0.180 C 
ATOM     31  C   UNL     1     157.496 170.595 174.342  1.00  0.00     0.179 C 
ATOM     32  C   UNL     1     156.545 171.795 174.577  1.00  0.00     0.177 C 
BRANCH  28  33
ATOM     33  O   UNL     1     159.260 174.287 173.746  1.00  0.00    -0.384 OA
ATOM     34  H   UNL     1     159.310 175.066 174.357  1.00  0.00     0.211 HD
ENDBRANCH  28  33
BRANCH  30  35
ATOM     35  O   UNL     1     156.419 174.211 174.401  1.00  0.00    -0.387 OA
ATOM     36  H   UNL     1     155.475 174.017 174.156  1.00  0.00     0.211 HD
ENDBRANCH  30  35
BRANCH  31  37
ATOM     37  C   UNL     1     156.940 169.301 174.951  1.00  0.00     0.191 C 
BRANCH  37  38
ATOM     38  O   UNL     1     157.200 169.284 176.331  1.00  0.00    -0.394 OA
ATOM     39  H   UNL     1     156.405 169.683 176.774  1.00  0.00     0.210 HD
ENDBRANCH  37  38
ENDBRANCH  31  37
BRANCH  32  40
ATOM     40  O   UNL     1     156.212 171.941 175.940  1.00  0.00    -0.387 OA
ATOM     41  H   UNL     1     157.041 172.162 176.443  1.00  0.00     0.211 HD
ENDBRANCH  32  40
ENDBRANCH   1  27
TORSDOF 12
ENDMDL
MODEL 6
REMARK VINA RESULT:    -6.574      6.333     10.689
REMARK INTER + INTRA:         -11.142
REMARK INTER:                  -9.110
REMARK INTRA:                  -2.032
REMARK UNBOUND:                -1.494
REMARK SMILES O=c1c(O[C@@H]2O[C@@H](CO)[C@@H](O)[C@@H](O)[C@@H]2O)c(-c2ccc(O)c(O)c2)oc2cc(O)cc(O)c12
REMARK SMILES IDX 4 1 3 2 16 3 25 4 2 5 26 6 1 7 33 8 27 9 31 10 28 11 30 12
REMARK SMILES IDX 17 13 18 14 19 15 20 16 24 17 22 18 21 19 23 21 32 23 29 25
REMARK SMILES IDX 5 27 14 28 6 29 12 30 7 31 10 32 15 33 13 35 8 37 9 38 11 40
REMARK H PARENT 21 20 23 22 32 24 29 26 15 34 13 36 9 39 11 41
REMARK Flexibility Score: inf
ROOT
ATOM      1  O   UNL     1     170.288 173.041 167.893  1.00  0.00    -0.454 OA
ENDROOT
BRANCH   1   2
ATOM      2  C   UNL     1     170.889 173.077 169.164  1.00  0.00     0.214 A 
ATOM      3  C   UNL     1     170.074 172.892 170.294  1.00  0.00     0.180 A 
ATOM      4  O   UNL     1     170.580 173.042 171.513  1.00  0.00    -0.452 OA
ATOM      5  C   UNL     1     172.259 173.351 169.360  1.00  0.00     0.239 A 
ATOM      6  C   UNL     1     171.847 173.365 171.744  1.00  0.00     0.146 A 
ATOM      7  O   UNL     1     173.033 173.354 168.368  1.00  0.00    -0.285 OA
ATOM      8  C   UNL     1     172.754 173.565 170.672  1.00  0.00     0.111 A 
ATOM      9  C   UNL     1     172.273 173.497 173.070  1.00  0.00     0.094 A 
ATOM     10  C   UNL     1     174.095 173.951 170.979  1.00  0.00     0.134 A 
ATOM     11  C   UNL     1     173.597 173.825 173.361  1.00  0.00     0.123 A 
ATOM     12  C   UNL     1     174.499 174.045 172.318  1.00  0.00     0.093 A 
BRANCH   3  13
ATOM     13  C   UNL     1     168.632 172.562 170.168  1.00  0.00     0.025 A 
ATOM     14  C   UNL     1     167.640 173.540 170.374  1.00  0.00     0.016 A 
ATOM     15  C   UNL     1     166.286 173.211 170.253  1.00  0.00     0.051 A 
ATOM     16  C   UNL     1     165.906 171.903 169.915  1.00  0.00     0.157 A 
ATOM     17  C   UNL     1     168.247 171.256 169.807  1.00  0.00     0.062 A 
ATOM     18  C   UNL     1     166.885 170.924 169.690  1.00  0.00     0.158 A 
BRANCH  16  19
ATOM     19  O   UNL     1     164.557 171.570 169.793  1.00  0.00    -0.504 OA
ATOM     20  H   UNL     1     164.045 171.134 170.553  1.00  0.00     0.293 HD
ENDBRANCH  16  19
BRANCH  18  21
ATOM     21  O   UNL     1     166.502 169.626 169.354  1.00  0.00    -0.504 OA
ATOM     22  H   UNL     1     167.110 168.830 169.508  1.00  0.00     0.293 HD
ENDBRANCH  18  21
ENDBRANCH   3  13
BRANCH  10  23
ATOM     23  O   UNL     1     175.045 174.288 170.011  1.00  0.00    -0.507 OA
ATOM     24  H   UNL     1     175.770 173.671 169.679  1.00  0.00     0.293 HD
ENDBRANCH  10  23
BRANCH  11  25
ATOM     25  O   UNL     1     174.004 173.940 174.690  1.00  0.00    -0.508 OA
ATOM     26  H   UNL     1     174.883 173.555 175.016  1.00  0.00     0.293 HD
ENDBRANCH  11  25
ENDBRANCH   1   2
BRANCH   1  27
ATOM     27  C   UNL     1     169.955 174.171 167.082  1.00  0.00     0.339 C 
ATOM     28  C   UNL     1     170.538 174.004 165.667  1.00  0.00     0.214 C 
ATOM     29  O   UNL     1     168.549 174.383 167.030  1.00  0.00    -0.332 OA
ATOM     30  C   UNL     1     169.813 172.871 164.906  1.00  0.00     0.180 C 
ATOM     31  C   UNL     1     167.871 173.254 166.495  1.00  0.00     0.179 C 
ATOM     32  C   UNL     1     168.278 173.017 165.019  1.00  0.00     0.177 C 
BRANCH  28  33
ATOM     33  O   UNL     1     171.912 173.736 165.762  1.00  0.00    -0.384 OA
ATOM     34  H   UNL     1     172.382 174.461 165.277  1.00  0.00     0.211 HD
ENDBRANCH  28  33
BRANCH  30  35
ATOM     35  O   UNL     1     170.208 172.874 163.558  1.00  0.00    -0.387 OA
ATOM     36  H   UNL     1     169.371 172.906 163.022  1.00  0.00     0.211 HD
ENDBRANCH  30  35
BRANCH  31  37
ATOM     37  C   UNL     1     166.357 173.462 166.640  1.00  0.00     0.191 C 
BRANCH  37  38
ATOM     38  O   UNL     1     166.057 174.827 166.495  1.00  0.00    -0.394 OA
ATOM     39  H   UNL     1     165.225 174.990 167.014  1.00  0.00     0.210 HD
ENDBRANCH  37  38
ENDBRANCH  31  37
BRANCH  32  40
ATOM     40  O   UNL     1     167.790 174.032 164.170  1.00  0.00    -0.387 OA
ATOM     41  H   UNL     1     166.798 174.046 164.236  1.00  0.00     0.211 HD
ENDBRANCH  32  40
ENDBRANCH   1  27
TORSDOF 12
ENDMDL
MODEL 7
REMARK VINA RESULT:    -6.539      5.002      9.184
REMARK INTER + INTRA:         -11.091
REMARK INTER:                  -9.648
REMARK INTRA:                  -1.443
REMARK UNBOUND:                -1.494
REMARK SMILES O=c1c(O[C@@H]2O[C@@H](CO)[C@@H](O)[C@@H](O)[C@@H]2O)c(-c2ccc(O)c(O)c2)oc2cc(O)cc(O)c12
REMARK SMILES IDX 4 1 3 2 16 3 25 4 2 5 26 6 1 7 33 8 27 9 31 10 28 11 30 12
REMARK SMILES IDX 17 13 18 14 19 15 20 16 24 17 22 18 21 19 23 21 32 23 29 25
REMARK SMILES IDX 5 27 14 28 6 29 12 30 7 31 10 32 15 33 13 35 8 37 9 38 11 40
REMARK H PARENT 21 20 23 22 32 24 29 26 15 34 13 36 9 39 11 41
REMARK Flexibility Score: inf
ROOT
ATOM      1  O   UNL     1     168.104 172.493 167.437  1.00  0.00    -0.454 OA
ENDROOT
BRANCH   1   2
ATOM      2  C   UNL     1     169.035 171.826 168.254  1.00  0.00     0.214 A 
ATOM      3  C   UNL     1     168.616 171.389 169.523  1.00  0.00     0.180 A 
ATOM      4  O   UNL     1     169.496 170.867 170.371  1.00  0.00    -0.452 OA
ATOM      5  C   UNL     1     170.382 171.629 167.884  1.00  0.00     0.239 A 
ATOM      6  C   UNL     1     170.786 170.723 170.091  1.00  0.00     0.146 A 
ATOM      7  O   UNL     1     170.733 171.859 166.698  1.00  0.00    -0.285 OA
ATOM      8  C   UNL     1     171.307 171.125 168.834  1.00  0.00     0.111 A 
ATOM      9  C   UNL     1     171.622 170.160 171.060  1.00  0.00     0.094 A 
ATOM     10  C   UNL     1     172.710 170.985 168.604  1.00  0.00     0.134 A 
ATOM     11  C   UNL     1     172.982 169.981 170.807  1.00  0.00     0.123 A 
ATOM     12  C   UNL     1     173.516 170.388 169.583  1.00  0.00     0.093 A 
BRANCH   3  13
ATOM     13  C   UNL     1     167.207 171.525 169.968  1.00  0.00     0.025 A 
ATOM     14  C   UNL     1     166.342 170.415 169.995  1.00  0.00     0.016 A 
ATOM     15  C   UNL     1     165.015 170.562 170.416  1.00  0.00     0.051 A 
ATOM     16  C   UNL     1     164.540 171.818 170.824  1.00  0.00     0.157 A 
ATOM     17  C   UNL     1     166.733 172.779 170.401  1.00  0.00     0.062 A 
ATOM     18  C   UNL     1     165.399 172.927 170.820  1.00  0.00     0.158 A 
BRANCH  16  19
ATOM     19  O   UNL     1     163.219 171.969 171.245  1.00  0.00    -0.504 OA
ATOM     20  H   UNL     1     162.582 171.180 171.293  1.00  0.00     0.293 HD
ENDBRANCH  16  19
BRANCH  18  21
ATOM     21  O   UNL     1     164.921 174.172 171.228  1.00  0.00    -0.504 OA
ATOM     22  H   UNL     1     164.005 174.511 170.956  1.00  0.00     0.293 HD
ENDBRANCH  18  21
ENDBRANCH   3  13
BRANCH  10  23
ATOM     23  O   UNL     1     173.356 171.449 167.455  1.00  0.00    -0.507 OA
ATOM     24  H   UNL     1     174.328 171.294 167.240  1.00  0.00     0.293 HD
ENDBRANCH  10  23
BRANCH  11  25
ATOM     25  O   UNL     1     173.797 169.406 171.783  1.00  0.00    -0.508 OA
ATOM     26  H   UNL     1     174.517 169.936 172.259  1.00  0.00     0.293 HD
ENDBRANCH  11  25
ENDBRANCH   1   2
BRANCH   1  27
ATOM     27  C   UNL     1     168.361 173.647 166.631  1.00  0.00     0.339 C 
ATOM     28  C   UNL     1     167.965 173.375 165.168  1.00  0.00     0.214 C 
ATOM     29  O   UNL     1     167.691 174.797 167.132  1.00  0.00    -0.332 OA
ATOM     30  C   UNL     1     166.431 173.254 165.029  1.00  0.00     0.180 C 
ATOM     31  C   UNL     1     166.283 174.604 167.173  1.00  0.00     0.179 C 
ATOM     32  C   UNL     1     165.712 174.420 165.745  1.00  0.00     0.177 C 
BRANCH  28  33
ATOM     33  O   UNL     1     168.596 172.201 164.729  1.00  0.00    -0.384 OA
ATOM     34  H   UNL     1     167.893 171.508 164.649  1.00  0.00     0.211 HD
ENDBRANCH  28  33
BRANCH  30  35
ATOM     35  O   UNL     1     166.077 173.218 163.670  1.00  0.00    -0.387 OA
ATOM     36  H   UNL     1     165.101 173.405 163.632  1.00  0.00     0.211 HD
ENDBRANCH  30  35
BRANCH  31  37
ATOM     37  C   UNL     1     165.634 175.793 167.895  1.00  0.00     0.191 C 
BRANCH  37  38
ATOM     38  O   UNL     1     164.559 175.336 168.675  1.00  0.00    -0.394 OA
ATOM     39  H   UNL     1     164.651 175.768 169.565  1.00  0.00     0.210 HD
ENDBRANCH  37  38
ENDBRANCH  31  37
BRANCH  32  40
ATOM     40  O   UNL     1     165.784 175.612 164.993  1.00  0.00    -0.387 OA
ATOM     41  H   UNL     1     166.737 175.890 164.939  1.00  0.00     0.211 HD
ENDBRANCH  32  40
ENDBRANCH   1  27
TORSDOF 12
ENDMDL
MODEL 8
REMARK VINA RESULT:    -6.508      2.519      7.182
REMARK INTER + INTRA:         -11.046
REMARK INTER:                  -9.381
REMARK INTRA:                  -1.665
REMARK UNBOUND:                -1.494
REMARK SMILES O=c1c(O[C@@H]2O[C@@H](CO)[C@@H](O)[C@@H](O)[C@@H]2O)c(-c2ccc(O)c(O)c2)oc2cc(O)cc(O)c12
REMARK SMILES IDX 4 1 3 2 16 3 25 4 2 5 26 6 1 7 33 8 27 9 31 10 28 11 30 12
REMARK SMILES IDX 17 13 18 14 19 15 20 16 24 17 22 18 21 19 23 21 32 23 29 25
REMARK SMILES IDX 5 27 14 28 6 29 12 30 7 31 10 32 15 33 13 35 8 37 9 38 11 40
REMARK H PARENT 21 20 23 22 32 24 29 26 15 34 13 36 9 39 11 41
REMARK Flexibility Score: inf
ROOT
ATOM      1  O   UNL     1     158.625 169.424 174.171  1.00  0.00    -0.454 OA
ENDROOT
BRANCH   1   2
ATOM      2  C   UNL     1     158.294 168.212 173.539  1.00  0.00     0.214 A 
ATOM      3  C   UNL     1     158.812 167.965 172.256  1.00  0.00     0.180 A 
ATOM      4  O   UNL     1     158.425 166.891 171.577  1.00  0.00    -0.452 OA
ATOM      5  C   UNL     1     157.420 167.261 174.107  1.00  0.00     0.239 A 
ATOM      6  C   UNL     1     157.554 166.004 172.044  1.00  0.00     0.146 A 
ATOM      7  O   UNL     1     157.081 167.382 175.312  1.00  0.00    -0.285 OA
ATOM      8  C   UNL     1     156.980 166.158 173.332  1.00  0.00     0.111 A 
ATOM      9  C   UNL     1     157.219 164.909 171.241  1.00  0.00     0.094 A 
ATOM     10  C   UNL     1     156.018 165.195 173.766  1.00  0.00     0.134 A 
ATOM     11  C   UNL     1     156.316 163.947 171.695  1.00  0.00     0.123 A 
ATOM     12  C   UNL     1     155.726 164.092 172.952  1.00  0.00     0.093 A 
BRANCH   3  13
ATOM     13  C   UNL     1     159.768 168.898 171.609  1.00  0.00     0.025 A 
ATOM     14  C   UNL     1     160.969 169.268 172.246  1.00  0.00     0.016 A 
ATOM     15  C   UNL     1     161.858 170.151 171.623  1.00  0.00     0.051 A 
ATOM     16  C   UNL     1     161.563 170.667 170.351  1.00  0.00     0.157 A 
ATOM     17  C   UNL     1     159.488 169.400 170.324  1.00  0.00     0.062 A 
ATOM     18  C   UNL     1     160.379 170.291 169.699  1.00  0.00     0.158 A 
BRANCH  16  19
ATOM     19  O   UNL     1     162.447 171.546 169.725  1.00  0.00    -0.504 OA
ATOM     20  H   UNL     1     163.294 171.864 170.184  1.00  0.00     0.293 HD
ENDBRANCH  16  19
BRANCH  18  21
ATOM     21  O   UNL     1     160.092 170.806 168.435  1.00  0.00    -0.504 OA
ATOM     22  H   UNL     1     159.844 171.779 168.296  1.00  0.00     0.293 HD
ENDBRANCH  18  21
ENDBRANCH   3  13
BRANCH  10  23
ATOM     23  O   UNL     1     155.301 165.302 174.961  1.00  0.00    -0.507 OA
ATOM     24  H   UNL     1     155.714 165.465 175.866  1.00  0.00     0.293 HD
ENDBRANCH  10  23
BRANCH  11  25
ATOM     25  O   UNL     1     156.004 162.856 170.883  1.00  0.00    -0.508 OA
ATOM     26  H   UNL     1     156.232 161.906 171.153  1.00  0.00     0.293 HD
ENDBRANCH  11  25
ENDBRANCH   1   2
BRANCH   1  27
ATOM     27  C   UNL     1     157.734 170.514 174.428  1.00  0.00     0.339 C 
ATOM     28  C   UNL     1     157.929 171.037 175.863  1.00  0.00     0.214 C 
ATOM     29  O   UNL     1     157.899 171.561 173.480  1.00  0.00    -0.332 OA
ATOM     30  C   UNL     1     159.300 171.735 176.010  1.00  0.00     0.180 C 
ATOM     31  C   UNL     1     159.225 172.075 173.496  1.00  0.00     0.179 C 
ATOM     32  C   UNL     1     159.541 172.739 174.859  1.00  0.00     0.177 C 
BRANCH  28  33
ATOM     33  O   UNL     1     157.820 169.966 176.763  1.00  0.00    -0.384 OA
ATOM     34  H   UNL     1     158.373 170.195 177.553  1.00  0.00     0.211 HD
ENDBRANCH  28  33
BRANCH  30  35
ATOM     35  O   UNL     1     159.372 172.386 177.253  1.00  0.00    -0.387 OA
ATOM     36  H   UNL     1     158.938 173.272 177.129  1.00  0.00     0.211 HD
ENDBRANCH  30  35
BRANCH  31  37
ATOM     37  C   UNL     1     159.396 173.060 172.332  1.00  0.00     0.191 C 
BRANCH  37  38
ATOM     38  O   UNL     1     160.404 173.986 172.646  1.00  0.00    -0.394 OA
ATOM     39  H   UNL     1     160.938 173.585 173.382  1.00  0.00     0.210 HD
ENDBRANCH  37  38
ENDBRANCH  31  37
BRANCH  32  40
ATOM     40  O   UNL     1     158.805 173.928 175.047  1.00  0.00    -0.387 OA
ATOM     41  H   UNL     1     157.874 173.772 174.732  1.00  0.00     0.211 HD
ENDBRANCH  32  40
ENDBRANCH   1  27
TORSDOF 12
ENDMDL
MODEL 9
REMARK VINA RESULT:    -6.424      3.150      6.833
REMARK INTER + INTRA:         -10.922
REMARK INTER:                  -8.953
REMARK INTRA:                  -1.969
REMARK UNBOUND:                -1.494
REMARK SMILES O=c1c(O[C@@H]2O[C@@H](CO)[C@@H](O)[C@@H](O)[C@@H]2O)c(-c2ccc(O)c(O)c2)oc2cc(O)cc(O)c12
REMARK SMILES IDX 4 1 3 2 16 3 25 4 2 5 26 6 1 7 33 8 27 9 31 10 28 11 30 12
REMARK SMILES IDX 17 13 18 14 19 15 20 16 24 17 22 18 21 19 23 21 32 23 29 25
REMARK SMILES IDX 5 27 14 28 6 29 12 30 7 31 10 32 15 33 13 35 8 37 9 38 11 40
REMARK H PARENT 21 20 23 22 32 24 29 26 15 34 13 36 9 39 11 41
REMARK Flexibility Score: inf
ROOT
ATOM      1  O   UNL     1     158.839 169.599 173.141  1.00  0.00    -0.454 OA
ENDROOT
BRANCH   1   2
ATOM      2  C   UNL     1     158.513 168.670 172.137  1.00  0.00     0.214 A 
ATOM      3  C   UNL     1     158.360 169.137 170.819  1.00  0.00     0.180 A 
ATOM      4  O   UNL     1     157.932 168.315 169.867  1.00  0.00    -0.452 OA
ATOM      5  C   UNL     1     158.272 167.305 172.400  1.00  0.00     0.239 A 
ATOM      6  C   UNL     1     157.630 167.040 170.082  1.00  0.00     0.146 A 
ATOM      7  O   UNL     1     158.563 166.837 173.531  1.00  0.00    -0.285 OA
ATOM      8  C   UNL     1     157.757 166.470 171.375  1.00  0.00     0.111 A 
ATOM      9  C   UNL     1     157.188 166.267 169.004  1.00  0.00     0.094 A 
ATOM     10  C   UNL     1     157.378 165.105 171.556  1.00  0.00     0.134 A 
ATOM     11  C   UNL     1     156.868 164.921 169.181  1.00  0.00     0.123 A 
ATOM     12  C   UNL     1     156.969 164.347 170.450  1.00  0.00     0.093 A 
BRANCH   3  13
ATOM     13  C   UNL     1     158.634 170.550 170.457  1.00  0.00     0.025 A 
ATOM     14  C   UNL     1     157.589 171.428 170.112  1.00  0.00     0.016 A 
ATOM     15  C   UNL     1     157.865 172.757 169.771  1.00  0.00     0.051 A 
ATOM     16  C   UNL     1     159.188 173.227 169.781  1.00  0.00     0.157 A 
ATOM     17  C   UNL     1     159.956 171.032 170.489  1.00  0.00     0.062 A 
ATOM     18  C   UNL     1     160.235 172.366 170.143  1.00  0.00     0.158 A 
BRANCH  16  19
ATOM     19  O   UNL     1     159.468 174.551 169.444  1.00  0.00    -0.504 OA
ATOM     20  H   UNL     1     160.214 175.070 169.897  1.00  0.00     0.293 HD
ENDBRANCH  16  19
BRANCH  18  21
ATOM     21  O   UNL     1     161.547 172.839 170.152  1.00  0.00    -0.504 OA
ATOM     22  H   UNL     1     162.011 173.116 171.010  1.00  0.00     0.293 HD
ENDBRANCH  18  21
ENDBRANCH   3  13
BRANCH  10  23
ATOM     23  O   UNL     1     157.351 164.467 172.799  1.00  0.00    -0.507 OA
ATOM     24  H   UNL     1     156.513 164.266 173.323  1.00  0.00     0.293 HD
ENDBRANCH  10  23
BRANCH  11  25
ATOM     25  O   UNL     1     156.440 164.163 168.090  1.00  0.00    -0.508 OA
ATOM     26  H   UNL     1     155.469 163.906 167.965  1.00  0.00     0.293 HD
ENDBRANCH  11  25
ENDBRANCH   1   2
BRANCH   1  27
ATOM     27  C   UNL     1     157.925 170.216 174.052  1.00  0.00     0.339 C 
ATOM     28  C   UNL     1     158.414 170.041 175.501  1.00  0.00     0.214 C 
ATOM     29  O   UNL     1     157.727 171.591 173.746  1.00  0.00    -0.332 OA
ATOM     30  C   UNL     1     159.690 170.876 175.754  1.00  0.00     0.180 C 
ATOM     31  C   UNL     1     158.948 172.319 173.802  1.00  0.00     0.179 C 
ATOM     32  C   UNL     1     159.519 172.325 175.241  1.00  0.00     0.177 C 
BRANCH  28  33
ATOM     33  O   UNL     1     158.656 168.681 175.745  1.00  0.00    -0.384 OA
ATOM     34  H   UNL     1     158.119 168.429 176.539  1.00  0.00     0.211 HD
ENDBRANCH  28  33
BRANCH  30  35
ATOM     35  O   UNL     1     159.999 170.872 177.124  1.00  0.00    -0.387 OA
ATOM     36  H   UNL     1     160.261 171.804 177.353  1.00  0.00     0.211 HD
ENDBRANCH  30  35
BRANCH  31  37
ATOM     37  C   UNL     1     158.709 173.742 173.281  1.00  0.00     0.191 C 
BRANCH  37  38
ATOM     38  O   UNL     1     159.714 174.594 173.766  1.00  0.00    -0.394 OA
ATOM     39  H   UNL     1     160.524 174.032 173.893  1.00  0.00     0.210 HD
ENDBRANCH  37  38
ENDBRANCH  31  37
BRANCH  32  40
ATOM     40  O   UNL     1     158.725 173.093 176.118  1.00  0.00    -0.387 OA
ATOM     41  H   UNL     1     158.731 174.035 175.801  1.00  0.00     0.211 HD
ENDBRANCH  32  40
ENDBRANCH   1  27
TORSDOF 12
ENDMDL
