MODEL 1
REMARK VINA RESULT:    -3.656      0.000      0.000
REMARK INTER + INTRA:         -13.440
REMARK INTER:                  -9.214
REMARK INTRA:                  -4.226
REMARK UNBOUND:                -4.226
REMARK SMILES CCCCCCCCCCCCCCCCCCCCCCCCCCCC(=O)[O-]
REMARK SMILES IDX 15 1 16 2 17 3 18 4 19 5 20 6 21 7 22 8 23 9 24 10 25 11
REMARK SMILES IDX 26 12 27 13 28 14 29 15 30 16 14 17 13 18 12 19 11 20 10 21
REMARK SMILES IDX 9 22 8 23 7 24 6 25 5 26 4 27 3 28 2 29 1 30
REMARK H PARENT
REMARK Flexibility Score: inf
ROOT
ATOM      1  C   UNL     1       9.625   4.962  -0.005  1.00  0.00     0.000 C 
ENDROOT
BRANCH   1   2
ATOM      2  C   UNL     1       8.190   4.494  -0.275  1.00  0.00     0.000 C 
BRANCH   2   3
ATOM      3  C   UNL     1       7.966   4.241  -1.773  1.00  0.00     0.000 C 
BRANCH   3   4
ATOM      4  C   UNL     1       6.521   3.827  -2.101  1.00  0.00     0.000 C 
BRANCH   4   5
ATOM      5  C   UNL     1       5.978   4.360  -3.443  1.00  0.00     0.000 C 
BRANCH   5   6
ATOM      6  C   UNL     1       6.734   5.571  -4.021  1.00  0.00     0.000 C 
BRANCH   6   7
ATOM      7  C   UNL     1       5.899   6.859  -4.165  1.00  0.00     0.000 C 
BRANCH   7   8
ATOM      8  C   UNL     1       6.303   7.983  -3.188  1.00  0.00     0.000 C 
BRANCH   8   9
ATOM      9  C   UNL     1       6.145   7.575  -1.713  1.00  0.00     0.000 C 
BRANCH   9  10
ATOM     10  C   UNL     1       6.852   8.541  -0.744  1.00  0.00     0.000 C 
BRANCH  10  11
ATOM     11  C   UNL     1       7.861   7.881   0.217  1.00  0.00     0.000 C 
BRANCH  11  12
ATOM     12  C   UNL     1       8.222   8.714   1.463  1.00  0.00     0.006 C 
BRANCH  12  13
ATOM     13  C   UNL     1       9.543   8.309   2.136  1.00  0.00     0.053 C 
BRANCH  13  14
ATOM     14  C   UNL     1       9.398   7.083   2.984  1.00  0.00     0.041 C 
ATOM     15  O   UNL     1       8.265   6.727   3.401  1.00  0.00    -0.550 OA
ATOM     16  O   UNL     1      10.515   6.315   3.290  1.00  0.00    -0.550 OA
ENDBRANCH  13  14
ENDBRANCH  12  13
ENDBRANCH  11  12
ENDBRANCH  10  11
ENDBRANCH   9  10
ENDBRANCH   8   9
ENDBRANCH   7   8
ENDBRANCH   6   7
ENDBRANCH   5   6
ENDBRANCH   4   5
ENDBRANCH   3   4
ENDBRANCH   2   3
ENDBRANCH   1   2
BRANCH   1  17
ATOM     17  C   UNL     1      10.378   5.223  -1.320  1.00  0.00     0.000 C 
BRANCH  17  18
ATOM     18  C   UNL     1      10.550   6.722  -1.620  1.00  0.00     0.000 C 
BRANCH  18  19
ATOM     19  C   UNL     1       9.942   7.196  -2.954  1.00  0.00     0.000 C 
BRANCH  19  20
ATOM     20  C   UNL     1      10.703   6.748  -4.220  1.00  0.00     0.000 C 
BRANCH  20  21
ATOM     21  C   UNL     1       9.920   5.809  -5.155  1.00  0.00     0.000 C 
BRANCH  21  22
ATOM     22  C   UNL     1      10.654   4.482  -5.415  1.00  0.00    -0.000 C 
BRANCH  22  23
ATOM     23  C   UNL     1      10.679   3.555  -4.185  1.00  0.00    -0.000 C 
BRANCH  23  24
ATOM     24  C   UNL     1      11.417   2.219  -4.384  1.00  0.00    -0.000 C 
BRANCH  24  25
ATOM     25  C   UNL     1      11.891   1.592  -3.061  1.00  0.00    -0.000 C 
BRANCH  25  26
ATOM     26  C   UNL     1      10.912   1.836  -1.900  1.00  0.00    -0.000 C 
BRANCH  26  27
ATOM     27  C   UNL     1      11.460   1.330  -0.553  1.00  0.00    -0.000 C 
BRANCH  27  28
ATOM     28  C   UNL     1      12.956   0.971  -0.611  1.00  0.00    -0.000 C 
BRANCH  28  29
ATOM     29  C   UNL     1      13.364  -0.256   0.225  1.00  0.00    -0.003 C 
ATOM     30  C   UNL     1      12.728  -0.272   1.616  1.00  0.00     0.004 C 
ENDBRANCH  28  29
ENDBRANCH  27  28
ENDBRANCH  26  27
ENDBRANCH  25  26
ENDBRANCH  24  25
ENDBRANCH  23  24
ENDBRANCH  22  23
ENDBRANCH  21  22
ENDBRANCH  20  21
ENDBRANCH  19  20
ENDBRANCH  18  19
ENDBRANCH  17  18
ENDBRANCH   1  17
TORSDOF 26
ENDMDL
MODEL 2
REMARK VINA RESULT:    -3.402      3.264      6.650
REMARK INTER + INTRA:         -12.798
REMARK INTER:                  -7.465
REMARK INTRA:                  -5.333
REMARK UNBOUND:                -4.226
REMARK SMILES CCCCCCCCCCCCCCCCCCCCCCCCCCCC(=O)[O-]
REMARK SMILES IDX 15 1 16 2 17 3 18 4 19 5 20 6 21 7 22 8 23 9 24 10 25 11
REMARK SMILES IDX 26 12 27 13 28 14 29 15 30 16 14 17 13 18 12 19 11 20 10 21
REMARK SMILES IDX 9 22 8 23 7 24 6 25 5 26 4 27 3 28 2 29 1 30
REMARK H PARENT
REMARK Flexibility Score: inf
ROOT
ATOM      1  C   UNL     1       9.329   6.630   2.766  1.00  0.00     0.000 C 
ENDROOT
BRANCH   1   2
ATOM      2  C   UNL     1       7.805   6.476   2.830  1.00  0.00     0.000 C 
BRANCH   2   3
ATOM      3  C   UNL     1       7.103   7.659   2.148  1.00  0.00     0.000 C 
BRANCH   3   4
ATOM      4  C   UNL     1       6.384   7.260   0.847  1.00  0.00     0.000 C 
BRANCH   4   5
ATOM      5  C   UNL     1       6.272   5.741   0.603  1.00  0.00     0.000 C 
BRANCH   5   6
ATOM      6  C   UNL     1       6.194   5.318  -0.876  1.00  0.00     0.000 C 
BRANCH   6   7
ATOM      7  C   UNL     1       7.552   5.082  -1.565  1.00  0.00     0.000 C 
BRANCH   7   8
ATOM      8  C   UNL     1       7.971   3.599  -1.640  1.00  0.00     0.000 C 
BRANCH   8   9
ATOM      9  C   UNL     1       8.943   3.197  -0.516  1.00  0.00     0.000 C 
BRANCH   9  10
ATOM     10  C   UNL     1      10.138   2.370  -1.024  1.00  0.00     0.000 C 
BRANCH  10  11
ATOM     11  C   UNL     1      11.302   3.194  -1.609  1.00  0.00     0.000 C 
BRANCH  11  12
ATOM     12  C   UNL     1      11.887   2.658  -2.931  1.00  0.00     0.006 C 
BRANCH  12  13
ATOM     13  C   UNL     1      11.127   1.459  -3.520  1.00  0.00     0.053 C 
BRANCH  13  14
ATOM     14  C   UNL     1      11.500   1.193  -4.946  1.00  0.00     0.041 C 
ATOM     15  O   UNL     1      11.786   0.027  -5.324  1.00  0.00    -0.550 OA
ATOM     16  O   UNL     1      11.502   2.233  -5.868  1.00  0.00    -0.550 OA
ENDBRANCH  13  14
ENDBRANCH  12  13
ENDBRANCH  11  12
ENDBRANCH  10  11
ENDBRANCH   9  10
ENDBRANCH   8   9
ENDBRANCH   7   8
ENDBRANCH   6   7
ENDBRANCH   5   6
ENDBRANCH   4   5
ENDBRANCH   3   4
ENDBRANCH   2   3
ENDBRANCH   1   2
BRANCH   1  17
ATOM     17  C   UNL     1       9.884   6.089   1.439  1.00  0.00     0.000 C 
BRANCH  17  18
ATOM     18  C   UNL     1      10.269   7.207   0.454  1.00  0.00     0.000 C 
BRANCH  18  19
ATOM     19  C   UNL     1      10.372   6.772  -1.021  1.00  0.00     0.000 C 
BRANCH  19  20
ATOM     20  C   UNL     1      10.566   7.920  -2.033  1.00  0.00     0.000 C 
BRANCH  20  21
ATOM     21  C   UNL     1      10.552   7.495  -3.513  1.00  0.00     0.000 C 
BRANCH  21  22
ATOM     22  C   UNL     1      10.207   6.008  -3.701  1.00  0.00    -0.000 C 
BRANCH  22  23
ATOM     23  C   UNL     1      10.507   5.494  -5.122  1.00  0.00    -0.000 C 
BRANCH  23  24
ATOM     24  C   UNL     1       9.283   4.994  -5.911  1.00  0.00    -0.000 C 
BRANCH  24  25
ATOM     25  C   UNL     1       7.972   5.094  -5.111  1.00  0.00    -0.000 C 
BRANCH  25  26
ATOM     26  C   UNL     1       6.996   6.130  -5.692  1.00  0.00    -0.000 C 
BRANCH  26  27
ATOM     27  C   UNL     1       7.650   7.510  -5.886  1.00  0.00    -0.000 C 
BRANCH  27  28
ATOM     28  C   UNL     1       7.106   8.574  -4.915  1.00  0.00    -0.000 C 
BRANCH  28  29
ATOM     29  C   UNL     1       6.698   8.041  -3.529  1.00  0.00    -0.003 C 
ATOM     30  C   UNL     1       7.106   8.970  -2.385  1.00  0.00     0.004 C 
ENDBRANCH  28  29
ENDBRANCH  27  28
ENDBRANCH  26  27
ENDBRANCH  25  26
ENDBRANCH  24  25
ENDBRANCH  23  24
ENDBRANCH  22  23
ENDBRANCH  21  22
ENDBRANCH  20  21
ENDBRANCH  19  20
ENDBRANCH  18  19
ENDBRANCH  17  18
ENDBRANCH   1  17
TORSDOF 26
ENDMDL
MODEL 3
REMARK VINA RESULT:    -3.294      1.470      2.229
REMARK INTER + INTRA:         -12.527
REMARK INTER:                  -9.014
REMARK INTRA:                  -3.513
REMARK UNBOUND:                -4.226
REMARK SMILES CCCCCCCCCCCCCCCCCCCCCCCCCCCC(=O)[O-]
REMARK SMILES IDX 15 1 16 2 17 3 18 4 19 5 20 6 21 7 22 8 23 9 24 10 25 11
REMARK SMILES IDX 26 12 27 13 28 14 29 15 30 16 14 17 13 18 12 19 11 20 10 21
REMARK SMILES IDX 9 22 8 23 7 24 6 25 5 26 4 27 3 28 2 29 1 30
REMARK H PARENT
REMARK Flexibility Score: inf
ROOT
ATOM      1  C   UNL     1       9.969   4.311   0.189  1.00  0.00     0.000 C 
ENDROOT
BRANCH   1   2
ATOM      2  C   UNL     1       8.470   4.058   0.387  1.00  0.00     0.000 C 
BRANCH   2   3
ATOM      3  C   UNL     1       7.740   3.986  -0.962  1.00  0.00     0.000 C 
BRANCH   3   4
ATOM      4  C   UNL     1       6.551   4.959  -1.053  1.00  0.00     0.000 C 
BRANCH   4   5
ATOM      5  C   UNL     1       6.537   5.856  -2.309  1.00  0.00     0.000 C 
BRANCH   5   6
ATOM      6  C   UNL     1       6.515   7.371  -2.032  1.00  0.00     0.000 C 
BRANCH   6   7
ATOM      7  C   UNL     1       5.903   7.784  -0.679  1.00  0.00     0.000 C 
BRANCH   7   8
ATOM      8  C   UNL     1       6.897   8.473   0.279  1.00  0.00     0.000 C 
BRANCH   8   9
ATOM      9  C   UNL     1       8.247   7.738   0.365  1.00  0.00     0.000 C 
BRANCH   9  10
ATOM     10  C   UNL     1       9.231   8.404   1.344  1.00  0.00     0.000 C 
BRANCH  10  11
ATOM     11  C   UNL     1       9.281   7.774   2.751  1.00  0.00     0.000 C 
BRANCH  11  12
ATOM     12  C   UNL     1       8.029   8.004   3.619  1.00  0.00     0.006 C 
BRANCH  12  13
ATOM     13  C   UNL     1       7.097   6.786   3.725  1.00  0.00     0.053 C 
BRANCH  13  14
ATOM     14  C   UNL     1       6.460   6.672   5.076  1.00  0.00     0.041 C 
ATOM     15  O   UNL     1       6.085   5.552   5.511  1.00  0.00    -0.550 OA
ATOM     16  O   UNL     1       6.309   7.803   5.869  1.00  0.00    -0.550 OA
ENDBRANCH  13  14
ENDBRANCH  12  13
ENDBRANCH  11  12
ENDBRANCH  10  11
ENDBRANCH   9  10
ENDBRANCH   8   9
ENDBRANCH   7   8
ENDBRANCH   6   7
ENDBRANCH   5   6
ENDBRANCH   4   5
ENDBRANCH   3   4
ENDBRANCH   2   3
ENDBRANCH   1   2
BRANCH   1  17
ATOM     17  C   UNL     1      10.277   4.692  -1.268  1.00  0.00     0.000 C 
BRANCH  17  18
ATOM     18  C   UNL     1      10.676   6.170  -1.424  1.00  0.00     0.000 C 
BRANCH  18  19
ATOM     19  C   UNL     1      10.082   6.880  -2.656  1.00  0.00     0.000 C 
BRANCH  19  20
ATOM     20  C   UNL     1      10.798   6.592  -3.991  1.00  0.00     0.000 C 
BRANCH  20  21
ATOM     21  C   UNL     1       9.987   5.759  -5.001  1.00  0.00     0.000 C 
BRANCH  21  22
ATOM     22  C   UNL     1      10.880   4.925  -5.936  1.00  0.00    -0.000 C 
BRANCH  22  23
ATOM     23  C   UNL     1      10.392   3.474  -6.100  1.00  0.00    -0.000 C 
BRANCH  23  24
ATOM     24  C   UNL     1      11.221   2.414  -5.352  1.00  0.00    -0.000 C 
BRANCH  24  25
ATOM     25  C   UNL     1      11.503   2.796  -3.887  1.00  0.00    -0.000 C 
BRANCH  25  26
ATOM     26  C   UNL     1      11.801   1.577  -2.999  1.00  0.00    -0.000 C 
BRANCH  26  27
ATOM     27  C   UNL     1      12.374   1.976  -1.627  1.00  0.00    -0.000 C 
BRANCH  27  28
ATOM     28  C   UNL     1      11.997   0.987  -0.508  1.00  0.00    -0.000 C 
BRANCH  28  29
ATOM     29  C   UNL     1      13.174   0.179   0.069  1.00  0.00    -0.003 C 
ATOM     30  C   UNL     1      12.847  -0.484   1.407  1.00  0.00     0.004 C 
ENDBRANCH  28  29
ENDBRANCH  27  28
ENDBRANCH  26  27
ENDBRANCH  25  26
ENDBRANCH  24  25
ENDBRANCH  23  24
ENDBRANCH  22  23
ENDBRANCH  21  22
ENDBRANCH  20  21
ENDBRANCH  19  20
ENDBRANCH  18  19
ENDBRANCH  17  18
ENDBRANCH   1  17
TORSDOF 26
ENDMDL
MODEL 4
REMARK VINA RESULT:    -3.170      3.268      6.631
REMARK INTER + INTRA:         -12.214
REMARK INTER:                  -7.526
REMARK INTRA:                  -4.688
REMARK UNBOUND:                -4.226
REMARK SMILES CCCCCCCCCCCCCCCCCCCCCCCCCCCC(=O)[O-]
REMARK SMILES IDX 15 1 16 2 17 3 18 4 19 5 20 6 21 7 22 8 23 9 24 10 25 11
REMARK SMILES IDX 26 12 27 13 28 14 29 15 30 16 14 17 13 18 12 19 11 20 10 21
REMARK SMILES IDX 9 22 8 23 7 24 6 25 5 26 4 27 3 28 2 29 1 30
REMARK H PARENT
REMARK Flexibility Score: inf
ROOT
ATOM      1  C   UNL     1       9.842   5.865   1.917  1.00  0.00     0.000 C 
ENDROOT
BRANCH   1   2
ATOM      2  C   UNL     1       9.408   6.952   2.908  1.00  0.00     0.000 C 
BRANCH   2   3
ATOM      3  C   UNL     1       7.907   6.850   3.214  1.00  0.00     0.000 C 
BRANCH   3   4
ATOM      4  C   UNL     1       7.175   5.853   2.298  1.00  0.00     0.000 C 
BRANCH   4   5
ATOM      5  C   UNL     1       6.284   6.495   1.214  1.00  0.00     0.000 C 
BRANCH   5   6
ATOM      6  C   UNL     1       6.207   5.721  -0.114  1.00  0.00     0.000 C 
BRANCH   6   7
ATOM      7  C   UNL     1       7.387   4.769  -0.391  1.00  0.00     0.000 C 
BRANCH   7   8
ATOM      8  C   UNL     1       7.402   4.184  -1.819  1.00  0.00     0.000 C 
BRANCH   8   9
ATOM      9  C   UNL     1       8.796   4.242  -2.471  1.00  0.00     0.000 C 
BRANCH   9  10
ATOM     10  C   UNL     1       9.767   3.190  -1.904  1.00  0.00     0.000 C 
BRANCH  10  11
ATOM     11  C   UNL     1      11.262   3.497  -2.118  1.00  0.00     0.000 C 
BRANCH  11  12
ATOM     12  C   UNL     1      12.078   2.364  -2.771  1.00  0.00     0.006 C 
BRANCH  12  13
ATOM     13  C   UNL     1      11.227   1.287  -3.463  1.00  0.00     0.053 C 
BRANCH  13  14
ATOM     14  C   UNL     1      11.495   1.207  -4.934  1.00  0.00     0.041 C 
ATOM     15  O   UNL     1      11.399   2.235  -5.656  1.00  0.00    -0.550 OA
ATOM     16  O   UNL     1      11.882   0.001  -5.505  1.00  0.00    -0.550 OA
ENDBRANCH  13  14
ENDBRANCH  12  13
ENDBRANCH  11  12
ENDBRANCH  10  11
ENDBRANCH   9  10
ENDBRANCH   8   9
ENDBRANCH   7   8
ENDBRANCH   6   7
ENDBRANCH   5   6
ENDBRANCH   4   5
ENDBRANCH   3   4
ENDBRANCH   2   3
ENDBRANCH   1   2
BRANCH   1  17
ATOM     17  C   UNL     1      10.280   6.481   0.579  1.00  0.00     0.000 C 
BRANCH  17  18
ATOM     18  C   UNL     1       9.769   7.921   0.391  1.00  0.00     0.000 C 
BRANCH  18  19
ATOM     19  C   UNL     1       9.247   8.249  -1.021  1.00  0.00     0.000 C 
BRANCH  19  20
ATOM     20  C   UNL     1       7.827   8.848  -1.075  1.00  0.00     0.000 C 
BRANCH  20  21
ATOM     21  C   UNL     1       7.139   8.776  -2.451  1.00  0.00     0.000 C 
BRANCH  21  22
ATOM     22  C   UNL     1       7.400   7.445  -3.176  1.00  0.00    -0.000 C 
BRANCH  22  23
ATOM     23  C   UNL     1       6.252   7.036  -4.118  1.00  0.00    -0.000 C 
BRANCH  23  24
ATOM     24  C   UNL     1       6.662   6.778  -5.579  1.00  0.00    -0.000 C 
BRANCH  24  25
ATOM     25  C   UNL     1       8.184   6.848  -5.797  1.00  0.00    -0.000 C 
BRANCH  25  26
ATOM     26  C   UNL     1       8.861   5.469  -5.732  1.00  0.00    -0.000 C 
BRANCH  26  27
ATOM     27  C   UNL     1      10.388   5.571  -5.568  1.00  0.00    -0.000 C 
BRANCH  27  28
ATOM     28  C   UNL     1      10.925   6.992  -5.822  1.00  0.00    -0.000 C 
BRANCH  28  29
ATOM     29  C   UNL     1      11.255   7.800  -4.553  1.00  0.00    -0.003 C 
ATOM     30  C   UNL     1      10.436   9.084  -4.429  1.00  0.00     0.004 C 
ENDBRANCH  28  29
ENDBRANCH  27  28
ENDBRANCH  26  27
ENDBRANCH  25  26
ENDBRANCH  24  25
ENDBRANCH  23  24
ENDBRANCH  22  23
ENDBRANCH  21  22
ENDBRANCH  20  21
ENDBRANCH  19  20
ENDBRANCH  18  19
ENDBRANCH  17  18
ENDBRANCH   1  17
TORSDOF 26
ENDMDL
MODEL 5
REMARK VINA RESULT:    -3.139      2.429      6.908
REMARK INTER + INTRA:         -12.137
REMARK INTER:                  -8.042
REMARK INTRA:                  -4.095
REMARK UNBOUND:                -4.226
REMARK SMILES CCCCCCCCCCCCCCCCCCCCCCCCCCCC(=O)[O-]
REMARK SMILES IDX 15 1 16 2 17 3 18 4 19 5 20 6 21 7 22 8 23 9 24 10 25 11
REMARK SMILES IDX 26 12 27 13 28 14 29 15 30 16 14 17 13 18 12 19 11 20 10 21
REMARK SMILES IDX 9 22 8 23 7 24 6 25 5 26 4 27 3 28 2 29 1 30
REMARK H PARENT
REMARK Flexibility Score: inf
ROOT
ATOM      1  C   UNL     1       9.181   4.148   1.286  1.00  0.00     0.000 C 
ENDROOT
BRANCH   1   2
ATOM      2  C   UNL     1       9.951   5.425   1.646  1.00  0.00     0.000 C 
BRANCH   2   3
ATOM      3  C   UNL     1       9.408   6.633   0.869  1.00  0.00     0.000 C 
BRANCH   3   4
ATOM      4  C   UNL     1      10.407   7.175  -0.170  1.00  0.00     0.000 C 
BRANCH   4   5
ATOM      5  C   UNL     1       9.915   7.130  -1.632  1.00  0.00     0.000 C 
BRANCH   5   6
ATOM      6  C   UNL     1      10.972   6.698  -2.665  1.00  0.00     0.000 C 
BRANCH   6   7
ATOM      7  C   UNL     1      10.425   5.924  -3.881  1.00  0.00     0.000 C 
BRANCH   7   8
ATOM      8  C   UNL     1      10.149   4.431  -3.604  1.00  0.00     0.000 C 
BRANCH   8   9
ATOM      9  C   UNL     1      10.848   3.500  -4.609  1.00  0.00     0.000 C 
BRANCH   9  10
ATOM     10  C   UNL     1      11.649   2.375  -3.928  1.00  0.00     0.000 C 
BRANCH  10  11
ATOM     11  C   UNL     1      11.162   1.987  -2.518  1.00  0.00     0.000 C 
BRANCH  11  12
ATOM     12  C   UNL     1      12.276   1.768  -1.475  1.00  0.00     0.006 C 
BRANCH  12  13
ATOM     13  C   UNL     1      11.789   1.190  -0.137  1.00  0.00     0.053 C 
BRANCH  13  14
ATOM     14  C   UNL     1      12.727   0.160   0.414  1.00  0.00     0.041 C 
ATOM     15  O   UNL     1      13.528  -0.444  -0.347  1.00  0.00    -0.550 OA
ATOM     16  O   UNL     1      12.738  -0.110   1.777  1.00  0.00    -0.550 OA
ENDBRANCH  13  14
ENDBRANCH  12  13
ENDBRANCH  11  12
ENDBRANCH  10  11
ENDBRANCH   9  10
ENDBRANCH   8   9
ENDBRANCH   7   8
ENDBRANCH   6   7
ENDBRANCH   5   6
ENDBRANCH   4   5
ENDBRANCH   3   4
ENDBRANCH   2   3
ENDBRANCH   1   2
BRANCH   1  17
ATOM     17  C   UNL     1       9.353   3.802  -0.202  1.00  0.00     0.000 C 
BRANCH  17  18
ATOM     18  C   UNL     1       8.010   3.582  -0.921  1.00  0.00     0.000 C 
BRANCH  18  19
ATOM     19  C   UNL     1       6.953   4.677  -0.680  1.00  0.00     0.000 C 
BRANCH  19  20
ATOM     20  C   UNL     1       5.942   4.880  -1.827  1.00  0.00     0.000 C 
BRANCH  20  21
ATOM     21  C   UNL     1       6.566   5.105  -3.216  1.00  0.00     0.000 C 
BRANCH  21  22
ATOM     22  C   UNL     1       7.041   6.553  -3.426  1.00  0.00    -0.000 C 
BRANCH  22  23
ATOM     23  C   UNL     1       6.005   7.599  -2.977  1.00  0.00    -0.000 C 
BRANCH  23  24
ATOM     24  C   UNL     1       6.573   8.783  -2.172  1.00  0.00    -0.000 C 
BRANCH  24  25
ATOM     25  C   UNL     1       5.879   8.972  -0.812  1.00  0.00    -0.000 C 
BRANCH  25  26
ATOM     26  C   UNL     1       6.472   8.079   0.290  1.00  0.00    -0.000 C 
BRANCH  26  27
ATOM     27  C   UNL     1       6.229   8.647   1.701  1.00  0.00    -0.000 C 
BRANCH  27  28
ATOM     28  C   UNL     1       5.946   7.552   2.747  1.00  0.00    -0.000 C 
BRANCH  28  29
ATOM     29  C   UNL     1       7.166   7.117   3.580  1.00  0.00    -0.003 C 
ATOM     30  C   UNL     1       6.786   6.538   4.943  1.00  0.00     0.004 C 
ENDBRANCH  28  29
ENDBRANCH  27  28
ENDBRANCH  26  27
ENDBRANCH  25  26
ENDBRANCH  24  25
ENDBRANCH  23  24
ENDBRANCH  22  23
ENDBRANCH  21  22
ENDBRANCH  20  21
ENDBRANCH  19  20
ENDBRANCH  18  19
ENDBRANCH  17  18
ENDBRANCH   1  17
TORSDOF 26
ENDMDL
MODEL 6
REMARK VINA RESULT:    -3.128      2.514      6.336
REMARK INTER + INTRA:         -12.108
REMARK INTER:                  -7.366
REMARK INTRA:                  -4.743
REMARK UNBOUND:                -4.226
REMARK SMILES CCCCCCCCCCCCCCCCCCCCCCCCCCCC(=O)[O-]
REMARK SMILES IDX 15 1 16 2 17 3 18 4 19 5 20 6 21 7 22 8 23 9 24 10 25 11
REMARK SMILES IDX 26 12 27 13 28 14 29 15 30 16 14 17 13 18 12 19 11 20 10 21
REMARK SMILES IDX 9 22 8 23 7 24 6 25 5 26 4 27 3 28 2 29 1 30
REMARK H PARENT
REMARK Flexibility Score: inf
ROOT
ATOM      1  C   UNL     1       9.817   5.949   1.855  1.00  0.00     0.000 C 
ENDROOT
BRANCH   1   2
ATOM      2  C   UNL     1       8.994   6.821   2.811  1.00  0.00     0.000 C 
BRANCH   2   3
ATOM      3  C   UNL     1       7.498   6.487   2.711  1.00  0.00     0.000 C 
BRANCH   3   4
ATOM      4  C   UNL     1       7.197   5.389   1.675  1.00  0.00     0.000 C 
BRANCH   4   5
ATOM      5  C   UNL     1       6.339   5.842   0.476  1.00  0.00     0.000 C 
BRANCH   5   6
ATOM      6  C   UNL     1       6.549   5.038  -0.820  1.00  0.00     0.000 C 
BRANCH   6   7
ATOM      7  C   UNL     1       7.978   4.503  -1.039  1.00  0.00     0.000 C 
BRANCH   7   8
ATOM      8  C   UNL     1       8.589   4.880  -2.405  1.00  0.00     0.000 C 
BRANCH   8   9
ATOM      9  C   UNL     1      10.114   4.675  -2.451  1.00  0.00     0.000 C 
BRANCH   9  10
ATOM     10  C   UNL     1      10.518   3.191  -2.525  1.00  0.00     0.000 C 
BRANCH  10  11
ATOM     11  C   UNL     1      11.905   2.861  -1.940  1.00  0.00     0.000 C 
BRANCH  11  12
ATOM     12  C   UNL     1      12.098   1.399  -1.492  1.00  0.00     0.006 C 
BRANCH  12  13
ATOM     13  C   UNL     1      11.870   1.160   0.009  1.00  0.00     0.053 C 
BRANCH  13  14
ATOM     14  C   UNL     1      12.801   0.128   0.569  1.00  0.00     0.041 C 
ATOM     15  O   UNL     1      12.561  -0.408   1.683  1.00  0.00    -0.550 OA
ATOM     16  O   UNL     1      13.920  -0.263  -0.155  1.00  0.00    -0.550 OA
ENDBRANCH  13  14
ENDBRANCH  12  13
ENDBRANCH  11  12
ENDBRANCH  10  11
ENDBRANCH   9  10
ENDBRANCH   8   9
ENDBRANCH   7   8
ENDBRANCH   6   7
ENDBRANCH   5   6
ENDBRANCH   4   5
ENDBRANCH   3   4
ENDBRANCH   2   3
ENDBRANCH   1   2
BRANCH   1  17
ATOM     17  C   UNL     1      10.364   6.780   0.683  1.00  0.00     0.000 C 
BRANCH  17  18
ATOM     18  C   UNL     1       9.614   8.111   0.495  1.00  0.00     0.000 C 
BRANCH  18  19
ATOM     19  C   UNL     1       8.957   8.300  -0.886  1.00  0.00     0.000 C 
BRANCH  19  20
ATOM     20  C   UNL     1       7.584   9.005  -0.869  1.00  0.00     0.000 C 
BRANCH  20  21
ATOM     21  C   UNL     1       6.857   9.050  -2.226  1.00  0.00     0.000 C 
BRANCH  21  22
ATOM     22  C   UNL     1       7.211   7.857  -3.130  1.00  0.00    -0.000 C 
BRANCH  22  23
ATOM     23  C   UNL     1       5.980   7.232  -3.813  1.00  0.00    -0.000 C 
BRANCH  23  24
ATOM     24  C   UNL     1       6.171   6.857  -5.294  1.00  0.00    -0.000 C 
BRANCH  24  25
ATOM     25  C   UNL     1       7.621   7.040  -5.777  1.00  0.00    -0.000 C 
BRANCH  25  26
ATOM     26  C   UNL     1       8.340   5.705  -6.027  1.00  0.00    -0.000 C 
BRANCH  26  27
ATOM     27  C   UNL     1       9.871   5.834  -5.929  1.00  0.00    -0.000 C 
BRANCH  27  28
ATOM     28  C   UNL     1      10.364   7.281  -6.123  1.00  0.00    -0.000 C 
BRANCH  28  29
ATOM     29  C   UNL     1      11.449   7.736  -5.129  1.00  0.00    -0.003 C 
ATOM     30  C   UNL     1      10.887   8.525  -3.947  1.00  0.00     0.004 C 
ENDBRANCH  28  29
ENDBRANCH  27  28
ENDBRANCH  26  27
ENDBRANCH  25  26
ENDBRANCH  24  25
ENDBRANCH  23  24
ENDBRANCH  22  23
ENDBRANCH  21  22
ENDBRANCH  20  21
ENDBRANCH  19  20
ENDBRANCH  18  19
ENDBRANCH  17  18
ENDBRANCH   1  17
TORSDOF 26
ENDMDL
MODEL 7
REMARK VINA RESULT:    -3.026      2.426      5.710
REMARK INTER + INTRA:         -11.852
REMARK INTER:                  -7.447
REMARK INTRA:                  -4.405
REMARK UNBOUND:                -4.226
REMARK SMILES CCCCCCCCCCCCCCCCCCCCCCCCCCCC(=O)[O-]
REMARK SMILES IDX 15 1 16 2 17 3 18 4 19 5 20 6 21 7 22 8 23 9 24 10 25 11
REMARK SMILES IDX 26 12 27 13 28 14 29 15 30 16 14 17 13 18 12 19 11 20 10 21
REMARK SMILES IDX 9 22 8 23 7 24 6 25 5 26 4 27 3 28 2 29 1 30
REMARK H PARENT
REMARK Flexibility Score: inf
ROOT
ATOM      1  C   UNL     1      10.013   7.608  -0.284  1.00  0.00     0.000 C 
ENDROOT
BRANCH   1   2
ATOM      2  C   UNL     1       9.904   8.902   0.532  1.00  0.00     0.000 C 
BRANCH   2   3
ATOM      3  C   UNL     1       9.544   8.602   1.994  1.00  0.00     0.000 C 
BRANCH   3   4
ATOM      4  C   UNL     1       9.343   7.100   2.266  1.00  0.00     0.000 C 
BRANCH   4   5
ATOM      5  C   UNL     1       8.036   6.740   3.002  1.00  0.00     0.000 C 
BRANCH   5   6
ATOM      6  C   UNL     1       7.120   5.747   2.262  1.00  0.00     0.000 C 
BRANCH   6   7
ATOM      7  C   UNL     1       7.149   5.846   0.725  1.00  0.00     0.000 C 
BRANCH   7   8
ATOM      8  C   UNL     1       7.718   4.594   0.024  1.00  0.00     0.000 C 
BRANCH   8   9
ATOM      9  C   UNL     1       8.454   3.652   0.994  1.00  0.00     0.000 C 
BRANCH   9  10
ATOM     10  C   UNL     1       9.962   3.548   0.701  1.00  0.00     0.000 C 
BRANCH  10  11
ATOM     11  C   UNL     1      10.344   2.552  -0.413  1.00  0.00     0.000 C 
BRANCH  11  12
ATOM     12  C   UNL     1      11.849   2.241  -0.527  1.00  0.00     0.006 C 
BRANCH  12  13
ATOM     13  C   UNL     1      12.172   0.766  -0.818  1.00  0.00     0.053 C 
BRANCH  13  14
ATOM     14  C   UNL     1      13.037   0.153   0.239  1.00  0.00     0.041 C 
ATOM     15  O   UNL     1      12.612   0.029   1.418  1.00  0.00    -0.550 OA
ATOM     16  O   UNL     1      14.306  -0.311  -0.085  1.00  0.00    -0.550 OA
ENDBRANCH  13  14
ENDBRANCH  12  13
ENDBRANCH  11  12
ENDBRANCH  10  11
ENDBRANCH   9  10
ENDBRANCH   8   9
ENDBRANCH   7   8
ENDBRANCH   6   7
ENDBRANCH   5   6
ENDBRANCH   4   5
ENDBRANCH   3   4
ENDBRANCH   2   3
ENDBRANCH   1   2
BRANCH   1  17
ATOM     17  C   UNL     1       9.804   7.882  -1.782  1.00  0.00     0.000 C 
BRANCH  17  18
ATOM     18  C   UNL     1       8.743   8.965  -2.047  1.00  0.00     0.000 C 
BRANCH  18  19
ATOM     19  C   UNL     1       7.396   8.441  -2.582  1.00  0.00     0.000 C 
BRANCH  19  20
ATOM     20  C   UNL     1       7.275   6.906  -2.672  1.00  0.00     0.000 C 
BRANCH  20  21
ATOM     21  C   UNL     1       6.538   6.380  -3.917  1.00  0.00     0.000 C 
BRANCH  21  22
ATOM     22  C   UNL     1       6.741   7.276  -5.150  1.00  0.00    -0.000 C 
BRANCH  22  23
ATOM     23  C   UNL     1       7.920   6.827  -6.035  1.00  0.00    -0.000 C 
BRANCH  23  24
ATOM     24  C   UNL     1       8.186   5.310  -6.053  1.00  0.00    -0.000 C 
BRANCH  24  25
ATOM     25  C   UNL     1       9.682   4.963  -5.954  1.00  0.00    -0.000 C 
BRANCH  25  26
ATOM     26  C   UNL     1      10.381   5.664  -4.777  1.00  0.00    -0.000 C 
BRANCH  26  27
ATOM     27  C   UNL     1      10.409   4.794  -3.507  1.00  0.00    -0.000 C 
BRANCH  27  28
ATOM     28  C   UNL     1      10.214   3.294  -3.803  1.00  0.00    -0.000 C 
BRANCH  28  29
ATOM     29  C   UNL     1      11.515   2.505  -4.042  1.00  0.00    -0.003 C 
ATOM     30  C   UNL     1      11.520   1.745  -5.368  1.00  0.00     0.004 C 
ENDBRANCH  28  29
ENDBRANCH  27  28
ENDBRANCH  26  27
ENDBRANCH  25  26
ENDBRANCH  24  25
ENDBRANCH  23  24
ENDBRANCH  22  23
ENDBRANCH  21  22
ENDBRANCH  20  21
ENDBRANCH  19  20
ENDBRANCH  18  19
ENDBRANCH  17  18
ENDBRANCH   1  17
TORSDOF 26
ENDMDL
MODEL 8
REMARK VINA RESULT:    -3.008      1.674      5.605
REMARK INTER + INTRA:         -11.806
REMARK INTER:                  -7.368
REMARK INTRA:                  -4.438
REMARK UNBOUND:                -4.226
REMARK SMILES CCCCCCCCCCCCCCCCCCCCCCCCCCCC(=O)[O-]
REMARK SMILES IDX 15 1 16 2 17 3 18 4 19 5 20 6 21 7 22 8 23 9 24 10 25 11
REMARK SMILES IDX 26 12 27 13 28 14 29 15 30 16 14 17 13 18 12 19 11 20 10 21
REMARK SMILES IDX 9 22 8 23 7 24 6 25 5 26 4 27 3 28 2 29 1 30
REMARK H PARENT
REMARK Flexibility Score: inf
ROOT
ATOM      1  C   UNL     1      10.853   5.595  -2.209  1.00  0.00     0.000 C 
ENDROOT
BRANCH   1   2
ATOM      2  C   UNL     1       9.486   5.141  -2.737  1.00  0.00     0.000 C 
BRANCH   2   3
ATOM      3  C   UNL     1       9.527   3.670  -3.175  1.00  0.00     0.000 C 
BRANCH   3   4
ATOM      4  C   UNL     1      10.945   3.191  -3.537  1.00  0.00     0.000 C 
BRANCH   4   5
ATOM      5  C   UNL     1      11.356   1.842  -2.912  1.00  0.00     0.000 C 
BRANCH   5   6
ATOM      6  C   UNL     1      12.266   1.944  -1.674  1.00  0.00     0.000 C 
BRANCH   6   7
ATOM      7  C   UNL     1      11.544   1.839  -0.316  1.00  0.00     0.000 C 
BRANCH   7   8
ATOM      8  C   UNL     1      10.109   2.406  -0.321  1.00  0.00     0.000 C 
BRANCH   8   9
ATOM      9  C   UNL     1       9.730   3.080   1.010  1.00  0.00     0.000 C 
BRANCH   9  10
ATOM     10  C   UNL     1       8.388   3.831   0.942  1.00  0.00     0.000 C 
BRANCH  10  11
ATOM     11  C   UNL     1       8.489   5.315   0.538  1.00  0.00     0.000 C 
BRANCH  11  12
ATOM     12  C   UNL     1       9.315   6.201   1.492  1.00  0.00     0.006 C 
BRANCH  12  13
ATOM     13  C   UNL     1       8.588   6.585   2.790  1.00  0.00     0.053 C 
BRANCH  13  14
ATOM     14  C   UNL     1       8.340   8.059   2.890  1.00  0.00     0.041 C 
ATOM     15  O   UNL     1       8.712   8.831   1.968  1.00  0.00    -0.550 OA
ATOM     16  O   UNL     1       7.670   8.577   3.991  1.00  0.00    -0.550 OA
ENDBRANCH  13  14
ENDBRANCH  12  13
ENDBRANCH  11  12
ENDBRANCH  10  11
ENDBRANCH   9  10
ENDBRANCH   8   9
ENDBRANCH   7   8
ENDBRANCH   6   7
ENDBRANCH   5   6
ENDBRANCH   4   5
ENDBRANCH   3   4
ENDBRANCH   2   3
ENDBRANCH   1   2
BRANCH   1  17
ATOM     17  C   UNL     1      10.807   7.061  -1.749  1.00  0.00     0.000 C 
BRANCH  17  18
ATOM     18  C   UNL     1      10.414   8.028  -2.879  1.00  0.00     0.000 C 
BRANCH  18  19
ATOM     19  C   UNL     1      11.588   8.545  -3.734  1.00  0.00     0.000 C 
BRANCH  19  20
ATOM     20  C   UNL     1      11.703   7.920  -5.140  1.00  0.00     0.000 C 
BRANCH  20  21
ATOM     21  C   UNL     1      10.364   7.536  -5.795  1.00  0.00     0.000 C 
BRANCH  21  22
ATOM     22  C   UNL     1      10.212   6.017  -5.988  1.00  0.00    -0.000 C 
BRANCH  22  23
ATOM     23  C   UNL     1       8.743   5.571  -6.122  1.00  0.00    -0.000 C 
BRANCH  23  24
ATOM     24  C   UNL     1       7.707   6.710  -6.110  1.00  0.00    -0.000 C 
BRANCH  24  25
ATOM     25  C   UNL     1       6.282   6.220  -5.798  1.00  0.00    -0.000 C 
BRANCH  25  26
ATOM     26  C   UNL     1       5.875   6.458  -4.335  1.00  0.00    -0.000 C 
BRANCH  26  27
ATOM     27  C   UNL     1       6.786   7.480  -3.630  1.00  0.00    -0.000 C 
BRANCH  27  28
ATOM     28  C   UNL     1       6.962   7.190  -2.128  1.00  0.00    -0.000 C 
BRANCH  28  29
ATOM     29  C   UNL     1       7.220   8.430  -1.252  1.00  0.00    -0.003 C 
ATOM     30  C   UNL     1       5.952   8.970  -0.590  1.00  0.00     0.004 C 
ENDBRANCH  28  29
ENDBRANCH  27  28
ENDBRANCH  26  27
ENDBRANCH  25  26
ENDBRANCH  24  25
ENDBRANCH  23  24
ENDBRANCH  22  23
ENDBRANCH  21  22
ENDBRANCH  20  21
ENDBRANCH  19  20
ENDBRANCH  18  19
ENDBRANCH  17  18
ENDBRANCH   1  17
TORSDOF 26
ENDMDL
MODEL 9
REMARK VINA RESULT:    -2.937      2.975      6.565
REMARK INTER + INTRA:         -11.627
REMARK INTER:                  -6.941
REMARK INTRA:                  -4.686
REMARK UNBOUND:                -4.226
REMARK SMILES CCCCCCCCCCCCCCCCCCCCCCCCCCCC(=O)[O-]
REMARK SMILES IDX 15 1 16 2 17 3 18 4 19 5 20 6 21 7 22 8 23 9 24 10 25 11
REMARK SMILES IDX 26 12 27 13 28 14 29 15 30 16 14 17 13 18 12 19 11 20 10 21
REMARK SMILES IDX 9 22 8 23 7 24 6 25 5 26 4 27 3 28 2 29 1 30
REMARK H PARENT
REMARK Flexibility Score: inf
ROOT
ATOM      1  C   UNL     1       9.965   6.993   2.830  1.00  0.00     0.000 C 
ENDROOT
BRANCH   1   2
ATOM      2  C   UNL     1       8.530   6.507   3.067  1.00  0.00     0.000 C 
BRANCH   2   3
ATOM      3  C   UNL     1       7.516   7.624   2.780  1.00  0.00     0.000 C 
BRANCH   3   4
ATOM      4  C   UNL     1       6.553   7.278   1.630  1.00  0.00     0.000 C 
BRANCH   4   5
ATOM      5  C   UNL     1       6.459   5.777   1.287  1.00  0.00     0.000 C 
BRANCH   5   6
ATOM      6  C   UNL     1       6.809   5.413  -0.167  1.00  0.00     0.000 C 
BRANCH   6   7
ATOM      7  C   UNL     1       8.233   4.863  -0.384  1.00  0.00     0.000 C 
BRANCH   7   8
ATOM      8  C   UNL     1       8.524   3.552   0.376  1.00  0.00     0.000 C 
BRANCH   8   9
ATOM      9  C   UNL     1       9.990   3.440   0.830  1.00  0.00     0.000 C 
BRANCH   9  10
ATOM     10  C   UNL     1      10.692   2.182   0.286  1.00  0.00     0.000 C 
BRANCH  10  11
ATOM     11  C   UNL     1      11.460   2.382  -1.035  1.00  0.00     0.000 C 
BRANCH  11  12
ATOM     12  C   UNL     1      10.580   2.497  -2.296  1.00  0.00     0.006 C 
BRANCH  12  13
ATOM     13  C   UNL     1      10.629   1.268  -3.218  1.00  0.00     0.053 C 
BRANCH  13  14
ATOM     14  C   UNL     1      11.400   1.530  -4.475  1.00  0.00     0.041 C 
ATOM     15  O   UNL     1      11.760   2.700  -4.770  1.00  0.00    -0.550 OA
ATOM     16  O   UNL     1      11.748   0.475  -5.309  1.00  0.00    -0.550 OA
ENDBRANCH  13  14
ENDBRANCH  12  13
ENDBRANCH  11  12
ENDBRANCH  10  11
ENDBRANCH   9  10
ENDBRANCH   8   9
ENDBRANCH   7   8
ENDBRANCH   6   7
ENDBRANCH   5   6
ENDBRANCH   4   5
ENDBRANCH   3   4
ENDBRANCH   2   3
ENDBRANCH   1   2
BRANCH   1  17
ATOM     17  C   UNL     1      10.330   6.931   1.339  1.00  0.00     0.000 C 
BRANCH  17  18
ATOM     18  C   UNL     1       9.958   8.217   0.580  1.00  0.00     0.000 C 
BRANCH  18  19
ATOM     19  C   UNL     1       9.707   8.036  -0.929  1.00  0.00     0.000 C 
BRANCH  19  20
ATOM     20  C   UNL     1       8.520   8.839  -1.500  1.00  0.00     0.000 C 
BRANCH  20  21
ATOM     21  C   UNL     1       8.455   8.908  -3.036  1.00  0.00     0.000 C 
BRANCH  21  22
ATOM     22  C   UNL     1       9.848   8.962  -3.687  1.00  0.00    -0.000 C 
BRANCH  22  23
ATOM     23  C   UNL     1       9.794   8.964  -5.226  1.00  0.00    -0.000 C 
BRANCH  23  24
ATOM     24  C   UNL     1       9.702   7.573  -5.881  1.00  0.00    -0.000 C 
BRANCH  24  25
ATOM     25  C   UNL     1      10.349   6.466  -5.031  1.00  0.00    -0.000 C 
BRANCH  25  26
ATOM     26  C   UNL     1       9.483   5.198  -4.941  1.00  0.00    -0.000 C 
BRANCH  26  27
ATOM     27  C   UNL     1       8.580   5.191  -3.694  1.00  0.00    -0.000 C 
BRANCH  27  28
ATOM     28  C   UNL     1       7.133   4.766  -4.005  1.00  0.00    -0.000 C 
BRANCH  28  29
ATOM     29  C   UNL     1       6.080   5.878  -3.841  1.00  0.00    -0.003 C 
ATOM     30  C   UNL     1       6.184   6.966  -4.910  1.00  0.00     0.004 C 
ENDBRANCH  28  29
ENDBRANCH  27  28
ENDBRANCH  26  27
ENDBRANCH  25  26
ENDBRANCH  24  25
ENDBRANCH  23  24
ENDBRANCH  22  23
ENDBRANCH  21  22
ENDBRANCH  20  21
ENDBRANCH  19  20
ENDBRANCH  18  19
ENDBRANCH  17  18
ENDBRANCH   1  17
TORSDOF 26
ENDMDL
