MODEL 1
REMARK VINA RESULT:    -3.399      0.000      0.000
REMARK INTER + INTRA:          -7.067
REMARK INTER:                  -5.784
REMARK INTRA:                  -1.283
REMARK UNBOUND:                -1.283
REMARK SMILES CCCCCCCCCCCCCC(=O)[O-]
REMARK SMILES IDX 8 1 9 2 10 3 11 4 12 5 13 6 14 7 15 8 16 9 7 10 6 11 5 12
REMARK SMILES IDX 4 13 3 14 2 15 1 16
REMARK H PARENT
REMARK Flexibility Score: inf
ROOT
ATOM      1  C   UNL     1      64.084  44.944  15.920  1.00  0.00     0.000 C 
ENDROOT
BRANCH   1   2
ATOM      2  C   UNL     1      62.939  45.509  16.782  1.00  0.00     0.000 C 
BRANCH   2   3
ATOM      3  C   UNL     1      61.613  44.724  16.710  1.00  0.00     0.000 C 
BRANCH   3   4
ATOM      4  C   UNL     1      60.412  45.400  17.400  1.00  0.00     0.000 C 
BRANCH   4   5
ATOM      5  C   UNL     1      59.044  44.768  17.086  1.00  0.00     0.006 C 
BRANCH   5   6
ATOM      6  C   UNL     1      58.006  45.798  16.621  1.00  0.00     0.053 C 
BRANCH   6   7
ATOM      7  C   UNL     1      57.230  45.269  15.457  1.00  0.00     0.041 C 
ATOM      8  O   UNL     1      56.973  44.039  15.374  1.00  0.00    -0.550 OA
ATOM      9  O   UNL     1      56.747  46.140  14.489  1.00  0.00    -0.550 OA
ENDBRANCH   6   7
ENDBRANCH   5   6
ENDBRANCH   4   5
ENDBRANCH   3   4
ENDBRANCH   2   3
ENDBRANCH   1   2
BRANCH   1  10
ATOM     10  C   UNL     1      63.587  43.991  14.820  1.00  0.00     0.000 C 
BRANCH  10  11
ATOM     11  C   UNL     1      64.205  42.583  14.919  1.00  0.00    -0.000 C 
BRANCH  11  12
ATOM     12  C   UNL     1      64.813  42.221  16.288  1.00  0.00    -0.000 C 
BRANCH  12  13
ATOM     13  C   UNL     1      63.933  41.256  17.101  1.00  0.00    -0.000 C 
BRANCH  13  14
ATOM     14  C   UNL     1      63.194  41.950  18.259  1.00  0.00    -0.000 C 
BRANCH  14  15
ATOM     15  C   UNL     1      62.007  41.161  18.842  1.00  0.00    -0.003 C 
ATOM     16  C   UNL     1      60.840  42.056  19.259  1.00  0.00     0.004 C 
ENDBRANCH  14  15
ENDBRANCH  13  14
ENDBRANCH  12  13
ENDBRANCH  11  12
ENDBRANCH  10  11
ENDBRANCH   1  10
TORSDOF 12
ENDMDL
MODEL 2
REMARK VINA RESULT:    -3.290     11.164     14.535
REMARK INTER + INTRA:          -6.880
REMARK INTER:                  -5.231
REMARK INTRA:                  -1.649
REMARK UNBOUND:                -1.283
REMARK SMILES CCCCCCCCCCCCCC(=O)[O-]
REMARK SMILES IDX 8 1 9 2 10 3 11 4 12 5 13 6 14 7 15 8 16 9 7 10 6 11 5 12
REMARK SMILES IDX 4 13 3 14 2 15 1 16
REMARK H PARENT
REMARK Flexibility Score: inf
ROOT
ATOM      1  C   UNL     1      46.204  43.410  14.476  1.00  0.00     0.000 C 
ENDROOT
BRANCH   1   2
ATOM      2  C   UNL     1      47.449  42.560  14.792  1.00  0.00     0.000 C 
BRANCH   2   3
ATOM      3  C   UNL     1      48.678  43.352  15.282  1.00  0.00     0.000 C 
BRANCH   3   4
ATOM      4  C   UNL     1      48.742  44.820  14.817  1.00  0.00     0.000 C 
BRANCH   4   5
ATOM      5  C   UNL     1      50.141  45.308  14.400  1.00  0.00     0.006 C 
BRANCH   5   6
ATOM      6  C   UNL     1      50.262  46.837  14.402  1.00  0.00     0.053 C 
BRANCH   6   7
ATOM      7  C   UNL     1      51.535  47.261  13.740  1.00  0.00     0.041 C 
ATOM      8  O   UNL     1      51.658  47.176  12.490  1.00  0.00    -0.550 OA
ATOM      9  O   UNL     1      52.568  47.796  14.499  1.00  0.00    -0.550 OA
ENDBRANCH   6   7
ENDBRANCH   5   6
ENDBRANCH   4   5
ENDBRANCH   3   4
ENDBRANCH   2   3
ENDBRANCH   1   2
BRANCH   1  10
ATOM     10  C   UNL     1      44.970  42.986  15.290  1.00  0.00     0.000 C 
BRANCH  10  11
ATOM     11  C   UNL     1      45.277  41.881  16.318  1.00  0.00    -0.000 C 
BRANCH  11  12
ATOM     12  C   UNL     1      45.391  42.349  17.781  1.00  0.00    -0.000 C 
BRANCH  12  13
ATOM     13  C   UNL     1      45.291  43.877  17.933  1.00  0.00    -0.000 C 
BRANCH  13  14
ATOM     14  C   UNL     1      46.645  44.537  18.253  1.00  0.00    -0.000 C 
BRANCH  14  15
ATOM     15  C   UNL     1      46.797  45.987  17.760  1.00  0.00    -0.003 C 
ATOM     16  C   UNL     1      45.816  46.347  16.645  1.00  0.00     0.004 C 
ENDBRANCH  14  15
ENDBRANCH  13  14
ENDBRANCH  12  13
ENDBRANCH  11  12
ENDBRANCH  10  11
ENDBRANCH   1  10
TORSDOF 12
ENDMDL
MODEL 3
REMARK VINA RESULT:    -3.253     10.642     13.312
REMARK INTER + INTRA:          -6.817
REMARK INTER:                  -5.133
REMARK INTRA:                  -1.685
REMARK UNBOUND:                -1.283
REMARK SMILES CCCCCCCCCCCCCC(=O)[O-]
REMARK SMILES IDX 8 1 9 2 10 3 11 4 12 5 13 6 14 7 15 8 16 9 7 10 6 11 5 12
REMARK SMILES IDX 4 13 3 14 2 15 1 16
REMARK H PARENT
REMARK Flexibility Score: inf
ROOT
ATOM      1  C   UNL     1      49.751  48.574  15.452  1.00  0.00     0.000 C 
ENDROOT
BRANCH   1   2
ATOM      2  C   UNL     1      49.298  47.440  14.514  1.00  0.00     0.000 C 
BRANCH   2   3
ATOM      3  C   UNL     1      50.167  46.166  14.556  1.00  0.00     0.000 C 
BRANCH   3   4
ATOM      4  C   UNL     1      49.396  44.852  14.790  1.00  0.00     0.000 C 
BRANCH   4   5
ATOM      5  C   UNL     1      47.866  45.004  14.875  1.00  0.00     0.006 C 
BRANCH   5   6
ATOM      6  C   UNL     1      47.333  44.863  16.306  1.00  0.00     0.053 C 
BRANCH   6   7
ATOM      7  C   UNL     1      46.515  46.059  16.678  1.00  0.00     0.041 C 
ATOM      8  O   UNL     1      45.291  46.106  16.384  1.00  0.00    -0.550 OA
ATOM      9  O   UNL     1      47.091  47.100  17.394  1.00  0.00    -0.550 OA
ENDBRANCH   6   7
ENDBRANCH   5   6
ENDBRANCH   4   5
ENDBRANCH   3   4
ENDBRANCH   2   3
ENDBRANCH   1   2
BRANCH   1  10
ATOM     10  C   UNL     1      49.764  49.949  14.762  1.00  0.00     0.000 C 
BRANCH  10  11
ATOM     11  C   UNL     1      49.082  49.936  13.381  1.00  0.00    -0.000 C 
BRANCH  11  12
ATOM     12  C   UNL     1      50.022  50.124  12.175  1.00  0.00    -0.000 C 
BRANCH  12  13
ATOM     13  C   UNL     1      51.501  49.882  12.523  1.00  0.00    -0.000 C 
BRANCH  13  14
ATOM     14  C   UNL     1      51.989  48.478  12.120  1.00  0.00    -0.000 C 
BRANCH  14  15
ATOM     15  C   UNL     1      53.095  47.890  13.016  1.00  0.00    -0.003 C 
ATOM     16  C   UNL     1      53.284  48.664  14.320  1.00  0.00     0.004 C 
ENDBRANCH  14  15
ENDBRANCH  13  14
ENDBRANCH  12  13
ENDBRANCH  11  12
ENDBRANCH  10  11
ENDBRANCH   1  10
TORSDOF 12
ENDMDL
MODEL 4
REMARK VINA RESULT:    -3.232     11.657     14.106
REMARK INTER + INTRA:          -6.782
REMARK INTER:                  -6.051
REMARK INTRA:                  -0.732
REMARK UNBOUND:                -1.283
REMARK SMILES CCCCCCCCCCCCCC(=O)[O-]
REMARK SMILES IDX 8 1 9 2 10 3 11 4 12 5 13 6 14 7 15 8 16 9 7 10 6 11 5 12
REMARK SMILES IDX 4 13 3 14 2 15 1 16
REMARK H PARENT
REMARK Flexibility Score: inf
ROOT
ATOM      1  C   UNL     1      48.632  43.122  15.712  1.00  0.00     0.000 C 
ENDROOT
BRANCH   1   2
ATOM      2  C   UNL     1      49.859  44.046  15.605  1.00  0.00     0.000 C 
BRANCH   2   3
ATOM      3  C   UNL     1      49.811  45.073  14.456  1.00  0.00     0.000 C 
BRANCH   3   4
ATOM      4  C   UNL     1      50.640  46.353  14.683  1.00  0.00     0.000 C 
BRANCH   4   5
ATOM      5  C   UNL     1      51.140  47.039  13.399  1.00  0.00     0.006 C 
BRANCH   5   6
ATOM      6  C   UNL     1      51.270  48.559  13.550  1.00  0.00     0.053 C 
BRANCH   6   7
ATOM      7  C   UNL     1      50.137  49.251  12.860  1.00  0.00     0.041 C 
ATOM      8  O   UNL     1      50.230  49.561  11.643  1.00  0.00    -0.550 OA
ATOM      9  O   UNL     1      48.958  49.509  13.547  1.00  0.00    -0.550 OA
ENDBRANCH   6   7
ENDBRANCH   5   6
ENDBRANCH   4   5
ENDBRANCH   3   4
ENDBRANCH   2   3
ENDBRANCH   1   2
BRANCH   1  10
ATOM     10  C   UNL     1      47.800  43.084  14.419  1.00  0.00     0.000 C 
BRANCH  10  11
ATOM     11  C   UNL     1      46.780  41.930  14.393  1.00  0.00    -0.000 C 
BRANCH  11  12
ATOM     12  C   UNL     1      45.437  42.216  15.092  1.00  0.00    -0.000 C 
BRANCH  12  13
ATOM     13  C   UNL     1      45.273  41.452  16.417  1.00  0.00    -0.000 C 
BRANCH  13  14
ATOM     14  C   UNL     1      46.120  40.167  16.476  1.00  0.00    -0.000 C 
BRANCH  14  15
ATOM     15  C   UNL     1      45.357  38.867  16.163  1.00  0.00    -0.003 C 
ATOM     16  C   UNL     1      45.408  38.483  14.684  1.00  0.00     0.004 C 
ENDBRANCH  14  15
ENDBRANCH  13  14
ENDBRANCH  12  13
ENDBRANCH  11  12
ENDBRANCH  10  11
ENDBRANCH   1  10
TORSDOF 12
ENDMDL
MODEL 5
REMARK VINA RESULT:    -3.219      9.957     13.162
REMARK INTER + INTRA:          -6.760
REMARK INTER:                  -5.510
REMARK INTRA:                  -1.250
REMARK UNBOUND:                -1.283
REMARK SMILES CCCCCCCCCCCCCC(=O)[O-]
REMARK SMILES IDX 8 1 9 2 10 3 11 4 12 5 13 6 14 7 15 8 16 9 7 10 6 11 5 12
REMARK SMILES IDX 4 13 3 14 2 15 1 16
REMARK H PARENT
REMARK Flexibility Score: inf
ROOT
ATOM      1  C   UNL     1      49.384  48.223  15.667  1.00  0.00     0.000 C 
ENDROOT
BRANCH   1   2
ATOM      2  C   UNL     1      49.717  49.515  14.897  1.00  0.00     0.000 C 
BRANCH   2   3
ATOM      3  C   UNL     1      49.129  49.603  13.474  1.00  0.00     0.000 C 
BRANCH   3   4
ATOM      4  C   UNL     1      50.165  49.605  12.334  1.00  0.00     0.000 C 
BRANCH   4   5
ATOM      5  C   UNL     1      51.632  49.496  12.789  1.00  0.00     0.006 C 
BRANCH   5   6
ATOM      6  C   UNL     1      52.219  48.096  12.569  1.00  0.00     0.053 C 
BRANCH   6   7
ATOM      7  C   UNL     1      53.237  47.787  13.622  1.00  0.00     0.041 C 
ATOM      8  O   UNL     1      52.897  47.721  14.832  1.00  0.00    -0.550 OA
ATOM      9  O   UNL     1      54.551  47.521  13.261  1.00  0.00    -0.550 OA
ENDBRANCH   6   7
ENDBRANCH   5   6
ENDBRANCH   4   5
ENDBRANCH   3   4
ENDBRANCH   2   3
ENDBRANCH   1   2
BRANCH   1  10
ATOM     10  C   UNL     1      48.850  47.106  14.755  1.00  0.00     0.000 C 
BRANCH  10  11
ATOM     11  C   UNL     1      49.880  45.988  14.506  1.00  0.00    -0.000 C 
BRANCH  11  12
ATOM     12  C   UNL     1      49.358  44.551  14.695  1.00  0.00    -0.000 C 
BRANCH  12  13
ATOM     13  C   UNL     1      47.979  44.497  15.375  1.00  0.00    -0.000 C 
BRANCH  13  14
ATOM     14  C   UNL     1      46.953  43.663  14.585  1.00  0.00    -0.000 C 
BRANCH  14  15
ATOM     15  C   UNL     1      45.528  43.658  15.168  1.00  0.00    -0.003 C 
ATOM     16  C   UNL     1      45.150  44.979  15.838  1.00  0.00     0.004 C 
ENDBRANCH  14  15
ENDBRANCH  13  14
ENDBRANCH  12  13
ENDBRANCH  11  12
ENDBRANCH  10  11
ENDBRANCH   1  10
TORSDOF 12
ENDMDL
MODEL 6
REMARK VINA RESULT:    -3.213     10.573     12.751
REMARK INTER + INTRA:          -6.750
REMARK INTER:                  -4.797
REMARK INTRA:                  -1.953
REMARK UNBOUND:                -1.283
REMARK SMILES CCCCCCCCCCCCCC(=O)[O-]
REMARK SMILES IDX 8 1 9 2 10 3 11 4 12 5 13 6 14 7 15 8 16 9 7 10 6 11 5 12
REMARK SMILES IDX 4 13 3 14 2 15 1 16
REMARK H PARENT
REMARK Flexibility Score: inf
ROOT
ATOM      1  C   UNL     1      50.861  47.078  17.037  1.00  0.00     0.000 C 
ENDROOT
BRANCH   1   2
ATOM      2  C   UNL     1      51.897  46.276  16.228  1.00  0.00     0.000 C 
BRANCH   2   3
ATOM      3  C   UNL     1      51.381  44.954  15.625  1.00  0.00     0.000 C 
BRANCH   3   4
ATOM      4  C   UNL     1      50.255  45.103  14.582  1.00  0.00     0.000 C 
BRANCH   4   5
ATOM      5  C   UNL     1      48.953  44.357  14.922  1.00  0.00     0.006 C 
BRANCH   5   6
ATOM      6  C   UNL     1      47.785  45.305  15.221  1.00  0.00     0.053 C 
BRANCH   6   7
ATOM      7  C   UNL     1      46.514  44.533  15.382  1.00  0.00     0.041 C 
ATOM      8  O   UNL     1      45.774  44.731  16.381  1.00  0.00    -0.550 OA
ATOM      9  O   UNL     1      46.120  43.631  14.401  1.00  0.00    -0.550 OA
ENDBRANCH   6   7
ENDBRANCH   5   6
ENDBRANCH   4   5
ENDBRANCH   3   4
ENDBRANCH   2   3
ENDBRANCH   1   2
BRANCH   1  10
ATOM     10  C   UNL     1      51.158  48.587  17.057  1.00  0.00     0.000 C 
BRANCH  10  11
ATOM     11  C   UNL     1      50.691  49.310  15.780  1.00  0.00    -0.000 C 
BRANCH  11  12
ATOM     12  C   UNL     1      49.406  48.755  15.136  1.00  0.00    -0.000 C 
BRANCH  12  13
ATOM     13  C   UNL     1      49.521  48.590  13.611  1.00  0.00    -0.000 C 
BRANCH  13  14
ATOM     14  C   UNL     1      50.920  48.940  13.073  1.00  0.00    -0.000 C 
BRANCH  14  15
ATOM     15  C   UNL     1      51.781  47.734  12.658  1.00  0.00    -0.003 C 
ATOM     16  C   UNL     1      53.239  47.857  13.099  1.00  0.00     0.004 C 
ENDBRANCH  14  15
ENDBRANCH  13  14
ENDBRANCH  12  13
ENDBRANCH  11  12
ENDBRANCH  10  11
ENDBRANCH   1  10
TORSDOF 12
ENDMDL
MODEL 7
REMARK VINA RESULT:    -3.196      9.006     12.262
REMARK INTER + INTRA:          -6.721
REMARK INTER:                  -5.469
REMARK INTRA:                  -1.252
REMARK UNBOUND:                -1.283
REMARK SMILES CCCCCCCCCCCCCC(=O)[O-]
REMARK SMILES IDX 8 1 9 2 10 3 11 4 12 5 13 6 14 7 15 8 16 9 7 10 6 11 5 12
REMARK SMILES IDX 4 13 3 14 2 15 1 16
REMARK H PARENT
REMARK Flexibility Score: inf
ROOT
ATOM      1  C   UNL     1      49.068  48.546  14.035  1.00  0.00     0.000 C 
ENDROOT
BRANCH   1   2
ATOM      2  C   UNL     1      49.389  49.914  13.405  1.00  0.00     0.000 C 
BRANCH   2   3
ATOM      3  C   UNL     1      50.158  49.859  12.069  1.00  0.00     0.000 C 
BRANCH   3   4
ATOM      4  C   UNL     1      51.274  48.798  11.997  1.00  0.00     0.000 C 
BRANCH   4   5
ATOM      5  C   UNL     1      52.521  49.109  12.843  1.00  0.00     0.006 C 
BRANCH   5   6
ATOM      6  C   UNL     1      53.172  47.850  13.428  1.00  0.00     0.053 C 
BRANCH   6   7
ATOM      7  C   UNL     1      54.661  47.997  13.458  1.00  0.00     0.041 C 
ATOM      8  O   UNL     1      55.183  49.141  13.533  1.00  0.00    -0.550 OA
ATOM      9  O   UNL     1      55.471  46.870  13.452  1.00  0.00    -0.550 OA
ENDBRANCH   6   7
ENDBRANCH   5   6
ENDBRANCH   4   5
ENDBRANCH   3   4
ENDBRANCH   2   3
ENDBRANCH   1   2
BRANCH   1  10
ATOM     10  C   UNL     1      49.732  48.352  15.409  1.00  0.00     0.000 C 
BRANCH  10  11
ATOM     11  C   UNL     1      50.204  46.906  15.650  1.00  0.00    -0.000 C 
BRANCH  11  12
ATOM     12  C   UNL     1      50.192  45.989  14.413  1.00  0.00    -0.000 C 
BRANCH  12  13
ATOM     13  C   UNL     1      49.888  44.520  14.756  1.00  0.00    -0.000 C 
BRANCH  13  14
ATOM     14  C   UNL     1      48.380  44.210  14.780  1.00  0.00    -0.000 C 
BRANCH  14  15
ATOM     15  C   UNL     1      48.015  42.781  15.221  1.00  0.00    -0.003 C 
ATOM     16  C   UNL     1      48.691  42.365  16.527  1.00  0.00     0.004 C 
ENDBRANCH  14  15
ENDBRANCH  13  14
ENDBRANCH  12  13
ENDBRANCH  11  12
ENDBRANCH  10  11
ENDBRANCH   1  10
TORSDOF 12
ENDMDL
MODEL 8
REMARK VINA RESULT:    -3.163      2.834      4.677
REMARK INTER + INTRA:          -6.664
REMARK INTER:                  -5.190
REMARK INTRA:                  -1.474
REMARK UNBOUND:                -1.283
REMARK SMILES CCCCCCCCCCCCCC(=O)[O-]
REMARK SMILES IDX 8 1 9 2 10 3 11 4 12 5 13 6 14 7 15 8 16 9 7 10 6 11 5 12
REMARK SMILES IDX 4 13 3 14 2 15 1 16
REMARK H PARENT
REMARK Flexibility Score: inf
ROOT
ATOM      1  C   UNL     1      63.948  40.781  16.939  1.00  0.00     0.000 C 
ENDROOT
BRANCH   1   2
ATOM      2  C   UNL     1      64.420  41.499  18.217  1.00  0.00     0.000 C 
BRANCH   2   3
ATOM      3  C   UNL     1      63.309  41.824  19.237  1.00  0.00     0.000 C 
BRANCH   3   4
ATOM      4  C   UNL     1      61.928  41.217  18.920  1.00  0.00     0.000 C 
BRANCH   4   5
ATOM      5  C   UNL     1      60.731  41.992  19.498  1.00  0.00     0.006 C 
BRANCH   5   6
ATOM      6  C   UNL     1      59.397  41.587  18.858  1.00  0.00     0.053 C 
BRANCH   6   7
ATOM      7  C   UNL     1      59.016  40.202  19.277  1.00  0.00     0.041 C 
ATOM      8  O   UNL     1      58.708  39.340  18.412  1.00  0.00    -0.550 OA
ATOM      9  O   UNL     1      59.050  39.848  20.620  1.00  0.00    -0.550 OA
ENDBRANCH   6   7
ENDBRANCH   5   6
ENDBRANCH   4   5
ENDBRANCH   3   4
ENDBRANCH   2   3
ENDBRANCH   1   2
BRANCH   1  10
ATOM     10  C   UNL     1      64.811  41.121  15.712  1.00  0.00     0.000 C 
BRANCH  10  11
ATOM     11  C   UNL     1      64.303  42.355  14.942  1.00  0.00    -0.000 C 
BRANCH  11  12
ATOM     12  C   UNL     1      64.970  43.692  15.320  1.00  0.00    -0.000 C 
BRANCH  12  13
ATOM     13  C   UNL     1      63.953  44.803  15.633  1.00  0.00    -0.000 C 
BRANCH  13  14
ATOM     14  C   UNL     1      62.623  44.260  16.188  1.00  0.00    -0.000 C 
BRANCH  14  15
ATOM     15  C   UNL     1      61.830  45.246  17.065  1.00  0.00    -0.003 C 
ATOM     16  C   UNL     1      60.371  44.837  17.258  1.00  0.00     0.004 C 
ENDBRANCH  14  15
ENDBRANCH  13  14
ENDBRANCH  12  13
ENDBRANCH  11  12
ENDBRANCH  10  11
ENDBRANCH   1  10
TORSDOF 12
ENDMDL
MODEL 9
REMARK VINA RESULT:    -3.135     10.640     13.798
REMARK INTER + INTRA:          -6.616
REMARK INTER:                  -5.160
REMARK INTRA:                  -1.457
REMARK UNBOUND:                -1.283
REMARK SMILES CCCCCCCCCCCCCC(=O)[O-]
REMARK SMILES IDX 8 1 9 2 10 3 11 4 12 5 13 6 14 7 15 8 16 9 7 10 6 11 5 12
REMARK SMILES IDX 4 13 3 14 2 15 1 16
REMARK H PARENT
REMARK Flexibility Score: inf
ROOT
ATOM      1  C   UNL     1      48.996  43.272  15.482  1.00  0.00     0.000 C 
ENDROOT
BRANCH   1   2
ATOM      2  C   UNL     1      49.464  44.707  15.788  1.00  0.00     0.000 C 
BRANCH   2   3
ATOM      3  C   UNL     1      48.563  45.826  15.229  1.00  0.00     0.000 C 
BRANCH   3   4
ATOM      4  C   UNL     1      49.293  46.912  14.414  1.00  0.00     0.000 C 
BRANCH   4   5
ATOM      5  C   UNL     1      50.667  46.494  13.859  1.00  0.00     0.006 C 
BRANCH   5   6
ATOM      6  C   UNL     1      51.793  47.446  14.280  1.00  0.00     0.053 C 
BRANCH   6   7
ATOM      7  C   UNL     1      52.598  47.861  13.090  1.00  0.00     0.041 C 
ATOM      8  O   UNL     1      53.853  47.762  13.108  1.00  0.00    -0.550 OA
ATOM      9  O   UNL     1      51.959  48.310  11.941  1.00  0.00    -0.550 OA
ENDBRANCH   6   7
ENDBRANCH   5   6
ENDBRANCH   4   5
ENDBRANCH   3   4
ENDBRANCH   2   3
ENDBRANCH   1   2
BRANCH   1  10
ATOM     10  C   UNL     1      47.780  43.230  14.541  1.00  0.00     0.000 C 
BRANCH  10  11
ATOM     11  C   UNL     1      46.957  41.934  14.678  1.00  0.00    -0.000 C 
BRANCH  11  12
ATOM     12  C   UNL     1      45.455  42.129  14.960  1.00  0.00    -0.000 C 
BRANCH  12  13
ATOM     13  C   UNL     1      45.158  42.458  16.433  1.00  0.00    -0.000 C 
BRANCH  13  14
ATOM     14  C   UNL     1      44.886  43.955  16.670  1.00  0.00    -0.000 C 
BRANCH  14  15
ATOM     15  C   UNL     1      45.862  44.651  17.636  1.00  0.00    -0.003 C 
ATOM     16  C   UNL     1      46.776  43.673  18.373  1.00  0.00     0.004 C 
ENDBRANCH  14  15
ENDBRANCH  13  14
ENDBRANCH  12  13
ENDBRANCH  11  12
ENDBRANCH  10  11
ENDBRANCH   1  10
TORSDOF 12
ENDMDL
