MODEL 1
REMARK VINA RESULT:    16.566      0.000      0.000
REMARK INTER + INTRA:          20.080
REMARK INTER:                  20.440
REMARK INTRA:                  -0.360
REMARK UNBOUND:                -0.360
REMARK SMILES COc1cc(-c2oc3cc(O)cc(O)c3c(=O)c2O)ccc1O
REMARK SMILES IDX 6 1 18 2 16 3 17 4 15 5 13 6 12 7 10 8 9 9 8 10 7 11 5 12
REMARK SMILES IDX 3 13 22 14 4 15 21 16 20 17 2 18 1 19 23 20 19 22 14 24
REMARK SMILES IDX 11 26
REMARK H PARENT 23 21 19 23 14 25 11 27
REMARK Flexibility Score: inf
ROOT
ATOM      1  C   UNL     1     -17.535   4.159  18.818  1.00  0.00     0.180 A 
ATOM      2  C   UNL     1     -17.396   5.541  19.031  1.00  0.00     0.208 A 
ATOM      3  C   UNL     1     -18.029   6.127  20.138  1.00  0.00     0.238 A 
ATOM      4  O   UNL     1     -17.962   7.376  20.280  1.00  0.00    -0.285 OA
ATOM      5  C   UNL     1     -18.746   5.316  21.052  1.00  0.00     0.111 A 
ATOM      6  C   UNL     1     -19.388   5.797  22.234  1.00  0.00     0.134 A 
ATOM      7  C   UNL     1     -20.159   4.918  23.006  1.00  0.00     0.093 A 
ATOM      8  C   UNL     1     -20.258   3.565  22.675  1.00  0.00     0.123 A 
ATOM      9  C   UNL     1     -19.590   3.075  21.556  1.00  0.00     0.094 A 
ATOM     10  C   UNL     1     -18.845   3.934  20.744  1.00  0.00     0.146 A 
ATOM     11  O   UNL     1     -18.241   3.429  19.674  1.00  0.00    -0.452 OA
ENDROOT
BRANCH   1  12
ATOM     12  C   UNL     1     -16.910   3.471  17.666  1.00  0.00     0.025 A 
ATOM     13  C   UNL     1     -17.102   2.579  15.396  1.00  0.00     0.161 A 
ATOM     14  C   UNL     1     -15.742   2.222  15.431  1.00  0.00     0.157 A 
ATOM     15  C   UNL     1     -17.676   3.211  16.518  1.00  0.00     0.062 A 
ATOM     16  C   UNL     1     -14.975   2.501  16.565  1.00  0.00     0.051 A 
ATOM     17  C   UNL     1     -15.549   3.126  17.672  1.00  0.00     0.016 A 
BRANCH  13  18
ATOM     18  O   UNL     1     -17.848   2.294  14.241  1.00  0.00    -0.493 OA
ATOM     19  C   UNL     1     -19.197   2.698  14.030  1.00  0.00     0.278 C 
ENDBRANCH  13  18
BRANCH  14  20
ATOM     20  O   UNL     1     -15.134   1.594  14.344  1.00  0.00    -0.504 OA
ATOM     21  H   UNL     1     -14.590   2.106  13.659  1.00  0.00     0.293 HD
ENDBRANCH  14  20
ENDBRANCH   1  12
BRANCH   2  22
ATOM     22  O   UNL     1     -16.621   6.311  18.160  1.00  0.00    -0.502 OA
ATOM     23  H   UNL     1     -15.627   6.158  18.036  1.00  0.00     0.293 HD
ENDBRANCH   2  22
BRANCH   6  24
ATOM     24  O   UNL     1     -19.284   7.109  22.704  1.00  0.00    -0.507 OA
ATOM     25  H   UNL     1     -18.424   7.555  22.985  1.00  0.00     0.293 HD
ENDBRANCH   6  24
BRANCH   8  26
ATOM     26  O   UNL     1     -21.012   2.695  23.460  1.00  0.00    -0.508 OA
ATOM     27  H   UNL     1     -20.625   1.829  23.815  1.00  0.00     0.293 HD
ENDBRANCH   8  26
TORSDOF 6
ENDMDL
MODEL 2
REMARK VINA RESULT:    16.648     10.717     14.776
REMARK INTER + INTRA:          20.182
REMARK INTER:                  19.688
REMARK INTRA:                   0.494
REMARK UNBOUND:                -0.360
REMARK SMILES COc1cc(-c2oc3cc(O)cc(O)c3c(=O)c2O)ccc1O
REMARK SMILES IDX 6 1 18 2 16 3 17 4 15 5 13 6 12 7 10 8 9 9 8 10 7 11 5 12
REMARK SMILES IDX 3 13 22 14 4 15 21 16 20 17 2 18 1 19 23 20 19 22 14 24
REMARK SMILES IDX 11 26
REMARK H PARENT 23 21 19 23 14 25 11 27
REMARK Flexibility Score: inf
ROOT
ATOM      1  C   UNL     1     -19.008  -7.156  12.131  1.00  0.00     0.180 A 
ATOM      2  C   UNL     1     -20.101  -7.697  12.831  1.00  0.00     0.208 A 
ATOM      3  C   UNL     1     -20.604  -8.949  12.444  1.00  0.00     0.238 A 
ATOM      4  O   UNL     1     -21.629  -9.393  13.025  1.00  0.00    -0.285 OA
ATOM      5  C   UNL     1     -19.975  -9.671  11.400  1.00  0.00     0.111 A 
ATOM      6  C   UNL     1     -20.373 -10.969  10.956  1.00  0.00     0.134 A 
ATOM      7  C   UNL     1     -19.742 -11.540   9.844  1.00  0.00     0.093 A 
ATOM      8  C   UNL     1     -18.687 -10.890   9.200  1.00  0.00     0.123 A 
ATOM      9  C   UNL     1     -18.255  -9.649   9.660  1.00  0.00     0.094 A 
ATOM     10  C   UNL     1     -18.889  -9.035  10.743  1.00  0.00     0.146 A 
ATOM     11  O   UNL     1     -18.459  -7.841  11.135  1.00  0.00    -0.452 OA
ENDROOT
BRANCH   1  12
ATOM     12  C   UNL     1     -18.430  -5.836  12.471  1.00  0.00     0.025 A 
ATOM     13  C   UNL     1     -18.740  -3.433  12.814  1.00  0.00     0.161 A 
ATOM     14  C   UNL     1     -17.385  -3.319  13.171  1.00  0.00     0.157 A 
ATOM     15  C   UNL     1     -19.257  -4.699  12.473  1.00  0.00     0.062 A 
ATOM     16  C   UNL     1     -16.568  -4.453  13.191  1.00  0.00     0.051 A 
ATOM     17  C   UNL     1     -17.085  -5.703  12.851  1.00  0.00     0.016 A 
BRANCH  13  18
ATOM     18  O   UNL     1     -19.540  -2.279  12.811  1.00  0.00    -0.493 OA
ATOM     19  C   UNL     1     -19.443  -1.225  13.763  1.00  0.00     0.278 C 
ENDBRANCH  13  18
BRANCH  14  20
ATOM     20  O   UNL     1     -16.832  -2.085  13.515  1.00  0.00    -0.504 OA
ATOM     21  H   UNL     1     -16.966  -1.256  12.949  1.00  0.00     0.293 HD
ENDBRANCH  14  20
ENDBRANCH   1  12
BRANCH   2  22
ATOM     22  O   UNL     1     -20.660  -7.003  13.907  1.00  0.00    -0.502 OA
ATOM     23  H   UNL     1     -21.616  -7.147  14.210  1.00  0.00     0.293 HD
ENDBRANCH   2  22
BRANCH   6  24
ATOM     24  O   UNL     1     -21.355 -11.744  11.580  1.00  0.00    -0.507 OA
ATOM     25  H   UNL     1     -21.399 -11.934  12.569  1.00  0.00     0.293 HD
ENDBRANCH   6  24
BRANCH   8  26
ATOM     26  O   UNL     1     -18.054 -11.474   8.105  1.00  0.00    -0.508 OA
ATOM     27  H   UNL     1     -18.126 -12.468   7.919  1.00  0.00     0.293 HD
ENDBRANCH   8  26
TORSDOF 6
ENDMDL
MODEL 3
REMARK VINA RESULT:    17.192      5.528      8.332
REMARK INTER + INTRA:          20.852
REMARK INTER:                  21.147
REMARK INTRA:                  -0.295
REMARK UNBOUND:                -0.360
REMARK SMILES COc1cc(-c2oc3cc(O)cc(O)c3c(=O)c2O)ccc1O
REMARK SMILES IDX 6 1 18 2 16 3 17 4 15 5 13 6 12 7 10 8 9 9 8 10 7 11 5 12
REMARK SMILES IDX 3 13 22 14 4 15 21 16 20 17 2 18 1 19 23 20 19 22 14 24
REMARK SMILES IDX 11 26
REMARK H PARENT 23 21 19 23 14 25 11 27
REMARK Flexibility Score: inf
ROOT
ATOM      1  C   UNL     1     -20.850   2.839  13.108  1.00  0.00     0.180 A 
ATOM      2  C   UNL     1     -20.260   3.955  13.725  1.00  0.00     0.208 A 
ATOM      3  C   UNL     1     -19.021   3.804  14.367  1.00  0.00     0.238 A 
ATOM      4  O   UNL     1     -18.536   4.789  14.982  1.00  0.00    -0.285 OA
ATOM      5  C   UNL     1     -18.358   2.552  14.334  1.00  0.00     0.111 A 
ATOM      6  C   UNL     1     -17.077   2.297  14.911  1.00  0.00     0.134 A 
ATOM      7  C   UNL     1     -16.567   0.993  14.909  1.00  0.00     0.093 A 
ATOM      8  C   UNL     1     -17.262  -0.052  14.296  1.00  0.00     0.123 A 
ATOM      9  C   UNL     1     -18.486   0.198  13.682  1.00  0.00     0.094 A 
ATOM     10  C   UNL     1     -19.039   1.481  13.700  1.00  0.00     0.146 A 
ATOM     11  O   UNL     1     -20.219   1.670  13.121  1.00  0.00    -0.452 OA
ENDROOT
BRANCH   1  12
ATOM     12  C   UNL     1     -22.160   2.916  12.424  1.00  0.00     0.025 A 
ATOM     13  C   UNL     1     -24.602   2.987  12.566  1.00  0.00     0.161 A 
ATOM     14  C   UNL     1     -24.670   3.124  11.168  1.00  0.00     0.157 A 
ATOM     15  C   UNL     1     -23.340   2.892  13.186  1.00  0.00     0.062 A 
ATOM     16  C   UNL     1     -23.495   3.170  10.411  1.00  0.00     0.051 A 
ATOM     17  C   UNL     1     -22.250   3.074  11.031  1.00  0.00     0.016 A 
BRANCH  13  18
ATOM     18  O   UNL     1     -25.797   2.952  13.302  1.00  0.00    -0.493 OA
ATOM     19  C   UNL     1     -26.565   4.098  13.651  1.00  0.00     0.278 C 
ENDBRANCH  13  18
BRANCH  14  20
ATOM     20  O   UNL     1     -25.897   3.220  10.512  1.00  0.00    -0.504 OA
ATOM     21  H   UNL     1     -26.187   4.062  10.030  1.00  0.00     0.293 HD
ENDBRANCH  14  20
ENDBRANCH   1  12
BRANCH   2  22
ATOM     22  O   UNL     1     -20.895   5.199  13.681  1.00  0.00    -0.502 OA
ATOM     23  H   UNL     1     -21.383   5.532  12.858  1.00  0.00     0.293 HD
ENDBRANCH   2  22
BRANCH   6  24
ATOM     24  O   UNL     1     -16.259   3.283  15.472  1.00  0.00    -0.507 OA
ATOM     25  H   UNL     1     -15.445   3.104  16.040  1.00  0.00     0.293 HD
ENDBRANCH   6  24
BRANCH   8  26
ATOM     26  O   UNL     1     -16.738  -1.343  14.284  1.00  0.00    -0.508 OA
ATOM     27  H   UNL     1     -17.289  -2.142  14.576  1.00  0.00     0.293 HD
ENDBRANCH   8  26
TORSDOF 6
ENDMDL
MODEL 4
REMARK VINA RESULT:    17.332     10.658     14.898
REMARK INTER + INTRA:          21.025
REMARK INTER:                  20.379
REMARK INTRA:                   0.646
REMARK UNBOUND:                -0.360
REMARK SMILES COc1cc(-c2oc3cc(O)cc(O)c3c(=O)c2O)ccc1O
REMARK SMILES IDX 6 1 18 2 16 3 17 4 15 5 13 6 12 7 10 8 9 9 8 10 7 11 5 12
REMARK SMILES IDX 3 13 22 14 4 15 21 16 20 17 2 18 1 19 23 20 19 22 14 24
REMARK SMILES IDX 11 26
REMARK H PARENT 23 21 19 23 14 25 11 27
REMARK Flexibility Score: inf
ROOT
ATOM      1  C   UNL     1     -19.220  -6.860  11.298  1.00  0.00     0.180 A 
ATOM      2  C   UNL     1     -18.202  -7.186  10.385  1.00  0.00     0.208 A 
ATOM      3  C   UNL     1     -18.132  -8.493   9.880  1.00  0.00     0.238 A 
ATOM      4  O   UNL     1     -17.174  -8.797   9.123  1.00  0.00    -0.285 OA
ATOM      5  C   UNL     1     -19.115  -9.445  10.248  1.00  0.00     0.111 A 
ATOM      6  C   UNL     1     -19.169 -10.786   9.761  1.00  0.00     0.134 A 
ATOM      7  C   UNL     1     -20.126 -11.669  10.277  1.00  0.00     0.093 A 
ATOM      8  C   UNL     1     -21.069 -11.243  11.215  1.00  0.00     0.123 A 
ATOM      9  C   UNL     1     -21.059  -9.922  11.655  1.00  0.00     0.094 A 
ATOM     10  C   UNL     1     -20.094  -9.027  11.187  1.00  0.00     0.146 A 
ATOM     11  O   UNL     1     -20.108  -7.782  11.650  1.00  0.00    -0.452 OA
ENDROOT
BRANCH   1  12
ATOM     12  C   UNL     1     -19.349  -5.507  11.885  1.00  0.00     0.025 A 
ATOM     13  C   UNL     1     -18.321  -3.613  13.043  1.00  0.00     0.161 A 
ATOM     14  C   UNL     1     -19.537  -2.912  12.957  1.00  0.00     0.157 A 
ATOM     15  C   UNL     1     -18.235  -4.909  12.496  1.00  0.00     0.062 A 
ATOM     16  C   UNL     1     -20.640  -3.498  12.329  1.00  0.00     0.051 A 
ATOM     17  C   UNL     1     -20.548  -4.782  11.790  1.00  0.00     0.016 A 
BRANCH  13  18
ATOM     18  O   UNL     1     -17.227  -2.997  13.671  1.00  0.00    -0.493 OA
ATOM     19  C   UNL     1     -16.981  -1.595  13.675  1.00  0.00     0.278 C 
ENDBRANCH  13  18
BRANCH  14  20
ATOM     20  O   UNL     1     -19.668  -1.627  13.485  1.00  0.00    -0.504 OA
ATOM     21  H   UNL     1     -20.314  -1.416  14.237  1.00  0.00     0.293 HD
ENDBRANCH  14  20
ENDBRANCH   1  12
BRANCH   2  22
ATOM     22  O   UNL     1     -17.287  -6.212   9.976  1.00  0.00    -0.502 OA
ATOM     23  H   UNL     1     -16.584  -5.830  10.598  1.00  0.00     0.293 HD
ENDBRANCH   2  22
BRANCH   6  24
ATOM     24  O   UNL     1     -18.332 -11.292   8.762  1.00  0.00    -0.507 OA
ATOM     25  H   UNL     1     -18.602 -11.978   8.075  1.00  0.00     0.293 HD
ENDBRANCH   6  24
BRANCH   8  26
ATOM     26  O   UNL     1     -22.028 -12.125  11.710  1.00  0.00    -0.508 OA
ATOM     27  H   UNL     1     -21.851 -13.120  11.771  1.00  0.00     0.293 HD
ENDBRANCH   8  26
TORSDOF 6
ENDMDL
MODEL 5
REMARK VINA RESULT:    17.939      1.673      7.203
REMARK INTER + INTRA:          21.774
REMARK INTER:                  22.008
REMARK INTRA:                  -0.234
REMARK UNBOUND:                -0.360
REMARK SMILES COc1cc(-c2oc3cc(O)cc(O)c3c(=O)c2O)ccc1O
REMARK SMILES IDX 6 1 18 2 16 3 17 4 15 5 13 6 12 7 10 8 9 9 8 10 7 11 5 12
REMARK SMILES IDX 3 13 22 14 4 15 21 16 20 17 2 18 1 19 23 20 19 22 14 24
REMARK SMILES IDX 11 26
REMARK H PARENT 23 21 19 23 14 25 11 27
REMARK Flexibility Score: inf
ROOT
ATOM      1  C   UNL     1     -17.076   4.138  17.561  1.00  0.00     0.180 A 
ATOM      2  C   UNL     1     -18.006   3.917  16.530  1.00  0.00     0.208 A 
ATOM      3  C   UNL     1     -17.712   2.969  15.538  1.00  0.00     0.238 A 
ATOM      4  O   UNL     1     -18.514   2.832  14.578  1.00  0.00    -0.285 OA
ATOM      5  C   UNL     1     -16.518   2.211  15.619  1.00  0.00     0.111 A 
ATOM      6  C   UNL     1     -16.140   1.191  14.694  1.00  0.00     0.134 A 
ATOM      7  C   UNL     1     -14.885   0.581  14.814  1.00  0.00     0.093 A 
ATOM      8  C   UNL     1     -14.022   0.908  15.862  1.00  0.00     0.123 A 
ATOM      9  C   UNL     1     -14.405   1.862  16.802  1.00  0.00     0.094 A 
ATOM     10  C   UNL     1     -15.634   2.516  16.687  1.00  0.00     0.146 A 
ATOM     11  O   UNL     1     -15.950   3.435  17.592  1.00  0.00    -0.452 OA
ENDROOT
BRANCH   1  12
ATOM     12  C   UNL     1     -17.309   5.130  18.635  1.00  0.00     0.025 A 
ATOM     13  C   UNL     1     -18.579   5.835  20.603  1.00  0.00     0.161 A 
ATOM     14  C   UNL     1     -17.744   6.960  20.727  1.00  0.00     0.157 A 
ATOM     15  C   UNL     1     -18.348   4.920  19.557  1.00  0.00     0.062 A 
ATOM     16  C   UNL     1     -16.697   7.158  19.823  1.00  0.00     0.051 A 
ATOM     17  C   UNL     1     -16.474   6.249  18.788  1.00  0.00     0.016 A 
BRANCH  13  18
ATOM     18  O   UNL     1     -19.618   5.657  21.530  1.00  0.00    -0.493 OA
ATOM     19  C   UNL     1     -19.825   4.474  22.294  1.00  0.00     0.278 C 
ENDBRANCH  13  18
BRANCH  14  20
ATOM     20  O   UNL     1     -17.937   7.892  21.747  1.00  0.00    -0.504 OA
ATOM     21  H   UNL     1     -18.029   7.619  22.718  1.00  0.00     0.293 HD
ENDBRANCH  14  20
ENDBRANCH   1  12
BRANCH   2  22
ATOM     22  O   UNL     1     -19.213   4.622  16.511  1.00  0.00    -0.502 OA
ATOM     23  H   UNL     1     -20.101   4.175  16.314  1.00  0.00     0.293 HD
ENDBRANCH   2  22
BRANCH   6  24
ATOM     24  O   UNL     1     -16.961   0.724  13.662  1.00  0.00    -0.507 OA
ATOM     25  H   UNL     1     -16.701   0.017  12.993  1.00  0.00     0.293 HD
ENDBRANCH   6  24
BRANCH   8  26
ATOM     26  O   UNL     1     -12.782   0.284  15.984  1.00  0.00    -0.508 OA
ATOM     27  H   UNL     1     -11.918   0.782  15.807  1.00  0.00     0.293 HD
ENDBRANCH   8  26
TORSDOF 6
ENDMDL
MODEL 6
REMARK VINA RESULT:    18.141     10.543     14.805
REMARK INTER + INTRA:          22.023
REMARK INTER:                  21.435
REMARK INTRA:                   0.588
REMARK UNBOUND:                -0.360
REMARK SMILES COc1cc(-c2oc3cc(O)cc(O)c3c(=O)c2O)ccc1O
REMARK SMILES IDX 6 1 18 2 16 3 17 4 15 5 13 6 12 7 10 8 9 9 8 10 7 11 5 12
REMARK SMILES IDX 3 13 22 14 4 15 21 16 20 17 2 18 1 19 23 20 19 22 14 24
REMARK SMILES IDX 11 26
REMARK H PARENT 23 21 19 23 14 25 11 27
REMARK Flexibility Score: inf
ROOT
ATOM      1  C   UNL     1     -19.753  -6.838  11.969  1.00  0.00     0.180 A 
ATOM      2  C   UNL     1     -20.491  -7.668  12.830  1.00  0.00     0.208 A 
ATOM      3  C   UNL     1     -20.609  -9.033  12.526  1.00  0.00     0.238 A 
ATOM      4  O   UNL     1     -21.334  -9.754  13.260  1.00  0.00    -0.285 OA
ATOM      5  C   UNL     1     -19.940  -9.564  11.396  1.00  0.00     0.111 A 
ATOM      6  C   UNL     1     -19.952 -10.941  11.018  1.00  0.00     0.134 A 
ATOM      7  C   UNL     1     -19.341 -11.333   9.820  1.00  0.00     0.093 A 
ATOM      8  C   UNL     1     -18.665 -10.409   9.019  1.00  0.00     0.123 A 
ATOM      9  C   UNL     1     -18.601  -9.074   9.408  1.00  0.00     0.094 A 
ATOM     10  C   UNL     1     -19.232  -8.645  10.578  1.00  0.00     0.146 A 
ATOM     11  O   UNL     1     -19.164  -7.358  10.899  1.00  0.00    -0.452 OA
ENDROOT
BRANCH   1  12
ATOM     12  C   UNL     1     -19.596  -5.386  12.216  1.00  0.00     0.025 A 
ATOM     13  C   UNL     1     -18.197  -3.523  12.963  1.00  0.00     0.161 A 
ATOM     14  C   UNL     1     -19.233  -2.628  12.640  1.00  0.00     0.157 A 
ATOM     15  C   UNL     1     -18.385  -4.902  12.740  1.00  0.00     0.062 A 
ATOM     16  C   UNL     1     -20.429  -3.109  12.098  1.00  0.00     0.051 A 
ATOM     17  C   UNL     1     -20.609  -4.475  11.880  1.00  0.00     0.016 A 
BRANCH  13  18
ATOM     18  O   UNL     1     -17.004  -3.013  13.499  1.00  0.00    -0.493 OA
ATOM     19  C   UNL     1     -16.687  -1.629  13.595  1.00  0.00     0.278 C 
ENDBRANCH  13  18
BRANCH  14  20
ATOM     20  O   UNL     1     -19.091  -1.256  12.846  1.00  0.00    -0.504 OA
ATOM     21  H   UNL     1     -19.806  -0.592  12.574  1.00  0.00     0.293 HD
ENDBRANCH  14  20
ENDBRANCH   1  12
BRANCH   2  22
ATOM     22  O   UNL     1     -21.081  -7.139  13.982  1.00  0.00    -0.502 OA
ATOM     23  H   UNL     1     -21.516  -6.224  13.999  1.00  0.00     0.293 HD
ENDBRANCH   2  22
BRANCH   6  24
ATOM     24  O   UNL     1     -20.522 -11.960  11.787  1.00  0.00    -0.507 OA
ATOM     25  H   UNL     1     -21.493 -12.230  11.759  1.00  0.00     0.293 HD
ENDBRANCH   6  24
BRANCH   8  26
ATOM     26  O   UNL     1     -18.046 -10.812   7.838  1.00  0.00    -0.508 OA
ATOM     27  H   UNL     1     -17.061 -10.644   7.672  1.00  0.00     0.293 HD
ENDBRANCH   8  26
TORSDOF 6
ENDMDL
MODEL 7
REMARK VINA RESULT:    18.210      0.801      2.016
REMARK INTER + INTRA:          22.109
REMARK INTER:                  22.398
REMARK INTRA:                  -0.289
REMARK UNBOUND:                -0.360
REMARK SMILES COc1cc(-c2oc3cc(O)cc(O)c3c(=O)c2O)ccc1O
REMARK SMILES IDX 6 1 18 2 16 3 17 4 15 5 13 6 12 7 10 8 9 9 8 10 7 11 5 12
REMARK SMILES IDX 3 13 22 14 4 15 21 16 20 17 2 18 1 19 23 20 19 22 14 24
REMARK SMILES IDX 11 26
REMARK H PARENT 23 21 19 23 14 25 11 27
REMARK Flexibility Score: inf
ROOT
ATOM      1  C   UNL     1     -17.578   4.132  18.737  1.00  0.00     0.180 A 
ATOM      2  C   UNL     1     -17.456   5.510  18.986  1.00  0.00     0.208 A 
ATOM      3  C   UNL     1     -18.095   6.060  20.108  1.00  0.00     0.238 A 
ATOM      4  O   UNL     1     -18.044   7.305  20.282  1.00  0.00    -0.285 OA
ATOM      5  C   UNL     1     -18.802   5.216  21.000  1.00  0.00     0.111 A 
ATOM      6  C   UNL     1     -19.450   5.659  22.194  1.00  0.00     0.134 A 
ATOM      7  C   UNL     1     -20.210   4.751  22.943  1.00  0.00     0.093 A 
ATOM      8  C   UNL     1     -20.292   3.406  22.578  1.00  0.00     0.123 A 
ATOM      9  C   UNL     1     -19.618   2.954  21.446  1.00  0.00     0.094 A 
ATOM     10  C   UNL     1     -18.884   3.842  20.657  1.00  0.00     0.146 A 
ATOM     11  O   UNL     1     -18.275   3.372  19.574  1.00  0.00    -0.452 OA
ENDROOT
BRANCH   1  12
ATOM     12  C   UNL     1     -16.945   3.482  17.568  1.00  0.00     0.025 A 
ATOM     13  C   UNL     1     -15.019   2.329  16.593  1.00  0.00     0.161 A 
ATOM     14  C   UNL     1     -15.728   2.185  15.387  1.00  0.00     0.157 A 
ATOM     15  C   UNL     1     -15.640   2.974  17.682  1.00  0.00     0.062 A 
ATOM     16  C   UNL     1     -17.034   2.671  15.281  1.00  0.00     0.051 A 
ATOM     17  C   UNL     1     -17.643   3.309  16.362  1.00  0.00     0.016 A 
BRANCH  13  18
ATOM     18  O   UNL     1     -13.712   1.824  16.676  1.00  0.00    -0.493 OA
ATOM     19  C   UNL     1     -13.384   0.444  16.789  1.00  0.00     0.278 C 
ENDBRANCH  13  18
BRANCH  14  20
ATOM     20  O   UNL     1     -15.152   1.554  14.284  1.00  0.00    -0.504 OA
ATOM     21  H   UNL     1     -14.149   1.506  14.152  1.00  0.00     0.293 HD
ENDBRANCH  14  20
ENDBRANCH   1  12
BRANCH   2  22
ATOM     22  O   UNL     1     -16.690   6.312  18.135  1.00  0.00    -0.502 OA
ATOM     23  H   UNL     1     -17.090   6.800  17.342  1.00  0.00     0.293 HD
ENDBRANCH   2  22
BRANCH   6  24
ATOM     24  O   UNL     1     -19.361   6.960  22.698  1.00  0.00    -0.507 OA
ATOM     25  H   UNL     1     -18.872   7.220  23.540  1.00  0.00     0.293 HD
ENDBRANCH   6  24
BRANCH   8  26
ATOM     26  O   UNL     1     -21.036   2.507  23.339  1.00  0.00    -0.508 OA
ATOM     27  H   UNL     1     -20.660   1.607  23.614  1.00  0.00     0.293 HD
ENDBRANCH   8  26
TORSDOF 6
ENDMDL
MODEL 8
REMARK VINA RESULT:    18.479      1.834      7.030
REMARK INTER + INTRA:          22.440
REMARK INTER:                  22.587
REMARK INTRA:                  -0.146
REMARK UNBOUND:                -0.360
REMARK SMILES COc1cc(-c2oc3cc(O)cc(O)c3c(=O)c2O)ccc1O
REMARK SMILES IDX 6 1 18 2 16 3 17 4 15 5 13 6 12 7 10 8 9 9 8 10 7 11 5 12
REMARK SMILES IDX 3 13 22 14 4 15 21 16 20 17 2 18 1 19 23 20 19 22 14 24
REMARK SMILES IDX 11 26
REMARK H PARENT 23 21 19 23 14 25 11 27
REMARK Flexibility Score: inf
ROOT
ATOM      1  C   UNL     1     -17.309   4.386  17.384  1.00  0.00     0.180 A 
ATOM      2  C   UNL     1     -16.301   3.435  17.151  1.00  0.00     0.208 A 
ATOM      3  C   UNL     1     -16.458   2.519  16.099  1.00  0.00     0.238 A 
ATOM      4  O   UNL     1     -15.587   1.623  15.943  1.00  0.00    -0.285 OA
ATOM      5  C   UNL     1     -17.594   2.601  15.257  1.00  0.00     0.111 A 
ATOM      6  C   UNL     1     -17.834   1.753  14.132  1.00  0.00     0.134 A 
ATOM      7  C   UNL     1     -19.044   1.857  13.436  1.00  0.00     0.093 A 
ATOM      8  C   UNL     1     -19.995   2.819  13.783  1.00  0.00     0.123 A 
ATOM      9  C   UNL     1     -19.746   3.687  14.843  1.00  0.00     0.094 A 
ATOM     10  C   UNL     1     -18.565   3.583  15.581  1.00  0.00     0.146 A 
ATOM     11  O   UNL     1     -18.378   4.417  16.598  1.00  0.00    -0.452 OA
ENDROOT
BRANCH   1  12
ATOM     12  C   UNL     1     -17.221   5.375  18.482  1.00  0.00     0.025 A 
ATOM     13  C   UNL     1     -18.142   6.304  20.550  1.00  0.00     0.161 A 
ATOM     14  C   UNL     1     -17.058   7.197  20.620  1.00  0.00     0.157 A 
ATOM     15  C   UNL     1     -18.211   5.390  19.479  1.00  0.00     0.062 A 
ATOM     16  C   UNL     1     -16.062   7.168  19.639  1.00  0.00     0.051 A 
ATOM     17  C   UNL     1     -16.137   6.261  18.582  1.00  0.00     0.016 A 
BRANCH  13  18
ATOM     18  O   UNL     1     -19.124   6.350  21.552  1.00  0.00    -0.493 OA
ATOM     19  C   UNL     1     -19.811   5.212  22.063  1.00  0.00     0.278 C 
ENDBRANCH  13  18
BRANCH  14  20
ATOM     20  O   UNL     1     -16.951   8.120  21.661  1.00  0.00    -0.504 OA
ATOM     21  H   UNL     1     -16.201   8.082  22.341  1.00  0.00     0.293 HD
ENDBRANCH  14  20
ENDBRANCH   1  12
BRANCH   2  22
ATOM     22  O   UNL     1     -15.151   3.420  17.946  1.00  0.00    -0.502 OA
ATOM     23  H   UNL     1     -15.013   4.066  18.714  1.00  0.00     0.293 HD
ENDBRANCH   2  22
BRANCH   6  24
ATOM     24  O   UNL     1     -16.915   0.818  13.646  1.00  0.00    -0.507 OA
ATOM     25  H   UNL     1     -15.970   0.710  13.978  1.00  0.00     0.293 HD
ENDBRANCH   6  24
BRANCH   8  26
ATOM     26  O   UNL     1     -21.189   2.927  13.073  1.00  0.00    -0.508 OA
ATOM     27  H   UNL     1     -22.088   2.812  13.526  1.00  0.00     0.293 HD
ENDBRANCH   8  26
TORSDOF 6
ENDMDL
MODEL 9
REMARK VINA RESULT:    19.030      5.426      8.268
REMARK INTER + INTRA:          23.120
REMARK INTER:                  23.499
REMARK INTRA:                  -0.379
REMARK UNBOUND:                -0.360
REMARK SMILES COc1cc(-c2oc3cc(O)cc(O)c3c(=O)c2O)ccc1O
REMARK SMILES IDX 6 1 18 2 16 3 17 4 15 5 13 6 12 7 10 8 9 9 8 10 7 11 5 12
REMARK SMILES IDX 3 13 22 14 4 15 21 16 20 17 2 18 1 19 23 20 19 22 14 24
REMARK SMILES IDX 11 26
REMARK H PARENT 23 21 19 23 14 25 11 27
REMARK Flexibility Score: inf
ROOT
ATOM      1  C   UNL     1     -20.657   2.705  13.315  1.00  0.00     0.180 A 
ATOM      2  C   UNL     1     -20.028   3.740  14.028  1.00  0.00     0.208 A 
ATOM      3  C   UNL     1     -18.762   3.509  14.589  1.00  0.00     0.238 A 
ATOM      4  O   UNL     1     -18.238   4.414  15.289  1.00  0.00    -0.285 OA
ATOM      5  C   UNL     1     -18.115   2.266  14.381  1.00  0.00     0.111 A 
ATOM      6  C   UNL     1     -16.811   1.939  14.864  1.00  0.00     0.134 A 
ATOM      7  C   UNL     1     -16.316   0.641  14.688  1.00  0.00     0.093 A 
ATOM      8  C   UNL     1     -17.049  -0.323  13.992  1.00  0.00     0.123 A 
ATOM      9  C   UNL     1     -18.298   0.003  13.470  1.00  0.00     0.094 A 
ATOM     10  C   UNL     1     -18.836   1.278  13.661  1.00  0.00     0.146 A 
ATOM     11  O   UNL     1     -20.039   1.539  13.164  1.00  0.00    -0.452 OA
ENDROOT
BRANCH   1  12
ATOM     12  C   UNL     1     -21.998   2.867  12.707  1.00  0.00     0.025 A 
ATOM     13  C   UNL     1     -23.369   3.254  10.718  1.00  0.00     0.161 A 
ATOM     14  C   UNL     1     -24.528   3.120  11.502  1.00  0.00     0.157 A 
ATOM     15  C   UNL     1     -22.106   3.118  11.329  1.00  0.00     0.062 A 
ATOM     16  C   UNL     1     -24.421   2.849  12.870  1.00  0.00     0.051 A 
ATOM     17  C   UNL     1     -23.168   2.716  13.469  1.00  0.00     0.016 A 
BRANCH  13  18
ATOM     18  O   UNL     1     -23.505   3.519   9.346  1.00  0.00    -0.493 OA
ATOM     19  C   UNL     1     -22.510   3.240   8.366  1.00  0.00     0.278 C 
ENDBRANCH  13  18
BRANCH  14  20
ATOM     20  O   UNL     1     -25.798   3.249  10.940  1.00  0.00    -0.504 OA
ATOM     21  H   UNL     1     -26.101   4.098  10.480  1.00  0.00     0.293 HD
ENDBRANCH  14  20
ENDBRANCH   1  12
BRANCH   2  22
ATOM     22  O   UNL     1     -20.651   4.984  14.157  1.00  0.00    -0.502 OA
ATOM     23  H   UNL     1     -21.051   5.477  13.367  1.00  0.00     0.293 HD
ENDBRANCH   2  22
BRANCH   6  24
ATOM     24  O   UNL     1     -15.957   2.850  15.495  1.00  0.00    -0.507 OA
ATOM     25  H   UNL     1     -15.452   3.587  15.028  1.00  0.00     0.293 HD
ENDBRANCH   6  24
BRANCH   8  26
ATOM     26  O   UNL     1     -16.541  -1.606  13.807  1.00  0.00    -0.508 OA
ATOM     27  H   UNL     1     -15.862  -2.005  14.445  1.00  0.00     0.293 HD
ENDBRANCH   8  26
TORSDOF 6
ENDMDL
