MODEL 1
REMARK VINA RESULT:    62.171      0.000      0.000
REMARK INTER + INTRA:          81.329
REMARK INTER:                  82.160
REMARK INTRA:                  -0.832
REMARK UNBOUND:                -0.832
REMARK SMILES CC[C@H](C=C[C@H](C)[C@H]1CC[C@H]2C3=CC[C@@H]4C[C@H](O)CC[C@@]4(C)[C@@H]3CC[C@]12C)C(C)C
REMARK SMILES IDX 6 1 7 2 5 3 4 4 3 5 2 6 1 7 28 8 29 9 30 10 8 11 9 12 26 13
REMARK SMILES IDX 10 14 11 15 25 16 27 17 12 18 24 19 23 20 13 21 21 22 14 23
REMARK SMILES IDX 15 24 20 25 22 26 16 27 19 28 17 29 18 30
REMARK H PARENT 18 31
REMARK Flexibility Score: inf
ROOT
ATOM      1  C   UNL     1     -29.828  32.073  -3.238  1.00  0.00     0.012 C 
ATOM      2  C   UNL     1     -28.372  32.019  -2.726  1.00  0.00     0.012 C 
ENDROOT
BRANCH   1   3
ATOM      3  C   UNL     1     -29.897  31.365  -4.574  1.00  0.00    -0.028 C 
ATOM      4  C   UNL     1     -29.399  30.127  -4.734  1.00  0.00    -0.027 C 
BRANCH   4   5
ATOM      5  C   UNL     1     -29.428  29.377  -6.054  1.00  0.00     0.014 C 
BRANCH   5   6
ATOM      6  C   UNL     1     -30.691  28.476  -6.149  1.00  0.00     0.004 C 
ATOM      7  C   UNL     1     -30.528  27.202  -6.979  1.00  0.00     0.004 C 
ENDBRANCH   5   6
BRANCH   5   8
ATOM      8  C   UNL     1     -29.178  30.303  -7.291  1.00  0.00    -0.011 C 
ATOM      9  C   UNL     1     -28.113  29.708  -8.230  1.00  0.00     0.008 C 
ATOM     10  C   UNL     1     -30.467  30.548  -8.097  1.00  0.00     0.008 C 
ENDBRANCH   5   8
ENDBRANCH   4   5
ENDBRANCH   1   3
BRANCH   1  11
ATOM     11  C   UNL     1     -30.917  31.500  -2.261  1.00  0.00     0.002 C 
ATOM     12  C   UNL     1     -30.933  32.049  -0.810  1.00  0.00     0.005 C 
ATOM     13  C   UNL     1     -32.394  31.590  -2.726  1.00  0.00    -0.023 C 
ATOM     14  C   UNL     1     -32.384  31.913  -0.310  1.00  0.00     0.009 C 
ATOM     15  C   UNL     1     -33.112  31.172  -1.434  1.00  0.00     0.021 C 
ATOM     16  C   UNL     1     -32.776  30.600  -3.873  1.00  0.00     0.008 C 
ATOM     17  C   UNL     1     -32.751  33.050  -3.144  1.00  0.00     0.012 C 
ATOM     18  C   UNL     1     -34.618  31.273  -1.578  1.00  0.00    -0.067 C 
ATOM     19  C   UNL     1     -34.173  29.932  -3.699  1.00  0.00     0.009 C 
ATOM     20  C   UNL     1     -35.206  30.803  -2.917  1.00  0.00     0.021 C 
ATOM     21  C   UNL     1     -35.405  31.617  -0.534  1.00  0.00    -0.027 C 
ATOM     22  C   UNL     1     -36.621  30.150  -2.741  1.00  0.00    -0.023 C 
ATOM     23  C   UNL     1     -36.904  31.448  -0.536  1.00  0.00     0.031 C 
ATOM     24  C   UNL     1     -37.481  31.188  -1.940  1.00  0.00     0.002 C 
ATOM     25  C   UNL     1     -37.281  29.926  -4.138  1.00  0.00     0.010 C 
ATOM     26  C   UNL     1     -36.508  28.784  -2.000  1.00  0.00     0.012 C 
ATOM     27  C   UNL     1     -38.976  30.813  -1.863  1.00  0.00     0.036 C 
ATOM     28  C   UNL     1     -38.772  29.560  -4.055  1.00  0.00     0.032 C 
ATOM     29  C   UNL     1     -39.563  30.618  -3.270  1.00  0.00     0.114 C 
BRANCH  29  30
ATOM     30  O   UNL     1     -40.923  30.272  -3.199  1.00  0.00    -0.393 OA
ATOM     31  H   UNL     1     -40.999  29.302  -3.411  1.00  0.00     0.210 HD
ENDBRANCH  29  30
ENDBRANCH   1  11
TORSDOF 6
ENDMDL
MODEL 2
REMARK VINA RESULT:    62.350      1.960      3.060
REMARK INTER + INTRA:          81.566
REMARK INTER:                  81.534
REMARK INTRA:                   0.032
REMARK UNBOUND:                -0.832
REMARK SMILES CC[C@H](C=C[C@H](C)[C@H]1CC[C@H]2C3=CC[C@@H]4C[C@H](O)CC[C@@]4(C)[C@@H]3CC[C@]12C)C(C)C
REMARK SMILES IDX 6 1 7 2 5 3 4 4 3 5 2 6 1 7 28 8 29 9 30 10 8 11 9 12 26 13
REMARK SMILES IDX 10 14 11 15 25 16 27 17 12 18 24 19 23 20 13 21 21 22 14 23
REMARK SMILES IDX 15 24 20 25 22 26 16 27 19 28 17 29 18 30
REMARK H PARENT 18 31
REMARK Flexibility Score: inf
ROOT
ATOM      1  C   UNL     1     -29.866  31.888  -2.987  1.00  0.00     0.012 C 
ATOM      2  C   UNL     1     -29.404  30.878  -4.059  1.00  0.00     0.012 C 
ENDROOT
BRANCH   1   3
ATOM      3  C   UNL     1     -30.279  33.170  -3.677  1.00  0.00    -0.028 C 
ATOM      4  C   UNL     1     -29.502  33.739  -4.615  1.00  0.00    -0.027 C 
BRANCH   4   5
ATOM      5  C   UNL     1     -29.859  35.031  -5.328  1.00  0.00     0.014 C 
BRANCH   5   6
ATOM      6  C   UNL     1     -28.590  35.893  -5.577  1.00  0.00     0.004 C 
ATOM      7  C   UNL     1     -27.530  35.834  -4.476  1.00  0.00     0.004 C 
ENDBRANCH   5   6
BRANCH   5   8
ATOM      8  C   UNL     1     -30.766  34.806  -6.585  1.00  0.00    -0.011 C 
ATOM      9  C   UNL     1     -30.515  35.883  -7.655  1.00  0.00     0.008 C 
ATOM     10  C   UNL     1     -30.543  33.419  -7.215  1.00  0.00     0.008 C 
ENDBRANCH   5   8
ENDBRANCH   4   5
ENDBRANCH   1   3
BRANCH   1  11
ATOM     11  C   UNL     1     -31.010  31.392  -2.030  1.00  0.00     0.002 C 
ATOM     12  C   UNL     1     -31.080  32.023  -0.614  1.00  0.00     0.005 C 
ATOM     13  C   UNL     1     -32.463  31.482  -2.567  1.00  0.00    -0.023 C 
ATOM     14  C   UNL     1     -32.555  31.943  -0.176  1.00  0.00     0.009 C 
ATOM     15  C   UNL     1     -33.247  31.152  -1.288  1.00  0.00     0.021 C 
ATOM     16  C   UNL     1     -32.813  30.435  -3.672  1.00  0.00     0.008 C 
ATOM     17  C   UNL     1     -32.770  32.922  -3.083  1.00  0.00     0.012 C 
ATOM     18  C   UNL     1     -34.742  31.273  -1.506  1.00  0.00    -0.067 C 
ATOM     19  C   UNL     1     -34.231  29.803  -3.525  1.00  0.00     0.009 C 
ATOM     20  C   UNL     1     -35.279  30.738  -2.843  1.00  0.00     0.021 C 
ATOM     21  C   UNL     1     -35.568  31.691  -0.521  1.00  0.00    -0.027 C 
ATOM     22  C   UNL     1     -36.714  30.121  -2.695  1.00  0.00    -0.023 C 
ATOM     23  C   UNL     1     -37.069  31.550  -0.583  1.00  0.00     0.031 C 
ATOM     24  C   UNL     1     -37.587  31.220  -1.995  1.00  0.00     0.002 C 
ATOM     25  C   UNL     1     -37.315  29.830  -4.106  1.00  0.00     0.010 C 
ATOM     26  C   UNL     1     -36.663  28.799  -1.874  1.00  0.00     0.012 C 
ATOM     27  C   UNL     1     -39.092  30.877  -1.966  1.00  0.00     0.036 C 
ATOM     28  C   UNL     1     -38.816  29.497  -4.071  1.00  0.00     0.032 C 
ATOM     29  C   UNL     1     -39.619  30.613  -3.385  1.00  0.00     0.114 C 
BRANCH  29  30
ATOM     30  O   UNL     1     -40.987  30.296  -3.357  1.00  0.00    -0.393 OA
ATOM     31  H   UNL     1     -41.494  31.120  -3.590  1.00  0.00     0.210 HD
ENDBRANCH  29  30
ENDBRANCH   1  11
TORSDOF 6
ENDMDL
MODEL 3
REMARK VINA RESULT:    63.008     10.610     14.599
REMARK INTER + INTRA:          82.436
REMARK INTER:                  81.472
REMARK INTRA:                   0.964
REMARK UNBOUND:                -0.832
REMARK SMILES CC[C@H](C=C[C@H](C)[C@H]1CC[C@H]2C3=CC[C@@H]4C[C@H](O)CC[C@@]4(C)[C@@H]3CC[C@]12C)C(C)C
REMARK SMILES IDX 6 1 7 2 5 3 4 4 3 5 2 6 1 7 28 8 29 9 30 10 8 11 9 12 26 13
REMARK SMILES IDX 10 14 11 15 25 16 27 17 12 18 24 19 23 20 13 21 21 22 14 23
REMARK SMILES IDX 15 24 20 25 22 26 16 27 19 28 17 29 18 30
REMARK H PARENT 18 31
REMARK Flexibility Score: inf
ROOT
ATOM      1  C   UNL     1     -28.802  27.494   4.536  1.00  0.00     0.012 C 
ATOM      2  C   UNL     1     -28.817  26.696   3.214  1.00  0.00     0.012 C 
ENDROOT
BRANCH   1   3
ATOM      3  C   UNL     1     -29.831  26.896   5.472  1.00  0.00    -0.028 C 
ATOM      4  C   UNL     1     -29.510  25.902   6.318  1.00  0.00    -0.027 C 
BRANCH   4   5
ATOM      5  C   UNL     1     -30.505  25.256   7.267  1.00  0.00     0.014 C 
BRANCH   5   6
ATOM      6  C   UNL     1     -31.230  26.332   8.122  1.00  0.00     0.004 C 
ATOM      7  C   UNL     1     -32.503  25.862   8.828  1.00  0.00     0.004 C 
ENDBRANCH   5   6
BRANCH   5   8
ATOM      8  C   UNL     1     -31.446  24.224   6.559  1.00  0.00    -0.011 C 
ATOM      9  C   UNL     1     -32.904  24.386   7.025  1.00  0.00     0.008 C 
ATOM     10  C   UNL     1     -31.397  24.358   5.026  1.00  0.00     0.008 C 
ENDBRANCH   5   8
ENDBRANCH   4   5
ENDBRANCH   1   3
BRANCH   1  11
ATOM     11  C   UNL     1     -27.409  27.600   5.254  1.00  0.00     0.002 C 
ATOM     12  C   UNL     1     -26.212  26.857   4.603  1.00  0.00     0.005 C 
ATOM     13  C   UNL     1     -26.872  29.028   5.538  1.00  0.00    -0.023 C 
ATOM     14  C   UNL     1     -24.945  27.629   5.019  1.00  0.00     0.009 C 
ATOM     15  C   UNL     1     -25.444  28.695   5.995  1.00  0.00     0.021 C 
ATOM     16  C   UNL     1     -27.618  29.787   6.681  1.00  0.00     0.008 C 
ATOM     17  C   UNL     1     -26.881  29.886   4.235  1.00  0.00     0.012 C 
ATOM     18  C   UNL     1     -24.635  29.952   6.247  1.00  0.00    -0.067 C 
ATOM     19  C   UNL     1     -26.679  30.594   7.628  1.00  0.00     0.009 C 
ATOM     20  C   UNL     1     -25.370  31.105   6.948  1.00  0.00     0.021 C 
ATOM     21  C   UNL     1     -23.306  29.998   6.002  1.00  0.00    -0.027 C 
ATOM     22  C   UNL     1     -24.418  31.927   7.885  1.00  0.00    -0.023 C 
ATOM     23  C   UNL     1     -22.409  31.102   6.502  1.00  0.00     0.031 C 
ATOM     24  C   UNL     1     -23.188  32.334   7.002  1.00  0.00     0.002 C 
ATOM     25  C   UNL     1     -25.137  33.226   8.367  1.00  0.00     0.010 C 
ATOM     26  C   UNL     1     -23.999  31.080   9.123  1.00  0.00     0.012 C 
ATOM     27  C   UNL     1     -22.244  33.340   7.695  1.00  0.00     0.036 C 
ATOM     28  C   UNL     1     -24.191  34.227   9.050  1.00  0.00     0.032 C 
ATOM     29  C   UNL     1     -23.014  34.596   8.134  1.00  0.00     0.114 C 
BRANCH  29  30
ATOM     30  O   UNL     1     -22.156  35.509   8.770  1.00  0.00    -0.393 OA
ATOM     31  H   UNL     1     -21.539  34.989   9.352  1.00  0.00     0.210 HD
ENDBRANCH  29  30
ENDBRANCH   1  11
TORSDOF 6
ENDMDL
