MODEL 1
REMARK VINA RESULT:    -1.723      0.000      0.000
REMARK INTER + INTRA:          -3.305
REMARK INTER:                  -2.629
REMARK INTRA:                  -0.675
REMARK UNBOUND:                -0.675
REMARK SMILES O=C([O-])CCCCCCCCC(=O)[O-]
REMARK SMILES IDX 7 1 6 2 5 3 4 4 2 5 1 6 3 7 8 8 9 9 10 10 11 11 12 12 13 13
REMARK SMILES IDX 14 14
REMARK H PARENT
REMARK Flexibility Score: inf
ROOT
ATOM      1  C   UNL     1     173.654 177.204 192.908  1.00  0.00     0.000 C 
ENDROOT
BRANCH   1   2
ATOM      2  C   UNL     1     172.163 177.187 192.524  1.00  0.00     0.000 C 
BRANCH   2   3
ATOM      3  C   UNL     1     171.634 178.570 192.110  1.00  0.00     0.006 C 
BRANCH   3   4
ATOM      4  C   UNL     1     172.696 179.667 192.265  1.00  0.00     0.053 C 
BRANCH   4   5
ATOM      5  C   UNL     1     172.327 180.652 193.331  1.00  0.00     0.041 C 
ATOM      6  O   UNL     1     173.050 180.780 194.355  1.00  0.00    -0.550 OA
ATOM      7  O   UNL     1     171.199 181.448 193.183  1.00  0.00    -0.550 OA
ENDBRANCH   4   5
ENDBRANCH   3   4
ENDBRANCH   2   3
ENDBRANCH   1   2
BRANCH   1   8
ATOM      8  C   UNL     1     173.947 176.875 194.383  1.00  0.00     0.000 C 
BRANCH   8   9
ATOM      9  C   UNL     1     172.747 177.148 195.307  1.00  0.00     0.000 C 
BRANCH   9  10
ATOM     10  C   UNL     1     173.117 178.028 196.511  1.00  0.00     0.006 C 
BRANCH  10  11
ATOM     11  C   UNL     1     173.116 177.250 197.832  1.00  0.00     0.053 C 
BRANCH  11  12
ATOM     12  C   UNL     1     172.719 178.142 198.965  1.00  0.00     0.041 C 
ATOM     13  O   UNL     1     172.442 179.352 198.752  1.00  0.00    -0.550 OA
ATOM     14  O   UNL     1     172.702 177.652 200.264  1.00  0.00    -0.550 OA
ENDBRANCH  11  12
ENDBRANCH  10  11
ENDBRANCH   9  10
ENDBRANCH   8   9
ENDBRANCH   1   8
TORSDOF 9
ENDMDL
MODEL 2
REMARK VINA RESULT:    -1.706      1.034      5.735
REMARK INTER + INTRA:          -3.280
REMARK INTER:                  -2.714
REMARK INTRA:                  -0.565
REMARK UNBOUND:                -0.675
REMARK SMILES O=C([O-])CCCCCCCCC(=O)[O-]
REMARK SMILES IDX 7 1 6 2 5 3 4 4 2 5 1 6 3 7 8 8 9 9 10 10 11 11 12 12 13 13
REMARK SMILES IDX 14 14
REMARK H PARENT
REMARK Flexibility Score: inf
ROOT
ATOM      1  C   UNL     1     172.714 177.223 194.515  1.00  0.00     0.000 C 
ENDROOT
BRANCH   1   2
ATOM      2  C   UNL     1     173.079 178.459 195.357  1.00  0.00     0.000 C 
BRANCH   2   3
ATOM      3  C   UNL     1     173.816 178.103 196.658  1.00  0.00     0.006 C 
BRANCH   3   4
ATOM      4  C   UNL     1     172.999 177.156 197.547  1.00  0.00     0.053 C 
BRANCH   4   5
ATOM      5  C   UNL     1     172.948 177.631 198.967  1.00  0.00     0.041 C 
ATOM      6  O   UNL     1     172.227 178.614 199.282  1.00  0.00    -0.550 OA
ATOM      7  O   UNL     1     173.677 176.971 199.947  1.00  0.00    -0.550 OA
ENDBRANCH   4   5
ENDBRANCH   3   4
ENDBRANCH   2   3
ENDBRANCH   1   2
BRANCH   1   8
ATOM      8  C   UNL     1     173.078 177.323 193.023  1.00  0.00     0.000 C 
BRANCH   8   9
ATOM      9  C   UNL     1     171.842 177.431 192.111  1.00  0.00     0.000 C 
BRANCH   9  10
ATOM     10  C   UNL     1     171.860 178.694 191.238  1.00  0.00     0.006 C 
BRANCH  10  11
ATOM     11  C   UNL     1     171.069 179.851 191.861  1.00  0.00     0.053 C 
BRANCH  11  12
ATOM     12  C   UNL     1     171.989 180.789 192.575  1.00  0.00     0.041 C 
ATOM     13  O   UNL     1     173.168 180.955 192.167  1.00  0.00    -0.550 OA
ATOM     14  O   UNL     1     171.561 181.444 193.723  1.00  0.00    -0.550 OA
ENDBRANCH  11  12
ENDBRANCH  10  11
ENDBRANCH   9  10
ENDBRANCH   8   9
ENDBRANCH   1   8
TORSDOF 9
ENDMDL
MODEL 3
REMARK VINA RESULT:    -1.659      1.342      6.010
REMARK INTER + INTRA:          -3.208
REMARK INTER:                  -2.652
REMARK INTRA:                  -0.556
REMARK UNBOUND:                -0.675
REMARK SMILES O=C([O-])CCCCCCCCC(=O)[O-]
REMARK SMILES IDX 7 1 6 2 5 3 4 4 2 5 1 6 3 7 8 8 9 9 10 10 11 11 12 12 13 13
REMARK SMILES IDX 14 14
REMARK H PARENT
REMARK Flexibility Score: inf
ROOT
ATOM      1  C   UNL     1     173.437 178.724 195.824  1.00  0.00     0.000 C 
ENDROOT
BRANCH   1   2
ATOM      2  C   UNL     1     173.138 179.029 197.304  1.00  0.00     0.000 C 
BRANCH   2   3
ATOM      3  C   UNL     1     173.444 177.843 198.234  1.00  0.00     0.006 C 
BRANCH   3   4
ATOM      4  C   UNL     1     172.378 177.671 199.324  1.00  0.00     0.053 C 
BRANCH   4   5
ATOM      5  C   UNL     1     172.155 178.940 200.089  1.00  0.00     0.041 C 
ATOM      6  O   UNL     1     173.076 179.421 200.802  1.00  0.00    -0.550 OA
ATOM      7  O   UNL     1     170.940 179.604 199.994  1.00  0.00    -0.550 OA
ENDBRANCH   4   5
ENDBRANCH   3   4
ENDBRANCH   2   3
ENDBRANCH   1   2
BRANCH   1   8
ATOM      8  C   UNL     1     172.728 177.477 195.264  1.00  0.00     0.000 C 
BRANCH   8   9
ATOM      9  C   UNL     1     173.450 176.875 194.046  1.00  0.00     0.000 C 
BRANCH   9  10
ATOM     10  C   UNL     1     173.319 177.749 192.789  1.00  0.00     0.006 C 
BRANCH  10  11
ATOM     11  C   UNL     1     171.858 178.014 192.406  1.00  0.00     0.053 C 
BRANCH  11  12
ATOM     12  C   UNL     1     171.652 179.464 192.101  1.00  0.00     0.041 C 
ATOM     13  O   UNL     1     171.947 180.340 192.957  1.00  0.00    -0.550 OA
ATOM     14  O   UNL     1     171.089 179.847 190.891  1.00  0.00    -0.550 OA
ENDBRANCH  11  12
ENDBRANCH  10  11
ENDBRANCH   9  10
ENDBRANCH   8   9
ENDBRANCH   1   8
TORSDOF 9
ENDMDL
MODEL 4
REMARK VINA RESULT:    -1.650      2.340      5.587
REMARK INTER + INTRA:          -3.193
REMARK INTER:                  -2.332
REMARK INTRA:                  -0.861
REMARK UNBOUND:                -0.675
REMARK SMILES O=C([O-])CCCCCCCCC(=O)[O-]
REMARK SMILES IDX 7 1 6 2 5 3 4 4 2 5 1 6 3 7 8 8 9 9 10 10 11 11 12 12 13 13
REMARK SMILES IDX 14 14
REMARK H PARENT
REMARK Flexibility Score: inf
ROOT
ATOM      1  C   UNL     1     175.204 177.971 198.280  1.00  0.00     0.000 C 
ENDROOT
BRANCH   1   2
ATOM      2  C   UNL     1     174.162 177.200 199.111  1.00  0.00     0.000 C 
BRANCH   2   3
ATOM      3  C   UNL     1     172.743 177.778 198.981  1.00  0.00     0.006 C 
BRANCH   3   4
ATOM      4  C   UNL     1     172.756 179.286 198.694  1.00  0.00     0.053 C 
BRANCH   4   5
ATOM      5  C   UNL     1     171.817 180.031 199.593  1.00  0.00     0.041 C 
ATOM      6  O   UNL     1     170.877 179.424 200.172  1.00  0.00    -0.550 OA
ATOM      7  O   UNL     1     171.997 181.389 199.813  1.00  0.00    -0.550 OA
ENDBRANCH   4   5
ENDBRANCH   3   4
ENDBRANCH   2   3
ENDBRANCH   1   2
BRANCH   1   8
ATOM      8  C   UNL     1     175.929 177.133 197.211  1.00  0.00     0.000 C 
BRANCH   8   9
ATOM      9  C   UNL     1     175.078 176.907 195.949  1.00  0.00     0.000 C 
BRANCH   9  10
ATOM     10  C   UNL     1     174.386 178.190 195.464  1.00  0.00     0.006 C 
BRANCH  10  11
ATOM     11  C   UNL     1     172.893 177.984 195.182  1.00  0.00     0.053 C 
BRANCH  11  12
ATOM     12  C   UNL     1     172.689 177.476 193.790  1.00  0.00     0.041 C 
ATOM     13  O   UNL     1     173.586 177.632 192.920  1.00  0.00    -0.550 OA
ATOM     14  O   UNL     1     171.487 176.875 193.437  1.00  0.00    -0.550 OA
ENDBRANCH  11  12
ENDBRANCH  10  11
ENDBRANCH   9  10
ENDBRANCH   8   9
ENDBRANCH   1   8
TORSDOF 9
ENDMDL
MODEL 5
REMARK VINA RESULT:    -1.635      1.579      5.039
REMARK INTER + INTRA:          -3.170
REMARK INTER:                  -2.475
REMARK INTRA:                  -0.695
REMARK UNBOUND:                -0.675
REMARK SMILES O=C([O-])CCCCCCCCC(=O)[O-]
REMARK SMILES IDX 7 1 6 2 5 3 4 4 2 5 1 6 3 7 8 8 9 9 10 10 11 11 12 12 13 13
REMARK SMILES IDX 14 14
REMARK H PARENT
REMARK Flexibility Score: inf
ROOT
ATOM      1  C   UNL     1     171.687 177.231 192.728  1.00  0.00     0.000 C 
ENDROOT
BRANCH   1   2
ATOM      2  C   UNL     1     172.885 176.875 193.628  1.00  0.00     0.000 C 
BRANCH   2   3
ATOM      3  C   UNL     1     172.600 177.100 195.122  1.00  0.00     0.006 C 
BRANCH   3   4
ATOM      4  C   UNL     1     173.142 178.446 195.619  1.00  0.00     0.053 C 
BRANCH   4   5
ATOM      5  C   UNL     1     173.086 178.551 197.113  1.00  0.00     0.041 C 
ATOM      6  O   UNL     1     173.025 177.510 197.820  1.00  0.00    -0.550 OA
ATOM      7  O   UNL     1     173.128 179.796 197.725  1.00  0.00    -0.550 OA
ENDBRANCH   4   5
ENDBRANCH   3   4
ENDBRANCH   2   3
ENDBRANCH   1   2
BRANCH   1   8
ATOM      8  C   UNL     1     171.995 178.241 191.608  1.00  0.00     0.000 C 
BRANCH   8   9
ATOM      9  C   UNL     1     171.373 179.625 191.864  1.00  0.00     0.000 C 
BRANCH   9  10
ATOM     10  C   UNL     1     172.382 180.630 192.439  1.00  0.00     0.006 C 
BRANCH  10  11
ATOM     11  C   UNL     1     171.855 181.345 193.689  1.00  0.00     0.053 C 
BRANCH  11  12
ATOM     12  C   UNL     1     172.386 182.742 193.756  1.00  0.00     0.041 C 
ATOM     13  O   UNL     1     173.132 183.181 192.842  1.00  0.00    -0.550 OA
ATOM     14  O   UNL     1     172.097 183.544 194.853  1.00  0.00    -0.550 OA
ENDBRANCH  11  12
ENDBRANCH  10  11
ENDBRANCH   9  10
ENDBRANCH   8   9
ENDBRANCH   1   8
TORSDOF 9
ENDMDL
MODEL 6
REMARK VINA RESULT:    -1.614      2.398      6.116
REMARK INTER + INTRA:          -3.139
REMARK INTER:                  -2.529
REMARK INTRA:                  -0.610
REMARK UNBOUND:                -0.675
REMARK SMILES O=C([O-])CCCCCCCCC(=O)[O-]
REMARK SMILES IDX 7 1 6 2 5 3 4 4 2 5 1 6 3 7 8 8 9 9 10 10 11 11 12 12 13 13
REMARK SMILES IDX 14 14
REMARK H PARENT
REMARK Flexibility Score: inf
ROOT
ATOM      1  C   UNL     1     173.271 178.792 194.268  1.00  0.00     0.000 C 
ENDROOT
BRANCH   1   2
ATOM      2  C   UNL     1     173.097 179.789 195.429  1.00  0.00     0.000 C 
BRANCH   2   3
ATOM      3  C   UNL     1     173.817 179.345 196.713  1.00  0.00     0.006 C 
BRANCH   3   4
ATOM      4  C   UNL     1     173.020 179.696 197.976  1.00  0.00     0.053 C 
BRANCH   4   5
ATOM      5  C   UNL     1     172.622 178.471 198.741  1.00  0.00     0.041 C 
ATOM      6  O   UNL     1     172.187 178.572 199.919  1.00  0.00    -0.550 OA
ATOM      7  O   UNL     1     172.706 177.221 198.144  1.00  0.00    -0.550 OA
ENDBRANCH   4   5
ENDBRANCH   3   4
ENDBRANCH   2   3
ENDBRANCH   1   2
BRANCH   1   8
ATOM      8  C   UNL     1     172.686 177.391 194.524  1.00  0.00     0.000 C 
BRANCH   8   9
ATOM      9  C   UNL     1     171.738 176.924 193.404  1.00  0.00     0.000 C 
BRANCH   9  10
ATOM     10  C   UNL     1     171.658 177.925 192.242  1.00  0.00     0.006 C 
BRANCH  10  11
ATOM     11  C   UNL     1     172.127 177.322 190.912  1.00  0.00     0.053 C 
BRANCH  11  12
ATOM     12  C   UNL     1     173.497 177.812 190.569  1.00  0.00     0.041 C 
ATOM     13  O   UNL     1     174.493 177.430 191.238  1.00  0.00    -0.550 OA
ATOM     14  O   UNL     1     173.671 178.732 189.543  1.00  0.00    -0.550 OA
ENDBRANCH  11  12
ENDBRANCH  10  11
ENDBRANCH   9  10
ENDBRANCH   8   9
ENDBRANCH   1   8
TORSDOF 9
ENDMDL
MODEL 7
REMARK VINA RESULT:    -1.613      1.854      5.761
REMARK INTER + INTRA:          -3.138
REMARK INTER:                  -2.460
REMARK INTRA:                  -0.678
REMARK UNBOUND:                -0.675
REMARK SMILES O=C([O-])CCCCCCCCC(=O)[O-]
REMARK SMILES IDX 7 1 6 2 5 3 4 4 2 5 1 6 3 7 8 8 9 9 10 10 11 11 12 12 13 13
REMARK SMILES IDX 14 14
REMARK H PARENT
REMARK Flexibility Score: inf
ROOT
ATOM      1  C   UNL     1     173.826 178.898 195.899  1.00  0.00     0.000 C 
ENDROOT
BRANCH   1   2
ATOM      2  C   UNL     1     172.920 177.654 195.944  1.00  0.00     0.000 C 
BRANCH   2   3
ATOM      3  C   UNL     1     173.032 176.878 197.268  1.00  0.00     0.006 C 
BRANCH   3   4
ATOM      4  C   UNL     1     173.668 177.721 198.381  1.00  0.00     0.053 C 
BRANCH   4   5
ATOM      5  C   UNL     1     172.658 178.144 199.404  1.00  0.00     0.041 C 
ATOM      6  O   UNL     1     172.723 179.290 199.923  1.00  0.00    -0.550 OA
ATOM      7  O   UNL     1     171.630 177.283 199.764  1.00  0.00    -0.550 OA
ENDBRANCH   4   5
ENDBRANCH   3   4
ENDBRANCH   2   3
ENDBRANCH   1   2
BRANCH   1   8
ATOM      8  C   UNL     1     173.080 180.244 195.913  1.00  0.00     0.000 C 
BRANCH   8   9
ATOM      9  C   UNL     1     172.738 180.754 194.502  1.00  0.00     0.000 C 
BRANCH   9  10
ATOM     10  C   UNL     1     173.687 180.201 193.428  1.00  0.00     0.006 C 
BRANCH  10  11
ATOM     11  C   UNL     1     172.938 179.635 192.215  1.00  0.00     0.053 C 
BRANCH  11  12
ATOM     12  C   UNL     1     172.744 178.159 192.363  1.00  0.00     0.041 C 
ATOM     13  O   UNL     1     171.587 177.682 192.502  1.00  0.00    -0.550 OA
ATOM     14  O   UNL     1     173.845 177.313 192.398  1.00  0.00    -0.550 OA
ENDBRANCH  11  12
ENDBRANCH  10  11
ENDBRANCH   9  10
ENDBRANCH   8   9
ENDBRANCH   1   8
TORSDOF 9
ENDMDL
MODEL 8
REMARK VINA RESULT:    -1.611      2.860      3.746
REMARK INTER + INTRA:          -3.133
REMARK INTER:                  -2.436
REMARK INTRA:                  -0.697
REMARK UNBOUND:                -0.675
REMARK SMILES O=C([O-])CCCCCCCCC(=O)[O-]
REMARK SMILES IDX 7 1 6 2 5 3 4 4 2 5 1 6 3 7 8 8 9 9 10 10 11 11 12 12 13 13
REMARK SMILES IDX 14 14
REMARK H PARENT
REMARK Flexibility Score: inf
ROOT
ATOM      1  C   UNL     1     173.833 178.655 195.463  1.00  0.00     0.000 C 
ENDROOT
BRANCH   1   2
ATOM      2  C   UNL     1     173.113 179.947 195.035  1.00  0.00     0.000 C 
BRANCH   2   3
ATOM      3  C   UNL     1     173.134 181.034 196.123  1.00  0.00     0.006 C 
BRANCH   3   4
ATOM      4  C   UNL     1     174.523 181.191 196.757  1.00  0.00     0.053 C 
BRANCH   4   5
ATOM      5  C   UNL     1     174.433 181.525 198.215  1.00  0.00     0.041 C 
ATOM      6  O   UNL     1     175.325 181.130 199.012  1.00  0.00    -0.550 OA
ATOM      7  O   UNL     1     173.380 182.296 198.688  1.00  0.00    -0.550 OA
ENDBRANCH   4   5
ENDBRANCH   3   4
ENDBRANCH   2   3
ENDBRANCH   1   2
BRANCH   1   8
ATOM      8  C   UNL     1     172.904 177.469 195.778  1.00  0.00     0.000 C 
BRANCH   8   9
ATOM      9  C   UNL     1     173.145 176.875 197.177  1.00  0.00     0.000 C 
BRANCH   9  10
ATOM     10  C   UNL     1     173.418 177.953 198.238  1.00  0.00     0.006 C 
BRANCH  10  11
ATOM     11  C   UNL     1     173.112 177.470 199.661  1.00  0.00     0.053 C 
BRANCH  11  12
ATOM     12  C   UNL     1     171.713 177.833 200.046  1.00  0.00     0.041 C 
ATOM     13  O   UNL     1     170.876 176.932 200.319  1.00  0.00    -0.550 OA
ATOM     14  O   UNL     1     171.318 179.164 200.057  1.00  0.00    -0.550 OA
ENDBRANCH  11  12
ENDBRANCH  10  11
ENDBRANCH   9  10
ENDBRANCH   8   9
ENDBRANCH   1   8
TORSDOF 9
ENDMDL
MODEL 9
REMARK VINA RESULT:    -0.447      2.063      5.676
REMARK INTER + INTRA:          -1.358
REMARK INTER:                  -0.557
REMARK INTRA:                  -0.800
REMARK UNBOUND:                -0.675
REMARK SMILES O=C([O-])CCCCCCCCC(=O)[O-]
REMARK SMILES IDX 7 1 6 2 5 3 4 4 2 5 1 6 3 7 8 8 9 9 10 10 11 11 12 12 13 13
REMARK SMILES IDX 14 14
REMARK H PARENT
REMARK Flexibility Score: inf
ROOT
ATOM      1  C   UNL     1     172.757 177.005 196.618  1.00  0.00     0.000 C 
ENDROOT
BRANCH   1   2
ATOM      2  C   UNL     1     174.102 177.098 197.361  1.00  0.00     0.000 C 
BRANCH   2   3
ATOM      3  C   UNL     1     174.030 177.967 198.628  1.00  0.00     0.006 C 
BRANCH   3   4
ATOM      4  C   UNL     1     172.584 178.224 199.072  1.00  0.00     0.053 C 
BRANCH   4   5
ATOM      5  C   UNL     1     172.183 177.331 200.205  1.00  0.00     0.041 C 
ATOM      6  O   UNL     1     173.023 177.009 201.087  1.00  0.00    -0.550 OA
ATOM      7  O   UNL     1     170.875 176.876 200.303  1.00  0.00    -0.550 OA
ENDBRANCH   4   5
ENDBRANCH   3   4
ENDBRANCH   2   3
ENDBRANCH   1   2
BRANCH   1   8
ATOM      8  C   UNL     1     172.808 177.403 195.132  1.00  0.00     0.000 C 
BRANCH   8   9
ATOM      9  C   UNL     1     173.796 178.550 194.853  1.00  0.00     0.000 C 
BRANCH   9  10
ATOM     10  C   UNL     1     173.106 179.921 194.784  1.00  0.00     0.006 C 
BRANCH  10  11
ATOM     11  C   UNL     1     173.141 180.666 196.124  1.00  0.00     0.053 C 
BRANCH  11  12
ATOM     12  C   UNL     1     172.740 182.095 195.938  1.00  0.00     0.041 C 
ATOM     13  O   UNL     1     172.567 182.840 196.938  1.00  0.00    -0.550 OA
ATOM     14  O   UNL     1     172.507 182.592 194.662  1.00  0.00    -0.550 OA
ENDBRANCH  11  12
ENDBRANCH  10  11
ENDBRANCH   9  10
ENDBRANCH   8   9
ENDBRANCH   1   8
TORSDOF 9
ENDMDL
