MODEL 1
REMARK VINA RESULT:    -3.360      0.000      0.000
REMARK INTER + INTRA:          -3.772
REMARK INTER:                  -3.753
REMARK INTRA:                  -0.019
REMARK UNBOUND:                -0.019
REMARK SMILES CCCC(=O)[O-]
REMARK SMILES IDX 3 1 4 2 5 3 6 4 2 5 1 6
REMARK H PARENT
REMARK Flexibility Score: inf
ROOT
ATOM      1  C   UNL     1      -8.600  11.753 -32.216  1.00  0.00     0.052 C 
ENDROOT
BRANCH   1   2
ATOM      2  C   UNL     1      -9.070  10.745 -33.220  1.00  0.00     0.041 C 
ATOM      3  O   UNL     1      -8.292  10.343 -34.125  1.00  0.00    -0.550 OA
ATOM      4  O   UNL     1     -10.356  10.226 -33.137  1.00  0.00    -0.550 OA
ENDBRANCH   1   2
BRANCH   1   5
ATOM      5  C   UNL     1      -7.070  11.768 -32.100  1.00  0.00     0.003 C 
ATOM      6  C   UNL     1      -6.595  11.596 -30.657  1.00  0.00     0.004 C 
ENDBRANCH   1   5
TORSDOF 2
ENDMDL
MODEL 2
REMARK VINA RESULT:    -3.312      2.236      3.131
REMARK INTER + INTRA:          -3.718
REMARK INTER:                  -3.682
REMARK INTRA:                  -0.036
REMARK UNBOUND:                -0.019
REMARK SMILES CCCC(=O)[O-]
REMARK SMILES IDX 3 1 4 2 5 3 6 4 2 5 1 6
REMARK H PARENT
REMARK Flexibility Score: inf
ROOT
ATOM      1  C   UNL     1      -7.887  11.741 -33.304  1.00  0.00     0.052 C 
ENDROOT
BRANCH   1   2
ATOM      2  C   UNL     1      -7.742  11.918 -31.824  1.00  0.00     0.041 C 
ATOM      3  O   UNL     1      -6.841  11.300 -31.198  1.00  0.00    -0.550 OA
ATOM      4  O   UNL     1      -8.579  12.791 -31.140  1.00  0.00    -0.550 OA
ENDBRANCH   1   2
BRANCH   1   5
ATOM      5  C   UNL     1      -8.646  10.454 -33.651  1.00  0.00     0.003 C 
ATOM      6  C   UNL     1     -10.110  10.506 -33.216  1.00  0.00     0.004 C 
ENDBRANCH   1   5
TORSDOF 2
ENDMDL
MODEL 3
REMARK VINA RESULT:    -3.183     17.961     18.418
REMARK INTER + INTRA:          -3.573
REMARK INTER:                  -3.566
REMARK INTRA:                  -0.007
REMARK UNBOUND:                -0.019
REMARK SMILES CCCC(=O)[O-]
REMARK SMILES IDX 3 1 4 2 5 3 6 4 2 5 1 6
REMARK H PARENT
REMARK Flexibility Score: inf
ROOT
ATOM      1  C   UNL     1     -14.764  -0.138 -19.115  1.00  0.00     0.052 C 
ENDROOT
BRANCH   1   2
ATOM      2  C   UNL     1     -14.304  -1.427 -19.724  1.00  0.00     0.041 C 
ATOM      3  O   UNL     1     -13.485  -2.161 -19.110  1.00  0.00    -0.550 OA
ATOM      4  O   UNL     1     -14.804  -1.834 -20.954  1.00  0.00    -0.550 OA
ENDBRANCH   1   2
BRANCH   1   5
ATOM      5  C   UNL     1     -14.762   1.006 -20.137  1.00  0.00     0.003 C 
ATOM      6  C   UNL     1     -15.346   2.297 -19.566  1.00  0.00     0.004 C 
ENDBRANCH   1   5
TORSDOF 2
ENDMDL
MODEL 4
REMARK VINA RESULT:    -3.176     17.988     18.449
REMARK INTER + INTRA:          -3.566
REMARK INTER:                  -3.557
REMARK INTRA:                  -0.009
REMARK UNBOUND:                -0.019
REMARK SMILES CCCC(=O)[O-]
REMARK SMILES IDX 3 1 4 2 5 3 6 4 2 5 1 6
REMARK H PARENT
REMARK Flexibility Score: inf
ROOT
ATOM      1  C   UNL     1     -14.767  -0.205 -19.137  1.00  0.00     0.052 C 
ENDROOT
BRANCH   1   2
ATOM      2  C   UNL     1     -14.360  -1.483 -19.804  1.00  0.00     0.041 C 
ATOM      3  O   UNL     1     -14.786  -1.760 -20.956  1.00  0.00    -0.550 OA
ATOM      4  O   UNL     1     -13.483  -2.353 -19.167  1.00  0.00    -0.550 OA
ENDBRANCH   1   2
BRANCH   1   5
ATOM      5  C   UNL     1     -14.752   0.977 -20.116  1.00  0.00     0.003 C 
ATOM      6  C   UNL     1     -15.338   2.248 -19.503  1.00  0.00     0.004 C 
ENDBRANCH   1   5
TORSDOF 2
ENDMDL
MODEL 5
REMARK VINA RESULT:    -3.074     16.881     17.335
REMARK INTER + INTRA:          -3.452
REMARK INTER:                  -3.424
REMARK INTRA:                  -0.028
REMARK UNBOUND:                -0.019
REMARK SMILES CCCC(=O)[O-]
REMARK SMILES IDX 3 1 4 2 5 3 6 4 2 5 1 6
REMARK H PARENT
REMARK Flexibility Score: inf
ROOT
ATOM      1  C   UNL     1     -14.929   0.750 -19.662  1.00  0.00     0.052 C 
ENDROOT
BRANCH   1   2
ATOM      2  C   UNL     1     -14.375   1.725 -20.654  1.00  0.00     0.041 C 
ATOM      3  O   UNL     1     -13.703   1.316 -21.637  1.00  0.00    -0.550 OA
ATOM      4  O   UNL     1     -14.628   3.084 -20.512  1.00  0.00    -0.550 OA
ENDBRANCH   1   2
BRANCH   1   5
ATOM      5  C   UNL     1     -14.716  -0.701 -20.111  1.00  0.00     0.003 C 
ATOM      6  C   UNL     1     -14.056  -1.554 -19.029  1.00  0.00     0.004 C 
ENDBRANCH   1   5
TORSDOF 2
ENDMDL
MODEL 6
REMARK VINA RESULT:    -3.055     13.307     13.879
REMARK INTER + INTRA:          -3.431
REMARK INTER:                  -3.425
REMARK INTRA:                  -0.006
REMARK UNBOUND:                -0.019
REMARK SMILES CCCC(=O)[O-]
REMARK SMILES IDX 3 1 4 2 5 3 6 4 2 5 1 6
REMARK H PARENT
REMARK Flexibility Score: inf
ROOT
ATOM      1  C   UNL     1     -13.017   7.163 -20.651  1.00  0.00     0.052 C 
ENDROOT
BRANCH   1   2
ATOM      2  C   UNL     1     -13.755   5.888 -20.919  1.00  0.00     0.041 C 
ATOM      3  O   UNL     1     -14.140   5.165 -19.962  1.00  0.00    -0.550 OA
ATOM      4  O   UNL     1     -14.049   5.513 -22.225  1.00  0.00    -0.550 OA
ENDBRANCH   1   2
BRANCH   1   5
ATOM      5  C   UNL     1     -13.970   8.298 -20.252  1.00  0.00     0.003 C 
ATOM      6  C   UNL     1     -13.226   9.521 -19.717  1.00  0.00     0.004 C 
ENDBRANCH   1   5
TORSDOF 2
ENDMDL
MODEL 7
REMARK VINA RESULT:    -3.023     17.019     17.413
REMARK INTER + INTRA:          -3.395
REMARK INTER:                  -3.367
REMARK INTRA:                  -0.027
REMARK UNBOUND:                -0.019
REMARK SMILES CCCC(=O)[O-]
REMARK SMILES IDX 3 1 4 2 5 3 6 4 2 5 1 6
REMARK H PARENT
REMARK Flexibility Score: inf
ROOT
ATOM      1  C   UNL     1     -15.150  -0.704 -20.990  1.00  0.00     0.052 C 
ENDROOT
BRANCH   1   2
ATOM      2  C   UNL     1     -14.370   0.126 -21.963  1.00  0.00     0.041 C 
ATOM      3  O   UNL     1     -14.376  -0.163 -23.189  1.00  0.00    -0.550 OA
ATOM      4  O   UNL     1     -13.664   1.238 -21.522  1.00  0.00    -0.550 OA
ENDBRANCH   1   2
BRANCH   1   5
ATOM      5  C   UNL     1     -14.646  -0.518 -19.553  1.00  0.00     0.003 C 
ATOM      6  C   UNL     1     -13.946  -1.765 -19.016  1.00  0.00     0.004 C 
ENDBRANCH   1   5
TORSDOF 2
ENDMDL
MODEL 8
REMARK VINA RESULT:    -3.014     13.823     14.127
REMARK INTER + INTRA:          -3.385
REMARK INTER:                  -3.376
REMARK INTRA:                  -0.009
REMARK UNBOUND:                -0.019
REMARK SMILES CCCC(=O)[O-]
REMARK SMILES IDX 3 1 4 2 5 3 6 4 2 5 1 6
REMARK H PARENT
REMARK Flexibility Score: inf
ROOT
ATOM      1  C   UNL     1     -14.485   8.195 -20.487  1.00  0.00     0.052 C 
ENDROOT
BRANCH   1   2
ATOM      2  C   UNL     1     -14.095   9.500 -19.865  1.00  0.00     0.041 C 
ATOM      3  O   UNL     1     -14.969  10.374 -19.625  1.00  0.00    -0.550 OA
ATOM      4  O   UNL     1     -12.770   9.740 -19.520  1.00  0.00    -0.550 OA
ENDBRANCH   1   2
BRANCH   1   5
ATOM      5  C   UNL     1     -13.294   7.232 -20.582  1.00  0.00     0.003 C 
ATOM      6  C   UNL     1     -13.650   5.937 -21.311  1.00  0.00     0.004 C 
ENDBRANCH   1   5
TORSDOF 2
ENDMDL
MODEL 9
REMARK VINA RESULT:    -2.965     16.668     17.176
REMARK INTER + INTRA:          -3.331
REMARK INTER:                  -3.324
REMARK INTRA:                  -0.006
REMARK UNBOUND:                -0.019
REMARK SMILES CCCC(=O)[O-]
REMARK SMILES IDX 3 1 4 2 5 3 6 4 2 5 1 6
REMARK H PARENT
REMARK Flexibility Score: inf
ROOT
ATOM      1  C   UNL     1     -15.252   1.790 -19.478  1.00  0.00     0.052 C 
ENDROOT
BRANCH   1   2
ATOM      2  C   UNL     1     -15.816   2.888 -20.326  1.00  0.00     0.041 C 
ATOM      3  O   UNL     1     -16.783   3.578 -19.908  1.00  0.00    -0.550 OA
ATOM      4  O   UNL     1     -15.253   3.172 -21.564  1.00  0.00    -0.550 OA
ENDBRANCH   1   2
BRANCH   1   5
ATOM      5  C   UNL     1     -14.828   0.581 -20.322  1.00  0.00     0.003 C 
ATOM      6  C   UNL     1     -14.569  -0.661 -19.469  1.00  0.00     0.004 C 
ENDBRANCH   1   5
TORSDOF 2
ENDMDL
