MODEL 1
REMARK VINA RESULT:    -3.291      0.000      0.000
REMARK INTER + INTRA:          -4.073
REMARK INTER:                  -3.868
REMARK INTRA:                  -0.205
REMARK UNBOUND:                -0.205
REMARK SMILES [NH3+][C@@H](CO)C(=O)[O-]
REMARK SMILES IDX 3 1 2 2 1 3 5 7 6 8 7 9 4 10
REMARK H PARENT 1 4 1 5 1 6 4 11
REMARK Flexibility Score: inf
ROOT
ATOM      1  C   UNL     1     178.827 162.533 175.148  1.00  0.00     0.227 C 
ENDROOT
BRANCH   1   2
ATOM      2  C   UNL     1     179.508 162.108 173.837  1.00  0.00     0.253 C 
BRANCH   2   3
ATOM      3  N   UNL     1     178.703 162.496 172.672  1.00  0.00    -0.348 N 
ATOM      4  H   UNL     1     177.687 162.367 172.885  1.00  0.00     0.345 HD
ATOM      5  H   UNL     1     178.945 161.888 171.856  1.00  0.00     0.345 HD
ATOM      6  H   UNL     1     178.874 163.496 172.414  1.00  0.00     0.345 HD
ENDBRANCH   2   3
BRANCH   2   7
ATOM      7  C   UNL     1     179.777 160.627 173.833  1.00  0.00     0.102 C 
ATOM      8  O   UNL     1     180.125 160.046 174.895  1.00  0.00    -0.544 OA
ATOM      9  O   UNL     1     179.603 159.882 172.672  1.00  0.00    -0.544 OA
ENDBRANCH   2   7
ENDBRANCH   1   2
BRANCH   1  10
ATOM     10  O   UNL     1     179.782 162.865 176.120  1.00  0.00    -0.390 OA
ATOM     11  H   UNL     1     179.278 163.021 176.959  1.00  0.00     0.210 HD
ENDBRANCH   1  10
TORSDOF 4
ENDMDL
MODEL 2
REMARK VINA RESULT:    -3.215      1.823      3.101
REMARK INTER + INTRA:          -3.984
REMARK INTER:                  -3.767
REMARK INTRA:                  -0.217
REMARK UNBOUND:                -0.205
REMARK SMILES [NH3+][C@@H](CO)C(=O)[O-]
REMARK SMILES IDX 3 1 2 2 1 3 5 7 6 8 7 9 4 10
REMARK H PARENT 1 4 1 5 1 6 4 11
REMARK Flexibility Score: inf
ROOT
ATOM      1  C   UNL     1     178.800 160.268 176.087  1.00  0.00     0.227 C 
ENDROOT
BRANCH   1   2
ATOM      2  C   UNL     1     178.134 161.384 175.267  1.00  0.00     0.253 C 
BRANCH   2   3
ATOM      3  N   UNL     1     178.307 161.160 173.826  1.00  0.00    -0.348 N 
ATOM      4  H   UNL     1     179.320 161.241 173.576  1.00  0.00     0.345 HD
ATOM      5  H   UNL     1     177.779 161.885 173.288  1.00  0.00     0.345 HD
ATOM      6  H   UNL     1     177.962 160.212 173.549  1.00  0.00     0.345 HD
ENDBRANCH   2   3
BRANCH   2   7
ATOM      7  C   UNL     1     178.671 162.732 175.667  1.00  0.00     0.102 C 
ATOM      8  O   UNL     1     179.852 162.840 176.094  1.00  0.00    -0.544 OA
ATOM      9  O   UNL     1     177.888 163.872 175.531  1.00  0.00    -0.544 OA
ENDBRANCH   2   7
ENDBRANCH   1   2
BRANCH   1  10
ATOM     10  O   UNL     1     180.122 160.062 175.667  1.00  0.00    -0.390 OA
ATOM     11  H   UNL     1     180.301 159.094 175.786  1.00  0.00     0.210 HD
ENDBRANCH   1  10
TORSDOF 4
ENDMDL
MODEL 3
REMARK VINA RESULT:    -3.179      2.112      3.170
REMARK INTER + INTRA:          -3.941
REMARK INTER:                  -3.712
REMARK INTRA:                  -0.229
REMARK UNBOUND:                -0.205
REMARK SMILES [NH3+][C@@H](CO)C(=O)[O-]
REMARK SMILES IDX 3 1 2 2 1 3 5 7 6 8 7 9 4 10
REMARK H PARENT 1 4 1 5 1 6 4 11
REMARK Flexibility Score: inf
ROOT
ATOM      1  C   UNL     1     179.150 160.741 173.211  1.00  0.00     0.227 C 
ENDROOT
BRANCH   1   2
ATOM      2  C   UNL     1     179.859 161.111 174.524  1.00  0.00     0.253 C 
BRANCH   2   3
ATOM      3  N   UNL     1     179.808 160.004 175.485  1.00  0.00    -0.348 N 
ATOM      4  H   UNL     1     179.181 160.258 176.283  1.00  0.00     0.345 HD
ATOM      5  H   UNL     1     180.765 159.822 175.868  1.00  0.00     0.345 HD
ATOM      6  H   UNL     1     179.450 159.130 175.035  1.00  0.00     0.345 HD
ENDBRANCH   2   3
BRANCH   2   7
ATOM      7  C   UNL     1     179.265 162.362 175.114  1.00  0.00     0.102 C 
ATOM      8  O   UNL     1     179.795 162.896 176.125  1.00  0.00    -0.544 OA
ATOM      9  O   UNL     1     178.156 162.961 174.528  1.00  0.00    -0.544 OA
ENDBRANCH   2   7
ENDBRANCH   1   2
BRANCH   1  10
ATOM     10  O   UNL     1     179.383 161.712 172.227  1.00  0.00    -0.390 OA
ATOM     11  H   UNL     1     179.939 162.412 172.657  1.00  0.00     0.210 HD
ENDBRANCH   1  10
TORSDOF 4
ENDMDL
MODEL 4
REMARK VINA RESULT:    -3.168      1.732      2.694
REMARK INTER + INTRA:          -3.928
REMARK INTER:                  -3.923
REMARK INTRA:                  -0.005
REMARK UNBOUND:                -0.205
REMARK SMILES [NH3+][C@@H](CO)C(=O)[O-]
REMARK SMILES IDX 3 1 2 2 1 3 5 7 6 8 7 9 4 10
REMARK H PARENT 1 4 1 5 1 6 4 11
REMARK Flexibility Score: inf
ROOT
ATOM      1  C   UNL     1     178.215 162.486 173.272  1.00  0.00     0.227 C 
ENDROOT
BRANCH   1   2
ATOM      2  C   UNL     1     179.656 162.012 173.526  1.00  0.00     0.253 C 
BRANCH   2   3
ATOM      3  N   UNL     1     179.974 160.827 172.719  1.00  0.00    -0.348 N 
ATOM      4  H   UNL     1     180.000 161.086 171.706  1.00  0.00     0.345 HD
ATOM      5  H   UNL     1     179.233 160.100 172.850  1.00  0.00     0.345 HD
ATOM      6  H   UNL     1     180.899 160.423 172.993  1.00  0.00     0.345 HD
ENDBRANCH   2   3
BRANCH   2   7
ATOM      7  C   UNL     1     179.876 161.739 174.990  1.00  0.00     0.102 C 
ATOM      8  O   UNL     1     180.124 160.568 175.383  1.00  0.00    -0.544 OA
ATOM      9  O   UNL     1     179.850 162.778 175.912  1.00  0.00    -0.544 OA
ENDBRANCH   2   7
ENDBRANCH   1   2
BRANCH   1  10
ATOM     10  O   UNL     1     178.062 162.929 171.951  1.00  0.00    -0.390 OA
ATOM     11  H   UNL     1     177.885 163.903 172.005  1.00  0.00     0.210 HD
ENDBRANCH   1  10
TORSDOF 4
ENDMDL
MODEL 5
REMARK VINA RESULT:    -3.068      1.978      2.102
REMARK INTER + INTRA:          -3.811
REMARK INTER:                  -3.579
REMARK INTRA:                  -0.232
REMARK UNBOUND:                -0.205
REMARK SMILES [NH3+][C@@H](CO)C(=O)[O-]
REMARK SMILES IDX 3 1 2 2 1 3 5 7 6 8 7 9 4 10
REMARK H PARENT 1 4 1 5 1 6 4 11
REMARK Flexibility Score: inf
ROOT
ATOM      1  C   UNL     1     178.607 162.286 175.720  1.00  0.00     0.227 C 
ENDROOT
BRANCH   1   2
ATOM      2  C   UNL     1     178.723 160.884 175.101  1.00  0.00     0.253 C 
BRANCH   2   3
ATOM      3  N   UNL     1     179.377 159.949 176.025  1.00  0.00    -0.348 N 
ATOM      4  H   UNL     1     179.057 158.973 175.825  1.00  0.00     0.345 HD
ATOM      5  H   UNL     1     179.114 160.182 177.011  1.00  0.00     0.345 HD
ATOM      6  H   UNL     1     180.418 159.993 175.931  1.00  0.00     0.345 HD
ENDBRANCH   2   3
BRANCH   2   7
ATOM      7  C   UNL     1     179.457 160.940 173.788  1.00  0.00     0.102 C 
ATOM      8  O   UNL     1     179.820 159.875 173.222  1.00  0.00    -0.544 OA
ATOM      9  O   UNL     1     179.701 162.161 173.169  1.00  0.00    -0.544 OA
ENDBRANCH   2   7
ENDBRANCH   1   2
BRANCH   1  10
ATOM     10  O   UNL     1     179.874 162.802 176.027  1.00  0.00    -0.390 OA
ATOM     11  H   UNL     1     179.794 163.788 175.962  1.00  0.00     0.210 HD
ENDBRANCH   1  10
TORSDOF 4
ENDMDL
MODEL 6
REMARK VINA RESULT:    -3.045      2.838      3.358
REMARK INTER + INTRA:          -3.784
REMARK INTER:                  -3.408
REMARK INTRA:                  -0.375
REMARK UNBOUND:                -0.205
REMARK SMILES [NH3+][C@@H](CO)C(=O)[O-]
REMARK SMILES IDX 3 1 2 2 1 3 5 7 6 8 7 9 4 10
REMARK H PARENT 1 4 1 5 1 6 4 11
REMARK Flexibility Score: inf
ROOT
ATOM      1  C   UNL     1     177.385 160.979 177.164  1.00  0.00     0.227 C 
ENDROOT
BRANCH   1   2
ATOM      2  C   UNL     1     178.265 161.044 175.905  1.00  0.00     0.253 C 
BRANCH   2   3
ATOM      3  N   UNL     1     179.388 160.103 175.993  1.00  0.00    -0.348 N 
ATOM      4  H   UNL     1     180.284 160.602 175.790  1.00  0.00     0.345 HD
ATOM      5  H   UNL     1     179.270 159.344 175.282  1.00  0.00     0.345 HD
ATOM      6  H   UNL     1     179.444 159.672 176.944  1.00  0.00     0.345 HD
ENDBRANCH   2   3
BRANCH   2   7
ATOM      7  C   UNL     1     178.759 162.447 175.674  1.00  0.00     0.102 C 
ATOM      8  O   UNL     1     179.938 162.761 175.988  1.00  0.00    -0.544 OA
ATOM      9  O   UNL     1     177.937 163.395 175.076  1.00  0.00    -0.544 OA
ENDBRANCH   2   7
ENDBRANCH   1   2
BRANCH   1  10
ATOM     10  O   UNL     1     177.494 162.161 177.910  1.00  0.00    -0.390 OA
ATOM     11  H   UNL     1     176.634 162.262 178.393  1.00  0.00     0.210 HD
ENDBRANCH   1  10
TORSDOF 4
ENDMDL
MODEL 7
REMARK VINA RESULT:    -2.988      8.713      9.089
REMARK INTER + INTRA:          -3.717
REMARK INTER:                  -3.471
REMARK INTRA:                  -0.246
REMARK UNBOUND:                -0.205
REMARK SMILES [NH3+][C@@H](CO)C(=O)[O-]
REMARK SMILES IDX 3 1 2 2 1 3 5 7 6 8 7 9 4 10
REMARK H PARENT 1 4 1 5 1 6 4 11
REMARK Flexibility Score: inf
ROOT
ATOM      1  C   UNL     1     176.876 162.983 182.560  1.00  0.00     0.227 C 
ENDROOT
BRANCH   1   2
ATOM      2  C   UNL     1     177.460 161.869 183.444  1.00  0.00     0.253 C 
BRANCH   2   3
ATOM      3  N   UNL     1     178.006 162.415 184.693  1.00  0.00    -0.348 N 
ATOM      4  H   UNL     1     177.240 162.521 185.397  1.00  0.00     0.345 HD
ATOM      5  H   UNL     1     178.419 163.359 184.516  1.00  0.00     0.345 HD
ATOM      6  H   UNL     1     178.746 161.787 185.085  1.00  0.00     0.345 HD
ENDBRANCH   2   3
BRANCH   2   7
ATOM      7  C   UNL     1     178.508 161.090 182.696  1.00  0.00     0.102 C 
ATOM      8  O   UNL     1     178.238 160.588 181.572  1.00  0.00    -0.544 OA
ATOM      9  O   UNL     1     179.790 160.952 183.216  1.00  0.00    -0.544 OA
ENDBRANCH   2   7
ENDBRANCH   1   2
BRANCH   1  10
ATOM     10  O   UNL     1     177.885 163.607 181.813  1.00  0.00    -0.390 OA
ATOM     11  H   UNL     1     178.208 162.929 181.166  1.00  0.00     0.210 HD
ENDBRANCH   1  10
TORSDOF 4
ENDMDL
MODEL 8
REMARK VINA RESULT:    -1.208      1.320      2.736
REMARK INTER + INTRA:          -1.625
REMARK INTER:                  -1.441
REMARK INTRA:                  -0.184
REMARK UNBOUND:                -0.205
REMARK SMILES [NH3+][C@@H](CO)C(=O)[O-]
REMARK SMILES IDX 3 1 2 2 1 3 5 7 6 8 7 9 4 10
REMARK H PARENT 1 4 1 5 1 6 4 11
REMARK Flexibility Score: inf
ROOT
ATOM      1  C   UNL     1     177.336 161.138 174.045  1.00  0.00     0.227 C 
ENDROOT
BRANCH   1   2
ATOM      2  C   UNL     1     178.382 162.265 174.065  1.00  0.00     0.253 C 
BRANCH   2   3
ATOM      3  N   UNL     1     178.959 162.476 172.732  1.00  0.00    -0.348 N 
ATOM      4  H   UNL     1     179.084 161.556 172.251  1.00  0.00     0.345 HD
ATOM      5  H   UNL     1     179.898 162.928 172.820  1.00  0.00     0.345 HD
ATOM      6  H   UNL     1     178.342 163.086 172.148  1.00  0.00     0.345 HD
ENDBRANCH   2   3
BRANCH   2   7
ATOM      7  C   UNL     1     179.459 161.973 175.076  1.00  0.00     0.102 C 
ATOM      8  O   UNL     1     180.125 160.906 174.997  1.00  0.00    -0.544 OA
ATOM      9  O   UNL     1     179.756 162.892 176.075  1.00  0.00    -0.544 OA
ENDBRANCH   2   7
ENDBRANCH   1   2
BRANCH   1  10
ATOM     10  O   UNL     1     177.694 160.142 173.127  1.00  0.00    -0.390 OA
ATOM     11  H   UNL     1     177.006 159.433 173.206  1.00  0.00     0.210 HD
ENDBRANCH   1  10
TORSDOF 4
ENDMDL
