MODEL 1
REMARK VINA RESULT:    -2.718      0.000      0.000
REMARK INTER + INTRA:          -4.626
REMARK INTER:                  -4.148
REMARK INTRA:                  -0.478
REMARK UNBOUND:                -0.478
REMARK SMILES CC1=CCC[C@@H](C)C(=O)C[C@@H](C(C)C)C(=O)C1
REMARK SMILES IDX 8 1 9 2 6 3 7 4 5 5 4 6 3 7 2 8 1 9 10 11 11 12 15 13 16 14
REMARK SMILES IDX 17 15 12 17 13 18 14 19
REMARK H PARENT
REMARK Flexibility Score: 70.00
ROOT
ATOM      1  C   UNL     1       5.342   2.514  -8.063  1.00  0.00     0.136 C 
ATOM      2  O   UNL     1       4.433   2.812  -8.824  1.00  0.00    -0.299 OA
ENDROOT
BRANCH   1   3
ATOM      3  C   UNL     1       5.516   3.262  -6.758  1.00  0.00     0.053 C 
ATOM      4  C   UNL     1       4.159   3.379  -6.057  1.00  0.00     0.016 C 
BRANCH   3   5
ATOM      5  C   UNL     1       6.143   4.661  -6.950  1.00  0.00     0.015 C 
BRANCH   5   6
ATOM      6  C   UNL     1       7.662   4.693  -6.694  1.00  0.00     0.028 C 
BRANCH   6   7
ATOM      7  C   UNL     1       8.444   4.532  -7.979  1.00  0.00    -0.028 C 
ATOM      8  C   UNL     1       9.289   3.519  -8.280  1.00  0.00    -0.070 CG0
ATOM      9  C   UNL     1       9.990   3.558  -9.615  1.00  0.00     0.039 C 
ATOM     10  G   UNL     1       9.521   2.323  -7.381  1.00  0.00     0.000 G0
ENDBRANCH   6   7
ENDBRANCH   5   6
ENDBRANCH   3   5
ENDBRANCH   1   3
BRANCH   1  11
ATOM     11  C   UNL     1       6.265   1.374  -8.418  1.00  0.00     0.087 C 
BRANCH  11  12
ATOM     12  C   UNL     1       7.255   1.031  -7.277  1.00  0.00     0.066 C 
BRANCH  12  13
ATOM     13  C   UNL     1       8.680   1.165  -7.782  1.00  0.00     0.140 C 
ATOM     14  O   UNL     1       9.140   0.307  -8.522  1.00  0.00    -0.299 OA
BRANCH  13  15
ATOM     15  C   UNL     1       9.550   2.324  -7.377  1.00  0.00     0.106 CG0
ATOM     16  G   UNL     1       9.284   3.517  -8.271  1.00  0.00     0.000 G0
ENDBRANCH  13  15
ENDBRANCH  12  13
BRANCH  12  17
ATOM     17  C   UNL     1       7.019  -0.398  -6.695  1.00  0.00    -0.006 C 
ATOM     18  C   UNL     1       5.901  -1.154  -7.437  1.00  0.00     0.008 C 
ATOM     19  C   UNL     1       6.667  -0.337  -5.197  1.00  0.00     0.008 C 
ENDBRANCH  12  17
ENDBRANCH  11  12
ENDBRANCH   1  11
TORSDOF 1
ENDMDL
MODEL 2
REMARK VINA RESULT:    -2.577     21.083     22.492
REMARK INTER + INTRA:          -4.411
REMARK INTER:                  -4.028
REMARK INTRA:                  -0.383
REMARK UNBOUND:                -0.478
REMARK SMILES CC1=CCC[C@@H](C)C(=O)C[C@@H](C(C)C)C(=O)C1
REMARK SMILES IDX 8 1 9 2 6 3 7 4 5 5 4 6 3 7 2 8 1 9 10 11 11 12 15 13 16 14
REMARK SMILES IDX 17 15 12 17 13 18 14 19
REMARK H PARENT
REMARK Flexibility Score: 70.00
ROOT
ATOM      1  C   UNL     1      -7.060  -7.548   8.513  1.00  0.00     0.136 C 
ATOM      2  O   UNL     1      -7.026  -8.033   9.634  1.00  0.00    -0.299 OA
ENDROOT
BRANCH   1   3
ATOM      3  C   UNL     1      -5.989  -7.899   7.502  1.00  0.00     0.053 C 
ATOM      4  C   UNL     1      -6.142  -9.367   7.089  1.00  0.00     0.016 C 
BRANCH   3   5
ATOM      5  C   UNL     1      -4.561  -7.637   8.030  1.00  0.00     0.015 C 
BRANCH   5   6
ATOM      6  C   UNL     1      -4.005  -6.254   7.638  1.00  0.00     0.028 C 
BRANCH   6   7
ATOM      7  C   UNL     1      -4.464  -5.180   8.599  1.00  0.00    -0.028 C 
ATOM      8  C   UNL     1      -5.333  -4.180   8.326  1.00  0.00    -0.070 CG0
ATOM      9  C   UNL     1      -5.643  -3.194   9.425  1.00  0.00     0.039 C 
ATOM     10  G   UNL     1      -6.055  -4.032   7.003  1.00  0.00     0.000 G0
ENDBRANCH   6   7
ENDBRANCH   5   6
ENDBRANCH   3   5
ENDBRANCH   1   3
BRANCH   1  11
ATOM     11  C   UNL     1      -8.196  -6.630   8.134  1.00  0.00     0.087 C 
BRANCH  11  12
ATOM     12  C   UNL     1      -7.930  -5.867   6.812  1.00  0.00     0.066 C 
BRANCH  12  13
ATOM     13  C   UNL     1      -7.508  -4.442   7.124  1.00  0.00     0.140 C 
ATOM     14  O   UNL     1      -8.350  -3.628   7.474  1.00  0.00    -0.299 OA
BRANCH  13  15
ATOM     15  C   UNL     1      -6.075  -4.001   6.992  1.00  0.00     0.106 CG0
ATOM     16  G   UNL     1      -5.352  -4.167   8.312  1.00  0.00     0.000 G0
ENDBRANCH  13  15
ENDBRANCH  12  13
BRANCH  12  17
ATOM     17  C   UNL     1      -9.170  -5.870   5.865  1.00  0.00    -0.006 C 
ATOM     18  C   UNL     1      -9.651  -7.294   5.535  1.00  0.00     0.008 C 
ATOM     19  C   UNL     1      -8.864  -5.131   4.548  1.00  0.00     0.008 C 
ENDBRANCH  12  17
ENDBRANCH  11  12
ENDBRANCH   1  11
TORSDOF 1
ENDMDL
MODEL 3
REMARK VINA RESULT:    -2.521      2.080      2.748
REMARK INTER + INTRA:          -4.325
REMARK INTER:                  -4.606
REMARK INTRA:                   0.281
REMARK UNBOUND:                -0.478
REMARK SMILES CC1=CCC[C@@H](C)C(=O)C[C@@H](C(C)C)C(=O)C1
REMARK SMILES IDX 8 1 9 2 6 3 7 4 5 5 4 6 3 7 2 8 1 9 10 11 11 12 15 13 16 14
REMARK SMILES IDX 17 15 12 17 13 18 14 19
REMARK H PARENT
REMARK Flexibility Score: 70.00
ROOT
ATOM      1  C   UNL     1       5.062   2.358  -6.256  1.00  0.00     0.136 C 
ATOM      2  O   UNL     1       4.066   2.688  -5.627  1.00  0.00    -0.299 OA
ENDROOT
BRANCH   1   3
ATOM      3  C   UNL     1       5.735   3.347  -7.184  1.00  0.00     0.053 C 
ATOM      4  C   UNL     1       6.065   4.627  -6.408  1.00  0.00     0.016 C 
BRANCH   3   5
ATOM      5  C   UNL     1       4.878   3.679  -8.426  1.00  0.00     0.015 C 
BRANCH   5   6
ATOM      6  C   UNL     1       5.357   2.973  -9.710  1.00  0.00     0.028 C 
BRANCH   6   7
ATOM      7  C   UNL     1       6.867   2.902  -9.771  1.00  0.00    -0.028 C 
ATOM      8  C   UNL     1       7.618   1.779  -9.709  1.00  0.00    -0.070 CG0
ATOM      9  C   UNL     1       9.118   1.929  -9.766  1.00  0.00     0.039 C 
ATOM     10  G   UNL     1       7.037   0.382  -9.646  1.00  0.00     0.000 G0
ENDBRANCH   6   7
ENDBRANCH   5   6
ENDBRANCH   3   5
ENDBRANCH   1   3
BRANCH   1  11
ATOM     11  C   UNL     1       5.633   0.973  -6.071  1.00  0.00     0.087 C 
BRANCH  11  12
ATOM     12  C   UNL     1       6.821   0.688  -7.023  1.00  0.00     0.066 C 
BRANCH  12  13
ATOM     13  C   UNL     1       6.296   0.172  -8.351  1.00  0.00     0.140 C 
ATOM     14  O   UNL     1       5.233  -0.431  -8.385  1.00  0.00    -0.299 OA
BRANCH  13  15
ATOM     15  C   UNL     1       7.067   0.368  -9.629  1.00  0.00     0.106 CG0
ATOM     16  G   UNL     1       7.623   1.775  -9.695  1.00  0.00     0.000 G0
ENDBRANCH  13  15
ENDBRANCH  12  13
BRANCH  12  17
ATOM     17  C   UNL     1       7.840  -0.325  -6.414  1.00  0.00    -0.006 C 
ATOM     18  C   UNL     1       7.279  -1.045  -5.174  1.00  0.00     0.008 C 
ATOM     19  C   UNL     1       9.157   0.375  -6.028  1.00  0.00     0.008 C 
ENDBRANCH  12  17
ENDBRANCH  11  12
ENDBRANCH   1  11
TORSDOF 1
ENDMDL
MODEL 4
REMARK VINA RESULT:    -2.310     21.210     23.074
REMARK INTER + INTRA:          -4.004
REMARK INTER:                  -4.250
REMARK INTRA:                   0.246
REMARK UNBOUND:                -0.478
REMARK SMILES CC1=CCC[C@@H](C)C(=O)C[C@@H](C(C)C)C(=O)C1
REMARK SMILES IDX 8 1 9 2 6 3 7 4 5 5 4 6 3 7 2 8 1 9 10 11 11 12 15 13 16 14
REMARK SMILES IDX 17 15 12 17 13 18 14 19
REMARK H PARENT
REMARK Flexibility Score: 70.00
ROOT
ATOM      1  C   UNL     1      -4.502  -5.627   7.704  1.00  0.00     0.136 C 
ATOM      2  O   UNL     1      -4.330  -6.202   6.639  1.00  0.00    -0.299 OA
ENDROOT
BRANCH   1   3
ATOM      3  C   UNL     1      -3.926  -6.205   8.979  1.00  0.00     0.053 C 
ATOM      4  C   UNL     1      -2.886  -7.273   8.628  1.00  0.00     0.016 C 
BRANCH   3   5
ATOM      5  C   UNL     1      -5.009  -6.796   9.909  1.00  0.00     0.015 C 
BRANCH   5   6
ATOM      6  C   UNL     1      -5.874  -7.879   9.234  1.00  0.00     0.028 C 
BRANCH   6   7
ATOM      7  C   UNL     1      -7.350  -7.610   9.431  1.00  0.00    -0.028 C 
ATOM      8  C   UNL     1      -8.194  -7.070   8.521  1.00  0.00    -0.070 CG0
ATOM      9  C   UNL     1      -9.632  -6.864   8.927  1.00  0.00     0.039 C 
ATOM     10  G   UNL     1      -7.789  -6.720   7.104  1.00  0.00     0.000 G0
ENDBRANCH   6   7
ENDBRANCH   5   6
ENDBRANCH   3   5
ENDBRANCH   1   3
BRANCH   1  11
ATOM     11  C   UNL     1      -5.259  -4.321   7.730  1.00  0.00     0.087 C 
BRANCH  11  12
ATOM     12  C   UNL     1      -6.754  -4.507   8.089  1.00  0.00     0.066 C 
BRANCH  12  13
ATOM     13  C   UNL     1      -7.456  -5.253   6.968  1.00  0.00     0.140 C 
ATOM     14  O   UNL     1      -7.763  -4.656   5.946  1.00  0.00    -0.299 OA
BRANCH  13  15
ATOM     15  C   UNL     1      -7.803  -6.712   7.094  1.00  0.00     0.106 CG0
ATOM     16  G   UNL     1      -8.204  -7.035   8.518  1.00  0.00     0.000 G0
ENDBRANCH  13  15
ENDBRANCH  12  13
BRANCH  12  17
ATOM     17  C   UNL     1      -7.471  -3.149   8.367  1.00  0.00    -0.006 C 
ATOM     18  C   UNL     1      -6.494  -2.056   8.837  1.00  0.00     0.008 C 
ATOM     19  C   UNL     1      -8.579  -3.313   9.425  1.00  0.00     0.008 C 
ENDBRANCH  12  17
ENDBRANCH  11  12
ENDBRANCH   1  11
TORSDOF 1
ENDMDL
MODEL 5
REMARK VINA RESULT:    -2.268     21.159     22.865
REMARK INTER + INTRA:          -3.939
REMARK INTER:                  -4.216
REMARK INTRA:                   0.277
REMARK UNBOUND:                -0.478
REMARK SMILES CC1=CCC[C@@H](C)C(=O)C[C@@H](C(C)C)C(=O)C1
REMARK SMILES IDX 8 1 9 2 6 3 7 4 5 5 4 6 3 7 2 8 1 9 10 11 11 12 15 13 16 14
REMARK SMILES IDX 17 15 12 17 13 18 14 19
REMARK H PARENT
REMARK Flexibility Score: 70.00
ROOT
ATOM      1  C   UNL     1      -5.308  -4.176   7.524  1.00  0.00     0.136 C 
ATOM      2  O   UNL     1      -5.263  -4.164   6.303  1.00  0.00    -0.299 OA
ENDROOT
BRANCH   1   3
ATOM      3  C   UNL     1      -6.232  -3.227   8.258  1.00  0.00     0.053 C 
ATOM      4  C   UNL     1      -5.771  -3.093   9.713  1.00  0.00     0.016 C 
BRANCH   3   5
ATOM      5  C   UNL     1      -7.711  -3.671   8.203  1.00  0.00     0.015 C 
BRANCH   5   6
ATOM      6  C   UNL     1      -8.178  -4.411   9.472  1.00  0.00     0.028 C 
BRANCH   6   7
ATOM      7  C   UNL     1      -8.884  -5.705   9.130  1.00  0.00    -0.028 C 
ATOM      8  C   UNL     1      -8.298  -6.909   8.935  1.00  0.00    -0.070 CG0
ATOM      9  C   UNL     1      -9.185  -8.076   8.579  1.00  0.00     0.039 C 
ATOM     10  G   UNL     1      -6.816  -7.161   9.115  1.00  0.00     0.000 G0
ENDBRANCH   6   7
ENDBRANCH   5   6
ENDBRANCH   3   5
ENDBRANCH   1   3
BRANCH   1  11
ATOM     11  C   UNL     1      -4.466  -5.167   8.291  1.00  0.00     0.087 C 
BRANCH  11  12
ATOM     12  C   UNL     1      -4.623  -6.614   7.762  1.00  0.00     0.066 C 
BRANCH  12  13
ATOM     13  C   UNL     1      -6.086  -7.016   7.807  1.00  0.00     0.140 C 
ATOM     14  O   UNL     1      -6.695  -7.197   6.762  1.00  0.00    -0.299 OA
BRANCH  13  15
ATOM     15  C   UNL     1      -6.815  -7.181   9.114  1.00  0.00     0.106 CG0
ATOM     16  G   UNL     1      -8.293  -6.907   8.928  1.00  0.00     0.000 G0
ENDBRANCH  13  15
ENDBRANCH  12  13
BRANCH  12  17
ATOM     17  C   UNL     1      -3.757  -7.636   8.563  1.00  0.00    -0.006 C 
ATOM     18  C   UNL     1      -3.115  -7.006   9.813  1.00  0.00     0.008 C 
ATOM     19  C   UNL     1      -2.644  -8.233   7.680  1.00  0.00     0.008 C 
ENDBRANCH  12  17
ENDBRANCH  11  12
ENDBRANCH   1  11
TORSDOF 1
ENDMDL
MODEL 6
REMARK VINA RESULT:    -2.246      2.131      5.110
REMARK INTER + INTRA:          -3.906
REMARK INTER:                  -3.943
REMARK INTRA:                   0.036
REMARK UNBOUND:                -0.478
REMARK SMILES CC1=CCC[C@@H](C)C(=O)C[C@@H](C(C)C)C(=O)C1
REMARK SMILES IDX 8 1 9 2 6 3 7 4 5 5 4 6 3 7 2 8 1 9 10 11 11 12 15 13 16 14
REMARK SMILES IDX 17 15 12 17 13 18 14 19
REMARK H PARENT
REMARK Flexibility Score: 70.00
ROOT
ATOM      1  C   UNL     1       9.189   2.221  -7.805  1.00  0.00     0.136 C 
ATOM      2  O   UNL     1       9.552   2.828  -6.807  1.00  0.00    -0.299 OA
ENDROOT
BRANCH   1   3
ATOM      3  C   UNL     1      10.005   1.057  -8.324  1.00  0.00     0.053 C 
ATOM      4  C   UNL     1       9.550   0.711  -9.745  1.00  0.00     0.016 C 
BRANCH   3   5
ATOM      5  C   UNL     1       9.913  -0.189  -7.414  1.00  0.00     0.015 C 
BRANCH   5   6
ATOM      6  C   UNL     1       8.704  -0.164  -6.459  1.00  0.00     0.028 C 
BRANCH   6   7
ATOM      7  C   UNL     1       7.547  -0.970  -7.010  1.00  0.00    -0.028 C 
ATOM      8  C   UNL     1       6.243  -0.612  -6.992  1.00  0.00    -0.070 CG0
ATOM      9  C   UNL     1       5.239  -1.573  -7.578  1.00  0.00     0.039 C 
ATOM     10  G   UNL     1       5.744   0.721  -6.473  1.00  0.00     0.000 G0
ENDBRANCH   6   7
ENDBRANCH   5   6
ENDBRANCH   3   5
ENDBRANCH   1   3
BRANCH   1  11
ATOM     11  C   UNL     1       7.904   2.619  -8.490  1.00  0.00     0.087 C 
BRANCH  11  12
ATOM     12  C   UNL     1       6.758   2.903  -7.487  1.00  0.00     0.066 C 
BRANCH  12  13
ATOM     13  C   UNL     1       5.753   1.766  -7.528  1.00  0.00     0.140 C 
ATOM     14  O   UNL     1       4.937   1.715  -8.437  1.00  0.00    -0.299 OA
BRANCH  13  15
ATOM     15  C   UNL     1       5.724   0.706  -6.459  1.00  0.00     0.106 CG0
ATOM     16  G   UNL     1       6.233  -0.609  -7.012  1.00  0.00     0.000 G0
ENDBRANCH  13  15
ENDBRANCH  12  13
BRANCH  12  17
ATOM     17  C   UNL     1       6.047   4.264  -7.768  1.00  0.00    -0.006 C 
ATOM     18  C   UNL     1       6.926   5.225  -8.590  1.00  0.00     0.008 C 
ATOM     19  C   UNL     1       5.643   4.961  -6.456  1.00  0.00     0.008 C 
ENDBRANCH  12  17
ENDBRANCH  11  12
ENDBRANCH   1  11
TORSDOF 1
ENDMDL
MODEL 7
REMARK VINA RESULT:    -2.216      1.940      3.383
REMARK INTER + INTRA:          -3.860
REMARK INTER:                  -3.562
REMARK INTRA:                  -0.298
REMARK UNBOUND:                -0.478
REMARK SMILES CC1=CCC[C@@H](C)C(=O)C[C@@H](C(C)C)C(=O)C1
REMARK SMILES IDX 8 1 9 2 6 3 7 4 5 5 4 6 3 7 2 8 1 9 10 11 11 12 15 13 16 14
REMARK SMILES IDX 17 15 12 17 13 18 14 19
REMARK H PARENT
REMARK Flexibility Score: 70.00
ROOT
ATOM      1  C   UNL     1       6.284   0.211  -7.447  1.00  0.00     0.136 C 
ATOM      2  O   UNL     1       5.613  -0.792  -7.647  1.00  0.00    -0.299 OA
ENDROOT
BRANCH   1   3
ATOM      3  C   UNL     1       6.405   0.775  -6.047  1.00  0.00     0.053 C 
ATOM      4  C   UNL     1       6.515  -0.377  -5.043  1.00  0.00     0.016 C 
BRANCH   3   5
ATOM      5  C   UNL     1       5.227   1.702  -5.673  1.00  0.00     0.015 C 
BRANCH   5   6
ATOM      6  C   UNL     1       4.800   2.645  -6.814  1.00  0.00     0.028 C 
BRANCH   6   7
ATOM      7  C   UNL     1       5.491   3.987  -6.710  1.00  0.00    -0.028 C 
ATOM      8  C   UNL     1       6.407   4.484  -7.572  1.00  0.00    -0.070 CG0
ATOM      9  C   UNL     1       6.994   5.842  -7.274  1.00  0.00     0.039 C 
ATOM     10  G   UNL     1       6.829   3.783  -8.847  1.00  0.00     0.000 G0
ENDBRANCH   6   7
ENDBRANCH   5   6
ENDBRANCH   3   5
ENDBRANCH   1   3
BRANCH   1  11
ATOM     11  C   UNL     1       7.017   0.857  -8.597  1.00  0.00     0.087 C 
BRANCH  11  12
ATOM     12  C   UNL     1       8.256   1.665  -8.134  1.00  0.00     0.066 C 
BRANCH  12  13
ATOM     13  C   UNL     1       8.157   3.088  -8.653  1.00  0.00     0.140 C 
ATOM     14  O   UNL     1       9.180   3.710  -8.905  1.00  0.00    -0.299 OA
BRANCH  13  15
ATOM     15  C   UNL     1       6.826   3.762  -8.847  1.00  0.00     0.106 CG0
ATOM     16  G   UNL     1       6.428   4.507  -7.590  1.00  0.00     0.000 G0
ENDBRANCH  13  15
ENDBRANCH  12  13
BRANCH  12  17
ATOM     17  C   UNL     1       9.596   1.012  -8.596  1.00  0.00    -0.006 C 
ATOM     18  C   UNL     1       9.469   0.321  -9.966  1.00  0.00     0.008 C 
ATOM     19  C   UNL     1      10.097  -0.017  -7.566  1.00  0.00     0.008 C 
ENDBRANCH  12  17
ENDBRANCH  11  12
ENDBRANCH   1  11
TORSDOF 1
ENDMDL
MODEL 8
REMARK VINA RESULT:    -2.206     21.472     23.202
REMARK INTER + INTRA:          -3.844
REMARK INTER:                  -3.410
REMARK INTRA:                  -0.433
REMARK UNBOUND:                -0.478
REMARK SMILES CC1=CCC[C@@H](C)C(=O)C[C@@H](C(C)C)C(=O)C1
REMARK SMILES IDX 8 1 9 2 6 3 7 4 5 5 4 6 3 7 2 8 1 9 10 11 11 12 15 13 16 14
REMARK SMILES IDX 17 15 12 17 13 18 14 19
REMARK H PARENT
REMARK Flexibility Score: 70.00
ROOT
ATOM      1  C   UNL     1      -6.131  -4.312   7.484  1.00  0.00     0.136 C 
ATOM      2  O   UNL     1      -5.638  -3.352   6.910  1.00  0.00    -0.299 OA
ENDROOT
BRANCH   1   3
ATOM      3  C   UNL     1      -5.506  -4.837   8.758  1.00  0.00     0.053 C 
ATOM      4  C   UNL     1      -5.244  -3.669   9.714  1.00  0.00     0.016 C 
BRANCH   3   5
ATOM      5  C   UNL     1      -4.200  -5.624   8.502  1.00  0.00     0.015 C 
BRANCH   5   6
ATOM      6  C   UNL     1      -4.395  -6.863   7.608  1.00  0.00     0.028 C 
BRANCH   6   7
ATOM      7  C   UNL     1      -5.076  -7.986   8.359  1.00  0.00    -0.028 C 
ATOM      8  C   UNL     1      -6.337  -8.434   8.157  1.00  0.00    -0.070 CG0
ATOM      9  C   UNL     1      -6.836  -9.556   9.033  1.00  0.00     0.039 C 
ATOM     10  G   UNL     1      -7.248  -7.916   7.063  1.00  0.00     0.000 G0
ENDBRANCH   6   7
ENDBRANCH   5   6
ENDBRANCH   3   5
ENDBRANCH   1   3
BRANCH   1  11
ATOM     11  C   UNL     1      -7.387  -4.944   6.932  1.00  0.00     0.087 C 
BRANCH  11  12
ATOM     12  C   UNL     1      -8.218  -5.664   8.023  1.00  0.00     0.066 C 
BRANCH  12  13
ATOM     13  C   UNL     1      -8.388  -7.126   7.650  1.00  0.00     0.140 C 
ATOM     14  O   UNL     1      -9.463  -7.676   7.841  1.00  0.00    -0.299 OA
BRANCH  13  15
ATOM     15  C   UNL     1      -7.253  -7.923   7.065  1.00  0.00     0.106 CG0
ATOM     16  G   UNL     1      -6.347  -8.432   8.168  1.00  0.00     0.000 G0
ENDBRANCH  13  15
ENDBRANCH  12  13
BRANCH  12  17
ATOM     17  C   UNL     1      -9.612  -4.997   8.243  1.00  0.00    -0.006 C 
ATOM     18  C   UNL     1      -9.865  -3.833   7.267  1.00  0.00     0.008 C 
ATOM     19  C   UNL     1      -9.756  -4.476   9.686  1.00  0.00     0.008 C 
ENDBRANCH  12  17
ENDBRANCH  11  12
ENDBRANCH   1  11
TORSDOF 1
ENDMDL
MODEL 9
REMARK VINA RESULT:    -2.202      2.336      3.803
REMARK INTER + INTRA:          -3.839
REMARK INTER:                  -3.711
REMARK INTRA:                  -0.128
REMARK UNBOUND:                -0.478
REMARK SMILES CC1=CCC[C@@H](C)C(=O)C[C@@H](C(C)C)C(=O)C1
REMARK SMILES IDX 8 1 9 2 6 3 7 4 5 5 4 6 3 7 2 8 1 9 10 11 11 12 15 13 16 14
REMARK SMILES IDX 17 15 12 17 13 18 14 19
REMARK H PARENT
REMARK Flexibility Score: 70.00
ROOT
ATOM      1  C   UNL     1       5.837  -1.426  -7.260  1.00  0.00     0.136 C 
ATOM      2  O   UNL     1       4.963  -2.267  -7.104  1.00  0.00    -0.299 OA
ENDROOT
BRANCH   1   3
ATOM      3  C   UNL     1       6.685  -0.987  -6.086  1.00  0.00     0.053 C 
ATOM      4  C   UNL     1       6.905  -2.176  -5.146  1.00  0.00     0.016 C 
BRANCH   3   5
ATOM      5  C   UNL     1       6.066   0.200  -5.313  1.00  0.00     0.015 C 
BRANCH   5   6
ATOM      6  C   UNL     1       5.331   1.207  -6.218  1.00  0.00     0.028 C 
BRANCH   6   7
ATOM      7  C   UNL     1       6.191   2.416  -6.513  1.00  0.00    -0.028 C 
ATOM      8  C   UNL     1       6.670   2.781  -7.725  1.00  0.00    -0.070 CG0
ATOM      9  C   UNL     1       7.532   4.017  -7.800  1.00  0.00     0.039 C 
ATOM     10  G   UNL     1       6.339   2.056  -9.012  1.00  0.00     0.000 G0
ENDBRANCH   6   7
ENDBRANCH   5   6
ENDBRANCH   3   5
ENDBRANCH   1   3
BRANCH   1  11
ATOM     11  C   UNL     1       6.087  -0.859  -8.637  1.00  0.00     0.087 C 
BRANCH  11  12
ATOM     12  C   UNL     1       7.525  -0.309  -8.801  1.00  0.00     0.066 C 
BRANCH  12  13
ATOM     13  C   UNL     1       7.470   1.097  -9.371  1.00  0.00     0.140 C 
ATOM     14  O   UNL     1       8.354   1.478 -10.124  1.00  0.00    -0.299 OA
BRANCH  13  15
ATOM     15  C   UNL     1       6.357   2.045  -9.012  1.00  0.00     0.106 CG0
ATOM     16  G   UNL     1       6.681   2.771  -7.723  1.00  0.00     0.000 G0
ENDBRANCH  13  15
ENDBRANCH  12  13
BRANCH  12  17
ATOM     17  C   UNL     1       8.411  -1.223  -9.705  1.00  0.00    -0.006 C 
ATOM     18  C   UNL     1       7.755  -2.590  -9.975  1.00  0.00     0.008 C 
ATOM     19  C   UNL     1       9.797  -1.454  -9.073  1.00  0.00     0.008 C 
ENDBRANCH  12  17
ENDBRANCH  11  12
ENDBRANCH   1  11
TORSDOF 1
ENDMDL
