MODEL 1
REMARK VINA RESULT:    -4.847      0.000      0.000
REMARK INTER + INTRA:          -5.603
REMARK INTER:                  -5.556
REMARK INTRA:                  -0.048
REMARK UNBOUND:                -0.048
REMARK SMILES O=C([O-])c1cc(O)c(O)c(O)c1
REMARK SMILES IDX 4 1 5 2 12 3 6 4 10 5 8 6 2 7 1 8 3 9 7 10 11 12 9 14
REMARK H PARENT 7 11 11 13 9 15
REMARK Flexibility Score: inf
ROOT
ATOM      1  C   UNL     1       8.492  -2.933  17.788  1.00  0.00     0.005 A 
ATOM      2  C   UNL     1       9.484  -1.953  17.948  1.00  0.00     0.060 A 
ATOM      3  C   UNL     1       8.170  -3.372  16.495  1.00  0.00     0.060 A 
ATOM      4  C   UNL     1      10.148  -1.411  16.841  1.00  0.00     0.162 A 
ATOM      5  C   UNL     1       8.827  -2.839  15.378  1.00  0.00     0.162 A 
ATOM      6  C   UNL     1       9.816  -1.860  15.540  1.00  0.00     0.200 A 
ENDROOT
BRANCH   1   7
ATOM      7  C   UNL     1       7.799  -3.495  18.970  1.00  0.00     0.072 C 
ATOM      8  O   UNL     1       6.542  -3.574  18.998  1.00  0.00    -0.545 OA
ATOM      9  O   UNL     1       8.526  -3.944  20.066  1.00  0.00    -0.545 OA
ENDBRANCH   1   7
BRANCH   4  10
ATOM     10  O   UNL     1      11.122  -0.439  17.079  1.00  0.00    -0.504 OA
ATOM     11  H   UNL     1      11.600   0.073  16.352  1.00  0.00     0.293 HD
ENDBRANCH   4  10
BRANCH   5  12
ATOM     12  O   UNL     1       8.501  -3.280  14.096  1.00  0.00    -0.504 OA
ATOM     13  H   UNL     1       9.043  -3.997  13.628  1.00  0.00     0.293 HD
ENDBRANCH   5  12
BRANCH   6  14
ATOM     14  O   UNL     1      10.440  -1.361  14.393  1.00  0.00    -0.502 OA
ATOM     15  H   UNL     1       9.985  -0.768  13.714  1.00  0.00     0.293 HD
ENDBRANCH   6  14
TORSDOF 4
ENDMDL
MODEL 2
REMARK VINA RESULT:    -4.812      2.161      3.648
REMARK INTER + INTRA:          -5.563
REMARK INTER:                  -5.519
REMARK INTRA:                  -0.045
REMARK UNBOUND:                -0.048
REMARK SMILES O=C([O-])c1cc(O)c(O)c(O)c1
REMARK SMILES IDX 4 1 5 2 12 3 6 4 10 5 8 6 2 7 1 8 3 9 7 10 11 12 9 14
REMARK H PARENT 7 11 11 13 9 15
REMARK Flexibility Score: inf
ROOT
ATOM      1  C   UNL     1      11.265  -2.215  18.461  1.00  0.00     0.005 A 
ATOM      2  C   UNL     1      11.344  -1.728  17.147  1.00  0.00     0.060 A 
ATOM      3  C   UNL     1      10.069  -2.808  18.896  1.00  0.00     0.060 A 
ATOM      4  C   UNL     1      10.253  -1.827  16.274  1.00  0.00     0.162 A 
ATOM      5  C   UNL     1       8.971  -2.914  18.033  1.00  0.00     0.162 A 
ATOM      6  C   UNL     1       9.053  -2.427  16.722  1.00  0.00     0.200 A 
ENDROOT
BRANCH   1   7
ATOM      7  C   UNL     1      12.426  -2.102  19.371  1.00  0.00     0.072 C 
ATOM      8  O   UNL     1      12.555  -1.101  20.125  1.00  0.00    -0.545 OA
ATOM      9  O   UNL     1      13.393  -3.100  19.407  1.00  0.00    -0.545 OA
ENDBRANCH   1   7
BRANCH   4  10
ATOM     10  O   UNL     1      10.408  -1.320  14.982  1.00  0.00    -0.504 OA
ATOM     11  H   UNL     1      11.301  -1.115  14.557  1.00  0.00     0.293 HD
ENDBRANCH   4  10
BRANCH   5  12
ATOM     12  O   UNL     1       7.788  -3.505  18.474  1.00  0.00    -0.504 OA
ATOM     13  H   UNL     1       6.924  -2.979  18.538  1.00  0.00     0.293 HD
ENDBRANCH   5  12
BRANCH   6  14
ATOM     14  O   UNL     1       7.927  -2.557  15.902  1.00  0.00    -0.502 OA
ATOM     15  H   UNL     1       7.802  -2.062  15.031  1.00  0.00     0.293 HD
ENDBRANCH   6  14
TORSDOF 4
ENDMDL
MODEL 3
REMARK VINA RESULT:    -4.742      1.939      3.627
REMARK INTER + INTRA:          -5.483
REMARK INTER:                  -5.439
REMARK INTRA:                  -0.045
REMARK UNBOUND:                -0.048
REMARK SMILES O=C([O-])c1cc(O)c(O)c(O)c1
REMARK SMILES IDX 4 1 5 2 12 3 6 4 10 5 8 6 2 7 1 8 3 9 7 10 11 12 9 14
REMARK H PARENT 7 11 11 13 9 15
REMARK Flexibility Score: inf
ROOT
ATOM      1  C   UNL     1      10.989  -1.812  18.462  1.00  0.00     0.005 A 
ATOM      2  C   UNL     1       9.837  -2.525  18.829  1.00  0.00     0.060 A 
ATOM      3  C   UNL     1      11.150  -1.420  17.124  1.00  0.00     0.060 A 
ATOM      4  C   UNL     1       8.856  -2.847  17.883  1.00  0.00     0.162 A 
ATOM      5  C   UNL     1      10.176  -1.735  16.167  1.00  0.00     0.162 A 
ATOM      6  C   UNL     1       9.027  -2.448  16.536  1.00  0.00     0.200 A 
ENDROOT
BRANCH   1   7
ATOM      7  C   UNL     1      12.017  -1.481  19.474  1.00  0.00     0.072 C 
ATOM      8  O   UNL     1      11.953  -0.402  20.122  1.00  0.00    -0.545 OA
ATOM      9  O   UNL     1      13.067  -2.356  19.726  1.00  0.00    -0.545 OA
ENDBRANCH   1   7
BRANCH   4  10
ATOM     10  O   UNL     1       7.738  -3.558  18.323  1.00  0.00    -0.504 OA
ATOM     11  H   UNL     1       6.948  -3.791  17.738  1.00  0.00     0.293 HD
ENDBRANCH   4  10
BRANCH   5  12
ATOM     12  O   UNL     1      10.344  -1.342  14.840  1.00  0.00    -0.504 OA
ATOM     13  H   UNL     1       9.847  -1.799  14.085  1.00  0.00     0.293 HD
ENDBRANCH   5  12
BRANCH   6  14
ATOM     14  O   UNL     1       8.087  -2.736  15.543  1.00  0.00    -0.502 OA
ATOM     15  H   UNL     1       8.143  -2.394  14.594  1.00  0.00     0.293 HD
ENDBRANCH   6  14
TORSDOF 4
ENDMDL
MODEL 4
REMARK VINA RESULT:    -4.658      1.549      2.888
REMARK INTER + INTRA:          -5.386
REMARK INTER:                  -5.338
REMARK INTRA:                  -0.049
REMARK UNBOUND:                -0.048
REMARK SMILES O=C([O-])c1cc(O)c(O)c(O)c1
REMARK SMILES IDX 4 1 5 2 12 3 6 4 10 5 8 6 2 7 1 8 3 9 7 10 11 12 9 14
REMARK H PARENT 7 11 11 13 9 15
REMARK Flexibility Score: inf
ROOT
ATOM      1  C   UNL     1       8.751  -2.868  18.206  1.00  0.00     0.005 A 
ATOM      2  C   UNL     1       8.969  -2.354  16.918  1.00  0.00     0.060 A 
ATOM      3  C   UNL     1       9.823  -2.914  19.111  1.00  0.00     0.060 A 
ATOM      4  C   UNL     1      10.232  -1.892  16.530  1.00  0.00     0.162 A 
ATOM      5  C   UNL     1      11.092  -2.454  18.736  1.00  0.00     0.162 A 
ATOM      6  C   UNL     1      11.307  -1.942  17.449  1.00  0.00     0.200 A 
ENDROOT
BRANCH   1   7
ATOM      7  C   UNL     1       7.410  -3.353  18.600  1.00  0.00     0.072 C 
ATOM      8  O   UNL     1       6.378  -2.688  18.314  1.00  0.00    -0.545 OA
ATOM      9  O   UNL     1       7.268  -4.551  19.290  1.00  0.00    -0.545 OA
ENDBRANCH   1   7
BRANCH   4  10
ATOM     10  O   UNL     1      10.372  -1.395  15.232  1.00  0.00    -0.504 OA
ATOM     11  H   UNL     1      10.096  -1.897  14.401  1.00  0.00     0.293 HD
ENDBRANCH   4  10
BRANCH   5  12
ATOM     12  O   UNL     1      12.151  -2.503  19.641  1.00  0.00    -0.504 OA
ATOM     13  H   UNL     1      11.993  -2.577  20.639  1.00  0.00     0.293 HD
ENDBRANCH   5  12
BRANCH   6  14
ATOM     14  O   UNL     1      12.592  -1.497  17.126  1.00  0.00    -0.502 OA
ATOM     15  H   UNL     1      13.303  -1.278  17.809  1.00  0.00     0.293 HD
ENDBRANCH   6  14
TORSDOF 4
ENDMDL
MODEL 5
REMARK VINA RESULT:    -4.649      1.483      2.100
REMARK INTER + INTRA:          -5.376
REMARK INTER:                  -5.328
REMARK INTRA:                  -0.049
REMARK UNBOUND:                -0.048
REMARK SMILES O=C([O-])c1cc(O)c(O)c(O)c1
REMARK SMILES IDX 4 1 5 2 12 3 6 4 10 5 8 6 2 7 1 8 3 9 7 10 11 12 9 14
REMARK H PARENT 7 11 11 13 9 15
REMARK Flexibility Score: inf
ROOT
ATOM      1  C   UNL     1       8.659  -2.872  18.149  1.00  0.00     0.005 A 
ATOM      2  C   UNL     1       9.725  -2.877  19.063  1.00  0.00     0.060 A 
ATOM      3  C   UNL     1       8.869  -2.358  16.860  1.00  0.00     0.060 A 
ATOM      4  C   UNL     1      10.983  -2.378  18.705  1.00  0.00     0.162 A 
ATOM      5  C   UNL     1      10.124  -1.857  16.489  1.00  0.00     0.162 A 
ATOM      6  C   UNL     1      11.186  -1.862  17.403  1.00  0.00     0.200 A 
ENDROOT
BRANCH   1   7
ATOM      7  C   UNL     1       7.334  -3.401  18.544  1.00  0.00     0.072 C 
ATOM      8  O   UNL     1       6.278  -2.805  18.204  1.00  0.00    -0.545 OA
ATOM      9  O   UNL     1       7.237  -4.567  19.295  1.00  0.00    -0.545 OA
ENDBRANCH   1   7
BRANCH   4  10
ATOM     10  O   UNL     1      11.995  -2.416  19.668  1.00  0.00    -0.504 OA
ATOM     11  H   UNL     1      12.862  -1.905  19.598  1.00  0.00     0.293 HD
ENDBRANCH   4  10
BRANCH   5  12
ATOM     12  O   UNL     1      10.323  -1.348  15.206  1.00  0.00    -0.504 OA
ATOM     13  H   UNL     1       9.596  -0.839  14.718  1.00  0.00     0.293 HD
ENDBRANCH   5  12
BRANCH   6  14
ATOM     14  O   UNL     1      12.416  -1.350  16.981  1.00  0.00    -0.502 OA
ATOM     15  H   UNL     1      13.260  -1.900  16.900  1.00  0.00     0.293 HD
ENDBRANCH   6  14
TORSDOF 4
ENDMDL
MODEL 6
REMARK VINA RESULT:    -4.514      2.921      4.332
REMARK INTER + INTRA:          -5.221
REMARK INTER:                  -5.176
REMARK INTRA:                  -0.045
REMARK UNBOUND:                -0.048
REMARK SMILES O=C([O-])c1cc(O)c(O)c(O)c1
REMARK SMILES IDX 4 1 5 2 12 3 6 4 10 5 8 6 2 7 1 8 3 9 7 10 11 12 9 14
REMARK H PARENT 7 11 11 13 9 15
REMARK Flexibility Score: inf
ROOT
ATOM      1  C   UNL     1      12.140  -1.514  18.878  1.00  0.00     0.005 A 
ATOM      2  C   UNL     1      11.131  -0.951  19.676  1.00  0.00     0.060 A 
ATOM      3  C   UNL     1      11.923  -1.642  17.497  1.00  0.00     0.060 A 
ATOM      4  C   UNL     1       9.923  -0.521  19.114  1.00  0.00     0.162 A 
ATOM      5  C   UNL     1      10.719  -1.214  16.922  1.00  0.00     0.162 A 
ATOM      6  C   UNL     1       9.714  -0.653  17.721  1.00  0.00     0.200 A 
ENDROOT
BRANCH   1   7
ATOM      7  C   UNL     1      13.411  -1.965  19.487  1.00  0.00     0.072 C 
ATOM      8  O   UNL     1      13.623  -3.189  19.695  1.00  0.00    -0.545 OA
ATOM      9  O   UNL     1      14.390  -1.043  19.838  1.00  0.00    -0.545 OA
ENDBRANCH   1   7
BRANCH   4  10
ATOM     10  O   UNL     1       8.967   0.029  19.973  1.00  0.00    -0.504 OA
ATOM     11  H   UNL     1       8.560  -0.463  20.755  1.00  0.00     0.293 HD
ENDBRANCH   4  10
BRANCH   5  12
ATOM     12  O   UNL     1      10.512  -1.344  15.550  1.00  0.00    -0.504 OA
ATOM     13  H   UNL     1      10.122  -2.190  15.150  1.00  0.00     0.293 HD
ENDBRANCH   5  12
BRANCH   6  14
ATOM     14  O   UNL     1       8.532  -0.244  17.097  1.00  0.00    -0.502 OA
ATOM     15  H   UNL     1       7.947   0.508  17.432  1.00  0.00     0.293 HD
ENDBRANCH   6  14
TORSDOF 4
ENDMDL
MODEL 7
REMARK VINA RESULT:    -4.505      2.891      4.621
REMARK INTER + INTRA:          -5.211
REMARK INTER:                  -5.166
REMARK INTRA:                  -0.045
REMARK UNBOUND:                -0.048
REMARK SMILES O=C([O-])c1cc(O)c(O)c(O)c1
REMARK SMILES IDX 4 1 5 2 12 3 6 4 10 5 8 6 2 7 1 8 3 9 7 10 11 12 9 14
REMARK H PARENT 7 11 11 13 9 15
REMARK Flexibility Score: inf
ROOT
ATOM      1  C   UNL     1      12.043  -1.519  18.900  1.00  0.00     0.005 A 
ATOM      2  C   UNL     1      11.865  -1.629  17.512  1.00  0.00     0.060 A 
ATOM      3  C   UNL     1      11.010  -0.974  19.678  1.00  0.00     0.060 A 
ATOM      4  C   UNL     1      10.678  -1.204  16.901  1.00  0.00     0.162 A 
ATOM      5  C   UNL     1       9.818  -0.546  19.080  1.00  0.00     0.162 A 
ATOM      6  C   UNL     1       9.643  -0.656  17.694  1.00  0.00     0.200 A 
ENDROOT
BRANCH   1   7
ATOM      7  C   UNL     1      13.304  -1.972  19.529  1.00  0.00     0.072 C 
ATOM      8  O   UNL     1      13.582  -3.199  19.596  1.00  0.00    -0.545 OA
ATOM      9  O   UNL     1      14.201  -1.050  20.054  1.00  0.00    -0.545 OA
ENDBRANCH   1   7
BRANCH   4  10
ATOM     10  O   UNL     1      10.574  -1.345  15.515  1.00  0.00    -0.504 OA
ATOM     11  H   UNL     1       9.735  -1.151  14.988  1.00  0.00     0.293 HD
ENDBRANCH   4  10
BRANCH   5  12
ATOM     12  O   UNL     1       8.797  -0.006  19.861  1.00  0.00    -0.504 OA
ATOM     13  H   UNL     1       7.879  -0.433  19.904  1.00  0.00     0.293 HD
ENDBRANCH   5  12
BRANCH   6  14
ATOM     14  O   UNL     1       8.434  -0.213  17.148  1.00  0.00    -0.502 OA
ATOM     15  H   UNL     1       8.123  -0.430  16.213  1.00  0.00     0.293 HD
ENDBRANCH   6  14
TORSDOF 4
ENDMDL
MODEL 8
REMARK VINA RESULT:    -4.412      2.485      4.045
REMARK INTER + INTRA:          -5.104
REMARK INTER:                  -5.058
REMARK INTRA:                  -0.047
REMARK UNBOUND:                -0.048
REMARK SMILES O=C([O-])c1cc(O)c(O)c(O)c1
REMARK SMILES IDX 4 1 5 2 12 3 6 4 10 5 8 6 2 7 1 8 3 9 7 10 11 12 9 14
REMARK H PARENT 7 11 11 13 9 15
REMARK Flexibility Score: inf
ROOT
ATOM      1  C   UNL     1      10.295  -1.960  17.683  1.00  0.00     0.005 A 
ATOM      2  C   UNL     1      10.557  -0.594  17.489  1.00  0.00     0.060 A 
ATOM      3  C   UNL     1      11.191  -2.723  18.448  1.00  0.00     0.060 A 
ATOM      4  C   UNL     1      11.692   0.008  18.045  1.00  0.00     0.162 A 
ATOM      5  C   UNL     1      12.330  -2.132  19.011  1.00  0.00     0.162 A 
ATOM      6  C   UNL     1      12.589  -0.769  18.815  1.00  0.00     0.200 A 
ENDROOT
BRANCH   1   7
ATOM      7  C   UNL     1       9.091  -2.581  17.088  1.00  0.00     0.072 C 
ATOM      8  O   UNL     1       8.902  -2.549  15.843  1.00  0.00    -0.545 OA
ATOM      9  O   UNL     1       8.150  -3.211  17.895  1.00  0.00    -0.545 OA
ENDBRANCH   1   7
BRANCH   4  10
ATOM     10  O   UNL     1      11.885   1.371  17.808  1.00  0.00    -0.504 OA
ATOM     11  H   UNL     1      12.163   1.757  16.918  1.00  0.00     0.293 HD
ENDBRANCH   4  10
BRANCH   5  12
ATOM     12  O   UNL     1      13.214  -2.898  19.769  1.00  0.00    -0.504 OA
ATOM     13  H   UNL     1      13.061  -3.062  20.757  1.00  0.00     0.293 HD
ENDBRANCH   5  12
BRANCH   6  14
ATOM     14  O   UNL     1      13.740  -0.230  19.398  1.00  0.00    -0.502 OA
ATOM     15  H   UNL     1      14.410  -0.768  19.928  1.00  0.00     0.293 HD
ENDBRANCH   6  14
TORSDOF 4
ENDMDL
MODEL 9
REMARK VINA RESULT:    -4.381      2.434      4.103
REMARK INTER + INTRA:          -5.069
REMARK INTER:                  -5.023
REMARK INTRA:                  -0.046
REMARK UNBOUND:                -0.048
REMARK SMILES O=C([O-])c1cc(O)c(O)c(O)c1
REMARK SMILES IDX 4 1 5 2 12 3 6 4 10 5 8 6 2 7 1 8 3 9 7 10 11 12 9 14
REMARK H PARENT 7 11 11 13 9 15
REMARK Flexibility Score: inf
ROOT
ATOM      1  C   UNL     1      10.237  -1.953  17.634  1.00  0.00     0.005 A 
ATOM      2  C   UNL     1      11.128  -2.712  18.408  1.00  0.00     0.060 A 
ATOM      3  C   UNL     1      10.497  -0.587  17.440  1.00  0.00     0.060 A 
ATOM      4  C   UNL     1      12.262  -2.127  18.985  1.00  0.00     0.162 A 
ATOM      5  C   UNL     1      11.628   0.011  18.011  1.00  0.00     0.162 A 
ATOM      6  C   UNL     1      12.515  -0.750  18.785  1.00  0.00     0.200 A 
ENDROOT
BRANCH   1   7
ATOM      7  C   UNL     1       9.043  -2.587  17.032  1.00  0.00     0.072 C 
ATOM      8  O   UNL     1       8.869  -2.570  15.784  1.00  0.00    -0.545 OA
ATOM      9  O   UNL     1       8.097  -3.212  17.834  1.00  0.00    -0.545 OA
ENDBRANCH   1   7
BRANCH   4  10
ATOM     10  O   UNL     1      13.101  -2.947  19.743  1.00  0.00    -0.504 OA
ATOM     11  H   UNL     1      13.138  -3.952  19.659  1.00  0.00     0.293 HD
ENDBRANCH   4  10
BRANCH   5  12
ATOM     12  O   UNL     1      11.878   1.368  17.814  1.00  0.00    -0.504 OA
ATOM     13  H   UNL     1      12.049   1.994  18.592  1.00  0.00     0.293 HD
ENDBRANCH   5  12
BRANCH   6  14
ATOM     14  O   UNL     1      13.628  -0.104  19.332  1.00  0.00    -0.502 OA
ATOM     15  H   UNL     1      14.546  -0.519  19.400  1.00  0.00     0.293 HD
ENDBRANCH   6  14
TORSDOF 4
ENDMDL
