MODEL 1
REMARK VINA RESULT:    -3.709      0.000      0.000
REMARK INTER + INTRA:         -12.745
REMARK INTER:                  -8.478
REMARK INTRA:                  -4.267
REMARK UNBOUND:                -4.267
REMARK SMILES CCCCCCCCCCCCCCCCCCCCCCCC(=O)[O-]
REMARK SMILES IDX 13 1 14 2 15 3 16 4 17 5 18 6 19 7 20 8 21 9 22 10 23 11
REMARK SMILES IDX 24 12 25 13 26 14 12 15 11 16 10 17 9 18 8 19 7 20 6 21 5 22
REMARK SMILES IDX 4 23 3 24 2 25 1 26
REMARK H PARENT
REMARK Flexibility Score: inf
ROOT
ATOM      1  C   UNL     1     -22.405   5.403  21.323  1.00  0.00     0.000 C 
ENDROOT
BRANCH   1   2
ATOM      2  C   UNL     1     -23.873   5.640  21.722  1.00  0.00     0.000 C 
BRANCH   2   3
ATOM      3  C   UNL     1     -24.505   6.910  21.125  1.00  0.00     0.000 C 
BRANCH   3   4
ATOM      4  C   UNL     1     -23.471   8.011  20.828  1.00  0.00     0.000 C 
BRANCH   4   5
ATOM      5  C   UNL     1     -23.381   8.359  19.334  1.00  0.00     0.000 C 
BRANCH   5   6
ATOM      6  C   UNL     1     -22.008   8.874  18.861  1.00  0.00     0.000 C 
BRANCH   6   7
ATOM      7  C   UNL     1     -21.029   7.761  18.429  1.00  0.00     0.000 C 
BRANCH   7   8
ATOM      8  C   UNL     1     -21.572   6.899  17.274  1.00  0.00     0.000 C 
BRANCH   8   9
ATOM      9  C   UNL     1     -20.493   6.534  16.240  1.00  0.00     0.000 C 
BRANCH   9  10
ATOM     10  C   UNL     1     -19.051   6.920  16.630  1.00  0.00     0.006 C 
BRANCH  10  11
ATOM     11  C   UNL     1     -18.274   5.799  17.341  1.00  0.00     0.053 C 
BRANCH  11  12
ATOM     12  C   UNL     1     -17.314   6.319  18.368  1.00  0.00     0.041 C 
ATOM     13  O   UNL     1     -17.748   6.851  19.422  1.00  0.00    -0.550 OA
ATOM     14  O   UNL     1     -15.945   6.260  18.141  1.00  0.00    -0.550 OA
ENDBRANCH  11  12
ENDBRANCH  10  11
ENDBRANCH   9  10
ENDBRANCH   8   9
ENDBRANCH   7   8
ENDBRANCH   6   7
ENDBRANCH   5   6
ENDBRANCH   4   5
ENDBRANCH   3   4
ENDBRANCH   2   3
ENDBRANCH   1   2
BRANCH   1  15
ATOM     15  C   UNL     1     -22.202   4.540  20.063  1.00  0.00     0.000 C 
BRANCH  15  16
ATOM     16  C   UNL     1     -20.722   4.256  19.732  1.00  0.00     0.000 C 
BRANCH  16  17
ATOM     17  C   UNL     1     -19.806   4.439  20.950  1.00  0.00     0.000 C 
BRANCH  17  18
ATOM     18  C   UNL     1     -18.643   3.440  20.922  1.00  0.00    -0.000 C 
BRANCH  18  19
ATOM     19  C   UNL     1     -18.697   2.571  19.659  1.00  0.00    -0.000 C 
BRANCH  19  20
ATOM     20  C   UNL     1     -18.654   1.078  20.018  1.00  0.00    -0.000 C 
BRANCH  20  21
ATOM     21  C   UNL     1     -19.745   0.689  21.031  1.00  0.00    -0.000 C 
BRANCH  21  22
ATOM     22  C   UNL     1     -21.078   0.270  20.370  1.00  0.00    -0.000 C 
BRANCH  22  23
ATOM     23  C   UNL     1     -22.314   0.972  20.965  1.00  0.00    -0.000 C 
BRANCH  23  24
ATOM     24  C   UNL     1     -22.094   1.590  22.356  1.00  0.00    -0.000 C 
BRANCH  24  25
ATOM     25  C   UNL     1     -23.375   2.202  22.944  1.00  0.00    -0.003 C 
ATOM     26  C   UNL     1     -24.572   1.949  22.031  1.00  0.00     0.004 C 
ENDBRANCH  24  25
ENDBRANCH  23  24
ENDBRANCH  22  23
ENDBRANCH  21  22
ENDBRANCH  20  21
ENDBRANCH  19  20
ENDBRANCH  18  19
ENDBRANCH  17  18
ENDBRANCH  16  17
ENDBRANCH  15  16
ENDBRANCH   1  15
TORSDOF 22
ENDMDL
MODEL 2
REMARK VINA RESULT:    -3.684      2.752      6.846
REMARK INTER + INTRA:         -12.689
REMARK INTER:                  -9.059
REMARK INTRA:                  -3.630
REMARK UNBOUND:                -4.267
REMARK SMILES CCCCCCCCCCCCCCCCCCCCCCCC(=O)[O-]
REMARK SMILES IDX 13 1 14 2 15 3 16 4 17 5 18 6 19 7 20 8 21 9 22 10 23 11
REMARK SMILES IDX 24 12 25 13 26 14 12 15 11 16 10 17 9 18 8 19 7 20 6 21 5 22
REMARK SMILES IDX 4 23 3 24 2 25 1 26
REMARK H PARENT
REMARK Flexibility Score: inf
ROOT
ATOM      1  C   UNL     1     -24.047   6.982  21.059  1.00  0.00     0.000 C 
ENDROOT
BRANCH   1   2
ATOM      2  C   UNL     1     -23.499   5.592  21.428  1.00  0.00     0.000 C 
BRANCH   2   3
ATOM      3  C   UNL     1     -24.212   4.913  22.612  1.00  0.00     0.000 C 
BRANCH   3   4
ATOM      4  C   UNL     1     -23.233   4.366  23.667  1.00  0.00     0.000 C 
BRANCH   4   5
ATOM      5  C   UNL     1     -23.925   4.002  24.990  1.00  0.00     0.000 C 
BRANCH   5   6
ATOM      6  C   UNL     1     -25.376   3.499  24.856  1.00  0.00     0.000 C 
BRANCH   6   7
ATOM      7  C   UNL     1     -25.505   1.964  24.745  1.00  0.00     0.000 C 
BRANCH   7   8
ATOM      8  C   UNL     1     -25.700   1.481  23.295  1.00  0.00     0.000 C 
BRANCH   8   9
ATOM      9  C   UNL     1     -24.410   0.923  22.670  1.00  0.00     0.000 C 
BRANCH   9  10
ATOM     10  C   UNL     1     -23.995   1.570  21.332  1.00  0.00     0.006 C 
BRANCH  10  11
ATOM     11  C   UNL     1     -22.474   1.685  21.139  1.00  0.00     0.053 C 
BRANCH  11  12
ATOM     12  C   UNL     1     -21.776   0.361  21.213  1.00  0.00     0.041 C 
ATOM     13  O   UNL     1     -21.883  -0.460  20.266  1.00  0.00    -0.550 OA
ATOM     14  O   UNL     1     -21.050   0.013  22.345  1.00  0.00    -0.550 OA
ENDBRANCH  11  12
ENDBRANCH  10  11
ENDBRANCH   9  10
ENDBRANCH   8   9
ENDBRANCH   7   8
ENDBRANCH   6   7
ENDBRANCH   5   6
ENDBRANCH   4   5
ENDBRANCH   3   4
ENDBRANCH   2   3
ENDBRANCH   1   2
BRANCH   1  15
ATOM     15  C   UNL     1     -22.988   7.997  20.587  1.00  0.00     0.000 C 
BRANCH  15  16
ATOM     16  C   UNL     1     -23.199   8.494  19.142  1.00  0.00     0.000 C 
BRANCH  16  17
ATOM     17  C   UNL     1     -22.110   7.986  18.185  1.00  0.00     0.000 C 
BRANCH  17  18
ATOM     18  C   UNL     1     -22.433   6.575  17.681  1.00  0.00    -0.000 C 
BRANCH  18  19
ATOM     19  C   UNL     1     -21.396   6.108  16.651  1.00  0.00    -0.000 C 
BRANCH  19  20
ATOM     20  C   UNL     1     -20.252   7.125  16.524  1.00  0.00    -0.000 C 
BRANCH  20  21
ATOM     21  C   UNL     1     -18.894   6.446  16.267  1.00  0.00    -0.000 C 
BRANCH  21  22
ATOM     22  C   UNL     1     -17.956   6.463  17.495  1.00  0.00    -0.000 C 
BRANCH  22  23
ATOM     23  C   UNL     1     -18.540   7.204  18.713  1.00  0.00    -0.000 C 
BRANCH  23  24
ATOM     24  C   UNL     1     -18.559   6.386  20.015  1.00  0.00    -0.000 C 
BRANCH  24  25
ATOM     25  C   UNL     1     -19.965   5.893  20.388  1.00  0.00    -0.003 C 
ATOM     26  C   UNL     1     -20.222   4.496  19.831  1.00  0.00     0.004 C 
ENDBRANCH  24  25
ENDBRANCH  23  24
ENDBRANCH  22  23
ENDBRANCH  21  22
ENDBRANCH  20  21
ENDBRANCH  19  20
ENDBRANCH  18  19
ENDBRANCH  17  18
ENDBRANCH  16  17
ENDBRANCH  15  16
ENDBRANCH   1  15
TORSDOF 22
ENDMDL
MODEL 3
REMARK VINA RESULT:    -3.676      3.187      7.443
REMARK INTER + INTRA:         -12.671
REMARK INTER:                  -8.712
REMARK INTRA:                  -3.959
REMARK UNBOUND:                -4.267
REMARK SMILES CCCCCCCCCCCCCCCCCCCCCCCC(=O)[O-]
REMARK SMILES IDX 13 1 14 2 15 3 16 4 17 5 18 6 19 7 20 8 21 9 22 10 23 11
REMARK SMILES IDX 24 12 25 13 26 14 12 15 11 16 10 17 9 18 8 19 7 20 6 21 5 22
REMARK SMILES IDX 4 23 3 24 2 25 1 26
REMARK H PARENT
REMARK Flexibility Score: inf
ROOT
ATOM      1  C   UNL     1     -22.731   5.749  21.262  1.00  0.00     0.000 C 
ENDROOT
BRANCH   1   2
ATOM      2  C   UNL     1     -22.746   4.508  20.353  1.00  0.00     0.000 C 
BRANCH   2   3
ATOM      3  C   UNL     1     -21.355   3.940  20.016  1.00  0.00     0.000 C 
BRANCH   3   4
ATOM      4  C   UNL     1     -20.652   3.314  21.234  1.00  0.00     0.000 C 
BRANCH   4   5
ATOM      5  C   UNL     1     -20.036   1.940  20.926  1.00  0.00     0.000 C 
BRANCH   5   6
ATOM      6  C   UNL     1     -21.051   0.802  20.698  1.00  0.00     0.000 C 
BRANCH   6   7
ATOM      7  C   UNL     1     -22.211   0.776  21.718  1.00  0.00     0.000 C 
BRANCH   7   8
ATOM      8  C   UNL     1     -23.594   0.924  21.056  1.00  0.00     0.000 C 
BRANCH   8   9
ATOM      9  C   UNL     1     -24.618   1.634  21.960  1.00  0.00     0.000 C 
BRANCH   9  10
ATOM     10  C   UNL     1     -24.077   2.094  23.330  1.00  0.00     0.006 C 
BRANCH  10  11
ATOM     11  C   UNL     1     -24.389   3.562  23.664  1.00  0.00     0.053 C 
BRANCH  11  12
ATOM     12  C   UNL     1     -25.201   3.714  24.914  1.00  0.00     0.041 C 
ATOM     13  O   UNL     1     -26.125   2.898  25.167  1.00  0.00    -0.550 OA
ATOM     14  O   UNL     1     -24.971   4.779  25.775  1.00  0.00    -0.550 OA
ENDBRANCH  11  12
ENDBRANCH  10  11
ENDBRANCH   9  10
ENDBRANCH   8   9
ENDBRANCH   7   8
ENDBRANCH   6   7
ENDBRANCH   5   6
ENDBRANCH   4   5
ENDBRANCH   3   4
ENDBRANCH   2   3
ENDBRANCH   1   2
BRANCH   1  15
ATOM     15  C   UNL     1     -23.901   6.729  21.050  1.00  0.00     0.000 C 
BRANCH  15  16
ATOM     16  C   UNL     1     -23.512   8.011  20.284  1.00  0.00     0.000 C 
BRANCH  16  17
ATOM     17  C   UNL     1     -21.994   8.132  20.083  1.00  0.00     0.000 C 
BRANCH  17  18
ATOM     18  C   UNL     1     -21.648   8.329  18.603  1.00  0.00    -0.000 C 
BRANCH  18  19
ATOM     19  C   UNL     1     -22.387   7.312  17.726  1.00  0.00    -0.000 C 
BRANCH  19  20
ATOM     20  C   UNL     1     -21.417   6.261  17.165  1.00  0.00    -0.000 C 
BRANCH  20  21
ATOM     21  C   UNL     1     -20.591   6.800  15.983  1.00  0.00    -0.000 C 
BRANCH  21  22
ATOM     22  C   UNL     1     -19.090   6.976  16.311  1.00  0.00    -0.000 C 
BRANCH  22  23
ATOM     23  C   UNL     1     -18.584   6.036  17.422  1.00  0.00    -0.000 C 
BRANCH  23  24
ATOM     24  C   UNL     1     -17.989   6.750  18.647  1.00  0.00    -0.000 C 
BRANCH  24  25
ATOM     25  C   UNL     1     -18.605   6.273  19.971  1.00  0.00    -0.003 C 
ATOM     26  C   UNL     1     -18.532   7.365  21.034  1.00  0.00     0.004 C 
ENDBRANCH  24  25
ENDBRANCH  23  24
ENDBRANCH  22  23
ENDBRANCH  21  22
ENDBRANCH  20  21
ENDBRANCH  19  20
ENDBRANCH  18  19
ENDBRANCH  17  18
ENDBRANCH  16  17
ENDBRANCH  15  16
ENDBRANCH   1  15
TORSDOF 22
ENDMDL
MODEL 4
REMARK VINA RESULT:    -3.666      3.320      7.194
REMARK INTER + INTRA:         -12.648
REMARK INTER:                  -8.898
REMARK INTRA:                  -3.749
REMARK UNBOUND:                -4.267
REMARK SMILES CCCCCCCCCCCCCCCCCCCCCCCC(=O)[O-]
REMARK SMILES IDX 13 1 14 2 15 3 16 4 17 5 18 6 19 7 20 8 21 9 22 10 23 11
REMARK SMILES IDX 24 12 25 13 26 14 12 15 11 16 10 17 9 18 8 19 7 20 6 21 5 22
REMARK SMILES IDX 4 23 3 24 2 25 1 26
REMARK H PARENT
REMARK Flexibility Score: inf
ROOT
ATOM      1  C   UNL     1     -24.093   6.060  21.515  1.00  0.00     0.000 C 
ENDROOT
BRANCH   1   2
ATOM      2  C   UNL     1     -22.700   5.405  21.506  1.00  0.00     0.000 C 
BRANCH   2   3
ATOM      3  C   UNL     1     -22.499   4.333  20.420  1.00  0.00     0.000 C 
BRANCH   3   4
ATOM      4  C   UNL     1     -21.067   4.312  19.857  1.00  0.00     0.000 C 
BRANCH   4   5
ATOM      5  C   UNL     1     -20.342   2.982  20.120  1.00  0.00     0.000 C 
BRANCH   5   6
ATOM      6  C   UNL     1     -19.333   3.003  21.285  1.00  0.00     0.000 C 
BRANCH   6   7
ATOM      7  C   UNL     1     -19.205   1.659  22.035  1.00  0.00     0.000 C 
BRANCH   7   8
ATOM      8  C   UNL     1     -20.569   1.030  22.375  1.00  0.00     0.000 C 
BRANCH   8   9
ATOM      9  C   UNL     1     -20.785  -0.334  21.697  1.00  0.00     0.000 C 
BRANCH   9  10
ATOM     10  C   UNL     1     -21.781  -0.332  20.519  1.00  0.00     0.006 C 
BRANCH  10  11
ATOM     11  C   UNL     1     -23.135   0.320  20.846  1.00  0.00     0.053 C 
BRANCH  11  12
ATOM     12  C   UNL     1     -24.058  -0.599  21.587  1.00  0.00     0.041 C 
ATOM     13  O   UNL     1     -24.338  -1.729  21.110  1.00  0.00    -0.550 OA
ATOM     14  O   UNL     1     -24.645  -0.192  22.779  1.00  0.00    -0.550 OA
ENDBRANCH  11  12
ENDBRANCH  10  11
ENDBRANCH   9  10
ENDBRANCH   8   9
ENDBRANCH   7   8
ENDBRANCH   6   7
ENDBRANCH   5   6
ENDBRANCH   4   5
ENDBRANCH   3   4
ENDBRANCH   2   3
ENDBRANCH   1   2
BRANCH   1  15
ATOM     15  C   UNL     1     -24.166   7.449  20.854  1.00  0.00     0.000 C 
BRANCH  15  16
ATOM     16  C   UNL     1     -22.786   8.077  20.564  1.00  0.00     0.000 C 
BRANCH  16  17
ATOM     17  C   UNL     1     -22.740   8.779  19.199  1.00  0.00     0.000 C 
BRANCH  17  18
ATOM     18  C   UNL     1     -21.780   8.062  18.242  1.00  0.00    -0.000 C 
BRANCH  18  19
ATOM     19  C   UNL     1     -22.436   6.815  17.638  1.00  0.00    -0.000 C 
BRANCH  19  20
ATOM     20  C   UNL     1     -21.484   6.113  16.657  1.00  0.00    -0.000 C 
BRANCH  20  21
ATOM     21  C   UNL     1     -20.425   7.072  16.084  1.00  0.00    -0.000 C 
BRANCH  21  22
ATOM     22  C   UNL     1     -18.977   6.553  16.240  1.00  0.00    -0.000 C 
BRANCH  22  23
ATOM     23  C   UNL     1     -18.656   6.025  17.652  1.00  0.00    -0.000 C 
BRANCH  23  24
ATOM     24  C   UNL     1     -18.358   7.116  18.694  1.00  0.00    -0.000 C 
BRANCH  24  25
ATOM     25  C   UNL     1     -18.191   6.553  20.114  1.00  0.00    -0.003 C 
ATOM     26  C   UNL     1     -19.212   7.164  21.069  1.00  0.00     0.004 C 
ENDBRANCH  24  25
ENDBRANCH  23  24
ENDBRANCH  22  23
ENDBRANCH  21  22
ENDBRANCH  20  21
ENDBRANCH  19  20
ENDBRANCH  18  19
ENDBRANCH  17  18
ENDBRANCH  16  17
ENDBRANCH  15  16
ENDBRANCH   1  15
TORSDOF 22
ENDMDL
MODEL 5
REMARK VINA RESULT:    -3.628      1.347      3.688
REMARK INTER + INTRA:         -12.560
REMARK INTER:                  -8.854
REMARK INTRA:                  -3.706
REMARK UNBOUND:                -4.267
REMARK SMILES CCCCCCCCCCCCCCCCCCCCCCCC(=O)[O-]
REMARK SMILES IDX 13 1 14 2 15 3 16 4 17 5 18 6 19 7 20 8 21 9 22 10 23 11
REMARK SMILES IDX 24 12 25 13 26 14 12 15 11 16 10 17 9 18 8 19 7 20 6 21 5 22
REMARK SMILES IDX 4 23 3 24 2 25 1 26
REMARK H PARENT
REMARK Flexibility Score: inf
ROOT
ATOM      1  C   UNL     1     -23.947   4.615  22.216  1.00  0.00     0.000 C 
ENDROOT
BRANCH   1   2
ATOM      2  C   UNL     1     -23.320   5.808  21.472  1.00  0.00     0.000 C 
BRANCH   2   3
ATOM      3  C   UNL     1     -24.311   6.924  21.094  1.00  0.00     0.000 C 
BRANCH   3   4
ATOM      4  C   UNL     1     -23.630   8.122  20.408  1.00  0.00     0.000 C 
BRANCH   4   5
ATOM      5  C   UNL     1     -22.306   7.744  19.723  1.00  0.00     0.000 C 
BRANCH   5   6
ATOM      6  C   UNL     1     -22.376   7.605  18.190  1.00  0.00     0.000 C 
BRANCH   6   7
ATOM      7  C   UNL     1     -22.353   6.146  17.685  1.00  0.00     0.000 C 
BRANCH   7   8
ATOM      8  C   UNL     1     -21.430   5.947  16.468  1.00  0.00     0.000 C 
BRANCH   8   9
ATOM      9  C   UNL     1     -20.563   7.181  16.165  1.00  0.00     0.000 C 
BRANCH   9  10
ATOM     10  C   UNL     1     -19.040   6.954  16.261  1.00  0.00     0.006 C 
BRANCH  10  11
ATOM     11  C   UNL     1     -18.609   6.110  17.472  1.00  0.00     0.053 C 
BRANCH  11  12
ATOM     12  C   UNL     1     -18.310   6.941  18.682  1.00  0.00     0.041 C 
ATOM     13  O   UNL     1     -17.568   6.486  19.590  1.00  0.00    -0.550 OA
ATOM     14  O   UNL     1     -18.887   8.196  18.831  1.00  0.00    -0.550 OA
ENDBRANCH  11  12
ENDBRANCH  10  11
ENDBRANCH   9  10
ENDBRANCH   8   9
ENDBRANCH   7   8
ENDBRANCH   6   7
ENDBRANCH   5   6
ENDBRANCH   4   5
ENDBRANCH   3   4
ENDBRANCH   2   3
ENDBRANCH   1   2
BRANCH   1  15
ATOM     15  C   UNL     1     -23.326   4.303  23.591  1.00  0.00     0.000 C 
BRANCH  15  16
ATOM     16  C   UNL     1     -24.089   3.228  24.392  1.00  0.00     0.000 C 
BRANCH  16  17
ATOM     17  C   UNL     1     -25.561   3.117  23.965  1.00  0.00     0.000 C 
BRANCH  17  18
ATOM     18  C   UNL     1     -25.891   1.699  23.487  1.00  0.00    -0.000 C 
BRANCH  18  19
ATOM     19  C   UNL     1     -24.635   0.821  23.460  1.00  0.00    -0.000 C 
BRANCH  19  20
ATOM     20  C   UNL     1     -24.390   0.252  22.054  1.00  0.00    -0.000 C 
BRANCH  20  21
ATOM     21  C   UNL     1     -23.450   1.141  21.220  1.00  0.00    -0.000 C 
BRANCH  21  22
ATOM     22  C   UNL     1     -22.026   1.256  21.813  1.00  0.00    -0.000 C 
BRANCH  22  23
ATOM     23  C   UNL     1     -20.984   1.809  20.822  1.00  0.00    -0.000 C 
BRANCH  23  24
ATOM     24  C   UNL     1     -21.368   3.145  20.165  1.00  0.00    -0.000 C 
BRANCH  24  25
ATOM     25  C   UNL     1     -20.213   4.158  20.158  1.00  0.00    -0.003 C 
ATOM     26  C   UNL     1     -19.907   4.649  21.569  1.00  0.00     0.004 C 
ENDBRANCH  24  25
ENDBRANCH  23  24
ENDBRANCH  22  23
ENDBRANCH  21  22
ENDBRANCH  20  21
ENDBRANCH  19  20
ENDBRANCH  18  19
ENDBRANCH  17  18
ENDBRANCH  16  17
ENDBRANCH  15  16
ENDBRANCH   1  15
TORSDOF 22
ENDMDL
MODEL 6
REMARK VINA RESULT:    -3.605      1.486      2.931
REMARK INTER + INTRA:         -12.507
REMARK INTER:                  -8.178
REMARK INTRA:                  -4.329
REMARK UNBOUND:                -4.267
REMARK SMILES CCCCCCCCCCCCCCCCCCCCCCCC(=O)[O-]
REMARK SMILES IDX 13 1 14 2 15 3 16 4 17 5 18 6 19 7 20 8 21 9 22 10 23 11
REMARK SMILES IDX 24 12 25 13 26 14 12 15 11 16 10 17 9 18 8 19 7 20 6 21 5 22
REMARK SMILES IDX 4 23 3 24 2 25 1 26
REMARK H PARENT
REMARK Flexibility Score: inf
ROOT
ATOM      1  C   UNL     1     -20.943   6.301  21.604  1.00  0.00     0.000 C 
ENDROOT
BRANCH   1   2
ATOM      2  C   UNL     1     -20.271   7.685  21.535  1.00  0.00     0.000 C 
BRANCH   2   3
ATOM      3  C   UNL     1     -21.164   8.806  20.973  1.00  0.00     0.000 C 
BRANCH   3   4
ATOM      4  C   UNL     1     -22.640   8.389  20.846  1.00  0.00     0.000 C 
BRANCH   4   5
ATOM      5  C   UNL     1     -23.141   8.402  19.392  1.00  0.00     0.000 C 
BRANCH   5   6
ATOM      6  C   UNL     1     -22.092   8.009  18.333  1.00  0.00     0.000 C 
BRANCH   6   7
ATOM      7  C   UNL     1     -22.540   6.870  17.392  1.00  0.00     0.000 C 
BRANCH   7   8
ATOM      8  C   UNL     1     -21.359   6.153  16.711  1.00  0.00     0.000 C 
BRANCH   8   9
ATOM      9  C   UNL     1     -20.288   7.127  16.189  1.00  0.00     0.000 C 
BRANCH   9  10
ATOM     10  C   UNL     1     -18.829   6.663  16.379  1.00  0.00     0.006 C 
BRANCH  10  11
ATOM     11  C   UNL     1     -18.260   6.945  17.780  1.00  0.00     0.053 C 
BRANCH  11  12
ATOM     12  C   UNL     1     -17.453   5.804  18.319  1.00  0.00     0.041 C 
ATOM     13  O   UNL     1     -17.939   4.644  18.342  1.00  0.00    -0.550 OA
ATOM     14  O   UNL     1     -16.184   6.027  18.839  1.00  0.00    -0.550 OA
ENDBRANCH  11  12
ENDBRANCH  10  11
ENDBRANCH   9  10
ENDBRANCH   8   9
ENDBRANCH   7   8
ENDBRANCH   6   7
ENDBRANCH   5   6
ENDBRANCH   4   5
ENDBRANCH   3   4
ENDBRANCH   2   3
ENDBRANCH   1   2
BRANCH   1  15
ATOM     15  C   UNL     1     -20.398   5.260  20.608  1.00  0.00     0.000 C 
BRANCH  15  16
ATOM     16  C   UNL     1     -21.489   4.374  19.971  1.00  0.00     0.000 C 
BRANCH  16  17
ATOM     17  C   UNL     1     -22.903   4.779  20.414  1.00  0.00     0.000 C 
BRANCH  17  18
ATOM     18  C   UNL     1     -23.560   3.670  21.243  1.00  0.00    -0.000 C 
BRANCH  18  19
ATOM     19  C   UNL     1     -23.713   4.095  22.708  1.00  0.00    -0.000 C 
BRANCH  19  20
ATOM     20  C   UNL     1     -23.152   3.021  23.653  1.00  0.00    -0.000 C 
BRANCH  20  21
ATOM     21  C   UNL     1     -21.667   3.256  23.987  1.00  0.00    -0.000 C 
BRANCH  21  22
ATOM     22  C   UNL     1     -20.700   2.475  23.068  1.00  0.00    -0.000 C 
BRANCH  22  23
ATOM     23  C   UNL     1     -21.288   1.159  22.523  1.00  0.00    -0.000 C 
BRANCH  23  24
ATOM     24  C   UNL     1     -21.000   0.893  21.036  1.00  0.00    -0.000 C 
BRANCH  24  25
ATOM     25  C   UNL     1     -21.890  -0.212  20.446  1.00  0.00    -0.003 C 
ATOM     26  C   UNL     1     -23.335  -0.059  20.912  1.00  0.00     0.004 C 
ENDBRANCH  24  25
ENDBRANCH  23  24
ENDBRANCH  22  23
ENDBRANCH  21  22
ENDBRANCH  20  21
ENDBRANCH  19  20
ENDBRANCH  18  19
ENDBRANCH  17  18
ENDBRANCH  16  17
ENDBRANCH  15  16
ENDBRANCH   1  15
TORSDOF 22
ENDMDL
MODEL 7
REMARK VINA RESULT:    -3.590      1.997      4.807
REMARK INTER + INTRA:         -12.474
REMARK INTER:                  -8.920
REMARK INTRA:                  -3.554
REMARK UNBOUND:                -4.267
REMARK SMILES CCCCCCCCCCCCCCCCCCCCCCCC(=O)[O-]
REMARK SMILES IDX 13 1 14 2 15 3 16 4 17 5 18 6 19 7 20 8 21 9 22 10 23 11
REMARK SMILES IDX 24 12 25 13 26 14 12 15 11 16 10 17 9 18 8 19 7 20 6 21 5 22
REMARK SMILES IDX 4 23 3 24 2 25 1 26
REMARK H PARENT
REMARK Flexibility Score: inf
ROOT
ATOM      1  C   UNL     1     -21.246   8.297  19.230  1.00  0.00     0.000 C 
ENDROOT
BRANCH   1   2
ATOM      2  C   UNL     1     -22.017   7.925  17.950  1.00  0.00     0.000 C 
BRANCH   2   3
ATOM      3  C   UNL     1     -21.930   6.439  17.556  1.00  0.00     0.000 C 
BRANCH   3   4
ATOM      4  C   UNL     1     -21.291   6.223  16.172  1.00  0.00     0.000 C 
BRANCH   4   5
ATOM      5  C   UNL     1     -19.977   7.002  15.994  1.00  0.00     0.000 C 
BRANCH   5   6
ATOM      6  C   UNL     1     -18.727   6.324  16.589  1.00  0.00     0.000 C 
BRANCH   6   7
ATOM      7  C   UNL     1     -18.140   7.051  17.819  1.00  0.00     0.000 C 
BRANCH   7   8
ATOM      8  C   UNL     1     -17.816   6.095  18.983  1.00  0.00     0.000 C 
BRANCH   8   9
ATOM      9  C   UNL     1     -18.631   4.791  18.932  1.00  0.00     0.000 C 
BRANCH   9  10
ATOM     10  C   UNL     1     -19.912   4.783  19.791  1.00  0.00     0.006 C 
BRANCH  10  11
ATOM     11  C   UNL     1     -20.374   3.378  20.212  1.00  0.00     0.053 C 
BRANCH  11  12
ATOM     12  C   UNL     1     -19.988   3.037  21.619  1.00  0.00     0.041 C 
ATOM     13  O   UNL     1     -20.508   2.044  22.191  1.00  0.00    -0.550 OA
ATOM     14  O   UNL     1     -19.093   3.839  22.315  1.00  0.00    -0.550 OA
ENDBRANCH  11  12
ENDBRANCH  10  11
ENDBRANCH   9  10
ENDBRANCH   8   9
ENDBRANCH   7   8
ENDBRANCH   6   7
ENDBRANCH   5   6
ENDBRANCH   4   5
ENDBRANCH   3   4
ENDBRANCH   2   3
ENDBRANCH   1   2
BRANCH   1  15
ATOM     15  C   UNL     1     -21.944   7.914  20.548  1.00  0.00     0.000 C 
BRANCH  15  16
ATOM     16  C   UNL     1     -23.482   8.034  20.498  1.00  0.00     0.000 C 
BRANCH  16  17
ATOM     17  C   UNL     1     -24.182   6.835  21.155  1.00  0.00     0.000 C 
BRANCH  17  18
ATOM     18  C   UNL     1     -23.394   5.541  20.922  1.00  0.00    -0.000 C 
BRANCH  18  19
ATOM     19  C   UNL     1     -23.185   4.781  22.237  1.00  0.00    -0.000 C 
BRANCH  19  20
ATOM     20  C   UNL     1     -24.495   4.689  23.034  1.00  0.00    -0.000 C 
BRANCH  20  21
ATOM     21  C   UNL     1     -24.309   3.972  24.383  1.00  0.00    -0.000 C 
BRANCH  21  22
ATOM     22  C   UNL     1     -25.300   2.806  24.603  1.00  0.00    -0.000 C 
BRANCH  22  23
ATOM     23  C   UNL     1     -25.622   2.017  23.319  1.00  0.00    -0.000 C 
BRANCH  23  24
ATOM     24  C   UNL     1     -24.564   0.972  22.924  1.00  0.00    -0.000 C 
BRANCH  24  25
ATOM     25  C   UNL     1     -23.930   1.257  21.554  1.00  0.00    -0.003 C 
ATOM     26  C   UNL     1     -23.446  -0.031  20.896  1.00  0.00     0.004 C 
ENDBRANCH  24  25
ENDBRANCH  23  24
ENDBRANCH  22  23
ENDBRANCH  21  22
ENDBRANCH  20  21
ENDBRANCH  19  20
ENDBRANCH  18  19
ENDBRANCH  17  18
ENDBRANCH  16  17
ENDBRANCH  15  16
ENDBRANCH   1  15
TORSDOF 22
ENDMDL
MODEL 8
REMARK VINA RESULT:    -3.584      2.011      3.929
REMARK INTER + INTRA:         -12.461
REMARK INTER:                  -8.355
REMARK INTRA:                  -4.106
REMARK UNBOUND:                -4.267
REMARK SMILES CCCCCCCCCCCCCCCCCCCCCCCC(=O)[O-]
REMARK SMILES IDX 13 1 14 2 15 3 16 4 17 5 18 6 19 7 20 8 21 9 22 10 23 11
REMARK SMILES IDX 24 12 25 13 26 14 12 15 11 16 10 17 9 18 8 19 7 20 6 21 5 22
REMARK SMILES IDX 4 23 3 24 2 25 1 26
REMARK H PARENT
REMARK Flexibility Score: inf
ROOT
ATOM      1  C   UNL     1     -22.338   8.305  20.060  1.00  0.00     0.000 C 
ENDROOT
BRANCH   1   2
ATOM      2  C   UNL     1     -21.867   8.309  18.594  1.00  0.00     0.000 C 
BRANCH   2   3
ATOM      3  C   UNL     1     -22.496   7.215  17.713  1.00  0.00     0.000 C 
BRANCH   3   4
ATOM      4  C   UNL     1     -21.451   6.271  17.092  1.00  0.00     0.000 C 
BRANCH   4   5
ATOM      5  C   UNL     1     -20.519   6.984  16.099  1.00  0.00     0.000 C 
BRANCH   5   6
ATOM      6  C   UNL     1     -19.045   6.534  16.142  1.00  0.00     0.000 C 
BRANCH   6   7
ATOM      7  C   UNL     1     -18.305   6.916  17.443  1.00  0.00     0.000 C 
BRANCH   7   8
ATOM      8  C   UNL     1     -17.743   5.695  18.195  1.00  0.00     0.000 C 
BRANCH   8   9
ATOM      9  C   UNL     1     -18.491   5.404  19.508  1.00  0.00     0.000 C 
BRANCH   9  10
ATOM     10  C   UNL     1     -19.050   6.645  20.235  1.00  0.00     0.006 C 
BRANCH  10  11
ATOM     11  C   UNL     1     -19.346   6.415  21.727  1.00  0.00     0.053 C 
BRANCH  11  12
ATOM     12  C   UNL     1     -19.066   7.623  22.568  1.00  0.00     0.041 C 
ATOM     13  O   UNL     1     -18.358   7.519  23.602  1.00  0.00    -0.550 OA
ATOM     14  O   UNL     1     -19.625   8.851  22.238  1.00  0.00    -0.550 OA
ENDBRANCH  11  12
ENDBRANCH  10  11
ENDBRANCH   9  10
ENDBRANCH   8   9
ENDBRANCH   7   8
ENDBRANCH   6   7
ENDBRANCH   5   6
ENDBRANCH   4   5
ENDBRANCH   3   4
ENDBRANCH   2   3
ENDBRANCH   1   2
BRANCH   1  15
ATOM     15  C   UNL     1     -23.837   8.011  20.263  1.00  0.00     0.000 C 
BRANCH  15  16
ATOM     16  C   UNL     1     -24.118   6.778  21.146  1.00  0.00     0.000 C 
BRANCH  16  17
ATOM     17  C   UNL     1     -22.883   5.877  21.301  1.00  0.00     0.000 C 
BRANCH  17  18
ATOM     18  C   UNL     1     -23.059   4.562  20.534  1.00  0.00    -0.000 C 
BRANCH  18  19
ATOM     19  C   UNL     1     -21.719   4.066  19.978  1.00  0.00    -0.000 C 
BRANCH  19  20
ATOM     20  C   UNL     1     -21.194   2.872  20.792  1.00  0.00    -0.000 C 
BRANCH  20  21
ATOM     21  C   UNL     1     -22.225   1.733  20.887  1.00  0.00    -0.000 C 
BRANCH  21  22
ATOM     22  C   UNL     1     -22.481   1.255  22.335  1.00  0.00    -0.000 C 
BRANCH  22  23
ATOM     23  C   UNL     1     -22.702   2.404  23.338  1.00  0.00    -0.000 C 
BRANCH  23  24
ATOM     24  C   UNL     1     -24.169   2.826  23.518  1.00  0.00    -0.000 C 
BRANCH  24  25
ATOM     25  C   UNL     1     -24.315   4.179  24.233  1.00  0.00    -0.003 C 
ATOM     26  C   UNL     1     -25.737   4.715  24.107  1.00  0.00     0.004 C 
ENDBRANCH  24  25
ENDBRANCH  23  24
ENDBRANCH  22  23
ENDBRANCH  21  22
ENDBRANCH  20  21
ENDBRANCH  19  20
ENDBRANCH  18  19
ENDBRANCH  17  18
ENDBRANCH  16  17
ENDBRANCH  15  16
ENDBRANCH   1  15
TORSDOF 22
ENDMDL
MODEL 9
REMARK VINA RESULT:    -3.548      2.249      6.436
REMARK INTER + INTRA:         -12.378
REMARK INTER:                  -8.626
REMARK INTRA:                  -3.752
REMARK UNBOUND:                -4.267
REMARK SMILES CCCCCCCCCCCCCCCCCCCCCCCC(=O)[O-]
REMARK SMILES IDX 13 1 14 2 15 3 16 4 17 5 18 6 19 7 20 8 21 9 22 10 23 11
REMARK SMILES IDX 24 12 25 13 26 14 12 15 11 16 10 17 9 18 8 19 7 20 6 21 5 22
REMARK SMILES IDX 4 23 3 24 2 25 1 26
REMARK H PARENT
REMARK Flexibility Score: inf
ROOT
ATOM      1  C   UNL     1     -23.894   7.064  20.904  1.00  0.00     0.000 C 
ENDROOT
BRANCH   1   2
ATOM      2  C   UNL     1     -23.538   5.659  21.425  1.00  0.00     0.000 C 
BRANCH   2   3
ATOM      3  C   UNL     1     -22.889   4.731  20.382  1.00  0.00     0.000 C 
BRANCH   3   4
ATOM      4  C   UNL     1     -22.746   3.281  20.878  1.00  0.00     0.000 C 
BRANCH   4   5
ATOM      5  C   UNL     1     -23.707   2.948  22.031  1.00  0.00     0.000 C 
BRANCH   5   6
ATOM      6  C   UNL     1     -24.595   1.708  21.807  1.00  0.00     0.000 C 
BRANCH   6   7
ATOM      7  C   UNL     1     -24.360   0.570  22.825  1.00  0.00     0.000 C 
BRANCH   7   8
ATOM      8  C   UNL     1     -23.734  -0.685  22.188  1.00  0.00     0.000 C 
BRANCH   8   9
ATOM      9  C   UNL     1     -23.409  -0.501  20.695  1.00  0.00     0.000 C 
BRANCH   9  10
ATOM     10  C   UNL     1     -21.913  -0.313  20.367  1.00  0.00     0.006 C 
BRANCH  10  11
ATOM     11  C   UNL     1     -20.977  -0.526  21.569  1.00  0.00     0.053 C 
BRANCH  11  12
ATOM     12  C   UNL     1     -20.359   0.749  22.057  1.00  0.00     0.041 C 
ATOM     13  O   UNL     1     -19.411   1.274  21.417  1.00  0.00    -0.550 OA
ATOM     14  O   UNL     1     -20.794   1.332  23.240  1.00  0.00    -0.550 OA
ENDBRANCH  11  12
ENDBRANCH  10  11
ENDBRANCH   9  10
ENDBRANCH   8   9
ENDBRANCH   7   8
ENDBRANCH   6   7
ENDBRANCH   5   6
ENDBRANCH   4   5
ENDBRANCH   3   4
ENDBRANCH   2   3
ENDBRANCH   1   2
BRANCH   1  15
ATOM     15  C   UNL     1     -22.691   7.931  20.489  1.00  0.00     0.000 C 
BRANCH  15  16
ATOM     16  C   UNL     1     -22.827   8.559  19.086  1.00  0.00     0.000 C 
BRANCH  16  17
ATOM     17  C   UNL     1     -21.755   8.047  18.111  1.00  0.00     0.000 C 
BRANCH  17  18
ATOM     18  C   UNL     1     -22.197   6.742  17.441  1.00  0.00    -0.000 C 
BRANCH  18  19
ATOM     19  C   UNL     1     -21.190   6.304  16.371  1.00  0.00    -0.000 C 
BRANCH  19  20
ATOM     20  C   UNL     1     -19.880   7.097  16.492  1.00  0.00    -0.000 C 
BRANCH  20  21
ATOM     21  C   UNL     1     -18.704   6.217  16.953  1.00  0.00    -0.000 C 
BRANCH  21  22
ATOM     22  C   UNL     1     -18.420   6.314  18.470  1.00  0.00    -0.000 C 
BRANCH  22  23
ATOM     23  C   UNL     1     -19.332   5.417  19.330  1.00  0.00    -0.000 C 
BRANCH  23  24
ATOM     24  C   UNL     1     -19.562   5.923  20.764  1.00  0.00    -0.000 C 
BRANCH  24  25
ATOM     25  C   UNL     1     -19.287   4.846  21.826  1.00  0.00    -0.003 C 
ATOM     26  C   UNL     1     -20.196   5.027  23.037  1.00  0.00     0.004 C 
ENDBRANCH  24  25
ENDBRANCH  23  24
ENDBRANCH  22  23
ENDBRANCH  21  22
ENDBRANCH  20  21
ENDBRANCH  19  20
ENDBRANCH  18  19
ENDBRANCH  17  18
ENDBRANCH  16  17
ENDBRANCH  15  16
ENDBRANCH   1  15
TORSDOF 22
ENDMDL
