MODEL 1
REMARK VINA RESULT:    -4.627      0.000      0.000
REMARK INTER + INTRA:         -11.208
REMARK INTER:                  -8.685
REMARK INTRA:                  -2.523
REMARK UNBOUND:                -2.523
REMARK SMILES CCCCCCCCC=CCCCCCCCC(=O)[O-]
REMARK SMILES IDX 10 1 9 2 11 3 12 4 13 5 14 6 15 7 16 8 17 9 18 10 19 11
REMARK SMILES IDX 20 12 8 13 7 14 6 15 5 16 4 17 3 18 2 19 1 20
REMARK H PARENT
REMARK Flexibility Score: inf
ROOT
ATOM      1  C   UNL     1      -6.964  66.085  31.682  1.00  0.00    -0.031 C 
ATOM      2  C   UNL     1      -7.566  66.568  32.778  1.00  0.00    -0.031 C 
ENDROOT
BRANCH   1   3
ATOM      3  C   UNL     1      -7.740  65.385  30.600  1.00  0.00     0.027 C 
BRANCH   3   4
ATOM      4  C   UNL     1      -7.704  66.183  29.288  1.00  0.00     0.004 C 
BRANCH   4   5
ATOM      5  C   UNL     1      -6.850  67.456  29.393  1.00  0.00     0.000 C 
BRANCH   5   6
ATOM      6  C   UNL     1      -7.652  68.736  29.095  1.00  0.00     0.000 C 
BRANCH   6   7
ATOM      7  C   UNL     1      -8.085  69.464  30.385  1.00  0.00     0.000 C 
BRANCH   7   8
ATOM      8  C   UNL     1      -9.605  69.675  30.492  1.00  0.00     0.006 C 
BRANCH   8   9
ATOM      9  C   UNL     1     -10.265  68.752  31.523  1.00  0.00     0.053 C 
BRANCH   9  10
ATOM     10  C   UNL     1     -10.835  67.543  30.852  1.00  0.00     0.041 C 
ATOM     11  O   UNL     1     -11.003  67.531  29.604  1.00  0.00    -0.550 OA
ATOM     12  O   UNL     1     -11.228  66.448  31.611  1.00  0.00    -0.550 OA
ENDBRANCH   9  10
ENDBRANCH   8   9
ENDBRANCH   7   8
ENDBRANCH   6   7
ENDBRANCH   5   6
ENDBRANCH   4   5
ENDBRANCH   3   4
ENDBRANCH   1   3
BRANCH   2  13
ATOM     13  C   UNL     1      -6.785  67.223  33.885  1.00  0.00     0.027 C 
BRANCH  13  14
ATOM     14  C   UNL     1      -5.281  66.946  33.757  1.00  0.00     0.004 C 
BRANCH  14  15
ATOM     15  C   UNL     1      -4.550  68.058  32.984  1.00  0.00     0.000 C 
BRANCH  15  16
ATOM     16  C   UNL     1      -3.325  67.537  32.216  1.00  0.00     0.000 C 
BRANCH  16  17
ATOM     17  C   UNL     1      -3.630  67.257  30.736  1.00  0.00    -0.000 C 
BRANCH  17  18
ATOM     18  C   UNL     1      -2.395  66.688  30.022  1.00  0.00    -0.000 C 
BRANCH  18  19
ATOM     19  C   UNL     1      -2.758  65.623  28.975  1.00  0.00    -0.003 C 
ATOM     20  C   UNL     1      -4.051  64.880  29.308  1.00  0.00     0.004 C 
ENDBRANCH  18  19
ENDBRANCH  17  18
ENDBRANCH  16  17
ENDBRANCH  15  16
ENDBRANCH  14  15
ENDBRANCH  13  14
ENDBRANCH   2  13
TORSDOF 15
ENDMDL
MODEL 2
REMARK VINA RESULT:    -4.606      1.334      4.072
REMARK INTER + INTRA:         -11.167
REMARK INTER:                  -8.288
REMARK INTRA:                  -2.879
REMARK UNBOUND:                -2.523
REMARK SMILES CCCCCCCCC=CCCCCCCCC(=O)[O-]
REMARK SMILES IDX 10 1 9 2 11 3 12 4 13 5 14 6 15 7 16 8 17 9 18 10 19 11
REMARK SMILES IDX 20 12 8 13 7 14 6 15 5 16 4 17 3 18 2 19 1 20
REMARK H PARENT
REMARK Flexibility Score: inf
ROOT
ATOM      1  C   UNL     1      -5.233  69.351  31.260  1.00  0.00    -0.031 C 
ATOM      2  C   UNL     1      -6.385  69.950  30.923  1.00  0.00    -0.031 C 
ENDROOT
BRANCH   1   3
ATOM      3  C   UNL     1      -4.872  69.091  32.696  1.00  0.00     0.027 C 
BRANCH   3   4
ATOM      4  C   UNL     1      -4.333  67.664  32.881  1.00  0.00     0.004 C 
BRANCH   4   5
ATOM      5  C   UNL     1      -5.143  66.853  33.905  1.00  0.00     0.000 C 
BRANCH   5   6
ATOM      6  C   UNL     1      -6.645  67.188  33.874  1.00  0.00     0.000 C 
BRANCH   6   7
ATOM      7  C   UNL     1      -7.384  66.440  32.744  1.00  0.00     0.000 C 
BRANCH   7   8
ATOM      8  C   UNL     1      -8.540  67.246  32.128  1.00  0.00     0.006 C 
BRANCH   8   9
ATOM      9  C   UNL     1      -9.133  66.581  30.881  1.00  0.00     0.053 C 
BRANCH   9  10
ATOM     10  C   UNL     1     -10.593  66.886  30.770  1.00  0.00     0.041 C 
ATOM     11  O   UNL     1     -11.377  66.583  31.708  1.00  0.00    -0.550 OA
ATOM     12  O   UNL     1     -11.098  67.460  29.610  1.00  0.00    -0.550 OA
ENDBRANCH   9  10
ENDBRANCH   8   9
ENDBRANCH   7   8
ENDBRANCH   6   7
ENDBRANCH   5   6
ENDBRANCH   4   5
ENDBRANCH   3   4
ENDBRANCH   1   3
BRANCH   2  13
ATOM     13  C   UNL     1      -6.726  70.258  29.490  1.00  0.00     0.027 C 
BRANCH  13  14
ATOM     14  C   UNL     1      -7.838  69.342  28.963  1.00  0.00     0.004 C 
BRANCH  14  15
ATOM     15  C   UNL     1      -7.353  68.444  27.811  1.00  0.00     0.000 C 
BRANCH  15  16
ATOM     16  C   UNL     1      -5.823  68.440  27.668  1.00  0.00     0.000 C 
BRANCH  16  17
ATOM     17  C   UNL     1      -5.205  67.064  27.961  1.00  0.00    -0.000 C 
BRANCH  17  18
ATOM     18  C   UNL     1      -5.935  66.374  29.123  1.00  0.00    -0.000 C 
BRANCH  18  19
ATOM     19  C   UNL     1      -5.028  65.407  29.900  1.00  0.00    -0.003 C 
ATOM     20  C   UNL     1      -3.574  65.451  29.428  1.00  0.00     0.004 C 
ENDBRANCH  18  19
ENDBRANCH  17  18
ENDBRANCH  16  17
ENDBRANCH  15  16
ENDBRANCH  14  15
ENDBRANCH  13  14
ENDBRANCH   2  13
TORSDOF 15
ENDMDL
MODEL 3
REMARK VINA RESULT:    -4.578      2.514      4.610
REMARK INTER + INTRA:         -11.114
REMARK INTER:                  -8.226
REMARK INTRA:                  -2.888
REMARK UNBOUND:                -2.523
REMARK SMILES CCCCCCCCC=CCCCCCCCC(=O)[O-]
REMARK SMILES IDX 10 1 9 2 11 3 12 4 13 5 14 6 15 7 16 8 17 9 18 10 19 11
REMARK SMILES IDX 20 12 8 13 7 14 6 15 5 16 4 17 3 18 2 19 1 20
REMARK H PARENT
REMARK Flexibility Score: inf
ROOT
ATOM      1  C   UNL     1      -7.583  69.729  30.262  1.00  0.00    -0.031 C 
ATOM      2  C   UNL     1      -7.219  68.980  29.210  1.00  0.00    -0.031 C 
ENDROOT
BRANCH   1   3
ATOM      3  C   UNL     1      -9.011  70.154  30.470  1.00  0.00     0.027 C 
BRANCH   3   4
ATOM      4  C   UNL     1      -9.961  68.948  30.417  1.00  0.00     0.004 C 
BRANCH   4   5
ATOM      5  C   UNL     1      -9.811  68.022  31.634  1.00  0.00     0.000 C 
BRANCH   5   6
ATOM      6  C   UNL     1      -9.308  66.618  31.255  1.00  0.00     0.000 C 
BRANCH   6   7
ATOM      7  C   UNL     1      -7.971  66.273  31.945  1.00  0.00     0.000 C 
BRANCH   7   8
ATOM      8  C   UNL     1      -7.598  67.240  33.081  1.00  0.00     0.006 C 
BRANCH   8   9
ATOM      9  C   UNL     1      -6.128  67.672  33.039  1.00  0.00     0.053 C 
BRANCH   9  10
ATOM     10  C   UNL     1      -5.503  67.528  34.391  1.00  0.00     0.041 C 
ATOM     11  O   UNL     1      -4.460  66.839  34.537  1.00  0.00    -0.550 OA
ATOM     12  O   UNL     1      -6.102  68.115  35.498  1.00  0.00    -0.550 OA
ENDBRANCH   9  10
ENDBRANCH   8   9
ENDBRANCH   7   8
ENDBRANCH   6   7
ENDBRANCH   5   6
ENDBRANCH   4   5
ENDBRANCH   3   4
ENDBRANCH   1   3
BRANCH   2  13
ATOM     13  C   UNL     1      -5.784  68.596  28.973  1.00  0.00     0.027 C 
BRANCH  13  14
ATOM     14  C   UNL     1      -5.672  67.299  28.161  1.00  0.00     0.004 C 
BRANCH  14  15
ATOM     15  C   UNL     1      -5.818  66.047  29.045  1.00  0.00     0.000 C 
BRANCH  15  16
ATOM     16  C   UNL     1      -4.716  65.944  30.110  1.00  0.00     0.000 C 
BRANCH  16  17
ATOM     17  C   UNL     1      -3.317  65.771  29.499  1.00  0.00    -0.000 C 
BRANCH  17  18
ATOM     18  C   UNL     1      -2.347  66.829  30.047  1.00  0.00    -0.000 C 
BRANCH  18  19
ATOM     19  C   UNL     1      -2.806  67.410  31.393  1.00  0.00    -0.003 C 
ATOM     20  C   UNL     1      -2.888  68.936  31.384  1.00  0.00     0.004 C 
ENDBRANCH  18  19
ENDBRANCH  17  18
ENDBRANCH  16  17
ENDBRANCH  15  16
ENDBRANCH  14  15
ENDBRANCH  13  14
ENDBRANCH   2  13
TORSDOF 15
ENDMDL
MODEL 4
REMARK VINA RESULT:    -4.565      1.850      2.613
REMARK INTER + INTRA:         -11.091
REMARK INTER:                  -8.847
REMARK INTRA:                  -2.244
REMARK UNBOUND:                -2.523
REMARK SMILES CCCCCCCCC=CCCCCCCCC(=O)[O-]
REMARK SMILES IDX 10 1 9 2 11 3 12 4 13 5 14 6 15 7 16 8 17 9 18 10 19 11
REMARK SMILES IDX 20 12 8 13 7 14 6 15 5 16 4 17 3 18 2 19 1 20
REMARK H PARENT
REMARK Flexibility Score: inf
ROOT
ATOM      1  C   UNL     1      -8.278  67.436  32.041  1.00  0.00    -0.031 C 
ATOM      2  C   UNL     1      -7.518  66.454  32.549  1.00  0.00    -0.031 C 
ENDROOT
BRANCH   1   3
ATOM      3  C   UNL     1      -8.686  67.447  30.593  1.00  0.00     0.027 C 
BRANCH   3   4
ATOM      4  C   UNL     1      -8.700  66.024  30.012  1.00  0.00     0.004 C 
BRANCH   4   5
ATOM      5  C   UNL     1      -9.438  65.942  28.666  1.00  0.00     0.000 C 
BRANCH   5   6
ATOM      6  C   UNL     1     -10.138  67.261  28.291  1.00  0.00     0.000 C 
BRANCH   6   7
ATOM      7  C   UNL     1     -11.632  67.053  27.962  1.00  0.00     0.000 C 
BRANCH   7   8
ATOM      8  C   UNL     1     -12.532  66.987  29.208  1.00  0.00     0.006 C 
BRANCH   8   9
ATOM      9  C   UNL     1     -12.729  65.559  29.727  1.00  0.00     0.053 C 
BRANCH   9  10
ATOM     10  C   UNL     1     -12.787  65.550  31.222  1.00  0.00     0.041 C 
ATOM     11  O   UNL     1     -13.821  65.144  31.814  1.00  0.00    -0.550 OA
ATOM     12  O   UNL     1     -11.717  66.038  31.961  1.00  0.00    -0.550 OA
ENDBRANCH   9  10
ENDBRANCH   8   9
ENDBRANCH   7   8
ENDBRANCH   6   7
ENDBRANCH   5   6
ENDBRANCH   4   5
ENDBRANCH   3   4
ENDBRANCH   1   3
BRANCH   2  13
ATOM     13  C   UNL     1      -7.066  66.468  33.984  1.00  0.00     0.027 C 
BRANCH  13  14
ATOM     14  C   UNL     1      -5.954  67.499  34.217  1.00  0.00     0.004 C 
BRANCH  14  15
ATOM     15  C   UNL     1      -4.638  67.099  33.528  1.00  0.00     0.000 C 
BRANCH  15  16
ATOM     16  C   UNL     1      -4.227  68.083  32.421  1.00  0.00     0.000 C 
BRANCH  16  17
ATOM     17  C   UNL     1      -3.906  67.379  31.093  1.00  0.00    -0.000 C 
BRANCH  17  18
ATOM     18  C   UNL     1      -4.985  67.679  30.042  1.00  0.00    -0.000 C 
BRANCH  18  19
ATOM     19  C   UNL     1      -5.241  66.489  29.104  1.00  0.00    -0.003 C 
ATOM     20  C   UNL     1      -4.682  65.174  29.648  1.00  0.00     0.004 C 
ENDBRANCH  18  19
ENDBRANCH  17  18
ENDBRANCH  16  17
ENDBRANCH  15  16
ENDBRANCH  14  15
ENDBRANCH  13  14
ENDBRANCH   2  13
TORSDOF 15
ENDMDL
MODEL 5
REMARK VINA RESULT:    -4.553      1.484      3.818
REMARK INTER + INTRA:         -11.069
REMARK INTER:                  -8.873
REMARK INTRA:                  -2.196
REMARK UNBOUND:                -2.523
REMARK SMILES CCCCCCCCC=CCCCCCCCC(=O)[O-]
REMARK SMILES IDX 10 1 9 2 11 3 12 4 13 5 14 6 15 7 16 8 17 9 18 10 19 11
REMARK SMILES IDX 20 12 8 13 7 14 6 15 5 16 4 17 3 18 2 19 1 20
REMARK H PARENT
REMARK Flexibility Score: inf
ROOT
ATOM      1  C   UNL     1      -4.918  67.598  33.018  1.00  0.00    -0.031 C 
ATOM      2  C   UNL     1      -3.582  67.496  33.081  1.00  0.00    -0.031 C 
ENDROOT
BRANCH   1   3
ATOM      3  C   UNL     1      -5.786  67.327  34.216  1.00  0.00     0.027 C 
BRANCH   3   4
ATOM      4  C   UNL     1      -6.951  66.393  33.855  1.00  0.00     0.004 C 
BRANCH   4   5
ATOM      5  C   UNL     1      -7.310  66.443  32.362  1.00  0.00     0.000 C 
BRANCH   5   6
ATOM      6  C   UNL     1      -8.561  67.296  32.080  1.00  0.00     0.000 C 
BRANCH   6   7
ATOM      7  C   UNL     1      -9.616  66.527  31.258  1.00  0.00     0.000 C 
BRANCH   7   8
ATOM      8  C   UNL     1     -11.022  67.149  31.327  1.00  0.00     0.006 C 
BRANCH   8   9
ATOM      9  C   UNL     1     -12.140  66.117  31.145  1.00  0.00     0.053 C 
BRANCH   9  10
ATOM     10  C   UNL     1     -12.323  65.796  29.695  1.00  0.00     0.041 C 
ATOM     11  O   UNL     1     -12.630  66.704  28.879  1.00  0.00    -0.550 OA
ATOM     12  O   UNL     1     -12.203  64.485  29.254  1.00  0.00    -0.550 OA
ENDBRANCH   9  10
ENDBRANCH   8   9
ENDBRANCH   7   8
ENDBRANCH   6   7
ENDBRANCH   5   6
ENDBRANCH   4   5
ENDBRANCH   3   4
ENDBRANCH   1   3
BRANCH   2  13
ATOM     13  C   UNL     1      -2.715  67.716  31.871  1.00  0.00     0.027 C 
BRANCH  13  14
ATOM     14  C   UNL     1      -3.527  67.642  30.572  1.00  0.00     0.004 C 
BRANCH  14  15
ATOM     15  C   UNL     1      -3.538  66.223  29.975  1.00  0.00     0.000 C 
BRANCH  15  16
ATOM     16  C   UNL     1      -4.915  65.826  29.421  1.00  0.00     0.000 C 
BRANCH  16  17
ATOM     17  C   UNL     1      -5.476  66.860  28.432  1.00  0.00    -0.000 C 
BRANCH  17  18
ATOM     18  C   UNL     1      -6.982  67.064  28.650  1.00  0.00    -0.000 C 
BRANCH  18  19
ATOM     19  C   UNL     1      -7.381  68.548  28.670  1.00  0.00    -0.003 C 
ATOM     20  C   UNL     1      -6.675  69.336  29.774  1.00  0.00     0.004 C 
ENDBRANCH  18  19
ENDBRANCH  17  18
ENDBRANCH  16  17
ENDBRANCH  15  16
ENDBRANCH  14  15
ENDBRANCH  13  14
ENDBRANCH   2  13
TORSDOF 15
ENDMDL
MODEL 6
REMARK VINA RESULT:    -4.535      1.115      3.300
REMARK INTER + INTRA:         -11.034
REMARK INTER:                  -8.668
REMARK INTRA:                  -2.366
REMARK UNBOUND:                -2.523
REMARK SMILES CCCCCCCCC=CCCCCCCCC(=O)[O-]
REMARK SMILES IDX 10 1 9 2 11 3 12 4 13 5 14 6 15 7 16 8 17 9 18 10 19 11
REMARK SMILES IDX 20 12 8 13 7 14 6 15 5 16 4 17 3 18 2 19 1 20
REMARK H PARENT
REMARK Flexibility Score: inf
ROOT
ATOM      1  C   UNL     1      -5.139  65.707  29.811  1.00  0.00    -0.031 C 
ATOM      2  C   UNL     1      -3.963  65.199  29.415  1.00  0.00    -0.031 C 
ENDROOT
BRANCH   1   3
ATOM      3  C   UNL     1      -6.310  64.822  30.137  1.00  0.00     0.027 C 
BRANCH   3   4
ATOM      4  C   UNL     1      -7.640  65.556  29.903  1.00  0.00     0.004 C 
BRANCH   4   5
ATOM      5  C   UNL     1      -7.491  66.771  28.975  1.00  0.00     0.000 C 
BRANCH   5   6
ATOM      6  C   UNL     1      -8.543  67.861  29.250  1.00  0.00     0.000 C 
BRANCH   6   7
ATOM      7  C   UNL     1      -8.436  68.424  30.683  1.00  0.00     0.000 C 
BRANCH   7   8
ATOM      8  C   UNL     1      -9.582  67.976  31.606  1.00  0.00     0.006 C 
BRANCH   8   9
ATOM      9  C   UNL     1     -10.932  67.896  30.885  1.00  0.00     0.053 C 
BRANCH   9  10
ATOM     10  C   UNL     1     -11.485  66.508  30.964  1.00  0.00     0.041 C 
ATOM     11  O   UNL     1     -11.999  66.090  32.035  1.00  0.00    -0.550 OA
ATOM     12  O   UNL     1     -11.387  65.657  29.870  1.00  0.00    -0.550 OA
ENDBRANCH   9  10
ENDBRANCH   8   9
ENDBRANCH   7   8
ENDBRANCH   6   7
ENDBRANCH   5   6
ENDBRANCH   4   5
ENDBRANCH   3   4
ENDBRANCH   1   3
BRANCH   2  13
ATOM     13  C   UNL     1      -2.806  66.084  29.039  1.00  0.00     0.027 C 
BRANCH  13  14
ATOM     14  C   UNL     1      -2.820  67.400  29.828  1.00  0.00     0.004 C 
BRANCH  14  15
ATOM     15  C   UNL     1      -1.935  67.333  31.084  1.00  0.00     0.000 C 
BRANCH  15  16
ATOM     16  C   UNL     1      -2.500  68.159  32.251  1.00  0.00     0.000 C 
BRANCH  16  17
ATOM     17  C   UNL     1      -4.032  68.271  32.208  1.00  0.00    -0.000 C 
BRANCH  17  18
ATOM     18  C   UNL     1      -4.681  67.246  33.149  1.00  0.00    -0.000 C 
BRANCH  18  19
ATOM     19  C   UNL     1      -6.178  67.514  33.371  1.00  0.00    -0.003 C 
ATOM     20  C   UNL     1      -6.959  66.250  33.729  1.00  0.00     0.004 C 
ENDBRANCH  18  19
ENDBRANCH  17  18
ENDBRANCH  16  17
ENDBRANCH  15  16
ENDBRANCH  14  15
ENDBRANCH  13  14
ENDBRANCH   2  13
TORSDOF 15
ENDMDL
MODEL 7
REMARK VINA RESULT:    -4.515      2.180      3.539
REMARK INTER + INTRA:         -10.998
REMARK INTER:                  -8.814
REMARK INTRA:                  -2.184
REMARK UNBOUND:                -2.523
REMARK SMILES CCCCCCCCC=CCCCCCCCC(=O)[O-]
REMARK SMILES IDX 10 1 9 2 11 3 12 4 13 5 14 6 15 7 16 8 17 9 18 10 19 11
REMARK SMILES IDX 20 12 8 13 7 14 6 15 5 16 4 17 3 18 2 19 1 20
REMARK H PARENT
REMARK Flexibility Score: inf
ROOT
ATOM      1  C   UNL     1      -8.904  68.353  31.439  1.00  0.00    -0.031 C 
ATOM      2  C   UNL     1      -8.682  67.141  31.970  1.00  0.00    -0.031 C 
ENDROOT
BRANCH   1   3
ATOM      3  C   UNL     1     -10.241  68.726  30.861  1.00  0.00     0.027 C 
BRANCH   3   4
ATOM      4  C   UNL     1     -10.152  68.916  29.339  1.00  0.00     0.004 C 
BRANCH   4   5
ATOM      5  C   UNL     1      -9.979  67.588  28.586  1.00  0.00     0.000 C 
BRANCH   5   6
ATOM      6  C   UNL     1     -11.321  66.897  28.285  1.00  0.00     0.000 C 
BRANCH   6   7
ATOM      7  C   UNL     1     -11.556  65.666  29.186  1.00  0.00     0.000 C 
BRANCH   7   8
ATOM      8  C   UNL     1     -12.648  65.881  30.248  1.00  0.00     0.006 C 
BRANCH   8   9
ATOM      9  C   UNL     1     -12.147  65.643  31.676  1.00  0.00     0.053 C 
BRANCH   9  10
ATOM     10  C   UNL     1     -13.198  64.958  32.491  1.00  0.00     0.041 C 
ATOM     11  O   UNL     1     -12.911  64.475  33.618  1.00  0.00    -0.550 OA
ATOM     12  O   UNL     1     -14.482  64.810  31.985  1.00  0.00    -0.550 OA
ENDBRANCH   9  10
ENDBRANCH   8   9
ENDBRANCH   7   8
ENDBRANCH   6   7
ENDBRANCH   5   6
ENDBRANCH   4   5
ENDBRANCH   3   4
ENDBRANCH   1   3
BRANCH   2  13
ATOM     13  C   UNL     1      -7.331  66.748  32.503  1.00  0.00     0.027 C 
BRANCH  13  14
ATOM     14  C   UNL     1      -6.241  67.736  32.067  1.00  0.00     0.004 C 
BRANCH  14  15
ATOM     15  C   UNL     1      -4.826  67.194  32.335  1.00  0.00     0.000 C 
BRANCH  15  16
ATOM     16  C   UNL     1      -4.024  66.971  31.043  1.00  0.00     0.000 C 
BRANCH  16  17
ATOM     17  C   UNL     1      -4.734  66.025  30.061  1.00  0.00    -0.000 C 
BRANCH  17  18
ATOM     18  C   UNL     1      -4.901  66.690  28.687  1.00  0.00    -0.000 C 
BRANCH  18  19
ATOM     19  C   UNL     1      -6.361  67.062  28.385  1.00  0.00    -0.003 C 
ATOM     20  C   UNL     1      -6.497  68.423  27.702  1.00  0.00     0.004 C 
ENDBRANCH  18  19
ENDBRANCH  17  18
ENDBRANCH  16  17
ENDBRANCH  15  16
ENDBRANCH  14  15
ENDBRANCH  13  14
ENDBRANCH   2  13
TORSDOF 15
ENDMDL
MODEL 8
REMARK VINA RESULT:    -4.479      1.696      3.404
REMARK INTER + INTRA:         -10.929
REMARK INTER:                  -8.285
REMARK INTRA:                  -2.644
REMARK UNBOUND:                -2.523
REMARK SMILES CCCCCCCCC=CCCCCCCCC(=O)[O-]
REMARK SMILES IDX 10 1 9 2 11 3 12 4 13 5 14 6 15 7 16 8 17 9 18 10 19 11
REMARK SMILES IDX 20 12 8 13 7 14 6 15 5 16 4 17 3 18 2 19 1 20
REMARK H PARENT
REMARK Flexibility Score: inf
ROOT
ATOM      1  C   UNL     1      -5.998  67.201  28.313  1.00  0.00    -0.031 C 
ATOM      2  C   UNL     1      -6.723  66.485  29.185  1.00  0.00    -0.031 C 
ENDROOT
BRANCH   1   3
ATOM      3  C   UNL     1      -6.597  68.346  27.543  1.00  0.00     0.027 C 
BRANCH   3   4
ATOM      4  C   UNL     1      -8.110  68.446  27.788  1.00  0.00     0.004 C 
BRANCH   4   5
ATOM      5  C   UNL     1      -8.504  69.722  28.549  1.00  0.00     0.000 C 
BRANCH   5   6
ATOM      6  C   UNL     1      -9.782  69.543  29.388  1.00  0.00     0.000 C 
BRANCH   6   7
ATOM      7  C   UNL     1      -9.468  69.250  30.871  1.00  0.00     0.000 C 
BRANCH   7   8
ATOM      8  C   UNL     1     -10.224  68.033  31.430  1.00  0.00     0.006 C 
BRANCH   8   9
ATOM      9  C   UNL     1     -10.454  66.940  30.380  1.00  0.00     0.053 C 
BRANCH   9  10
ATOM     10  C   UNL     1     -11.756  66.246  30.626  1.00  0.00     0.041 C 
ATOM     11  O   UNL     1     -12.500  65.933  29.660  1.00  0.00    -0.550 OA
ATOM     12  O   UNL     1     -12.171  65.988  31.927  1.00  0.00    -0.550 OA
ENDBRANCH   9  10
ENDBRANCH   8   9
ENDBRANCH   7   8
ENDBRANCH   6   7
ENDBRANCH   5   6
ENDBRANCH   4   5
ENDBRANCH   3   4
ENDBRANCH   1   3
BRANCH   2  13
ATOM     13  C   UNL     1      -6.140  65.307  29.918  1.00  0.00     0.027 C 
BRANCH  13  14
ATOM     14  C   UNL     1      -6.884  65.034  31.232  1.00  0.00     0.004 C 
BRANCH  14  15
ATOM     15  C   UNL     1      -7.163  66.326  32.020  1.00  0.00     0.000 C 
BRANCH  15  16
ATOM     16  C   UNL     1      -6.673  66.248  33.474  1.00  0.00     0.000 C 
BRANCH  16  17
ATOM     17  C   UNL     1      -5.719  67.397  33.839  1.00  0.00    -0.000 C 
BRANCH  17  18
ATOM     18  C   UNL     1      -4.874  67.811  32.626  1.00  0.00    -0.000 C 
BRANCH  18  19
ATOM     19  C   UNL     1      -4.932  69.323  32.354  1.00  0.00    -0.003 C 
ATOM     20  C   UNL     1      -5.699  69.667  31.078  1.00  0.00     0.004 C 
ENDBRANCH  18  19
ENDBRANCH  17  18
ENDBRANCH  16  17
ENDBRANCH  15  16
ENDBRANCH  14  15
ENDBRANCH  13  14
ENDBRANCH   2  13
TORSDOF 15
ENDMDL
MODEL 9
REMARK VINA RESULT:    -4.470      2.004      4.371
REMARK INTER + INTRA:         -10.913
REMARK INTER:                  -8.000
REMARK INTRA:                  -2.913
REMARK UNBOUND:                -2.523
REMARK SMILES CCCCCCCCC=CCCCCCCCC(=O)[O-]
REMARK SMILES IDX 10 1 9 2 11 3 12 4 13 5 14 6 15 7 16 8 17 9 18 10 19 11
REMARK SMILES IDX 20 12 8 13 7 14 6 15 5 16 4 17 3 18 2 19 1 20
REMARK H PARENT
REMARK Flexibility Score: inf
ROOT
ATOM      1  C   UNL     1      -8.295  69.251  28.308  1.00  0.00    -0.031 C 
ATOM      2  C   UNL     1      -7.766  68.018  28.272  1.00  0.00    -0.031 C 
ENDROOT
BRANCH   1   3
ATOM      3  C   UNL     1      -9.721  69.484  28.726  1.00  0.00     0.027 C 
BRANCH   3   4
ATOM      4  C   UNL     1      -9.794  70.055  30.151  1.00  0.00     0.004 C 
BRANCH   4   5
ATOM      5  C   UNL     1      -9.804  68.959  31.228  1.00  0.00     0.000 C 
BRANCH   5   6
ATOM      6  C   UNL     1     -10.810  67.835  30.923  1.00  0.00     0.000 C 
BRANCH   6   7
ATOM      7  C   UNL     1     -10.114  66.476  30.695  1.00  0.00     0.000 C 
BRANCH   7   8
ATOM      8  C   UNL     1     -10.512  65.794  29.376  1.00  0.00     0.006 C 
BRANCH   8   9
ATOM      9  C   UNL     1     -12.020  65.852  29.106  1.00  0.00     0.053 C 
BRANCH   9  10
ATOM     10  C   UNL     1     -12.722  64.745  29.827  1.00  0.00     0.041 C 
ATOM     11  O   UNL     1     -12.849  63.616  29.284  1.00  0.00    -0.550 OA
ATOM     12  O   UNL     1     -13.280  64.974  31.078  1.00  0.00    -0.550 OA
ENDBRANCH   9  10
ENDBRANCH   8   9
ENDBRANCH   7   8
ENDBRANCH   6   7
ENDBRANCH   5   6
ENDBRANCH   4   5
ENDBRANCH   3   4
ENDBRANCH   1   3
BRANCH   2  13
ATOM     13  C   UNL     1      -6.356  67.777  27.806  1.00  0.00     0.027 C 
BRANCH  13  14
ATOM     14  C   UNL     1      -5.672  66.672  28.621  1.00  0.00     0.004 C 
BRANCH  14  15
ATOM     15  C   UNL     1      -6.682  65.834  29.425  1.00  0.00     0.000 C 
BRANCH  15  16
ATOM     16  C   UNL     1      -6.237  65.606  30.878  1.00  0.00     0.000 C 
BRANCH  16  17
ATOM     17  C   UNL     1      -6.572  66.794  31.793  1.00  0.00    -0.000 C 
BRANCH  17  18
ATOM     18  C   UNL     1      -5.317  67.290  32.526  1.00  0.00    -0.000 C 
BRANCH  18  19
ATOM     19  C   UNL     1      -4.988  68.757  32.207  1.00  0.00    -0.003 C 
ATOM     20  C   UNL     1      -5.972  69.383  31.219  1.00  0.00     0.004 C 
ENDBRANCH  18  19
ENDBRANCH  17  18
ENDBRANCH  16  17
ENDBRANCH  15  16
ENDBRANCH  14  15
ENDBRANCH  13  14
ENDBRANCH   2  13
TORSDOF 15
ENDMDL
