MODEL 1
REMARK VINA RESULT:    -3.308      0.000      0.000
REMARK INTER + INTRA:          -3.405
REMARK INTER:                  -3.405
REMARK INTRA:                   0.000
REMARK UNBOUND:                 0.000
REMARK SMILES Nc1ncnc2nc[nH]c12
REMARK SMILES IDX 8 1 7 2 6 3 5 4 4 5 3 6 2 7 10 8 9 9 1 11
REMARK H PARENT 9 10 1 12 1 13
REMARK Flexibility Score: inf
ROOT
ATOM      1  C   UNL     1      53.690  64.220 201.750  1.00  0.00     0.199 A 
ATOM      2  N   UNL     1      53.540  65.567 201.879  1.00  0.00    -0.217 NA
ATOM      3  C   UNL     1      54.313  65.841 202.942  1.00  0.00     0.182 A 
ATOM      4  N   UNL     1      54.519  67.058 203.501  1.00  0.00    -0.215 NA
ATOM      5  C   UNL     1      55.346  67.138 204.586  1.00  0.00     0.226 A 
ATOM      6  N   UNL     1      55.946  66.013 205.090  1.00  0.00    -0.217 NA
ATOM      7  C   UNL     1      55.739  64.784 204.529  1.00  0.00     0.152 A 
ATOM      8  C   UNL     1      54.895  64.719 203.423  1.00  0.00     0.127 A 
ATOM      9  N   UNL     1      54.514  63.673 202.679  1.00  0.00    -0.340 N 
ATOM     10  H   UNL     1      54.779  62.668 202.780  1.00  0.00     0.168 HD
ENDROOT
BRANCH   7  11
ATOM     11  N   UNL     1      56.375  63.625 205.069  1.00  0.00    -0.382 N 
ATOM     12  H   UNL     1      57.152  63.145 204.564  1.00  0.00     0.158 HD
ATOM     13  H   UNL     1      56.065  63.241 205.989  1.00  0.00     0.158 HD
ENDBRANCH   7  11
TORSDOF 1
ENDMDL
MODEL 2
REMARK VINA RESULT:    -3.264     14.566     16.360
REMARK INTER + INTRA:          -3.359
REMARK INTER:                  -3.359
REMARK INTRA:                   0.000
REMARK UNBOUND:                 0.000
REMARK SMILES Nc1ncnc2nc[nH]c12
REMARK SMILES IDX 8 1 7 2 6 3 5 4 4 5 3 6 2 7 10 8 9 9 1 11
REMARK H PARENT 9 10 1 12 1 13
REMARK Flexibility Score: inf
ROOT
ATOM      1  C   UNL     1      54.462  66.374 185.199  1.00  0.00     0.199 A 
ATOM      2  N   UNL     1      55.583  65.934 185.834  1.00  0.00    -0.217 NA
ATOM      3  C   UNL     1      55.098  65.524 187.017  1.00  0.00     0.182 A 
ATOM      4  N   UNL     1      55.808  64.990 188.041  1.00  0.00    -0.215 NA
ATOM      5  C   UNL     1      55.134  64.630 189.175  1.00  0.00     0.226 A 
ATOM      6  N   UNL     1      53.777  64.808 189.265  1.00  0.00    -0.217 NA
ATOM      7  C   UNL     1      53.059  65.346 188.234  1.00  0.00     0.152 A 
ATOM      8  C   UNL     1      53.760  65.707 187.086  1.00  0.00     0.127 A 
ATOM      9  N   UNL     1      53.331  66.247 185.938  1.00  0.00    -0.340 N 
ATOM     10  H   UNL     1      52.359  66.514 185.664  1.00  0.00     0.168 HD
ENDROOT
BRANCH   7  11
ATOM     11  N   UNL     1      51.647  65.522 188.349  1.00  0.00    -0.382 N 
ATOM     12  H   UNL     1      51.061  64.868 188.914  1.00  0.00     0.158 HD
ATOM     13  H   UNL     1      51.178  66.318 187.862  1.00  0.00     0.158 HD
ENDBRANCH   7  11
TORSDOF 1
ENDMDL
MODEL 3
REMARK VINA RESULT:    -3.209     19.022     20.267
REMARK INTER + INTRA:          -3.303
REMARK INTER:                  -3.303
REMARK INTRA:                   0.000
REMARK UNBOUND:                 0.000
REMARK SMILES Nc1ncnc2nc[nH]c12
REMARK SMILES IDX 8 1 7 2 6 3 5 4 4 5 3 6 2 7 10 8 9 9 1 11
REMARK H PARENT 9 10 1 12 1 13
REMARK Flexibility Score: inf
ROOT
ATOM      1  C   UNL     1      56.237  77.040 188.826  1.00  0.00     0.199 A 
ATOM      2  N   UNL     1      55.533  75.934 188.461  1.00  0.00    -0.217 NA
ATOM      3  C   UNL     1      56.132  75.581 187.312  1.00  0.00     0.182 A 
ATOM      4  N   UNL     1      55.810  74.526 186.524  1.00  0.00    -0.215 NA
ATOM      5  C   UNL     1      56.540  74.327 185.384  1.00  0.00     0.226 A 
ATOM      6  N   UNL     1      57.565  75.176 185.056  1.00  0.00    -0.217 NA
ATOM      7  C   UNL     1      57.891  76.240 185.849  1.00  0.00     0.152 A 
ATOM      8  C   UNL     1      57.139  76.429 187.006  1.00  0.00     0.127 A 
ATOM      9  N   UNL     1      57.226  77.368 187.957  1.00  0.00    -0.340 N 
ATOM     10  H   UNL     1      57.893  78.169 188.025  1.00  0.00     0.168 HD
ENDROOT
BRANCH   7  11
ATOM     11  N   UNL     1      58.963  77.111 185.488  1.00  0.00    -0.382 N 
ATOM     12  H   UNL     1      59.457  77.015 184.574  1.00  0.00     0.158 HD
ATOM     13  H   UNL     1      59.269  77.863 186.145  1.00  0.00     0.158 HD
ENDBRANCH   7  11
TORSDOF 1
ENDMDL
MODEL 4
REMARK VINA RESULT:    -3.200      9.523     10.867
REMARK INTER + INTRA:          -3.293
REMARK INTER:                  -3.293
REMARK INTRA:                   0.000
REMARK UNBOUND:                 0.000
REMARK SMILES Nc1ncnc2nc[nH]c12
REMARK SMILES IDX 8 1 7 2 6 3 5 4 4 5 3 6 2 7 10 8 9 9 1 11
REMARK H PARENT 9 10 1 12 1 13
REMARK Flexibility Score: inf
ROOT
ATOM      1  C   UNL     1      62.364  71.660 203.888  1.00  0.00     0.199 A 
ATOM      2  N   UNL     1      61.170  71.649 204.541  1.00  0.00    -0.217 NA
ATOM      3  C   UNL     1      60.729  72.904 204.353  1.00  0.00     0.182 A 
ATOM      4  N   UNL     1      59.565  73.429 204.806  1.00  0.00    -0.215 NA
ATOM      5  C   UNL     1      59.289  74.735 204.511  1.00  0.00     0.226 A 
ATOM      6  N   UNL     1      60.171  75.486 203.777  1.00  0.00    -0.217 NA
ATOM      7  C   UNL     1      61.345  74.958 203.318  1.00  0.00     0.152 A 
ATOM      8  C   UNL     1      61.612  73.626 203.627  1.00  0.00     0.127 A 
ATOM      9  N   UNL     1      62.662  72.855 203.318  1.00  0.00    -0.340 N 
ATOM     10  H   UNL     1      63.516  73.102 202.770  1.00  0.00     0.168 HD
ENDROOT
BRANCH   7  11
ATOM     11  N   UNL     1      62.249  75.757 202.554  1.00  0.00    -0.382 N 
ATOM     12  H   UNL     1      62.510  76.721 202.856  1.00  0.00     0.158 HD
ATOM     13  H   UNL     1      62.663  75.380 201.673  1.00  0.00     0.158 HD
ENDBRANCH   7  11
TORSDOF 1
ENDMDL
MODEL 5
REMARK VINA RESULT:    -3.177     14.186     15.975
REMARK INTER + INTRA:          -3.270
REMARK INTER:                  -3.270
REMARK INTRA:                   0.000
REMARK UNBOUND:                 0.000
REMARK SMILES Nc1ncnc2nc[nH]c12
REMARK SMILES IDX 8 1 7 2 6 3 5 4 4 5 3 6 2 7 10 8 9 9 1 11
REMARK H PARENT 9 10 1 12 1 13
REMARK Flexibility Score: inf
ROOT
ATOM      1  C   UNL     1      52.166  64.946 189.467  1.00  0.00     0.199 A 
ATOM      2  N   UNL     1      53.405  64.547 189.866  1.00  0.00    -0.217 NA
ATOM      3  C   UNL     1      54.165  64.876 188.808  1.00  0.00     0.182 A 
ATOM      4  N   UNL     1      55.501  64.689 188.683  1.00  0.00    -0.215 NA
ATOM      5  C   UNL     1      56.103  65.091 187.523  1.00  0.00     0.226 A 
ATOM      6  N   UNL     1      55.367  65.666 186.519  1.00  0.00    -0.217 NA
ATOM      7  C   UNL     1      54.019  65.855 186.643  1.00  0.00     0.152 A 
ATOM      8  C   UNL     1      53.421  65.441 187.831  1.00  0.00     0.127 A 
ATOM      9  N   UNL     1      52.143  65.497 188.228  1.00  0.00    -0.340 N 
ATOM     10  H   UNL     1      51.315  65.873 187.714  1.00  0.00     0.168 HD
ENDROOT
BRANCH   7  11
ATOM     11  N   UNL     1      53.272  66.457 185.585  1.00  0.00    -0.382 N 
ATOM     12  H   UNL     1      53.228  67.493 185.471  1.00  0.00     0.158 HD
ATOM     13  H   UNL     1      52.754  65.857 184.905  1.00  0.00     0.158 HD
ENDBRANCH   7  11
TORSDOF 1
ENDMDL
MODEL 6
REMARK VINA RESULT:    -3.149     11.638     12.755
REMARK INTER + INTRA:          -3.241
REMARK INTER:                  -3.241
REMARK INTRA:                   0.000
REMARK UNBOUND:                 0.000
REMARK SMILES Nc1ncnc2nc[nH]c12
REMARK SMILES IDX 8 1 7 2 6 3 5 4 4 5 3 6 2 7 10 8 9 9 1 11
REMARK H PARENT 9 10 1 12 1 13
REMARK Flexibility Score: inf
ROOT
ATOM      1  C   UNL     1      61.336  75.121 203.643  1.00  0.00     0.199 A 
ATOM      2  N   UNL     1      60.057  75.263 203.199  1.00  0.00    -0.217 NA
ATOM      3  C   UNL     1      60.238  75.626 201.919  1.00  0.00     0.182 A 
ATOM      4  N   UNL     1      59.269  75.897 201.011  1.00  0.00    -0.215 NA
ATOM      5  C   UNL     1      59.652  76.253 199.747  1.00  0.00     0.226 A 
ATOM      6  N   UNL     1      60.980  76.330 199.416  1.00  0.00    -0.217 NA
ATOM      7  C   UNL     1      61.959  76.057 200.331  1.00  0.00     0.152 A 
ATOM      8  C   UNL     1      61.553  75.696 201.614  1.00  0.00     0.127 A 
ATOM      9  N   UNL     1      62.273  75.378 202.697  1.00  0.00    -0.340 N 
ATOM     10  H   UNL     1      63.312  75.335 202.801  1.00  0.00     0.168 HD
ENDROOT
BRANCH   7  11
ATOM     11  N   UNL     1      63.336  76.144 199.965  1.00  0.00    -0.382 N 
ATOM     12  H   UNL     1      64.074  75.633 200.498  1.00  0.00     0.158 HD
ATOM     13  H   UNL     1      63.624  76.727 199.148  1.00  0.00     0.158 HD
ENDBRANCH   7  11
TORSDOF 1
ENDMDL
MODEL 7
REMARK VINA RESULT:    -3.146      9.907     11.122
REMARK INTER + INTRA:          -3.238
REMARK INTER:                  -3.238
REMARK INTRA:                   0.000
REMARK UNBOUND:                 0.000
REMARK SMILES Nc1ncnc2nc[nH]c12
REMARK SMILES IDX 8 1 7 2 6 3 5 4 4 5 3 6 2 7 10 8 9 9 1 11
REMARK H PARENT 9 10 1 12 1 13
REMARK Flexibility Score: inf
ROOT
ATOM      1  C   UNL     1      57.777  76.364 202.518  1.00  0.00     0.199 A 
ATOM      2  N   UNL     1      57.358  75.468 203.452  1.00  0.00    -0.217 NA
ATOM      3  C   UNL     1      58.515  74.937 203.878  1.00  0.00     0.182 A 
ATOM      4  N   UNL     1      58.665  73.977 204.823  1.00  0.00    -0.215 NA
ATOM      5  C   UNL     1      59.932  73.561 205.125  1.00  0.00     0.226 A 
ATOM      6  N   UNL     1      61.015  74.105 204.483  1.00  0.00    -0.217 NA
ATOM      7  C   UNL     1      60.867  75.072 203.530  1.00  0.00     0.152 A 
ATOM      8  C   UNL     1      59.570  75.486 203.234  1.00  0.00     0.127 A 
ATOM      9  N   UNL     1      59.125  76.399 202.362  1.00  0.00    -0.340 N 
ATOM     10  H   UNL     1      59.674  77.002 201.710  1.00  0.00     0.168 HD
ENDROOT
BRANCH   7  11
ATOM     11  N   UNL     1      62.009  75.625 202.875  1.00  0.00    -0.382 N 
ATOM     12  H   UNL     1      62.481  75.125 202.090  1.00  0.00     0.158 HD
ATOM     13  H   UNL     1      62.389  76.549 203.179  1.00  0.00     0.158 HD
ENDBRANCH   7  11
TORSDOF 1
ENDMDL
MODEL 8
REMARK VINA RESULT:    -3.141      0.888      2.998
REMARK INTER + INTRA:          -3.233
REMARK INTER:                  -3.233
REMARK INTRA:                   0.000
REMARK UNBOUND:                 0.000
REMARK SMILES Nc1ncnc2nc[nH]c12
REMARK SMILES IDX 8 1 7 2 6 3 5 4 4 5 3 6 2 7 10 8 9 9 1 11
REMARK H PARENT 9 10 1 12 1 13
REMARK Flexibility Score: inf
ROOT
ATOM      1  C   UNL     1      56.031  64.917 205.125  1.00  0.00     0.199 A 
ATOM      2  N   UNL     1      55.526  66.170 204.958  1.00  0.00    -0.217 NA
ATOM      3  C   UNL     1      54.792  66.036 203.841  1.00  0.00     0.182 A 
ATOM      4  N   UNL     1      54.067  67.003 203.229  1.00  0.00    -0.215 NA
ATOM      5  C   UNL     1      53.380  66.674 202.094  1.00  0.00     0.226 A 
ATOM      6  N   UNL     1      53.430  65.397 201.595  1.00  0.00    -0.217 NA
ATOM      7  C   UNL     1      54.161  64.420 202.211  1.00  0.00     0.152 A 
ATOM      8  C   UNL     1      54.854  64.771 203.366  1.00  0.00     0.127 A 
ATOM      9  N   UNL     1      55.638  64.039 204.168  1.00  0.00    -0.340 N 
ATOM     10  H   UNL     1      55.894  63.030 204.086  1.00  0.00     0.168 HD
ENDROOT
BRANCH   7  11
ATOM     11  N   UNL     1      54.198  63.097 201.674  1.00  0.00    -0.382 N 
ATOM     12  H   UNL     1      54.033  62.917 200.660  1.00  0.00     0.158 HD
ATOM     13  H   UNL     1      54.393  62.285 202.301  1.00  0.00     0.158 HD
ENDBRANCH   7  11
TORSDOF 1
ENDMDL
MODEL 9
REMARK VINA RESULT:    -3.090     18.746     19.904
REMARK INTER + INTRA:          -3.180
REMARK INTER:                  -3.180
REMARK INTRA:                   0.000
REMARK UNBOUND:                 0.000
REMARK SMILES Nc1ncnc2nc[nH]c12
REMARK SMILES IDX 8 1 7 2 6 3 5 4 4 5 3 6 2 7 10 8 9 9 1 11
REMARK H PARENT 9 10 1 12 1 13
REMARK Flexibility Score: inf
ROOT
ATOM      1  C   UNL     1      58.537  76.390 185.615  1.00  0.00     0.199 A 
ATOM      2  N   UNL     1      57.706  75.337 185.386  1.00  0.00    -0.217 NA
ATOM      3  C   UNL     1      56.839  75.429 186.408  1.00  0.00     0.182 A 
ATOM      4  N   UNL     1      55.791  74.607 186.656  1.00  0.00    -0.215 NA
ATOM      5  C   UNL     1      55.016  74.864 187.753  1.00  0.00     0.226 A 
ATOM      6  N   UNL     1      55.299  75.925 188.574  1.00  0.00    -0.217 NA
ATOM      7  C   UNL     1      56.355  76.756 188.325  1.00  0.00     0.152 A 
ATOM      8  C   UNL     1      57.135  76.481 187.204  1.00  0.00     0.127 A 
ATOM      9  N   UNL     1      58.213  77.110 186.719  1.00  0.00    -0.340 N 
ATOM     10  H   UNL     1      58.700  77.955 187.092  1.00  0.00     0.168 HD
ENDROOT
BRANCH   7  11
ATOM     11  N   UNL     1      56.631  77.856 189.192  1.00  0.00    -0.382 N 
ATOM     12  H   UNL     1      56.174  78.784 189.056  1.00  0.00     0.158 HD
ATOM     13  H   UNL     1      57.302  77.741 189.984  1.00  0.00     0.158 HD
ENDBRANCH   7  11
TORSDOF 1
ENDMDL
