MODEL 1
REMARK VINA RESULT:    -3.908      0.000      0.000
REMARK INTER + INTRA:          -3.908
REMARK INTER:                  -3.908
REMARK INTRA:                   0.000
REMARK UNBOUND:                 0.000
REMARK SMILES CC1=CC(=O)[C@@H]2C[C@H]1C2(C)C
REMARK SMILES IDX 1 1 2 2 3 3 4 4 5 5 6 6 7 7 8 8 9 9 10 10 11 11
REMARK H PARENT
REMARK Flexibility Score: inf
ROOT
ATOM      1  C   UNL     1      -5.279  31.493  59.678  1.00  0.00     0.040 C 
ATOM      2  C   UNL     1      -6.604  31.495  58.985  1.00  0.00    -0.066 C 
ATOM      3  C   UNL     1      -7.742  31.867  59.634  1.00  0.00     0.047 C 
ATOM      4  C   UNL     1      -9.002  31.856  58.822  1.00  0.00     0.159 C 
ATOM      5  O   UNL     1     -10.110  32.215  59.297  1.00  0.00    -0.295 OA
ATOM      6  C   UNL     1      -8.845  31.379  57.378  1.00  0.00     0.067 C 
ATOM      7  C   UNL     1      -7.971  30.112  57.491  1.00  0.00     0.021 C 
ATOM      8  C   UNL     1      -6.751  31.060  57.512  1.00  0.00     0.022 C 
ATOM      9  C   UNL     1      -7.620  32.102  56.748  1.00  0.00    -0.019 C 
ATOM     10  C   UNL     1      -7.551  31.915  55.211  1.00  0.00     0.012 C 
ATOM     11  C   UNL     1      -7.407  33.609  57.065  1.00  0.00     0.012 C 
ENDROOT
TORSDOF 0
ENDMDL
MODEL 2
REMARK VINA RESULT:    -3.865      1.603      2.479
REMARK INTER + INTRA:          -3.865
REMARK INTER:                  -3.865
REMARK INTRA:                   0.000
REMARK UNBOUND:                 0.000
REMARK SMILES CC1=CC(=O)[C@@H]2C[C@H]1C2(C)C
REMARK SMILES IDX 1 1 2 2 3 3 4 4 5 5 6 6 7 7 8 8 9 9 10 10 11 11
REMARK H PARENT
REMARK Flexibility Score: inf
ROOT
ATOM      1  C   UNL     1      -5.489  31.485  59.390  1.00  0.00     0.040 C 
ATOM      2  C   UNL     1      -6.600  31.443  58.390  1.00  0.00    -0.066 C 
ATOM      3  C   UNL     1      -7.131  30.262  57.969  1.00  0.00     0.047 C 
ATOM      4  C   UNL     1      -8.260  30.354  56.988  1.00  0.00     0.159 C 
ATOM      5  O   UNL     1      -8.858  29.335  56.554  1.00  0.00    -0.295 OA
ATOM      6  C   UNL     1      -8.635  31.771  56.553  1.00  0.00     0.067 C 
ATOM      7  C   UNL     1      -7.278  32.446  56.257  1.00  0.00     0.021 C 
ATOM      8  C   UNL     1      -7.187  32.731  57.773  1.00  0.00     0.022 C 
ATOM      9  C   UNL     1      -8.741  32.666  57.820  1.00  0.00    -0.019 C 
ATOM     10  C   UNL     1      -9.398  34.038  57.519  1.00  0.00     0.012 C 
ATOM     11  C   UNL     1      -9.414  32.072  59.090  1.00  0.00     0.012 C 
ENDROOT
TORSDOF 0
ENDMDL
MODEL 3
REMARK VINA RESULT:    -3.753     13.170     14.335
REMARK INTER + INTRA:          -3.753
REMARK INTER:                  -3.753
REMARK INTRA:                   0.000
REMARK UNBOUND:                 0.000
REMARK SMILES CC1=CC(=O)[C@@H]2C[C@H]1C2(C)C
REMARK SMILES IDX 1 1 2 2 3 3 4 4 5 5 6 6 7 7 8 8 9 9 10 10 11 11
REMARK H PARENT
REMARK Flexibility Score: inf
ROOT
ATOM      1  C   UNL     1      -6.580  39.378  48.120  1.00  0.00     0.040 C 
ATOM      2  C   UNL     1      -6.955  38.951  46.737  1.00  0.00    -0.066 C 
ATOM      3  C   UNL     1      -6.633  39.707  45.650  1.00  0.00     0.047 C 
ATOM      4  C   UNL     1      -7.037  39.156  44.317  1.00  0.00     0.159 C 
ATOM      5  O   UNL     1      -6.763  39.741  43.237  1.00  0.00    -0.295 OA
ATOM      6  C   UNL     1      -7.804  37.834  44.360  1.00  0.00     0.067 C 
ATOM      7  C   UNL     1      -8.851  38.042  45.476  1.00  0.00     0.021 C 
ATOM      8  C   UNL     1      -7.738  37.648  46.474  1.00  0.00     0.022 C 
ATOM      9  C   UNL     1      -7.058  36.860  45.316  1.00  0.00    -0.019 C 
ATOM     10  C   UNL     1      -7.584  35.406  45.203  1.00  0.00     0.012 C 
ATOM     11  C   UNL     1      -5.505  36.821  45.267  1.00  0.00     0.012 C 
ENDROOT
TORSDOF 0
ENDMDL
MODEL 4
REMARK VINA RESULT:    -3.723     16.335     17.938
REMARK INTER + INTRA:          -3.723
REMARK INTER:                  -3.723
REMARK INTRA:                   0.000
REMARK UNBOUND:                 0.000
REMARK SMILES CC1=CC(=O)[C@@H]2C[C@H]1C2(C)C
REMARK SMILES IDX 1 1 2 2 3 3 4 4 5 5 6 6 7 7 8 8 9 9 10 10 11 11
REMARK H PARENT
REMARK Flexibility Score: inf
ROOT
ATOM      1  C   UNL     1       0.130  26.907  41.308  1.00  0.00     0.040 C 
ATOM      2  C   UNL     1      -0.029  28.363  41.608  1.00  0.00    -0.066 C 
ATOM      3  C   UNL     1      -1.255  28.909  41.842  1.00  0.00     0.047 C 
ATOM      4  C   UNL     1      -1.278  30.373  42.161  1.00  0.00     0.159 C 
ATOM      5  O   UNL     1      -2.344  30.984  42.433  1.00  0.00    -0.295 OA
ATOM      6  C   UNL     1       0.082  31.071  42.133  1.00  0.00     0.067 C 
ATOM      7  C   UNL     1       0.743  30.559  40.835  1.00  0.00     0.021 C 
ATOM      8  C   UNL     1       1.181  29.320  41.649  1.00  0.00     0.022 C 
ATOM      9  C   UNL     1       1.099  30.204  42.928  1.00  0.00    -0.019 C 
ATOM     10  C   UNL     1       2.424  30.959  43.209  1.00  0.00     0.012 C 
ATOM     11  C   UNL     1       0.628  29.538  44.251  1.00  0.00     0.012 C 
ENDROOT
TORSDOF 0
ENDMDL
MODEL 5
REMARK VINA RESULT:    -3.711     16.955     18.170
REMARK INTER + INTRA:          -3.711
REMARK INTER:                  -3.711
REMARK INTRA:                   0.000
REMARK UNBOUND:                 0.000
REMARK SMILES CC1=CC(=O)[C@@H]2C[C@H]1C2(C)C
REMARK SMILES IDX 1 1 2 2 3 3 4 4 5 5 6 6 7 7 8 8 9 9 10 10 11 11
REMARK H PARENT
REMARK Flexibility Score: inf
ROOT
ATOM      1  C   UNL     1      -1.119  32.321  42.051  1.00  0.00     0.040 C 
ATOM      2  C   UNL     1      -0.075  31.257  42.173  1.00  0.00    -0.066 C 
ATOM      3  C   UNL     1       0.816  31.253  43.204  1.00  0.00     0.047 C 
ATOM      4  C   UNL     1       1.792  30.117  43.232  1.00  0.00     0.159 C 
ATOM      5  O   UNL     1       2.639  29.981  44.152  1.00  0.00    -0.295 OA
ATOM      6  C   UNL     1       1.686  29.134  42.065  1.00  0.00     0.067 C 
ATOM      7  C   UNL     1       1.567  30.039  40.819  1.00  0.00     0.021 C 
ATOM      8  C   UNL     1       0.056  30.125  41.133  1.00  0.00     0.022 C 
ATOM      9  C   UNL     1       0.190  28.759  41.868  1.00  0.00    -0.019 C 
ATOM     10  C   UNL     1       0.006  27.553  40.910  1.00  0.00     0.012 C 
ATOM     11  C   UNL     1      -0.684  28.516  43.130  1.00  0.00     0.012 C 
ENDROOT
TORSDOF 0
ENDMDL
MODEL 6
REMARK VINA RESULT:    -3.651     16.864     17.769
REMARK INTER + INTRA:          -3.651
REMARK INTER:                  -3.651
REMARK INTRA:                   0.000
REMARK UNBOUND:                 0.000
REMARK SMILES CC1=CC(=O)[C@@H]2C[C@H]1C2(C)C
REMARK SMILES IDX 1 1 2 2 3 3 4 4 5 5 6 6 7 7 8 8 9 9 10 10 11 11
REMARK H PARENT
REMARK Flexibility Score: inf
ROOT
ATOM      1  C   UNL     1       2.325  30.365  43.839  1.00  0.00     0.040 C 
ATOM      2  C   UNL     1       1.010  30.175  43.151  1.00  0.00    -0.066 C 
ATOM      3  C   UNL     1       0.079  31.169  43.115  1.00  0.00     0.047 C 
ATOM      4  C   UNL     1      -1.185  30.866  42.369  1.00  0.00     0.159 C 
ATOM      5  O   UNL     1      -2.103  31.715  42.232  1.00  0.00    -0.295 OA
ATOM      6  C   UNL     1      -1.279  29.456  41.787  1.00  0.00     0.067 C 
ATOM      7  C   UNL     1      -0.805  28.540  42.937  1.00  0.00     0.021 C 
ATOM      8  C   UNL     1       0.636  28.843  42.467  1.00  0.00     0.022 C 
ATOM      9  C   UNL     1       0.053  29.133  41.053  1.00  0.00    -0.019 C 
ATOM     10  C   UNL     1      -0.047  27.854  40.183  1.00  0.00     0.012 C 
ATOM     11  C   UNL     1       0.717  30.251  40.200  1.00  0.00     0.012 C 
ENDROOT
TORSDOF 0
ENDMDL
MODEL 7
REMARK VINA RESULT:    -3.629      1.798      3.156
REMARK INTER + INTRA:          -3.629
REMARK INTER:                  -3.629
REMARK INTRA:                   0.000
REMARK UNBOUND:                 0.000
REMARK SMILES CC1=CC(=O)[C@@H]2C[C@H]1C2(C)C
REMARK SMILES IDX 1 1 2 2 3 3 4 4 5 5 6 6 7 7 8 8 9 9 10 10 11 11
REMARK H PARENT
REMARK Flexibility Score: inf
ROOT
ATOM      1  C   UNL     1     -10.285  32.530  59.140  1.00  0.00     0.040 C 
ATOM      2  C   UNL     1      -9.210  32.354  58.115  1.00  0.00    -0.066 C 
ATOM      3  C   UNL     1      -8.678  33.421  57.456  1.00  0.00     0.047 C 
ATOM      4  C   UNL     1      -7.586  33.117  56.475  1.00  0.00     0.159 C 
ATOM      5  O   UNL     1      -6.990  34.020  55.833  1.00  0.00    -0.295 OA
ATOM      6  C   UNL     1      -7.248  31.635  56.312  1.00  0.00     0.067 C 
ATOM      7  C   UNL     1      -8.624  30.944  56.197  1.00  0.00     0.021 C 
ATOM      8  C   UNL     1      -8.664  30.960  57.742  1.00  0.00     0.022 C 
ATOM      9  C   UNL     1      -7.108  31.000  57.724  1.00  0.00    -0.019 C 
ATOM     10  C   UNL     1      -6.481  29.583  57.674  1.00  0.00     0.012 C 
ATOM     11  C   UNL     1      -6.382  31.814  58.833  1.00  0.00     0.012 C 
ENDROOT
TORSDOF 0
ENDMDL
MODEL 8
REMARK VINA RESULT:    -3.536     12.481     14.042
REMARK INTER + INTRA:          -3.536
REMARK INTER:                  -3.536
REMARK INTRA:                   0.000
REMARK UNBOUND:                 0.000
REMARK SMILES CC1=CC(=O)[C@@H]2C[C@H]1C2(C)C
REMARK SMILES IDX 1 1 2 2 3 3 4 4 5 5 6 6 7 7 8 8 9 9 10 10 11 11
REMARK H PARENT
REMARK Flexibility Score: inf
ROOT
ATOM      1  C   UNL     1      -7.685  34.833  44.442  1.00  0.00     0.040 C 
ATOM      2  C   UNL     1      -7.552  36.148  45.142  1.00  0.00    -0.066 C 
ATOM      3  C   UNL     1      -7.093  36.226  46.422  1.00  0.00     0.047 C 
ATOM      4  C   UNL     1      -6.977  37.603  47.002  1.00  0.00     0.159 C 
ATOM      5  O   UNL     1      -6.529  37.808  48.160  1.00  0.00    -0.295 OA
ATOM      6  C   UNL     1      -7.439  38.739  46.089  1.00  0.00     0.067 C 
ATOM      7  C   UNL     1      -8.781  38.237  45.512  1.00  0.00     0.021 C 
ATOM      8  C   UNL     1      -7.945  37.475  44.459  1.00  0.00     0.022 C 
ATOM      9  C   UNL     1      -6.817  38.525  44.680  1.00  0.00    -0.019 C 
ATOM     10  C   UNL     1      -6.981  39.768  43.768  1.00  0.00     0.012 C 
ATOM     11  C   UNL     1      -5.340  38.045  44.588  1.00  0.00     0.012 C 
ENDROOT
TORSDOF 0
ENDMDL
MODEL 9
REMARK VINA RESULT:    -3.489     15.939     17.434
REMARK INTER + INTRA:          -3.489
REMARK INTER:                  -3.489
REMARK INTRA:                   0.000
REMARK UNBOUND:                 0.000
REMARK SMILES CC1=CC(=O)[C@@H]2C[C@H]1C2(C)C
REMARK SMILES IDX 1 1 2 2 3 3 4 4 5 5 6 6 7 7 8 8 9 9 10 10 11 11
REMARK H PARENT
REMARK Flexibility Score: inf
ROOT
ATOM      1  C   UNL     1       0.011  28.398  40.019  1.00  0.00     0.040 C 
ATOM      2  C   UNL     1      -0.022  28.954  41.406  1.00  0.00    -0.066 C 
ATOM      3  C   UNL     1       1.122  29.153  42.118  1.00  0.00     0.047 C 
ATOM      4  C   UNL     1       0.959  29.744  43.485  1.00  0.00     0.159 C 
ATOM      5  O   UNL     1       1.943  30.010  44.224  1.00  0.00    -0.295 OA
ATOM      6  C   UNL     1      -0.484  30.003  43.918  1.00  0.00     0.067 C 
ATOM      7  C   UNL     1      -1.233  28.711  43.524  1.00  0.00     0.021 C 
ATOM      8  C   UNL     1      -1.350  29.314  42.106  1.00  0.00     0.022 C 
ATOM      9  C   UNL     1      -1.228  30.722  42.757  1.00  0.00    -0.019 C 
ATOM     10  C   UNL     1      -2.601  31.289  43.199  1.00  0.00     0.012 C 
ATOM     11  C   UNL     1      -0.473  31.832  41.971  1.00  0.00     0.012 C 
ENDROOT
TORSDOF 0
ENDMDL
