MODEL 1
REMARK VINA RESULT:    -4.810      0.000      0.000
REMARK INTER + INTRA:          -8.632
REMARK INTER:                  -7.060
REMARK INTRA:                  -1.572
REMARK UNBOUND:                -1.572
REMARK SMILES CCCOC(=O)c1ccccc1C(=O)OCCC
REMARK SMILES IDX 7 1 8 2 9 3 10 4 11 5 12 6 5 7 6 8 4 9 3 10 2 11 1 12 13 13
REMARK SMILES IDX 14 14 15 15 16 16 17 17 18 18
REMARK H PARENT
REMARK Flexibility Score: inf
ROOT
ATOM      1  C   UNL     1      30.638  26.808  -3.811  1.00  0.00     0.074 A 
ATOM      2  C   UNL     1      31.357  26.916  -2.609  1.00  0.00     0.016 A 
ATOM      3  C   UNL     1      32.626  27.494  -2.590  1.00  0.00     0.001 A 
ATOM      4  C   UNL     1      33.192  27.976  -3.768  1.00  0.00     0.001 A 
ATOM      5  C   UNL     1      32.482  27.902  -4.968  1.00  0.00     0.016 A 
ATOM      6  C   UNL     1      31.192  27.339  -5.007  1.00  0.00     0.074 A 
ENDROOT
BRANCH   1   7
ATOM      7  C   UNL     1      29.346  26.100  -3.784  1.00  0.00     0.339 C 
ATOM      8  O   UNL     1      28.323  26.673  -3.314  1.00  0.00    -0.246 OA
BRANCH   7   9
ATOM      9  O   UNL     1      29.261  24.803  -4.301  1.00  0.00    -0.462 OA
BRANCH   9  10
ATOM     10  C   UNL     1      30.134  23.743  -3.912  1.00  0.00     0.233 C 
BRANCH  10  11
ATOM     11  C   UNL     1      31.238  23.514  -4.954  1.00  0.00     0.038 C 
ATOM     12  C   UNL     1      32.616  23.904  -4.424  1.00  0.00     0.007 C 
ENDBRANCH  10  11
ENDBRANCH   9  10
ENDBRANCH   7   9
ENDBRANCH   1   7
BRANCH   6  13
ATOM     13  C   UNL     1      30.429  27.398  -6.278  1.00  0.00     0.339 C 
ATOM     14  O   UNL     1      30.396  26.390  -7.037  1.00  0.00    -0.246 OA
BRANCH  13  15
ATOM     15  O   UNL     1      29.788  28.584  -6.656  1.00  0.00    -0.462 OA
BRANCH  15  16
ATOM     16  C   UNL     1      28.450  28.924  -6.287  1.00  0.00     0.233 C 
BRANCH  16  17
ATOM     17  C   UNL     1      28.400  30.310  -5.638  1.00  0.00     0.038 C 
ATOM     18  C   UNL     1      29.125  30.354  -4.296  1.00  0.00     0.007 C 
ENDBRANCH  16  17
ENDBRANCH  15  16
ENDBRANCH  13  15
ENDBRANCH   6  13
TORSDOF 8
ENDMDL
MODEL 2
REMARK VINA RESULT:    -4.724      0.570      4.778
REMARK INTER + INTRA:          -8.505
REMARK INTER:                  -6.940
REMARK INTRA:                  -1.565
REMARK UNBOUND:                -1.572
REMARK SMILES CCCOC(=O)c1ccccc1C(=O)OCCC
REMARK SMILES IDX 7 1 8 2 9 3 10 4 11 5 12 6 5 7 6 8 4 9 3 10 2 11 1 12 13 13
REMARK SMILES IDX 14 14 15 15 16 16 17 17 18 18
REMARK H PARENT
REMARK Flexibility Score: inf
ROOT
ATOM      1  C   UNL     1      30.802  27.255  -5.347  1.00  0.00     0.074 A 
ATOM      2  C   UNL     1      31.995  27.978  -5.514  1.00  0.00     0.016 A 
ATOM      3  C   UNL     1      32.750  28.367  -4.407  1.00  0.00     0.001 A 
ATOM      4  C   UNL     1      32.328  28.036  -3.121  1.00  0.00     0.001 A 
ATOM      5  C   UNL     1      31.159  27.294  -2.937  1.00  0.00     0.016 A 
ATOM      6  C   UNL     1      30.391  26.876  -4.041  1.00  0.00     0.074 A 
ENDROOT
BRANCH   1   7
ATOM      7  C   UNL     1      30.000  26.957  -6.547  1.00  0.00     0.339 C 
ATOM      8  O   UNL     1      30.133  25.849  -7.136  1.00  0.00    -0.246 OA
BRANCH   7   9
ATOM      9  O   UNL     1      29.079  27.903  -7.009  1.00  0.00    -0.462 OA
BRANCH   9  10
ATOM     10  C   UNL     1      28.336  28.764  -6.146  1.00  0.00     0.233 C 
BRANCH  10  11
ATOM     11  C   UNL     1      28.917  30.184  -6.134  1.00  0.00     0.038 C 
ATOM     12  C   UNL     1      28.972  30.770  -4.725  1.00  0.00     0.007 C 
ENDBRANCH  10  11
ENDBRANCH   9  10
ENDBRANCH   7   9
ENDBRANCH   1   7
BRANCH   6  13
ATOM     13  C   UNL     1      29.229  25.984  -3.802  1.00  0.00     0.339 C 
ATOM     14  O   UNL     1      28.201  26.436  -3.226  1.00  0.00    -0.246 OA
BRANCH  13  15
ATOM     15  O   UNL     1      29.294  24.635  -4.170  1.00  0.00    -0.462 OA
BRANCH  15  16
ATOM     16  C   UNL     1      30.302  23.729  -3.720  1.00  0.00     0.233 C 
BRANCH  16  17
ATOM     17  C   UNL     1      31.383  23.543  -4.786  1.00  0.00     0.038 C 
ATOM     18  C   UNL     1      32.737  24.096  -4.349  1.00  0.00     0.007 C 
ENDBRANCH  16  17
ENDBRANCH  15  16
ENDBRANCH  13  15
ENDBRANCH   6  13
TORSDOF 8
ENDMDL
MODEL 3
REMARK VINA RESULT:    -4.641      1.738      4.441
REMARK INTER + INTRA:          -8.384
REMARK INTER:                  -7.420
REMARK INTRA:                  -0.965
REMARK UNBOUND:                -1.572
REMARK SMILES CCCOC(=O)c1ccccc1C(=O)OCCC
REMARK SMILES IDX 7 1 8 2 9 3 10 4 11 5 12 6 5 7 6 8 4 9 3 10 2 11 1 12 13 13
REMARK SMILES IDX 14 14 15 15 16 16 17 17 18 18
REMARK H PARENT
REMARK Flexibility Score: inf
ROOT
ATOM      1  C   UNL     1      29.603  28.022  -5.613  1.00  0.00     0.074 A 
ATOM      2  C   UNL     1      28.647  28.736  -6.353  1.00  0.00     0.016 A 
ATOM      3  C   UNL     1      28.210  29.990  -5.925  1.00  0.00     0.001 A 
ATOM      4  C   UNL     1      28.723  30.548  -4.756  1.00  0.00     0.001 A 
ATOM      5  C   UNL     1      29.694  29.864  -4.021  1.00  0.00     0.016 A 
ATOM      6  C   UNL     1      30.163  28.606  -4.445  1.00  0.00     0.074 A 
ENDROOT
BRANCH   1   7
ATOM      7  C   UNL     1      29.952  26.663  -6.064  1.00  0.00     0.339 C 
ATOM      8  O   UNL     1      30.545  26.497  -7.166  1.00  0.00    -0.246 OA
BRANCH   7   9
ATOM      9  O   UNL     1      29.642  25.568  -5.250  1.00  0.00    -0.462 OA
BRANCH   9  10
ATOM     10  C   UNL     1      30.547  24.491  -5.002  1.00  0.00     0.233 C 
BRANCH  10  11
ATOM     11  C   UNL     1      29.955  23.477  -4.014  1.00  0.00     0.038 C 
ATOM     12  C   UNL     1      28.671  23.991  -3.366  1.00  0.00     0.007 C 
ENDBRANCH  10  11
ENDBRANCH   9  10
ENDBRANCH   7   9
ENDBRANCH   1   7
BRANCH   6  13
ATOM     13  C   UNL     1      31.283  27.977  -3.702  1.00  0.00     0.339 C 
ATOM     14  O   UNL     1      32.471  28.160  -4.088  1.00  0.00    -0.246 OA
BRANCH  13  15
ATOM     15  O   UNL     1      31.019  27.147  -2.606  1.00  0.00    -0.462 OA
BRANCH  15  16
ATOM     16  C   UNL     1      31.958  26.220  -2.059  1.00  0.00     0.233 C 
BRANCH  16  17
ATOM     17  C   UNL     1      31.302  25.353  -0.981  1.00  0.00     0.038 C 
ATOM     18  C   UNL     1      31.899  23.950  -0.916  1.00  0.00     0.007 C 
ENDBRANCH  16  17
ENDBRANCH  15  16
ENDBRANCH  13  15
ENDBRANCH   6  13
TORSDOF 8
ENDMDL
MODEL 4
REMARK VINA RESULT:    -4.637      1.682      4.269
REMARK INTER + INTRA:          -8.378
REMARK INTER:                  -7.537
REMARK INTRA:                  -0.841
REMARK UNBOUND:                -1.572
REMARK SMILES CCCOC(=O)c1ccccc1C(=O)OCCC
REMARK SMILES IDX 7 1 8 2 9 3 10 4 11 5 12 6 5 7 6 8 4 9 3 10 2 11 1 12 13 13
REMARK SMILES IDX 14 14 15 15 16 16 17 17 18 18
REMARK H PARENT
REMARK Flexibility Score: inf
ROOT
ATOM      1  C   UNL     1      30.111  28.571  -4.569  1.00  0.00     0.074 A 
ATOM      2  C   UNL     1      29.591  29.822  -4.195  1.00  0.00     0.016 A 
ATOM      3  C   UNL     1      28.617  30.448  -4.974  1.00  0.00     0.001 A 
ATOM      4  C   UNL     1      28.148  29.833  -6.133  1.00  0.00     0.001 A 
ATOM      5  C   UNL     1      28.634  28.578  -6.506  1.00  0.00     0.016 A 
ATOM      6  C   UNL     1      29.603  27.920  -5.725  1.00  0.00     0.074 A 
ENDROOT
BRANCH   1   7
ATOM      7  C   UNL     1      31.205  28.007  -3.759  1.00  0.00     0.339 C 
ATOM      8  O   UNL     1      32.406  28.227  -4.080  1.00  0.00    -0.246 OA
BRANCH   7   9
ATOM      9  O   UNL     1      30.900  27.248  -2.624  1.00  0.00    -0.462 OA
BRANCH   9  10
ATOM     10  C   UNL     1      31.862  26.460  -1.923  1.00  0.00     0.233 C 
BRANCH  10  11
ATOM     11  C   UNL     1      31.190  25.343  -1.113  1.00  0.00     0.038 C 
ATOM     12  C   UNL     1      31.955  24.025  -1.210  1.00  0.00     0.007 C 
ENDBRANCH  10  11
ENDBRANCH   9  10
ENDBRANCH   7   9
ENDBRANCH   1   7
BRANCH   6  13
ATOM     13  C   UNL     1      29.993  26.536  -6.093  1.00  0.00     0.339 C 
ATOM     14  O   UNL     1      30.442  26.299  -7.249  1.00  0.00    -0.246 OA
BRANCH  13  15
ATOM     15  O   UNL     1      29.818  25.492  -5.177  1.00  0.00    -0.462 OA
BRANCH  15  16
ATOM     16  C   UNL     1      30.801  24.493  -4.904  1.00  0.00     0.233 C 
BRANCH  16  17
ATOM     17  C   UNL     1      30.146  23.213  -4.379  1.00  0.00     0.038 C 
ATOM     18  C   UNL     1      28.948  23.497  -3.477  1.00  0.00     0.007 C 
ENDBRANCH  16  17
ENDBRANCH  15  16
ENDBRANCH  13  15
ENDBRANCH   6  13
TORSDOF 8
ENDMDL
MODEL 5
REMARK VINA RESULT:    -4.604      1.737      4.238
REMARK INTER + INTRA:          -8.330
REMARK INTER:                  -7.378
REMARK INTRA:                  -0.952
REMARK UNBOUND:                -1.572
REMARK SMILES CCCOC(=O)c1ccccc1C(=O)OCCC
REMARK SMILES IDX 7 1 8 2 9 3 10 4 11 5 12 6 5 7 6 8 4 9 3 10 2 11 1 12 13 13
REMARK SMILES IDX 14 14 15 15 16 16 17 17 18 18
REMARK H PARENT
REMARK Flexibility Score: inf
ROOT
ATOM      1  C   UNL     1      29.602  28.055  -5.584  1.00  0.00     0.074 A 
ATOM      2  C   UNL     1      28.628  28.767  -6.304  1.00  0.00     0.016 A 
ATOM      3  C   UNL     1      28.207  30.026  -5.876  1.00  0.00     0.001 A 
ATOM      4  C   UNL     1      28.755  30.592  -4.726  1.00  0.00     0.001 A 
ATOM      5  C   UNL     1      29.743  29.911  -4.012  1.00  0.00     0.016 A 
ATOM      6  C   UNL     1      30.196  28.647  -4.437  1.00  0.00     0.074 A 
ENDROOT
BRANCH   1   7
ATOM      7  C   UNL     1      29.934  26.691  -6.032  1.00  0.00     0.339 C 
ATOM      8  O   UNL     1      30.667  26.521  -7.046  1.00  0.00    -0.246 OA
BRANCH   7   9
ATOM      9  O   UNL     1      29.449  25.594  -5.312  1.00  0.00    -0.462 OA
BRANCH   9  10
ATOM     10  C   UNL     1      30.294  24.601  -4.729  1.00  0.00     0.233 C 
BRANCH  10  11
ATOM     11  C   UNL     1      29.733  24.104  -3.390  1.00  0.00     0.038 C 
ATOM     12  C   UNL     1      28.562  24.956  -2.907  1.00  0.00     0.007 C 
ENDBRANCH  10  11
ENDBRANCH   9  10
ENDBRANCH   7   9
ENDBRANCH   1   7
BRANCH   6  13
ATOM     13  C   UNL     1      31.334  28.022  -3.720  1.00  0.00     0.339 C 
ATOM     14  O   UNL     1      31.119  27.334  -2.684  1.00  0.00    -0.246 OA
BRANCH  13  15
ATOM     15  O   UNL     1      32.645  28.235  -4.164  1.00  0.00    -0.462 OA
BRANCH  15  16
ATOM     16  C   UNL     1      33.780  28.314  -3.301  1.00  0.00     0.233 C 
BRANCH  16  17
ATOM     17  C   UNL     1      33.842  29.675  -2.605  1.00  0.00     0.038 C 
ATOM     18  C   UNL     1      34.752  29.665  -1.380  1.00  0.00     0.007 C 
ENDBRANCH  16  17
ENDBRANCH  15  16
ENDBRANCH  13  15
ENDBRANCH   6  13
TORSDOF 8
ENDMDL
MODEL 6
REMARK VINA RESULT:    -4.587      1.749      4.633
REMARK INTER + INTRA:          -8.305
REMARK INTER:                  -7.347
REMARK INTRA:                  -0.958
REMARK UNBOUND:                -1.572
REMARK SMILES CCCOC(=O)c1ccccc1C(=O)OCCC
REMARK SMILES IDX 7 1 8 2 9 3 10 4 11 5 12 6 5 7 6 8 4 9 3 10 2 11 1 12 13 13
REMARK SMILES IDX 14 14 15 15 16 16 17 17 18 18
REMARK H PARENT
REMARK Flexibility Score: inf
ROOT
ATOM      1  C   UNL     1      30.219  28.718  -4.461  1.00  0.00     0.074 A 
ATOM      2  C   UNL     1      29.734  29.970  -4.047  1.00  0.00     0.016 A 
ATOM      3  C   UNL     1      28.724  30.613  -4.763  1.00  0.00     0.001 A 
ATOM      4  C   UNL     1      28.183  30.014  -5.898  1.00  0.00     0.001 A 
ATOM      5  C   UNL     1      28.633  28.758  -6.310  1.00  0.00     0.016 A 
ATOM      6  C   UNL     1      29.639  28.083  -5.592  1.00  0.00     0.074 A 
ENDROOT
BRANCH   1   7
ATOM      7  C   UNL     1      31.351  28.136  -3.720  1.00  0.00     0.339 C 
ATOM      8  O   UNL     1      31.138  27.410  -2.710  1.00  0.00    -0.246 OA
BRANCH   7   9
ATOM      9  O   UNL     1      32.657  28.376  -4.161  1.00  0.00    -0.462 OA
BRANCH   9  10
ATOM     10  C   UNL     1      33.793  28.370  -3.295  1.00  0.00     0.233 C 
BRANCH  10  11
ATOM     11  C   UNL     1      33.915  29.691  -2.522  1.00  0.00     0.038 C 
ATOM     12  C   UNL     1      34.755  29.538  -1.257  1.00  0.00     0.007 C 
ENDBRANCH  10  11
ENDBRANCH   9  10
ENDBRANCH   7   9
ENDBRANCH   1   7
BRANCH   6  13
ATOM     13  C   UNL     1      29.993  26.700  -5.995  1.00  0.00     0.339 C 
ATOM     14  O   UNL     1      30.731  26.510  -7.001  1.00  0.00    -0.246 OA
BRANCH  13  15
ATOM     15  O   UNL     1      29.470  25.609  -5.289  1.00  0.00    -0.462 OA
BRANCH  15  16
ATOM     16  C   UNL     1      30.269  24.612  -4.650  1.00  0.00     0.233 C 
BRANCH  16  17
ATOM     17  C   UNL     1      29.697  24.253  -3.277  1.00  0.00     0.038 C 
ATOM     18  C   UNL     1      28.502  25.123  -2.895  1.00  0.00     0.007 C 
ENDBRANCH  16  17
ENDBRANCH  15  16
ENDBRANCH  13  15
ENDBRANCH   6  13
TORSDOF 8
ENDMDL
MODEL 7
REMARK VINA RESULT:    -4.348      1.382      2.275
REMARK INTER + INTRA:          -7.953
REMARK INTER:                  -7.082
REMARK INTRA:                  -0.871
REMARK UNBOUND:                -1.572
REMARK SMILES CCCOC(=O)c1ccccc1C(=O)OCCC
REMARK SMILES IDX 7 1 8 2 9 3 10 4 11 5 12 6 5 7 6 8 4 9 3 10 2 11 1 12 13 13
REMARK SMILES IDX 14 14 15 15 16 16 17 17 18 18
REMARK H PARENT
REMARK Flexibility Score: inf
ROOT
ATOM      1  C   UNL     1      31.350  25.819  -4.293  1.00  0.00     0.074 A 
ATOM      2  C   UNL     1      32.364  25.826  -3.320  1.00  0.00     0.016 A 
ATOM      3  C   UNL     1      33.246  26.902  -3.221  1.00  0.00     0.001 A 
ATOM      4  C   UNL     1      33.126  27.986  -4.088  1.00  0.00     0.001 A 
ATOM      5  C   UNL     1      32.108  28.009  -5.044  1.00  0.00     0.016 A 
ATOM      6  C   UNL     1      31.196  26.943  -5.149  1.00  0.00     0.074 A 
ENDROOT
BRANCH   1   7
ATOM      7  C   UNL     1      30.513  24.613  -4.411  1.00  0.00     0.339 C 
ATOM      8  O   UNL     1      30.811  23.717  -5.249  1.00  0.00    -0.246 OA
BRANCH   7   9
ATOM      9  O   UNL     1      29.403  24.461  -3.572  1.00  0.00    -0.462 OA
BRANCH   9  10
ATOM     10  C   UNL     1      28.622  25.558  -3.096  1.00  0.00     0.233 C 
BRANCH  10  11
ATOM     11  C   UNL     1      27.627  25.111  -2.016  1.00  0.00     0.038 C 
ATOM     12  C   UNL     1      27.978  23.739  -1.446  1.00  0.00     0.007 C 
ENDBRANCH  10  11
ENDBRANCH   9  10
ENDBRANCH   7   9
ENDBRANCH   1   7
BRANCH   6  13
ATOM     13  C   UNL     1      30.058  27.071  -6.093  1.00  0.00     0.339 C 
ATOM     14  O   UNL     1      30.104  26.489  -7.212  1.00  0.00    -0.246 OA
BRANCH  13  15
ATOM     15  O   UNL     1      28.959  27.874  -5.761  1.00  0.00    -0.462 OA
BRANCH  15  16
ATOM     16  C   UNL     1      28.380  28.840  -6.639  1.00  0.00     0.233 C 
BRANCH  16  17
ATOM     17  C   UNL     1      28.663  30.261  -6.147  1.00  0.00     0.038 C 
ATOM     18  C   UNL     1      28.942  30.317  -4.648  1.00  0.00     0.007 C 
ENDBRANCH  16  17
ENDBRANCH  15  16
ENDBRANCH  13  15
ENDBRANCH   6  13
TORSDOF 8
ENDMDL
MODEL 8
REMARK VINA RESULT:    -4.344      1.432      4.584
REMARK INTER + INTRA:          -7.948
REMARK INTER:                  -7.080
REMARK INTRA:                  -0.868
REMARK UNBOUND:                -1.572
REMARK SMILES CCCOC(=O)c1ccccc1C(=O)OCCC
REMARK SMILES IDX 7 1 8 2 9 3 10 4 11 5 12 6 5 7 6 8 4 9 3 10 2 11 1 12 13 13
REMARK SMILES IDX 14 14 15 15 16 16 17 17 18 18
REMARK H PARENT
REMARK Flexibility Score: inf
ROOT
ATOM      1  C   UNL     1      31.213  26.723  -5.217  1.00  0.00     0.074 A 
ATOM      2  C   UNL     1      32.218  27.703  -5.150  1.00  0.00     0.016 A 
ATOM      3  C   UNL     1      33.240  27.609  -4.205  1.00  0.00     0.001 A 
ATOM      4  C   UNL     1      33.275  26.535  -3.318  1.00  0.00     0.001 A 
ATOM      5  C   UNL     1      32.300  25.537  -3.387  1.00  0.00     0.016 A 
ATOM      6  C   UNL     1      31.270  25.602  -4.345  1.00  0.00     0.074 A 
ENDROOT
BRANCH   1   7
ATOM      7  C   UNL     1      30.109  26.928  -6.171  1.00  0.00     0.339 C 
ATOM      8  O   UNL     1      30.136  26.362  -7.299  1.00  0.00    -0.246 OA
BRANCH   7   9
ATOM      9  O   UNL     1      29.026  27.735  -5.805  1.00  0.00    -0.462 OA
BRANCH   9  10
ATOM     10  C   UNL     1      28.540  28.811  -6.608  1.00  0.00     0.233 C 
BRANCH  10  11
ATOM     11  C   UNL     1      28.301  30.074  -5.769  1.00  0.00     0.038 C 
ATOM     12  C   UNL     1      29.124  30.072  -4.483  1.00  0.00     0.007 C 
ENDBRANCH  10  11
ENDBRANCH   9  10
ENDBRANCH   7   9
ENDBRANCH   1   7
BRANCH   6  13
ATOM     13  C   UNL     1      30.334  24.457  -4.462  1.00  0.00     0.339 C 
ATOM     14  O   UNL     1      30.723  23.383  -5.000  1.00  0.00    -0.246 OA
BRANCH  13  15
ATOM     15  O   UNL     1      29.011  24.585  -4.022  1.00  0.00    -0.462 OA
BRANCH  15  16
ATOM     16  C   UNL     1      28.615  25.364  -2.893  1.00  0.00     0.233 C 
BRANCH  16  17
ATOM     17  C   UNL     1      27.460  24.694  -2.146  1.00  0.00     0.038 C 
ATOM     18  C   UNL     1      27.495  23.172  -2.258  1.00  0.00     0.007 C 
ENDBRANCH  16  17
ENDBRANCH  15  16
ENDBRANCH  13  15
ENDBRANCH   6  13
TORSDOF 8
ENDMDL
MODEL 9
REMARK VINA RESULT:    -4.310      2.196      4.188
REMARK INTER + INTRA:          -7.897
REMARK INTER:                  -7.094
REMARK INTRA:                  -0.803
REMARK UNBOUND:                -1.572
REMARK SMILES CCCOC(=O)c1ccccc1C(=O)OCCC
REMARK SMILES IDX 7 1 8 2 9 3 10 4 11 5 12 6 5 7 6 8 4 9 3 10 2 11 1 12 13 13
REMARK SMILES IDX 14 14 15 15 16 16 17 17 18 18
REMARK H PARENT
REMARK Flexibility Score: inf
ROOT
ATOM      1  C   UNL     1      31.370  26.102  -3.356  1.00  0.00     0.074 A 
ATOM      2  C   UNL     1      31.205  24.734  -3.085  1.00  0.00     0.016 A 
ATOM      3  C   UNL     1      29.932  24.164  -3.056  1.00  0.00     0.001 A 
ATOM      4  C   UNL     1      28.808  24.951  -3.301  1.00  0.00     0.001 A 
ATOM      5  C   UNL     1      28.955  26.308  -3.599  1.00  0.00     0.016 A 
ATOM      6  C   UNL     1      30.231  26.899  -3.651  1.00  0.00     0.074 A 
ENDROOT
BRANCH   1   7
ATOM      7  C   UNL     1      32.730  26.664  -3.276  1.00  0.00     0.339 C 
ATOM      8  O   UNL     1      33.474  26.661  -4.295  1.00  0.00    -0.246 OA
BRANCH   7   9
ATOM      9  O   UNL     1      33.175  27.219  -2.071  1.00  0.00    -0.462 OA
BRANCH   9  10
ATOM     10  C   UNL     1      34.234  28.173  -1.989  1.00  0.00     0.233 C 
BRANCH  10  11
ATOM     11  C   UNL     1      33.790  29.550  -2.503  1.00  0.00     0.038 C 
ATOM     12  C   UNL     1      34.971  30.495  -2.704  1.00  0.00     0.007 C 
ENDBRANCH  10  11
ENDBRANCH   9  10
ENDBRANCH   7   9
ENDBRANCH   1   7
BRANCH   6  13
ATOM     13  C   UNL     1      30.343  28.311  -4.095  1.00  0.00     0.339 C 
ATOM     14  O   UNL     1      30.324  29.239  -3.241  1.00  0.00    -0.246 OA
BRANCH  13  15
ATOM     15  O   UNL     1      30.421  28.612  -5.461  1.00  0.00    -0.462 OA
BRANCH  15  16
ATOM     16  C   UNL     1      29.325  28.498  -6.369  1.00  0.00     0.233 C 
BRANCH  16  17
ATOM     17  C   UNL     1      28.309  29.620  -6.141  1.00  0.00     0.038 C 
ATOM     18  C   UNL     1      28.945  31.006  -6.200  1.00  0.00     0.007 C 
ENDBRANCH  16  17
ENDBRANCH  15  16
ENDBRANCH  13  15
ENDBRANCH   6  13
TORSDOF 8
ENDMDL
