MODEL 1
REMARK VINA RESULT:    -3.163      0.000      0.000
REMARK INTER + INTRA:          -5.273
REMARK INTER:                  -4.458
REMARK INTRA:                  -0.815
REMARK UNBOUND:                -0.815
REMARK SMILES CCCCCCCCC=O
REMARK SMILES IDX 5 1 4 2 3 3 2 4 1 5 6 6 7 7 8 8 9 9 10 10
REMARK H PARENT
REMARK Flexibility Score: inf
ROOT
ATOM      1  C   UNL     1     104.643 106.721 103.700  1.00  0.00     0.000 C 
ENDROOT
BRANCH   1   2
ATOM      2  C   UNL     1     105.887 107.610 103.853  1.00  0.00    -0.000 C 
BRANCH   2   3
ATOM      3  C   UNL     1     106.779 107.600 102.601  1.00  0.00    -0.000 C 
BRANCH   3   4
ATOM      4  C   UNL     1     108.236 107.230 102.915  1.00  0.00    -0.003 C 
ATOM      5  C   UNL     1     108.442 107.030 104.414  1.00  0.00     0.004 C 
ENDBRANCH   3   4
ENDBRANCH   2   3
ENDBRANCH   1   2
BRANCH   1   6
ATOM      6  C   UNL     1     105.041 105.262 103.432  1.00  0.00     0.000 C 
BRANCH   6   7
ATOM      7  C   UNL     1     105.617 104.556 104.673  1.00  0.00     0.008 C 
BRANCH   7   8
ATOM      8  C   UNL     1     106.844 103.676 104.372  1.00  0.00     0.072 C 
BRANCH   8   9
ATOM      9  C   UNL     1     107.129 103.564 102.901  1.00  0.00     0.224 C 
ATOM     10  O   UNL     1     107.981 102.786 102.505  1.00  0.00    -0.303 OA
ENDBRANCH   8   9
ENDBRANCH   7   8
ENDBRANCH   6   7
ENDBRANCH   1   6
TORSDOF 7
ENDMDL
MODEL 2
REMARK VINA RESULT:    -3.144      1.311      3.198
REMARK INTER + INTRA:          -5.245
REMARK INTER:                  -4.656
REMARK INTRA:                  -0.590
REMARK UNBOUND:                -0.815
REMARK SMILES CCCCCCCCC=O
REMARK SMILES IDX 5 1 4 2 3 3 2 4 1 5 6 6 7 7 8 8 9 9 10 10
REMARK H PARENT
REMARK Flexibility Score: inf
ROOT
ATOM      1  C   UNL     1     105.806 107.652 103.649  1.00  0.00     0.000 C 
ENDROOT
BRANCH   1   2
ATOM      2  C   UNL     1     104.614 107.814 102.692  1.00  0.00    -0.000 C 
BRANCH   2   3
ATOM      3  C   UNL     1     104.132 106.473 102.116  1.00  0.00    -0.000 C 
BRANCH   3   4
ATOM      4  C   UNL     1     103.952 105.395 103.194  1.00  0.00    -0.003 C 
ATOM      5  C   UNL     1     103.068 104.257 102.692  1.00  0.00     0.004 C 
ENDBRANCH   3   4
ENDBRANCH   2   3
ENDBRANCH   1   2
BRANCH   1   6
ATOM      6  C   UNL     1     107.115 107.464 102.869  1.00  0.00     0.000 C 
BRANCH   6   7
ATOM      7  C   UNL     1     107.808 106.122 103.171  1.00  0.00     0.008 C 
BRANCH   7   8
ATOM      8  C   UNL     1     107.580 105.050 102.089  1.00  0.00     0.072 C 
BRANCH   8   9
ATOM      9  C   UNL     1     107.324 103.689 102.669  1.00  0.00     0.224 C 
ATOM     10  O   UNL     1     107.530 102.693 101.996  1.00  0.00    -0.303 OA
ENDBRANCH   8   9
ENDBRANCH   7   8
ENDBRANCH   6   7
ENDBRANCH   1   6
TORSDOF 7
ENDMDL
MODEL 3
REMARK VINA RESULT:    -3.129      1.616      2.996
REMARK INTER + INTRA:          -5.225
REMARK INTER:                  -4.615
REMARK INTRA:                  -0.610
REMARK UNBOUND:                -0.815
REMARK SMILES CCCCCCCCC=O
REMARK SMILES IDX 5 1 4 2 3 3 2 4 1 5 6 6 7 7 8 8 9 9 10 10
REMARK H PARENT
REMARK Flexibility Score: inf
ROOT
ATOM      1  C   UNL     1     107.622 107.416 102.451  1.00  0.00     0.000 C 
ENDROOT
BRANCH   1   2
ATOM      2  C   UNL     1     107.137 107.365 103.908  1.00  0.00    -0.000 C 
BRANCH   2   3
ATOM      3  C   UNL     1     105.625 107.602 104.036  1.00  0.00    -0.000 C 
BRANCH   3   4
ATOM      4  C   UNL     1     104.946 107.850 102.681  1.00  0.00    -0.003 C 
ATOM      5  C   UNL     1     104.237 109.200 102.660  1.00  0.00     0.004 C 
ENDBRANCH   3   4
ENDBRANCH   2   3
ENDBRANCH   1   2
BRANCH   1   6
ATOM      6  C   UNL     1     108.216 106.066 102.022  1.00  0.00     0.000 C 
BRANCH   6   7
ATOM      7  C   UNL     1     107.155 104.957 101.887  1.00  0.00     0.008 C 
BRANCH   7   8
ATOM      8  C   UNL     1     107.508 103.667 102.650  1.00  0.00     0.072 C 
BRANCH   8   9
ATOM      9  C   UNL     1     107.010 103.678 104.067  1.00  0.00     0.224 C 
ATOM     10  O   UNL     1     105.874 104.050 104.309  1.00  0.00    -0.303 OA
ENDBRANCH   8   9
ENDBRANCH   7   8
ENDBRANCH   6   7
ENDBRANCH   1   6
TORSDOF 7
ENDMDL
MODEL 4
REMARK VINA RESULT:    -3.086      1.980      3.090
REMARK INTER + INTRA:          -5.164
REMARK INTER:                  -4.274
REMARK INTRA:                  -0.890
REMARK UNBOUND:                -0.815
REMARK SMILES CCCCCCCCC=O
REMARK SMILES IDX 5 1 4 2 3 3 2 4 1 5 6 6 7 7 8 8 9 9 10 10
REMARK H PARENT
REMARK Flexibility Score: inf
ROOT
ATOM      1  C   UNL     1     106.000 107.531 102.375  1.00  0.00     0.000 C 
ENDROOT
BRANCH   1   2
ATOM      2  C   UNL     1     106.931 107.337 103.582  1.00  0.00    -0.000 C 
BRANCH   2   3
ATOM      3  C   UNL     1     107.541 105.928 103.637  1.00  0.00    -0.000 C 
BRANCH   3   4
ATOM      4  C   UNL     1     107.647 105.273 102.252  1.00  0.00    -0.003 C 
ATOM      5  C   UNL     1     107.395 103.770 102.335  1.00  0.00     0.004 C 
ENDBRANCH   3   4
ENDBRANCH   2   3
ENDBRANCH   1   2
BRANCH   1   6
ATOM      6  C   UNL     1     104.541 107.244 102.755  1.00  0.00     0.000 C 
BRANCH   6   7
ATOM      7  C   UNL     1     103.974 105.990 102.064  1.00  0.00     0.008 C 
BRANCH   7   8
ATOM      8  C   UNL     1     103.835 104.775 103.001  1.00  0.00     0.072 C 
BRANCH   8   9
ATOM      9  C   UNL     1     103.902 105.154 104.453  1.00  0.00     0.224 C 
ATOM     10  O   UNL     1     104.711 104.610 105.185  1.00  0.00    -0.303 OA
ENDBRANCH   8   9
ENDBRANCH   7   8
ENDBRANCH   6   7
ENDBRANCH   1   6
TORSDOF 7
ENDMDL
MODEL 5
REMARK VINA RESULT:    -3.085      2.428      4.583
REMARK INTER + INTRA:          -5.163
REMARK INTER:                  -4.319
REMARK INTRA:                  -0.844
REMARK UNBOUND:                -0.815
REMARK SMILES CCCCCCCCC=O
REMARK SMILES IDX 5 1 4 2 3 3 2 4 1 5 6 6 7 7 8 8 9 9 10 10
REMARK H PARENT
REMARK Flexibility Score: inf
ROOT
ATOM      1  C   UNL     1     107.079 106.081 102.043  1.00  0.00     0.000 C 
ENDROOT
BRANCH   1   2
ATOM      2  C   UNL     1     107.135 105.128 103.247  1.00  0.00    -0.000 C 
BRANCH   2   3
ATOM      3  C   UNL     1     105.791 104.434 103.516  1.00  0.00    -0.000 C 
BRANCH   3   4
ATOM      4  C   UNL     1     104.818 104.548 102.333  1.00  0.00    -0.003 C 
ATOM      5  C   UNL     1     103.381 104.713 102.817  1.00  0.00     0.004 C 
ENDBRANCH   3   4
ENDBRANCH   2   3
ENDBRANCH   1   2
BRANCH   1   6
ATOM      6  C   UNL     1     106.933 107.539 102.502  1.00  0.00     0.000 C 
BRANCH   6   7
ATOM      7  C   UNL     1     105.692 108.234 101.914  1.00  0.00     0.008 C 
BRANCH   7   8
ATOM      8  C   UNL     1     104.545 108.415 102.926  1.00  0.00     0.072 C 
BRANCH   8   9
ATOM      9  C   UNL     1     105.009 108.315 104.351  1.00  0.00     0.224 C 
ATOM     10  O   UNL     1     104.654 107.374 105.041  1.00  0.00    -0.303 OA
ENDBRANCH   8   9
ENDBRANCH   7   8
ENDBRANCH   6   7
ENDBRANCH   1   6
TORSDOF 7
ENDMDL
MODEL 6
REMARK VINA RESULT:    -3.055      1.471      2.127
REMARK INTER + INTRA:          -5.121
REMARK INTER:                  -4.296
REMARK INTRA:                  -0.825
REMARK UNBOUND:                -0.815
REMARK SMILES CCCCCCCCC=O
REMARK SMILES IDX 5 1 4 2 3 3 2 4 1 5 6 6 7 7 8 8 9 9 10 10
REMARK H PARENT
REMARK Flexibility Score: inf
ROOT
ATOM      1  C   UNL     1     104.823 107.786 102.773  1.00  0.00     0.000 C 
ENDROOT
BRANCH   1   2
ATOM      2  C   UNL     1     106.119 108.156 102.036  1.00  0.00    -0.000 C 
BRANCH   2   3
ATOM      3  C   UNL     1     107.185 107.053 102.124  1.00  0.00    -0.000 C 
BRANCH   3   4
ATOM      4  C   UNL     1     108.443 107.504 102.880  1.00  0.00    -0.003 C 
ATOM      5  C   UNL     1     108.443 106.975 104.312  1.00  0.00     0.004 C 
ENDBRANCH   3   4
ENDBRANCH   2   3
ENDBRANCH   1   2
BRANCH   1   6
ATOM      6  C   UNL     1     104.911 108.160 104.260  1.00  0.00     0.000 C 
BRANCH   6   7
ATOM      7  C   UNL     1     104.760 106.946 105.195  1.00  0.00     0.008 C 
BRANCH   7   8
ATOM      8  C   UNL     1     104.463 105.628 104.457  1.00  0.00     0.072 C 
BRANCH   8   9
ATOM      9  C   UNL     1     105.540 104.599 104.653  1.00  0.00     0.224 C 
ATOM     10  O   UNL     1     106.032 104.044 103.685  1.00  0.00    -0.303 OA
ENDBRANCH   8   9
ENDBRANCH   7   8
ENDBRANCH   6   7
ENDBRANCH   1   6
TORSDOF 7
ENDMDL
MODEL 7
REMARK VINA RESULT:    -3.055      2.578      3.728
REMARK INTER + INTRA:          -5.120
REMARK INTER:                  -4.410
REMARK INTRA:                  -0.711
REMARK UNBOUND:                -0.815
REMARK SMILES CCCCCCCCC=O
REMARK SMILES IDX 5 1 4 2 3 3 2 4 1 5 6 6 7 7 8 8 9 9 10 10
REMARK H PARENT
REMARK Flexibility Score: inf
ROOT
ATOM      1  C   UNL     1     106.076 104.239 102.453  1.00  0.00     0.000 C 
ENDROOT
BRANCH   1   2
ATOM      2  C   UNL     1     107.468 104.550 103.024  1.00  0.00    -0.000 C 
BRANCH   2   3
ATOM      3  C   UNL     1     107.412 105.486 104.242  1.00  0.00    -0.000 C 
BRANCH   3   4
ATOM      4  C   UNL     1     108.210 106.781 104.030  1.00  0.00    -0.003 C 
ATOM      5  C   UNL     1     108.370 107.091 102.545  1.00  0.00     0.004 C 
ENDBRANCH   3   4
ENDBRANCH   2   3
ENDBRANCH   1   2
BRANCH   1   6
ATOM      6  C   UNL     1     104.979 104.537 103.486  1.00  0.00     0.000 C 
BRANCH   6   7
ATOM      7  C   UNL     1     103.868 105.452 102.938  1.00  0.00     0.008 C 
BRANCH   7   8
ATOM      8  C   UNL     1     104.394 106.623 102.087  1.00  0.00     0.072 C 
BRANCH   8   9
ATOM      9  C   UNL     1     104.682 107.849 102.904  1.00  0.00     0.224 C 
ATOM     10  O   UNL     1     104.069 108.881 102.688  1.00  0.00    -0.303 OA
ENDBRANCH   8   9
ENDBRANCH   7   8
ENDBRANCH   6   7
ENDBRANCH   1   6
TORSDOF 7
ENDMDL
MODEL 8
REMARK VINA RESULT:    -3.051      1.930      3.334
REMARK INTER + INTRA:          -5.115
REMARK INTER:                  -4.340
REMARK INTRA:                  -0.775
REMARK UNBOUND:                -0.815
REMARK SMILES CCCCCCCCC=O
REMARK SMILES IDX 5 1 4 2 3 3 2 4 1 5 6 6 7 7 8 8 9 9 10 10
REMARK H PARENT
REMARK Flexibility Score: inf
ROOT
ATOM      1  C   UNL     1     105.085 105.126 102.029  1.00  0.00     0.000 C 
ENDROOT
BRANCH   1   2
ATOM      2  C   UNL     1     104.085 106.112 102.653  1.00  0.00    -0.000 C 
BRANCH   2   3
ATOM      3  C   UNL     1     104.575 106.684 103.992  1.00  0.00    -0.000 C 
BRANCH   3   4
ATOM      4  C   UNL     1     104.850 108.194 103.927  1.00  0.00    -0.003 C 
ATOM      5  C   UNL     1     104.502 108.756 102.552  1.00  0.00     0.004 C 
ENDBRANCH   3   4
ENDBRANCH   2   3
ENDBRANCH   1   2
BRANCH   1   6
ATOM      6  C   UNL     1     105.982 104.499 103.106  1.00  0.00     0.000 C 
BRANCH   6   7
ATOM      7  C   UNL     1     107.481 104.765 102.871  1.00  0.00     0.008 C 
BRANCH   7   8
ATOM      8  C   UNL     1     107.760 105.964 101.946  1.00  0.00     0.072 C 
BRANCH   8   9
ATOM      9  C   UNL     1     108.216 107.181 102.698  1.00  0.00     0.224 C 
ATOM     10  O   UNL     1     108.320 107.141 103.912  1.00  0.00    -0.303 OA
ENDBRANCH   8   9
ENDBRANCH   7   8
ENDBRANCH   6   7
ENDBRANCH   1   6
TORSDOF 7
ENDMDL
MODEL 9
REMARK VINA RESULT:    -3.013      2.163      3.786
REMARK INTER + INTRA:          -5.062
REMARK INTER:                  -4.457
REMARK INTRA:                  -0.605
REMARK UNBOUND:                -0.815
REMARK SMILES CCCCCCCCC=O
REMARK SMILES IDX 5 1 4 2 3 3 2 4 1 5 6 6 7 7 8 8 9 9 10 10
REMARK H PARENT
REMARK Flexibility Score: inf
ROOT
ATOM      1  C   UNL     1     107.228 106.618 102.360  1.00  0.00     0.000 C 
ENDROOT
BRANCH   1   2
ATOM      2  C   UNL     1     107.227 106.154 103.825  1.00  0.00    -0.000 C 
BRANCH   2   3
ATOM      3  C   UNL     1     107.246 104.624 103.961  1.00  0.00    -0.000 C 
BRANCH   3   4
ATOM      4  C   UNL     1     106.960 103.907 102.632  1.00  0.00    -0.003 C 
ATOM      5  C   UNL     1     107.842 102.672 102.474  1.00  0.00     0.004 C 
ENDBRANCH   3   4
ENDBRANCH   2   3
ENDBRANCH   1   2
BRANCH   1   6
ATOM      6  C   UNL     1     106.045 107.557 102.081  1.00  0.00     0.000 C 
BRANCH   6   7
ATOM      7  C   UNL     1     104.755 107.134 102.808  1.00  0.00     0.008 C 
BRANCH   7   8
ATOM      8  C   UNL     1     103.961 106.038 102.072  1.00  0.00     0.072 C 
BRANCH   8   9
ATOM      9  C   UNL     1     103.480 104.954 102.993  1.00  0.00     0.224 C 
ATOM     10  O   UNL     1     102.612 104.182 102.622  1.00  0.00    -0.303 OA
ENDBRANCH   8   9
ENDBRANCH   7   8
ENDBRANCH   6   7
ENDBRANCH   1   6
TORSDOF 7
ENDMDL
