MODEL 1
REMARK VINA RESULT:    37.913      0.000      0.000
REMARK INTER + INTRA:          41.100
REMARK INTER:                  41.238
REMARK INTRA:                  -0.138
REMARK UNBOUND:                -0.138
REMARK SMILES CC(C)c1cc2c(cc1O)[C@]1(C)CCCC(C)(C)[C@@H]1CC2=O
REMARK SMILES IDX 4 1 9 2 8 3 7 4 6 5 5 6 21 7 22 8 20 9 19 10 11 11 13 12
REMARK SMILES IDX 14 13 15 14 16 15 17 16 18 17 12 18 2 19 1 20 3 21 10 22
REMARK H PARENT 10 23
REMARK Flexibility Score: inf
ROOT
ATOM      1  C   UNL     1      34.795  16.815  42.487  1.00  0.00    -0.003 A 
ATOM      2  C   UNL     1      34.200  16.791  41.211  1.00  0.00     0.119 A 
ATOM      3  C   UNL     1      34.086  15.582  40.513  1.00  0.00     0.051 A 
ATOM      4  C   UNL     1      34.539  14.357  41.057  1.00  0.00    -0.027 A 
ATOM      5  C   UNL     1      35.132  14.393  42.335  1.00  0.00     0.022 A 
ATOM      6  C   UNL     1      35.258  15.608  43.031  1.00  0.00     0.020 A 
ATOM      7  C   UNL     1      35.587  13.153  42.961  1.00  0.00     0.163 C 
ATOM      8  O   UNL     1      36.352  13.174  43.964  1.00  0.00    -0.294 OA
ATOM      9  C   UNL     1      35.045  11.862  42.473  1.00  0.00     0.086 C 
ATOM     10  C   UNL     1      35.088  11.763  40.926  1.00  0.00     0.013 C 
ATOM     11  C   UNL     1      34.509  13.069  40.191  1.00  0.00    -0.003 C 
ATOM     12  C   UNL     1      33.046  12.820  39.680  1.00  0.00     0.012 C 
ATOM     13  C   UNL     1      32.261  11.852  40.558  1.00  0.00     0.001 C 
ATOM     14  C   UNL     1      32.874  10.441  40.576  1.00  0.00     0.007 C 
ATOM     15  C   UNL     1      34.429  10.399  40.438  1.00  0.00    -0.031 C 
ATOM     16  C   UNL     1      34.963   9.190  41.261  1.00  0.00     0.011 C 
ATOM     17  C   UNL     1      34.815  10.086  38.967  1.00  0.00     0.011 C 
ATOM     18  C   UNL     1      35.420  13.382  38.970  1.00  0.00     0.017 C 
ENDROOT
BRANCH   1  19
ATOM     19  C   UNL     1      34.968  18.101  43.284  1.00  0.00     0.017 C 
ATOM     20  C   UNL     1      36.035  19.018  42.669  1.00  0.00     0.012 C 
ATOM     21  C   UNL     1      35.256  17.817  44.764  1.00  0.00     0.012 C 
ENDBRANCH   1  19
BRANCH   2  22
ATOM     22  O   UNL     1      33.730  17.966  40.625  1.00  0.00    -0.508 OA
ATOM     23  H   UNL     1      34.236  18.432  39.882  1.00  0.00     0.293 HD
ENDBRANCH   2  22
TORSDOF 2
ENDMDL
MODEL 2
REMARK VINA RESULT:    39.384      1.552      3.626
REMARK INTER + INTRA:          42.700
REMARK INTER:                  42.951
REMARK INTRA:                  -0.251
REMARK UNBOUND:                -0.138
REMARK SMILES CC(C)c1cc2c(cc1O)[C@]1(C)CCCC(C)(C)[C@@H]1CC2=O
REMARK SMILES IDX 4 1 9 2 8 3 7 4 6 5 5 6 21 7 22 8 20 9 19 10 11 11 13 12
REMARK SMILES IDX 14 13 15 14 16 15 17 16 18 17 12 18 2 19 1 20 3 21 10 22
REMARK H PARENT 10 23
REMARK Flexibility Score: inf
ROOT
ATOM      1  C   UNL     1      35.806  14.666  43.128  1.00  0.00    -0.003 A 
ATOM      2  C   UNL     1      35.806  13.441  43.822  1.00  0.00     0.119 A 
ATOM      3  C   UNL     1      35.202  12.313  43.252  1.00  0.00     0.051 A 
ATOM      4  C   UNL     1      34.594  12.353  41.975  1.00  0.00    -0.027 A 
ATOM      5  C   UNL     1      34.601  13.584  41.289  1.00  0.00     0.022 A 
ATOM      6  C   UNL     1      35.196  14.720  41.866  1.00  0.00     0.020 A 
ATOM      7  C   UNL     1      34.018  13.676  39.953  1.00  0.00     0.163 C 
ATOM      8  O   UNL     1      33.766  14.796  39.429  1.00  0.00    -0.294 OA
ATOM      9  C   UNL     1      33.830  12.433  39.165  1.00  0.00     0.086 C 
ATOM     10  C   UNL     1      33.155  11.314  40.000  1.00  0.00     0.013 C 
ATOM     11  C   UNL     1      33.825  11.112  41.446  1.00  0.00    -0.003 C 
ATOM     12  C   UNL     1      34.780   9.868  41.451  1.00  0.00     0.012 C 
ATOM     13  C   UNL     1      35.446   9.617  40.102  1.00  0.00     0.001 C 
ATOM     14  C   UNL     1      34.431   9.280  38.997  1.00  0.00     0.007 C 
ATOM     15  C   UNL     1      33.041   9.976  39.146  1.00  0.00    -0.031 C 
ATOM     16  C   UNL     1      32.479  10.263  37.723  1.00  0.00     0.011 C 
ATOM     17  C   UNL     1      32.029   8.988  39.787  1.00  0.00     0.011 C 
ATOM     18  C   UNL     1      32.686  10.873  42.478  1.00  0.00     0.017 C 
ENDROOT
BRANCH   1  19
ATOM     19  C   UNL     1      36.426  15.933  43.704  1.00  0.00     0.017 C 
ATOM     20  C   UNL     1      35.402  16.768  44.485  1.00  0.00     0.012 C 
ATOM     21  C   UNL     1      37.125  16.766  42.622  1.00  0.00     0.012 C 
ENDBRANCH   1  19
BRANCH   2  22
ATOM     22  O   UNL     1      36.394  13.339  45.082  1.00  0.00    -0.508 OA
ATOM     23  H   UNL     1      36.051  13.864  45.876  1.00  0.00     0.293 HD
ENDBRANCH   2  22
TORSDOF 2
ENDMDL
MODEL 3
REMARK VINA RESULT:    40.681      2.339      6.641
REMARK INTER + INTRA:          44.110
REMARK INTER:                  43.682
REMARK INTRA:                   0.428
REMARK UNBOUND:                -0.138
REMARK SMILES CC(C)c1cc2c(cc1O)[C@]1(C)CCCC(C)(C)[C@@H]1CC2=O
REMARK SMILES IDX 4 1 9 2 8 3 7 4 6 5 5 6 21 7 22 8 20 9 19 10 11 11 13 12
REMARK SMILES IDX 14 13 15 14 16 15 17 16 18 17 12 18 2 19 1 20 3 21 10 22
REMARK H PARENT 10 23
REMARK Flexibility Score: inf
ROOT
ATOM      1  C   UNL     1      34.287   9.465  39.733  1.00  0.00    -0.003 A 
ATOM      2  C   UNL     1      35.458  10.121  39.308  1.00  0.00     0.119 A 
ATOM      3  C   UNL     1      35.765  11.396  39.798  1.00  0.00     0.051 A 
ATOM      4  C   UNL     1      34.936  12.059  40.733  1.00  0.00    -0.027 A 
ATOM      5  C   UNL     1      33.766  11.393  41.153  1.00  0.00     0.022 A 
ATOM      6  C   UNL     1      33.451  10.117  40.652  1.00  0.00     0.020 A 
ATOM      7  C   UNL     1      32.891  12.015  42.143  1.00  0.00     0.163 C 
ATOM      8  O   UNL     1      31.721  11.584  42.338  1.00  0.00    -0.294 OA
ATOM      9  C   UNL     1      33.434  13.092  43.005  1.00  0.00     0.086 C 
ATOM     10  C   UNL     1      34.204  14.159  42.185  1.00  0.00     0.013 C 
ATOM     11  C   UNL     1      35.251  13.523  41.144  1.00  0.00    -0.003 C 
ATOM     12  C   UNL     1      36.714  13.602  41.705  1.00  0.00     0.012 C 
ATOM     13  C   UNL     1      36.779  13.511  43.225  1.00  0.00     0.001 C 
ATOM     14  C   UNL     1      36.071  14.686  43.919  1.00  0.00     0.007 C 
ATOM     15  C   UNL     1      34.835  15.254  43.151  1.00  0.00    -0.031 C 
ATOM     16  C   UNL     1      33.793  15.751  44.195  1.00  0.00     0.011 C 
ATOM     17  C   UNL     1      35.250  16.525  42.360  1.00  0.00     0.011 C 
ATOM     18  C   UNL     1      35.175  14.338  39.822  1.00  0.00     0.017 C 
ENDROOT
BRANCH   1  19
ATOM     19  C   UNL     1      33.888   8.088  39.219  1.00  0.00     0.017 C 
ATOM     20  C   UNL     1      34.484   6.962  40.074  1.00  0.00     0.012 C 
ATOM     21  C   UNL     1      34.237   7.913  37.735  1.00  0.00     0.012 C 
ENDBRANCH   1  19
BRANCH   2  22
ATOM     22  O   UNL     1      36.317   9.516  38.391  1.00  0.00    -0.508 OA
ATOM     23  H   UNL     1      36.887  10.059  37.754  1.00  0.00     0.293 HD
ENDBRANCH   2  22
TORSDOF 2
ENDMDL
