MODEL 1
REMARK VINA RESULT:    -3.818      0.000      0.000
REMARK INTER + INTRA:          -4.184
REMARK INTER:                  -4.152
REMARK INTRA:                  -0.032
REMARK UNBOUND:                -0.032
REMARK SMILES COc1ccccc1O
REMARK SMILES IDX 3 1 4 2 5 3 6 4 7 5 8 6 2 7 1 8 9 9
REMARK H PARENT 9 10
REMARK Flexibility Score: inf
ROOT
ATOM      1  C   UNL     1     123.532 127.598 120.194  1.00  0.00     0.160 A 
ATOM      2  C   UNL     1     123.239 127.239 118.862  1.00  0.00     0.050 A 
ATOM      3  C   UNL     1     121.933 127.339 118.376  1.00  0.00     0.004 A 
ATOM      4  C   UNL     1     120.908 127.794 119.207  1.00  0.00     0.004 A 
ATOM      5  C   UNL     1     121.187 128.152 120.529  1.00  0.00     0.050 A 
ATOM      6  C   UNL     1     122.495 128.055 121.024  1.00  0.00     0.157 A 
ENDROOT
BRANCH   1   7
ATOM      7  O   UNL     1     124.828 127.513 120.725  1.00  0.00    -0.493 OA
ATOM      8  C   UNL     1     125.748 126.465 120.440  1.00  0.00     0.278 C 
ENDBRANCH   1   7
BRANCH   6   9
ATOM      9  O   UNL     1     122.776 128.411 122.342  1.00  0.00    -0.504 OA
ATOM     10  H   UNL     1     123.440 127.890 122.902  1.00  0.00     0.293 HD
ENDBRANCH   6   9
TORSDOF 2
ENDMDL
MODEL 2
REMARK VINA RESULT:    -3.622     19.069     20.177
REMARK INTER + INTRA:          -3.971
REMARK INTER:                  -3.936
REMARK INTRA:                  -0.035
REMARK UNBOUND:                -0.032
REMARK SMILES COc1ccccc1O
REMARK SMILES IDX 3 1 4 2 5 3 6 4 7 5 8 6 2 7 1 8 9 9
REMARK H PARENT 9 10
REMARK Flexibility Score: inf
ROOT
ATOM      1  C   UNL     1     112.095 136.379 105.679  1.00  0.00     0.160 A 
ATOM      2  C   UNL     1     110.728 136.427 106.021  1.00  0.00     0.050 A 
ATOM      3  C   UNL     1     110.035 135.253 106.329  1.00  0.00     0.004 A 
ATOM      4  C   UNL     1     110.695 134.023 106.300  1.00  0.00     0.004 A 
ATOM      5  C   UNL     1     112.049 133.963 105.962  1.00  0.00     0.050 A 
ATOM      6  C   UNL     1     112.751 135.138 105.651  1.00  0.00     0.157 A 
ENDROOT
BRANCH   1   7
ATOM      7  O   UNL     1     112.828 137.532 105.362  1.00  0.00    -0.493 OA
ATOM      8  C   UNL     1     112.379 138.555 104.479  1.00  0.00     0.278 C 
ENDBRANCH   1   7
BRANCH   6   9
ATOM      9  O   UNL     1     114.102 135.081 105.315  1.00  0.00    -0.504 OA
ATOM     10  H   UNL     1     114.668 134.268 105.530  1.00  0.00     0.293 HD
ENDBRANCH   6   9
TORSDOF 2
ENDMDL
MODEL 3
REMARK VINA RESULT:    -3.560      1.832      4.130
REMARK INTER + INTRA:          -3.903
REMARK INTER:                  -3.873
REMARK INTRA:                  -0.030
REMARK UNBOUND:                -0.032
REMARK SMILES COc1ccccc1O
REMARK SMILES IDX 3 1 4 2 5 3 6 4 7 5 8 6 2 7 1 8 9 9
REMARK H PARENT 9 10
REMARK Flexibility Score: inf
ROOT
ATOM      1  C   UNL     1     124.897 127.098 119.418  1.00  0.00     0.160 A 
ATOM      2  C   UNL     1     125.157 127.081 118.033  1.00  0.00     0.050 A 
ATOM      3  C   UNL     1     126.437 126.781 117.558  1.00  0.00     0.004 A 
ATOM      4  C   UNL     1     127.468 126.496 118.456  1.00  0.00     0.004 A 
ATOM      5  C   UNL     1     127.221 126.510 119.831  1.00  0.00     0.050 A 
ATOM      6  C   UNL     1     125.940 126.810 120.314  1.00  0.00     0.157 A 
ENDROOT
BRANCH   1   7
ATOM      7  O   UNL     1     123.628 127.394 119.939  1.00  0.00    -0.493 OA
ATOM      8  C   UNL     1     122.400 127.052 119.307  1.00  0.00     0.278 C 
ENDBRANCH   1   7
BRANCH   6   9
ATOM      9  O   UNL     1     125.691 126.825 121.686  1.00  0.00    -0.504 OA
ATOM     10  H   UNL     1     125.500 125.972 122.199  1.00  0.00     0.293 HD
ENDBRANCH   6   9
TORSDOF 2
ENDMDL
MODEL 4
REMARK VINA RESULT:    -3.405      2.065      2.900
REMARK INTER + INTRA:          -3.735
REMARK INTER:                  -3.708
REMARK INTRA:                  -0.027
REMARK UNBOUND:                -0.032
REMARK SMILES COc1ccccc1O
REMARK SMILES IDX 3 1 4 2 5 3 6 4 7 5 8 6 2 7 1 8 9 9
REMARK H PARENT 9 10
REMARK Flexibility Score: inf
ROOT
ATOM      1  C   UNL     1     123.689 129.605 120.871  1.00  0.00     0.160 A 
ATOM      2  C   UNL     1     124.317 129.773 119.619  1.00  0.00     0.050 A 
ATOM      3  C   UNL     1     124.198 128.790 118.633  1.00  0.00     0.004 A 
ATOM      4  C   UNL     1     123.455 127.634 118.882  1.00  0.00     0.004 A 
ATOM      5  C   UNL     1     122.828 127.458 120.118  1.00  0.00     0.050 A 
ATOM      6  C   UNL     1     122.944 128.440 121.113  1.00  0.00     0.157 A 
ENDROOT
BRANCH   1   7
ATOM      7  O   UNL     1     123.783 130.565 121.890  1.00  0.00    -0.493 OA
ATOM      8  C   UNL     1     124.243 131.899 121.700  1.00  0.00     0.278 C 
ENDBRANCH   1   7
BRANCH   6   9
ATOM      9  O   UNL     1     122.320 128.266 122.347  1.00  0.00    -0.504 OA
ATOM     10  H   UNL     1     122.423 128.945 123.093  1.00  0.00     0.293 HD
ENDBRANCH   6   9
TORSDOF 2
ENDMDL
MODEL 5
REMARK VINA RESULT:    -3.393      1.358      3.189
REMARK INTER + INTRA:          -3.722
REMARK INTER:                  -3.676
REMARK INTRA:                  -0.046
REMARK UNBOUND:                -0.032
REMARK SMILES COc1ccccc1O
REMARK SMILES IDX 3 1 4 2 5 3 6 4 7 5 8 6 2 7 1 8 9 9
REMARK H PARENT 9 10
REMARK Flexibility Score: inf
ROOT
ATOM      1  C   UNL     1     122.896 128.151 119.606  1.00  0.00     0.160 A 
ATOM      2  C   UNL     1     123.369 127.826 118.318  1.00  0.00     0.050 A 
ATOM      3  C   UNL     1     124.651 127.295 118.151  1.00  0.00     0.004 A 
ATOM      4  C   UNL     1     125.472 127.082 119.260  1.00  0.00     0.004 A 
ATOM      5  C   UNL     1     125.013 127.400 120.541  1.00  0.00     0.050 A 
ATOM      6  C   UNL     1     123.728 127.934 120.716  1.00  0.00     0.157 A 
ENDROOT
BRANCH   1   7
ATOM      7  O   UNL     1     121.617 128.687 119.821  1.00  0.00    -0.493 OA
ATOM      8  C   UNL     1     120.405 127.949 119.705  1.00  0.00     0.278 C 
ENDBRANCH   1   7
BRANCH   6   9
ATOM      9  O   UNL     1     123.268 128.252 121.993  1.00  0.00    -0.504 OA
ATOM     10  H   UNL     1     122.379 128.718 122.136  1.00  0.00     0.293 HD
ENDBRANCH   6   9
TORSDOF 2
ENDMDL
MODEL 6
REMARK VINA RESULT:    -3.292      2.228      3.353
REMARK INTER + INTRA:          -3.612
REMARK INTER:                  -3.570
REMARK INTRA:                  -0.042
REMARK UNBOUND:                -0.032
REMARK SMILES COc1ccccc1O
REMARK SMILES IDX 3 1 4 2 5 3 6 4 7 5 8 6 2 7 1 8 9 9
REMARK H PARENT 9 10
REMARK Flexibility Score: inf
ROOT
ATOM      1  C   UNL     1     122.464 128.737 120.083  1.00  0.00     0.160 A 
ATOM      2  C   UNL     1     122.796 129.515 118.955  1.00  0.00     0.050 A 
ATOM      3  C   UNL     1     123.662 130.605 119.080  1.00  0.00     0.004 A 
ATOM      4  C   UNL     1     124.205 130.929 120.325  1.00  0.00     0.004 A 
ATOM      5  C   UNL     1     123.883 130.164 121.449  1.00  0.00     0.050 A 
ATOM      6  C   UNL     1     123.014 129.070 121.331  1.00  0.00     0.157 A 
ENDROOT
BRANCH   1   7
ATOM      7  O   UNL     1     121.598 127.635 120.004  1.00  0.00    -0.493 OA
ATOM      8  C   UNL     1     120.229 127.714 119.624  1.00  0.00     0.278 C 
ENDBRANCH   1   7
BRANCH   6   9
ATOM      9  O   UNL     1     122.691 128.306 122.451  1.00  0.00    -0.504 OA
ATOM     10  H   UNL     1     122.168 127.442 122.371  1.00  0.00     0.293 HD
ENDBRANCH   6   9
TORSDOF 2
ENDMDL
MODEL 7
REMARK VINA RESULT:    -3.266     19.483     20.744
REMARK INTER + INTRA:          -3.585
REMARK INTER:                  -3.538
REMARK INTRA:                  -0.046
REMARK UNBOUND:                -0.032
REMARK SMILES COc1ccccc1O
REMARK SMILES IDX 3 1 4 2 5 3 6 4 7 5 8 6 2 7 1 8 9 9
REMARK H PARENT 9 10
REMARK Flexibility Score: inf
ROOT
ATOM      1  C   UNL     1     111.438 136.286 106.059  1.00  0.00     0.160 A 
ATOM      2  C   UNL     1     110.277 137.086 106.033  1.00  0.00     0.050 A 
ATOM      3  C   UNL     1     110.253 138.272 105.294  1.00  0.00     0.004 A 
ATOM      4  C   UNL     1     111.381 138.672 104.574  1.00  0.00     0.004 A 
ATOM      5  C   UNL     1     112.537 137.887 104.592  1.00  0.00     0.050 A 
ATOM      6  C   UNL     1     112.568 136.696 105.333  1.00  0.00     0.157 A 
ENDROOT
BRANCH   1   7
ATOM      7  O   UNL     1     111.507 135.089 106.787  1.00  0.00    -0.493 OA
ATOM      8  C   UNL     1     110.929 133.858 106.369  1.00  0.00     0.278 C 
ENDBRANCH   1   7
BRANCH   6   9
ATOM      9  O   UNL     1     113.720 135.912 105.352  1.00  0.00    -0.504 OA
ATOM     10  H   UNL     1     113.983 135.337 104.560  1.00  0.00     0.293 HD
ENDBRANCH   6   9
TORSDOF 2
ENDMDL
MODEL 8
REMARK VINA RESULT:    -3.159      1.971      4.061
REMARK INTER + INTRA:          -3.468
REMARK INTER:                  -3.422
REMARK INTRA:                  -0.045
REMARK UNBOUND:                -0.032
REMARK SMILES COc1ccccc1O
REMARK SMILES IDX 3 1 4 2 5 3 6 4 7 5 8 6 2 7 1 8 9 9
REMARK H PARENT 9 10
REMARK Flexibility Score: inf
ROOT
ATOM      1  C   UNL     1     124.715 128.201 120.356  1.00  0.00     0.160 A 
ATOM      2  C   UNL     1     124.906 126.889 119.875  1.00  0.00     0.050 A 
ATOM      3  C   UNL     1     126.192 126.349 119.792  1.00  0.00     0.004 A 
ATOM      4  C   UNL     1     127.298 127.105 120.185  1.00  0.00     0.004 A 
ATOM      5  C   UNL     1     127.120 128.406 120.663  1.00  0.00     0.050 A 
ATOM      6  C   UNL     1     125.832 128.956 120.749  1.00  0.00     0.157 A 
ENDROOT
BRANCH   1   7
ATOM      7  O   UNL     1     123.443 128.784 120.456  1.00  0.00    -0.493 OA
ATOM      8  C   UNL     1     122.454 128.400 121.405  1.00  0.00     0.278 C 
ENDBRANCH   1   7
BRANCH   6   9
ATOM      9  O   UNL     1     125.653 130.253 121.225  1.00  0.00    -0.504 OA
ATOM     10  H   UNL     1     124.734 130.609 121.462  1.00  0.00     0.293 HD
ENDBRANCH   6   9
TORSDOF 2
ENDMDL
MODEL 9
REMARK VINA RESULT:    -3.137      1.875      4.138
REMARK INTER + INTRA:          -3.444
REMARK INTER:                  -3.400
REMARK INTRA:                  -0.044
REMARK UNBOUND:                -0.032
REMARK SMILES COc1ccccc1O
REMARK SMILES IDX 3 1 4 2 5 3 6 4 7 5 8 6 2 7 1 8 9 9
REMARK H PARENT 9 10
REMARK Flexibility Score: inf
ROOT
ATOM      1  C   UNL     1     124.455 127.129 119.817  1.00  0.00     0.160 A 
ATOM      2  C   UNL     1     125.568 126.690 120.563  1.00  0.00     0.050 A 
ATOM      3  C   UNL     1     126.778 126.404 119.924  1.00  0.00     0.004 A 
ATOM      4  C   UNL     1     126.892 126.553 118.540  1.00  0.00     0.004 A 
ATOM      5  C   UNL     1     125.795 126.987 117.791  1.00  0.00     0.050 A 
ATOM      6  C   UNL     1     124.578 127.275 118.426  1.00  0.00     0.157 A 
ENDROOT
BRANCH   1   7
ATOM      7  O   UNL     1     123.222 127.426 120.416  1.00  0.00    -0.493 OA
ATOM      8  C   UNL     1     122.997 128.525 121.293  1.00  0.00     0.278 C 
ENDBRANCH   1   7
BRANCH   6   9
ATOM      9  O   UNL     1     123.483 127.709 117.680  1.00  0.00    -0.504 OA
ATOM     10  H   UNL     1     123.519 127.765 116.669  1.00  0.00     0.293 HD
ENDBRANCH   6   9
TORSDOF 2
ENDMDL
