MODEL 1
REMARK VINA RESULT:    -6.047      0.000      0.000
REMARK INTER + INTRA:          -6.401
REMARK INTER:                  -6.401
REMARK INTRA:                   0.000
REMARK UNBOUND:                 0.000
REMARK SMILES O=c1ccc2cc(O)c(O)cc2o1
REMARK SMILES IDX 4 1 3 2 2 3 1 4 13 5 12 6 11 7 9 8 7 9 6 10 5 11 8 12 10 14
REMARK H PARENT 8 13 10 15
REMARK Flexibility Score: inf
ROOT
ATOM      1  C   UNL     1       5.434  -1.018 -23.249  1.00  0.00     0.019 A 
ATOM      2  C   UNL     1       5.482   0.298 -22.789  1.00  0.00     0.094 A 
ATOM      3  C   UNL     1       4.352   0.840 -22.166  1.00  0.00     0.336 A 
ATOM      4  O   UNL     1       4.376   2.026 -21.745  1.00  0.00    -0.246 OA
ATOM      5  O   UNL     1       3.251   0.109 -22.016  1.00  0.00    -0.423 OA
ATOM      6  C   UNL     1       3.163  -1.151 -22.439  1.00  0.00     0.142 A 
ATOM      7  C   UNL     1       1.980  -1.870 -22.253  1.00  0.00     0.098 A 
ATOM      8  C   UNL     1       1.879  -3.194 -22.696  1.00  0.00     0.161 A 
ATOM      9  C   UNL     1       2.974  -3.807 -23.332  1.00  0.00     0.158 A 
ATOM     10  C   UNL     1       4.165  -3.088 -23.521  1.00  0.00     0.062 A 
ATOM     11  C   UNL     1       4.263  -1.763 -23.077  1.00  0.00     0.022 A 
ENDROOT
BRANCH   9  12
ATOM     12  O   UNL     1       2.876  -5.125 -23.773  1.00  0.00    -0.504 OA
ATOM     13  H   UNL     1       2.754  -5.895 -23.126  1.00  0.00     0.293 HD
ENDBRANCH   9  12
BRANCH   8  14
ATOM     14  O   UNL     1       0.685  -3.886 -22.495  1.00  0.00    -0.504 OA
ATOM     15  H   UNL     1       0.642  -4.744 -21.959  1.00  0.00     0.293 HD
ENDBRANCH   8  14
TORSDOF 2
ENDMDL
MODEL 2
REMARK VINA RESULT:    -5.747      1.596      2.016
REMARK INTER + INTRA:          -6.083
REMARK INTER:                  -6.083
REMARK INTRA:                   0.000
REMARK UNBOUND:                 0.000
REMARK SMILES O=c1ccc2cc(O)c(O)cc2o1
REMARK SMILES IDX 4 1 3 2 2 3 1 4 13 5 12 6 11 7 9 8 7 9 6 10 5 11 8 12 10 14
REMARK H PARENT 8 13 10 15
REMARK Flexibility Score: inf
ROOT
ATOM      1  C   UNL     1       4.460  -2.624 -23.267  1.00  0.00     0.019 A 
ATOM      2  C   UNL     1       5.107  -1.399 -23.428  1.00  0.00     0.094 A 
ATOM      3  C   UNL     1       4.342  -0.259 -23.697  1.00  0.00     0.336 A 
ATOM      4  O   UNL     1       4.907   0.856 -23.845  1.00  0.00    -0.246 OA
ATOM      5  O   UNL     1       3.018  -0.344 -23.796  1.00  0.00    -0.423 OA
ATOM      6  C   UNL     1       2.361  -1.494 -23.649  1.00  0.00     0.142 A 
ATOM      7  C   UNL     1       0.969  -1.522 -23.764  1.00  0.00     0.098 A 
ATOM      8  C   UNL     1       0.271  -2.726 -23.611  1.00  0.00     0.161 A 
ATOM      9  C   UNL     1       0.972  -3.915 -23.340  1.00  0.00     0.158 A 
ATOM     10  C   UNL     1       2.371  -3.891 -23.223  1.00  0.00     0.062 A 
ATOM     11  C   UNL     1       3.067  -2.685 -23.376  1.00  0.00     0.022 A 
ENDROOT
BRANCH   9  12
ATOM     12  O   UNL     1       0.280  -5.115 -23.188  1.00  0.00    -0.504 OA
ATOM     13  H   UNL     1      -0.002  -5.671 -23.987  1.00  0.00     0.293 HD
ENDBRANCH   9  12
BRANCH   8  14
ATOM     14  O   UNL     1      -1.119  -2.723 -23.732  1.00  0.00    -0.504 OA
ATOM     15  H   UNL     1      -1.583  -2.527 -24.610  1.00  0.00     0.293 HD
ENDBRANCH   8  14
TORSDOF 2
ENDMDL
MODEL 3
REMARK VINA RESULT:    -5.645      3.072      3.702
REMARK INTER + INTRA:          -5.975
REMARK INTER:                  -5.975
REMARK INTRA:                   0.000
REMARK UNBOUND:                 0.000
REMARK SMILES O=c1ccc2cc(O)c(O)cc2o1
REMARK SMILES IDX 4 1 3 2 2 3 1 4 13 5 12 6 11 7 9 8 7 9 6 10 5 11 8 12 10 14
REMARK H PARENT 8 13 10 15
REMARK Flexibility Score: inf
ROOT
ATOM      1  C   UNL     1       1.979  -1.151 -26.047  1.00  0.00     0.019 A 
ATOM      2  C   UNL     1       3.158  -0.781 -26.693  1.00  0.00     0.094 A 
ATOM      3  C   UNL     1       4.354  -1.412 -26.333  1.00  0.00     0.336 A 
ATOM      4  O   UNL     1       5.429  -1.092 -26.905  1.00  0.00    -0.246 OA
ATOM      5  O   UNL     1       4.364  -2.349 -25.389  1.00  0.00    -0.423 OA
ATOM      6  C   UNL     1       3.261  -2.731 -24.748  1.00  0.00     0.142 A 
ATOM      7  C   UNL     1       3.332  -3.722 -23.765  1.00  0.00     0.098 A 
ATOM      8  C   UNL     1       2.177  -4.129 -23.086  1.00  0.00     0.161 A 
ATOM      9  C   UNL     1       0.937  -3.540 -23.393  1.00  0.00     0.158 A 
ATOM     10  C   UNL     1       0.861  -2.546 -24.381  1.00  0.00     0.062 A 
ATOM     11  C   UNL     1       2.018  -2.140 -25.059  1.00  0.00     0.022 A 
ENDROOT
BRANCH   9  12
ATOM     12  O   UNL     1      -0.213  -3.945 -22.719  1.00  0.00    -0.504 OA
ATOM     13  H   UNL     1      -0.267  -4.841 -22.249  1.00  0.00     0.293 HD
ENDBRANCH   9  12
BRANCH   8  14
ATOM     14  O   UNL     1       2.281  -5.120 -22.109  1.00  0.00    -0.504 OA
ATOM     15  H   UNL     1       2.142  -4.924 -21.126  1.00  0.00     0.293 HD
ENDBRANCH   8  14
TORSDOF 2
ENDMDL
MODEL 4
REMARK VINA RESULT:    -5.616      1.429      2.349
REMARK INTER + INTRA:          -5.945
REMARK INTER:                  -5.945
REMARK INTRA:                   0.000
REMARK UNBOUND:                 0.000
REMARK SMILES O=c1ccc2cc(O)c(O)cc2o1
REMARK SMILES IDX 4 1 3 2 2 3 1 4 13 5 12 6 11 7 9 8 7 9 6 10 5 11 8 12 10 14
REMARK H PARENT 8 13 10 15
REMARK Flexibility Score: inf
ROOT
ATOM      1  C   UNL     1       3.681   0.695 -21.656  1.00  0.00     0.019 A 
ATOM      2  C   UNL     1       4.467   1.683 -22.248  1.00  0.00     0.094 A 
ATOM      3  C   UNL     1       5.155   1.383 -23.430  1.00  0.00     0.336 A 
ATOM      4  O   UNL     1       5.869   2.261 -23.980  1.00  0.00    -0.246 OA
ATOM      5  O   UNL     1       5.058   0.174 -23.977  1.00  0.00    -0.423 OA
ATOM      6  C   UNL     1       4.318  -0.796 -23.444  1.00  0.00     0.142 A 
ATOM      7  C   UNL     1       4.254  -2.047 -24.064  1.00  0.00     0.098 A 
ATOM      8  C   UNL     1       3.480  -3.073 -23.510  1.00  0.00     0.161 A 
ATOM      9  C   UNL     1       2.761  -2.847 -22.323  1.00  0.00     0.158 A 
ATOM     10  C   UNL     1       2.821  -1.592 -21.696  1.00  0.00     0.062 A 
ATOM     11  C   UNL     1       3.597  -0.566 -22.253  1.00  0.00     0.022 A 
ENDROOT
BRANCH   9  12
ATOM     12  O   UNL     1       1.989  -3.867 -21.769  1.00  0.00    -0.504 OA
ATOM     13  H   UNL     1       0.978  -3.871 -21.848  1.00  0.00     0.293 HD
ENDBRANCH   9  12
BRANCH   8  14
ATOM     14  O   UNL     1       3.436  -4.310 -24.153  1.00  0.00    -0.504 OA
ATOM     15  H   UNL     1       2.605  -4.889 -24.151  1.00  0.00     0.293 HD
ENDBRANCH   8  14
TORSDOF 2
ENDMDL
MODEL 5
REMARK VINA RESULT:    -5.550      2.194      2.707
REMARK INTER + INTRA:          -5.875
REMARK INTER:                  -5.875
REMARK INTRA:                   0.000
REMARK UNBOUND:                 0.000
REMARK SMILES O=c1ccc2cc(O)c(O)cc2o1
REMARK SMILES IDX 4 1 3 2 2 3 1 4 13 5 12 6 11 7 9 8 7 9 6 10 5 11 8 12 10 14
REMARK H PARENT 8 13 10 15
REMARK Flexibility Score: inf
ROOT
ATOM      1  C   UNL     1       1.702  -0.644 -25.599  1.00  0.00     0.019 A 
ATOM      2  C   UNL     1       2.544   0.459 -25.736  1.00  0.00     0.094 A 
ATOM      3  C   UNL     1       3.425   0.772 -24.695  1.00  0.00     0.336 A 
ATOM      4  O   UNL     1       4.193   1.764 -24.799  1.00  0.00    -0.246 OA
ATOM      5  O   UNL     1       3.457   0.027 -23.593  1.00  0.00    -0.423 OA
ATOM      6  C   UNL     1       2.671  -1.034 -23.423  1.00  0.00     0.142 A 
ATOM      7  C   UNL     1       2.749  -1.780 -22.244  1.00  0.00     0.098 A 
ATOM      8  C   UNL     1       1.926  -2.897 -22.056  1.00  0.00     0.161 A 
ATOM      9  C   UNL     1       1.014  -3.273 -23.059  1.00  0.00     0.158 A 
ATOM     10  C   UNL     1       0.932  -2.527 -24.246  1.00  0.00     0.062 A 
ATOM     11  C   UNL     1       1.757  -1.410 -24.431  1.00  0.00     0.022 A 
ENDROOT
BRANCH   9  12
ATOM     12  O   UNL     1       0.194  -4.384 -22.875  1.00  0.00    -0.504 OA
ATOM     13  H   UNL     1       0.312  -5.008 -22.085  1.00  0.00     0.293 HD
ENDBRANCH   9  12
BRANCH   8  14
ATOM     14  O   UNL     1       2.027  -3.621 -20.869  1.00  0.00    -0.504 OA
ATOM     15  H   UNL     1       1.256  -4.165 -20.502  1.00  0.00     0.293 HD
ENDBRANCH   8  14
TORSDOF 2
ENDMDL
MODEL 6
REMARK VINA RESULT:    -5.472      2.696      3.296
REMARK INTER + INTRA:          -5.792
REMARK INTER:                  -5.792
REMARK INTRA:                   0.000
REMARK UNBOUND:                 0.000
REMARK SMILES O=c1ccc2cc(O)c(O)cc2o1
REMARK SMILES IDX 4 1 3 2 2 3 1 4 13 5 12 6 11 7 9 8 7 9 6 10 5 11 8 12 10 14
REMARK H PARENT 8 13 10 15
REMARK Flexibility Score: inf
ROOT
ATOM      1  C   UNL     1       4.899   0.483 -22.059  1.00  0.00     0.019 A 
ATOM      2  C   UNL     1       4.624   1.850 -22.057  1.00  0.00     0.094 A 
ATOM      3  C   UNL     1       4.342   2.486 -23.272  1.00  0.00     0.336 A 
ATOM      4  O   UNL     1       4.091   3.720 -23.291  1.00  0.00    -0.246 OA
ATOM      5  O   UNL     1       4.336   1.795 -24.408  1.00  0.00    -0.423 OA
ATOM      6  C   UNL     1       4.592   0.489 -24.454  1.00  0.00     0.142 A 
ATOM      7  C   UNL     1       4.571  -0.185 -25.678  1.00  0.00     0.098 A 
ATOM      8  C   UNL     1       4.840  -1.558 -25.735  1.00  0.00     0.161 A 
ATOM      9  C   UNL     1       5.133  -2.265 -24.555  1.00  0.00     0.158 A 
ATOM     10  C   UNL     1       5.155  -1.593 -23.323  1.00  0.00     0.062 A 
ATOM     11  C   UNL     1       4.885  -0.219 -23.269  1.00  0.00     0.022 A 
ENDROOT
BRANCH   9  12
ATOM     12  O   UNL     1       5.401  -3.632 -24.609  1.00  0.00    -0.504 OA
ATOM     13  H   UNL     1       4.709  -4.321 -24.336  1.00  0.00     0.293 HD
ENDBRANCH   9  12
BRANCH   8  14
ATOM     14  O   UNL     1       4.812  -2.202 -26.971  1.00  0.00    -0.504 OA
ATOM     15  H   UNL     1       4.925  -1.700 -27.843  1.00  0.00     0.293 HD
ENDBRANCH   8  14
TORSDOF 2
ENDMDL
MODEL 7
REMARK VINA RESULT:    -5.443      1.640      4.604
REMARK INTER + INTRA:          -5.761
REMARK INTER:                  -5.761
REMARK INTRA:                   0.000
REMARK UNBOUND:                 0.000
REMARK SMILES O=c1ccc2cc(O)c(O)cc2o1
REMARK SMILES IDX 4 1 3 2 2 3 1 4 13 5 12 6 11 7 9 8 7 9 6 10 5 11 8 12 10 14
REMARK H PARENT 8 13 10 15
REMARK Flexibility Score: inf
ROOT
ATOM      1  C   UNL     1       2.472  -4.447 -23.282  1.00  0.00     0.019 A 
ATOM      2  C   UNL     1       1.102  -4.710 -23.313  1.00  0.00     0.094 A 
ATOM      3  C   UNL     1       0.206  -3.636 -23.336  1.00  0.00     0.336 A 
ATOM      4  O   UNL     1      -1.033  -3.853 -23.364  1.00  0.00    -0.246 OA
ATOM      5  O   UNL     1       0.656  -2.384 -23.330  1.00  0.00    -0.423 OA
ATOM      6  C   UNL     1       1.954  -2.089 -23.301  1.00  0.00     0.142 A 
ATOM      7  C   UNL     1       2.368  -0.754 -23.297  1.00  0.00     0.098 A 
ATOM      8  C   UNL     1       3.731  -0.435 -23.266  1.00  0.00     0.161 A 
ATOM      9  C   UNL     1       4.691  -1.463 -23.240  1.00  0.00     0.158 A 
ATOM     10  C   UNL     1       4.281  -2.805 -23.246  1.00  0.00     0.062 A 
ATOM     11  C   UNL     1       2.916  -3.121 -23.276  1.00  0.00     0.022 A 
ENDROOT
BRANCH   9  12
ATOM     12  O   UNL     1       6.049  -1.148 -23.210  1.00  0.00    -0.504 OA
ATOM     13  H   UNL     1       6.409  -0.306 -23.645  1.00  0.00     0.293 HD
ENDBRANCH   9  12
BRANCH   8  14
ATOM     14  O   UNL     1       4.112   0.906 -23.262  1.00  0.00    -0.504 OA
ATOM     15  H   UNL     1       3.480   1.647 -23.542  1.00  0.00     0.293 HD
ENDBRANCH   8  14
TORSDOF 2
ENDMDL
MODEL 8
REMARK VINA RESULT:    -5.438      3.014      4.867
REMARK INTER + INTRA:          -5.756
REMARK INTER:                  -5.756
REMARK INTRA:                   0.000
REMARK UNBOUND:                 0.000
REMARK SMILES O=c1ccc2cc(O)c(O)cc2o1
REMARK SMILES IDX 4 1 3 2 2 3 1 4 13 5 12 6 11 7 9 8 7 9 6 10 5 11 8 12 10 14
REMARK H PARENT 8 13 10 15
REMARK Flexibility Score: inf
ROOT
ATOM      1  C   UNL     1       1.289  -1.560 -25.479  1.00  0.00     0.019 A 
ATOM      2  C   UNL     1       0.357  -2.192 -24.655  1.00  0.00     0.094 A 
ATOM      3  C   UNL     1       0.806  -3.138 -23.727  1.00  0.00     0.336 A 
ATOM      4  O   UNL     1      -0.019  -3.718 -22.974  1.00  0.00    -0.246 OA
ATOM      5  O   UNL     1       2.101  -3.428 -23.633  1.00  0.00    -0.423 OA
ATOM      6  C   UNL     1       3.022  -2.849 -24.400  1.00  0.00     0.142 A 
ATOM      7  C   UNL     1       4.369  -3.194 -24.257  1.00  0.00     0.098 A 
ATOM      8  C   UNL     1       5.344  -2.590 -25.060  1.00  0.00     0.161 A 
ATOM      9  C   UNL     1       4.969  -1.630 -26.016  1.00  0.00     0.158 A 
ATOM     10  C   UNL     1       3.618  -1.279 -26.164  1.00  0.00     0.062 A 
ATOM     11  C   UNL     1       2.644  -1.885 -25.359  1.00  0.00     0.022 A 
ENDROOT
BRANCH   9  12
ATOM     12  O   UNL     1       5.938  -1.027 -26.817  1.00  0.00    -0.504 OA
ATOM     13  H   UNL     1       6.651  -1.571 -27.288  1.00  0.00     0.293 HD
ENDBRANCH   9  12
BRANCH   8  14
ATOM     14  O   UNL     1       6.679  -2.956 -24.893  1.00  0.00    -0.504 OA
ATOM     15  H   UNL     1       7.405  -2.650 -25.529  1.00  0.00     0.293 HD
ENDBRANCH   8  14
TORSDOF 2
ENDMDL
MODEL 9
REMARK VINA RESULT:    -5.378      1.875      4.932
REMARK INTER + INTRA:          -5.692
REMARK INTER:                  -5.692
REMARK INTRA:                   0.000
REMARK UNBOUND:                 0.000
REMARK SMILES O=c1ccc2cc(O)c(O)cc2o1
REMARK SMILES IDX 4 1 3 2 2 3 1 4 13 5 12 6 11 7 9 8 7 9 6 10 5 11 8 12 10 14
REMARK H PARENT 8 13 10 15
REMARK Flexibility Score: inf
ROOT
ATOM      1  C   UNL     1       0.992  -1.647 -23.618  1.00  0.00     0.019 A 
ATOM      2  C   UNL     1       0.243  -2.823 -23.605  1.00  0.00     0.094 A 
ATOM      3  C   UNL     1       0.911  -4.052 -23.597  1.00  0.00     0.336 A 
ATOM      4  O   UNL     1       0.253  -5.125 -23.585  1.00  0.00    -0.246 OA
ATOM      5  O   UNL     1       2.241  -4.096 -23.601  1.00  0.00    -0.423 OA
ATOM      6  C   UNL     1       2.994  -2.997 -23.614  1.00  0.00     0.142 A 
ATOM      7  C   UNL     1       4.387  -3.104 -23.617  1.00  0.00     0.098 A 
ATOM      8  C   UNL     1       5.185  -1.954 -23.631  1.00  0.00     0.161 A 
ATOM      9  C   UNL     1       4.585  -0.683 -23.640  1.00  0.00     0.158 A 
ATOM     10  C   UNL     1       3.185  -0.570 -23.636  1.00  0.00     0.062 A 
ATOM     11  C   UNL     1       2.388  -1.722 -23.622  1.00  0.00     0.022 A 
ENDROOT
BRANCH   9  12
ATOM     12  O   UNL     1       5.377   0.464 -23.653  1.00  0.00    -0.504 OA
ATOM     13  H   UNL     1       5.092   1.313 -23.179  1.00  0.00     0.293 HD
ENDBRANCH   9  12
BRANCH   8  14
ATOM     14  O   UNL     1       6.573  -2.094 -23.634  1.00  0.00    -0.504 OA
ATOM     15  H   UNL     1       7.106  -2.202 -22.780  1.00  0.00     0.293 HD
ENDBRANCH   8  14
TORSDOF 2
ENDMDL
