MODEL 1
REMARK VINA RESULT:    -5.160      0.000      0.000
REMARK INTER + INTRA:          -6.188
REMARK INTER:                  -6.065
REMARK INTRA:                  -0.124
REMARK UNBOUND:                -0.124
REMARK SMILES O=C([O-])C=Cc1ccc(O)c(O)c1
REMARK SMILES IDX 6 1 13 2 7 3 11 4 8 5 9 6 5 7 4 8 2 9 1 10 3 11 12 12 10 14
REMARK H PARENT 12 13 10 15
REMARK Flexibility Score: inf
ROOT
ATOM      1  C   UNL     1       7.933  -6.568  -7.600  1.00  0.00    -0.022 A 
ATOM      2  C   UNL     1       8.098  -5.437  -6.775  1.00  0.00     0.058 A 
ATOM      3  C   UNL     1       7.679  -7.811  -7.001  1.00  0.00     0.012 A 
ATOM      4  C   UNL     1       7.986  -5.548  -5.381  1.00  0.00     0.157 A 
ATOM      5  C   UNL     1       7.566  -7.924  -5.614  1.00  0.00     0.051 A 
ATOM      6  C   UNL     1       7.715  -6.798  -4.800  1.00  0.00     0.157 A 
ENDROOT
BRANCH   1   7
ATOM      7  C   UNL     1       8.054  -6.502  -9.078  1.00  0.00     0.010 C 
ATOM      8  C   UNL     1       8.063  -5.357  -9.775  1.00  0.00     0.025 C 
BRANCH   8   9
ATOM      9  C   UNL     1       8.171  -5.331 -11.243  1.00  0.00     0.064 C 
ATOM     10  O   UNL     1       7.648  -4.405 -11.920  1.00  0.00    -0.545 OA
ATOM     11  O   UNL     1       8.858  -6.346 -11.894  1.00  0.00    -0.545 OA
ENDBRANCH   8   9
ENDBRANCH   1   7
BRANCH   4  12
ATOM     12  O   UNL     1       8.149  -4.424  -4.573  1.00  0.00    -0.504 OA
ATOM     13  H   UNL     1       8.960  -4.310  -3.978  1.00  0.00     0.293 HD
ENDBRANCH   4  12
BRANCH   6  14
ATOM     14  O   UNL     1       7.595  -6.940  -3.417  1.00  0.00    -0.504 OA
ATOM     15  H   UNL     1       6.913  -6.417  -2.880  1.00  0.00     0.293 HD
ENDBRANCH   6  14
TORSDOF 4
ENDMDL
MODEL 2
REMARK VINA RESULT:    -4.820      1.936      2.432
REMARK INTER + INTRA:          -5.788
REMARK INTER:                  -5.657
REMARK INTRA:                  -0.131
REMARK UNBOUND:                -0.124
REMARK SMILES O=C([O-])C=Cc1ccc(O)c(O)c1
REMARK SMILES IDX 6 1 13 2 7 3 11 4 8 5 9 6 5 7 4 8 2 9 1 10 3 11 12 12 10 14
REMARK H PARENT 12 13 10 15
REMARK Flexibility Score: inf
ROOT
ATOM      1  C   UNL     1       9.303  -6.626  -8.353  1.00  0.00    -0.022 A 
ATOM      2  C   UNL     1      10.157  -5.926  -7.477  1.00  0.00     0.058 A 
ATOM      3  C   UNL     1       7.942  -6.737  -8.027  1.00  0.00     0.012 A 
ATOM      4  C   UNL     1       9.651  -5.329  -6.313  1.00  0.00     0.157 A 
ATOM      5  C   UNL     1       7.436  -6.142  -6.870  1.00  0.00     0.051 A 
ATOM      6  C   UNL     1       8.283  -5.436  -6.011  1.00  0.00     0.157 A 
ENDROOT
BRANCH   1   7
ATOM      7  C   UNL     1       9.794  -7.284  -9.589  1.00  0.00     0.010 C 
ATOM      8  C   UNL     1       9.473  -6.879 -10.827  1.00  0.00     0.025 C 
BRANCH   8   9
ATOM      9  C   UNL     1       9.969  -7.565 -12.032  1.00  0.00     0.064 C 
ATOM     10  O   UNL     1       9.184  -7.906 -12.957  1.00  0.00    -0.545 OA
ATOM     11  O   UNL     1      11.323  -7.843 -12.149  1.00  0.00    -0.545 OA
ENDBRANCH   8   9
ENDBRANCH   1   7
BRANCH   4  12
ATOM     12  O   UNL     1      10.502  -4.636  -5.453  1.00  0.00    -0.504 OA
ATOM     13  H   UNL     1      10.590  -4.887  -4.476  1.00  0.00     0.293 HD
ENDBRANCH   4  12
BRANCH   6  14
ATOM     14  O   UNL     1       7.749  -4.850  -4.863  1.00  0.00    -0.504 OA
ATOM     15  H   UNL     1       6.966  -5.255  -4.365  1.00  0.00     0.293 HD
ENDBRANCH   6  14
TORSDOF 4
ENDMDL
MODEL 3
REMARK VINA RESULT:    -4.785     15.217     16.019
REMARK INTER + INTRA:          -5.748
REMARK INTER:                  -5.607
REMARK INTRA:                  -0.141
REMARK UNBOUND:                -0.124
REMARK SMILES O=C([O-])C=Cc1ccc(O)c(O)c1
REMARK SMILES IDX 6 1 13 2 7 3 11 4 8 5 9 6 5 7 4 8 2 9 1 10 3 11 12 12 10 14
REMARK H PARENT 12 13 10 15
REMARK Flexibility Score: inf
ROOT
ATOM      1  C   UNL     1      10.897   4.090 -18.951  1.00  0.00    -0.022 A 
ATOM      2  C   UNL     1       9.613   4.276 -18.399  1.00  0.00     0.058 A 
ATOM      3  C   UNL     1      11.033   3.285 -20.093  1.00  0.00     0.012 A 
ATOM      4  C   UNL     1       8.488   3.686 -18.994  1.00  0.00     0.157 A 
ATOM      5  C   UNL     1       9.914   2.698 -20.688  1.00  0.00     0.051 A 
ATOM      6  C   UNL     1       8.641   2.896 -20.146  1.00  0.00     0.157 A 
ENDROOT
BRANCH   1   7
ATOM      7  C   UNL     1      12.117   4.684 -18.351  1.00  0.00     0.010 C 
ATOM      8  C   UNL     1      13.262   4.011 -18.170  1.00  0.00     0.025 C 
BRANCH   8   9
ATOM      9  C   UNL     1      14.450   4.630 -17.558  1.00  0.00     0.064 C 
ATOM     10  O   UNL     1      15.143   5.474 -18.188  1.00  0.00    -0.545 OA
ATOM     11  O   UNL     1      14.816   4.275 -16.267  1.00  0.00    -0.545 OA
ENDBRANCH   8   9
ENDBRANCH   1   7
BRANCH   4  12
ATOM     12  O   UNL     1       7.222   3.877 -18.443  1.00  0.00    -0.504 OA
ATOM     13  H   UNL     1       6.412   3.378 -18.788  1.00  0.00     0.293 HD
ENDBRANCH   4  12
BRANCH   6  14
ATOM     14  O   UNL     1       7.541   2.300 -20.763  1.00  0.00    -0.504 OA
ATOM     15  H   UNL     1       6.589   2.525 -20.500  1.00  0.00     0.293 HD
ENDBRANCH   6  14
TORSDOF 4
ENDMDL
MODEL 4
REMARK VINA RESULT:    -4.762     15.213     17.372
REMARK INTER + INTRA:          -5.720
REMARK INTER:                  -5.594
REMARK INTRA:                  -0.127
REMARK UNBOUND:                -0.124
REMARK SMILES O=C([O-])C=Cc1ccc(O)c(O)c1
REMARK SMILES IDX 6 1 13 2 7 3 11 4 8 5 9 6 5 7 4 8 2 9 1 10 3 11 12 12 10 14
REMARK H PARENT 12 13 10 15
REMARK Flexibility Score: inf
ROOT
ATOM      1  C   UNL     1      12.469   5.324 -18.892  1.00  0.00    -0.022 A 
ATOM      2  C   UNL     1      12.520   3.965 -18.521  1.00  0.00     0.058 A 
ATOM      3  C   UNL     1      11.638   5.703 -19.958  1.00  0.00     0.012 A 
ATOM      4  C   UNL     1      11.737   3.012 -19.189  1.00  0.00     0.157 A 
ATOM      5  C   UNL     1      10.857   4.757 -20.624  1.00  0.00     0.051 A 
ATOM      6  C   UNL     1      10.899   3.413 -20.244  1.00  0.00     0.157 A 
ENDROOT
BRANCH   1   7
ATOM      7  C   UNL     1      13.287   6.365 -18.223  1.00  0.00     0.010 C 
ATOM      8  C   UNL     1      14.571   6.610 -18.521  1.00  0.00     0.025 C 
BRANCH   8   9
ATOM      9  C   UNL     1      15.356   7.644 -17.826  1.00  0.00     0.064 C 
ATOM     10  O   UNL     1      14.996   8.852 -17.834  1.00  0.00    -0.545 OA
ATOM     11  O   UNL     1      16.516   7.283 -17.154  1.00  0.00    -0.545 OA
ENDBRANCH   8   9
ENDBRANCH   1   7
BRANCH   4  12
ATOM     12  O   UNL     1      11.792   1.671 -18.814  1.00  0.00    -0.504 OA
ATOM     13  H   UNL     1      11.726   0.926 -19.496  1.00  0.00     0.293 HD
ENDBRANCH   4  12
BRANCH   6  14
ATOM     14  O   UNL     1      10.105   2.490 -20.925  1.00  0.00    -0.504 OA
ATOM     15  H   UNL     1      10.502   1.779 -21.528  1.00  0.00     0.293 HD
ENDBRANCH   6  14
TORSDOF 4
ENDMDL
MODEL 5
REMARK VINA RESULT:    -4.687      1.332      2.403
REMARK INTER + INTRA:          -5.633
REMARK INTER:                  -5.481
REMARK INTRA:                  -0.152
REMARK UNBOUND:                -0.124
REMARK SMILES O=C([O-])C=Cc1ccc(O)c(O)c1
REMARK SMILES IDX 6 1 13 2 7 3 11 4 8 5 9 6 5 7 4 8 2 9 1 10 3 11 12 12 10 14
REMARK H PARENT 12 13 10 15
REMARK Flexibility Score: inf
ROOT
ATOM      1  C   UNL     1       8.004  -7.152  -7.237  1.00  0.00    -0.022 A 
ATOM      2  C   UNL     1       7.593  -7.853  -6.085  1.00  0.00     0.058 A 
ATOM      3  C   UNL     1       8.383  -5.806  -7.111  1.00  0.00     0.012 A 
ATOM      4  C   UNL     1       7.586  -7.224  -4.831  1.00  0.00     0.157 A 
ATOM      5  C   UNL     1       8.378  -5.179  -5.864  1.00  0.00     0.051 A 
ATOM      6  C   UNL     1       7.985  -5.881  -4.721  1.00  0.00     0.157 A 
ENDROOT
BRANCH   1   7
ATOM      7  C   UNL     1       8.016  -7.771  -8.585  1.00  0.00     0.010 C 
ATOM      8  C   UNL     1       8.046  -7.069  -9.728  1.00  0.00     0.025 C 
BRANCH   8   9
ATOM      9  C   UNL     1       8.045  -7.718 -11.049  1.00  0.00     0.064 C 
ATOM     10  O   UNL     1       8.378  -8.927 -11.183  1.00  0.00    -0.545 OA
ATOM     11  O   UNL     1       7.674  -6.986 -12.168  1.00  0.00    -0.545 OA
ENDBRANCH   8   9
ENDBRANCH   1   7
BRANCH   4  12
ATOM     12  O   UNL     1       7.181  -7.926  -3.697  1.00  0.00    -0.504 OA
ATOM     13  H   UNL     1       7.343  -7.567  -2.764  1.00  0.00     0.293 HD
ENDBRANCH   4  12
BRANCH   6  14
ATOM     14  O   UNL     1       7.993  -5.230  -3.488  1.00  0.00    -0.504 OA
ATOM     15  H   UNL     1       8.853  -4.943  -3.036  1.00  0.00     0.293 HD
ENDBRANCH   6  14
TORSDOF 4
ENDMDL
MODEL 6
REMARK VINA RESULT:    -4.647     14.790     16.092
REMARK INTER + INTRA:          -5.586
REMARK INTER:                  -5.463
REMARK INTRA:                  -0.123
REMARK UNBOUND:                -0.124
REMARK SMILES O=C([O-])C=Cc1ccc(O)c(O)c1
REMARK SMILES IDX 6 1 13 2 7 3 11 4 8 5 9 6 5 7 4 8 2 9 1 10 3 11 12 12 10 14
REMARK H PARENT 12 13 10 15
REMARK Flexibility Score: inf
ROOT
ATOM      1  C   UNL     1      11.557   3.763 -18.213  1.00  0.00    -0.022 A 
ATOM      2  C   UNL     1      11.670   3.425 -19.577  1.00  0.00     0.058 A 
ATOM      3  C   UNL     1      10.282   3.802 -17.628  1.00  0.00     0.012 A 
ATOM      4  C   UNL     1      10.529   3.108 -20.330  1.00  0.00     0.157 A 
ATOM      5  C   UNL     1       9.146   3.486 -18.375  1.00  0.00     0.051 A 
ATOM      6  C   UNL     1       9.262   3.136 -19.723  1.00  0.00     0.157 A 
ENDROOT
BRANCH   1   7
ATOM      7  C   UNL     1      12.733   4.117 -17.379  1.00  0.00     0.010 C 
ATOM      8  C   UNL     1      13.914   4.503 -17.882  1.00  0.00     0.025 C 
BRANCH   8   9
ATOM      9  C   UNL     1      15.064   4.834 -17.023  1.00  0.00     0.064 C 
ATOM     10  O   UNL     1      15.517   4.003 -16.191  1.00  0.00    -0.545 OA
ATOM     11  O   UNL     1      15.656   6.084 -17.129  1.00  0.00    -0.545 OA
ENDBRANCH   8   9
ENDBRANCH   1   7
BRANCH   4  12
ATOM     12  O   UNL     1      10.650   2.772 -21.677  1.00  0.00    -0.504 OA
ATOM     13  H   UNL     1      11.442   3.073 -22.231  1.00  0.00     0.293 HD
ENDBRANCH   4  12
BRANCH   6  14
ATOM     14  O   UNL     1       8.110   2.822 -20.445  1.00  0.00    -0.504 OA
ATOM     15  H   UNL     1       7.976   3.122 -21.403  1.00  0.00     0.293 HD
ENDBRANCH   6  14
TORSDOF 4
ENDMDL
MODEL 7
REMARK VINA RESULT:    -4.562     10.739     11.801
REMARK INTER + INTRA:          -5.486
REMARK INTER:                  -5.366
REMARK INTRA:                  -0.120
REMARK UNBOUND:                -0.124
REMARK SMILES O=C([O-])C=Cc1ccc(O)c(O)c1
REMARK SMILES IDX 6 1 13 2 7 3 11 4 8 5 9 6 5 7 4 8 2 9 1 10 3 11 12 12 10 14
REMARK H PARENT 12 13 10 15
REMARK Flexibility Score: inf
ROOT
ATOM      1  C   UNL     1       4.702   4.812  -9.355  1.00  0.00    -0.022 A 
ATOM      2  C   UNL     1       5.862   4.014  -9.421  1.00  0.00     0.058 A 
ATOM      3  C   UNL     1       3.924   4.782  -8.187  1.00  0.00     0.012 A 
ATOM      4  C   UNL     1       6.245   3.222  -8.328  1.00  0.00     0.157 A 
ATOM      5  C   UNL     1       4.305   3.996  -7.098  1.00  0.00     0.051 A 
ATOM      6  C   UNL     1       5.463   3.217  -7.160  1.00  0.00     0.157 A 
ENDROOT
BRANCH   1   7
ATOM      7  C   UNL     1       4.249   5.656 -10.489  1.00  0.00     0.010 C 
ATOM      8  C   UNL     1       4.992   6.628 -11.037  1.00  0.00     0.025 C 
BRANCH   8   9
ATOM      9  C   UNL     1       4.505   7.455 -12.154  1.00  0.00     0.064 C 
ATOM     10  O   UNL     1       3.923   8.554 -11.946  1.00  0.00    -0.545 OA
ATOM     11  O   UNL     1       4.686   7.016 -13.458  1.00  0.00    -0.545 OA
ENDBRANCH   8   9
ENDBRANCH   1   7
BRANCH   4  12
ATOM     12  O   UNL     1       7.396   2.438  -8.400  1.00  0.00    -0.504 OA
ATOM     13  H   UNL     1       7.379   1.450  -8.182  1.00  0.00     0.293 HD
ENDBRANCH   4  12
BRANCH   6  14
ATOM     14  O   UNL     1       5.821   2.443  -6.056  1.00  0.00    -0.504 OA
ATOM     15  H   UNL     1       6.067   1.464  -6.142  1.00  0.00     0.293 HD
ENDBRANCH   6  14
TORSDOF 4
ENDMDL
MODEL 8
REMARK VINA RESULT:    -4.534     11.698     14.812
REMARK INTER + INTRA:          -5.453
REMARK INTER:                  -5.329
REMARK INTRA:                  -0.123
REMARK UNBOUND:                -0.124
REMARK SMILES O=C([O-])C=Cc1ccc(O)c(O)c1
REMARK SMILES IDX 6 1 13 2 7 3 11 4 8 5 9 6 5 7 4 8 2 9 1 10 3 11 12 12 10 14
REMARK H PARENT 12 13 10 15
REMARK Flexibility Score: inf
ROOT
ATOM      1  C   UNL     1      18.256  -3.242 -16.821  1.00  0.00    -0.022 A 
ATOM      2  C   UNL     1      18.555  -1.943 -16.363  1.00  0.00     0.058 A 
ATOM      3  C   UNL     1      18.605  -3.595 -18.134  1.00  0.00     0.012 A 
ATOM      4  C   UNL     1      19.211  -1.026 -17.199  1.00  0.00     0.157 A 
ATOM      5  C   UNL     1      19.259  -2.684 -18.966  1.00  0.00     0.051 A 
ATOM      6  C   UNL     1      19.567  -1.402 -18.505  1.00  0.00     0.157 A 
ENDROOT
BRANCH   1   7
ATOM      7  C   UNL     1      17.554  -4.242 -15.979  1.00  0.00     0.010 C 
ATOM      8  C   UNL     1      16.616  -3.928 -15.074  1.00  0.00     0.025 C 
BRANCH   8   9
ATOM      9  C   UNL     1      15.949  -4.947 -14.246  1.00  0.00     0.064 C 
ATOM     10  O   UNL     1      15.400  -4.643 -13.153  1.00  0.00    -0.545 OA
ATOM     11  O   UNL     1      15.928  -6.267 -14.675  1.00  0.00    -0.545 OA
ENDBRANCH   8   9
ENDBRANCH   1   7
BRANCH   4  12
ATOM     12  O   UNL     1      19.505   0.256 -16.737  1.00  0.00    -0.504 OA
ATOM     13  H   UNL     1      19.114   1.081 -17.175  1.00  0.00     0.293 HD
ENDBRANCH   4  12
BRANCH   6  14
ATOM     14  O   UNL     1      20.224  -0.514 -19.357  1.00  0.00    -0.504 OA
ATOM     15  H   UNL     1      20.414  -0.738 -20.326  1.00  0.00     0.293 HD
ENDBRANCH   6  14
TORSDOF 4
ENDMDL
MODEL 9
REMARK VINA RESULT:    -4.482     21.818     23.097
REMARK INTER + INTRA:          -5.391
REMARK INTER:                  -5.267
REMARK INTRA:                  -0.124
REMARK UNBOUND:                -0.124
REMARK SMILES O=C([O-])C=Cc1ccc(O)c(O)c1
REMARK SMILES IDX 6 1 13 2 7 3 11 4 8 5 9 6 5 7 4 8 2 9 1 10 3 11 12 12 10 14
REMARK H PARENT 12 13 10 15
REMARK Flexibility Score: inf
ROOT
ATOM      1  C   UNL     1      20.033   7.770 -21.291  1.00  0.00    -0.022 A 
ATOM      2  C   UNL     1      18.990   7.504 -22.202  1.00  0.00     0.058 A 
ATOM      3  C   UNL     1      19.731   8.428 -20.089  1.00  0.00     0.012 A 
ATOM      4  C   UNL     1      17.669   7.870 -21.900  1.00  0.00     0.157 A 
ATOM      5  C   UNL     1      18.417   8.791 -19.786  1.00  0.00     0.051 A 
ATOM      6  C   UNL     1      17.383   8.514 -20.684  1.00  0.00     0.157 A 
ENDROOT
BRANCH   1   7
ATOM      7  C   UNL     1      21.446   7.413 -21.571  1.00  0.00     0.010 C 
ATOM      8  C   UNL     1      21.916   6.158 -21.548  1.00  0.00     0.025 C 
BRANCH   8   9
ATOM      9  C   UNL     1      23.329   5.842 -21.818  1.00  0.00     0.064 C 
ATOM     10  O   UNL     1      24.125   5.560 -20.881  1.00  0.00    -0.545 OA
ATOM     11  O   UNL     1      23.793   5.859 -23.125  1.00  0.00    -0.545 OA
ENDBRANCH   8   9
ENDBRANCH   1   7
BRANCH   4  12
ATOM     12  O   UNL     1      16.644   7.602 -22.806  1.00  0.00    -0.504 OA
ATOM     13  H   UNL     1      16.283   8.316 -23.426  1.00  0.00     0.293 HD
ENDBRANCH   4  12
BRANCH   6  14
ATOM     14  O   UNL     1      16.080   8.886 -20.355  1.00  0.00    -0.504 OA
ATOM     15  H   UNL     1      15.755   8.917 -19.396  1.00  0.00     0.293 HD
ENDBRANCH   6  14
TORSDOF 4
ENDMDL
