MODEL 1
REMARK VINA RESULT:    -1.521      0.000      0.000
REMARK INTER + INTRA:          -2.316
REMARK INTER:                  -1.833
REMARK INTRA:                  -0.483
REMARK UNBOUND:                -0.483
REMARK SMILES NC(=O)C[C@H]([NH3+])C(=O)[O-]
REMARK SMILES IDX 4 1 5 2 6 3 7 7 8 8 9 9 2 10 3 11 1 12
REMARK H PARENT 6 4 6 5 6 6 1 13 1 14
REMARK Flexibility Score: inf
ROOT
ATOM      1  C   UNL     1     152.258 136.645  96.979  1.00  0.00     0.171 C 
ENDROOT
BRANCH   1   2
ATOM      2  C   UNL     1     151.868 136.219  95.548  1.00  0.00     0.237 C 
BRANCH   2   3
ATOM      3  N   UNL     1     152.416 134.894  95.240  1.00  0.00    -0.350 N 
ATOM      4  H   UNL     1     152.598 134.369  96.127  1.00  0.00     0.345 HD
ATOM      5  H   UNL     1     153.312 134.979  94.703  1.00  0.00     0.345 HD
ATOM      6  H   UNL     1     151.727 134.347  94.673  1.00  0.00     0.345 HD
ENDBRANCH   2   3
BRANCH   2   7
ATOM      7  C   UNL     1     152.342 137.229  94.535  1.00  0.00     0.100 C 
ATOM      8  O   UNL     1     153.570 137.358  94.286  1.00  0.00    -0.544 OA
ATOM      9  O   UNL     1     151.421 138.035  93.875  1.00  0.00    -0.544 OA
ENDBRANCH   2   7
ENDBRANCH   1   2
BRANCH   1  10
ATOM     10  C   UNL     1     153.494 135.934  97.450  1.00  0.00     0.223 C 
ATOM     11  O   UNL     1     153.389 134.875  98.124  1.00  0.00    -0.275 OA
ATOM     12  N   UNL     1     154.788 136.431  97.108  1.00  0.00    -0.369 N 
ATOM     13  H   UNL     1     154.890 137.298  96.535  1.00  0.00     0.159 HD
ATOM     14  H   UNL     1     155.647 135.928  97.425  1.00  0.00     0.159 HD
ENDBRANCH   1  10
TORSDOF 4
ENDMDL
MODEL 2
REMARK VINA RESULT:    -1.380      1.443      3.726
REMARK INTER + INTRA:          -2.146
REMARK INTER:                  -1.673
REMARK INTRA:                  -0.473
REMARK UNBOUND:                -0.483
REMARK SMILES NC(=O)C[C@H]([NH3+])C(=O)[O-]
REMARK SMILES IDX 4 1 5 2 6 3 7 7 8 8 9 9 2 10 3 11 1 12
REMARK H PARENT 6 4 6 5 6 6 1 13 1 14
REMARK Flexibility Score: inf
ROOT
ATOM      1  C   UNL     1     152.302 137.665  95.932  1.00  0.00     0.171 C 
ENDROOT
BRANCH   1   2
ATOM      2  C   UNL     1     153.012 136.971  97.112  1.00  0.00     0.237 C 
BRANCH   2   3
ATOM      3  N   UNL     1     154.417 136.705  96.782  1.00  0.00    -0.350 N 
ATOM      4  H   UNL     1     154.844 137.552  96.340  1.00  0.00     0.345 HD
ATOM      5  H   UNL     1     154.495 135.898  96.119  1.00  0.00     0.345 HD
ATOM      6  H   UNL     1     154.952 136.486  97.654  1.00  0.00     0.345 HD
ENDBRANCH   2   3
BRANCH   2   7
ATOM      7  C   UNL     1     152.313 135.690  97.488  1.00  0.00     0.100 C 
ATOM      8  O   UNL     1     151.942 134.879  96.598  1.00  0.00    -0.544 OA
ATOM      9  O   UNL     1     152.061 135.403  98.824  1.00  0.00    -0.544 OA
ENDBRANCH   2   7
ENDBRANCH   1   2
BRANCH   1  10
ATOM     10  C   UNL     1     153.015 137.415  94.633  1.00  0.00     0.223 C 
ATOM     11  O   UNL     1     153.880 138.234  94.226  1.00  0.00    -0.275 OA
ATOM     12  N   UNL     1     152.742 136.236  93.875  1.00  0.00    -0.369 N 
ATOM     13  H   UNL     1     152.039 135.540  94.209  1.00  0.00     0.159 HD
ATOM     14  H   UNL     1     153.248 136.057  92.979  1.00  0.00     0.159 HD
ENDBRANCH   1  10
TORSDOF 4
ENDMDL
MODEL 3
REMARK VINA RESULT:    -1.306     22.978     23.790
REMARK INTER + INTRA:          -2.056
REMARK INTER:                  -1.583
REMARK INTRA:                  -0.473
REMARK UNBOUND:                -0.483
REMARK SMILES NC(=O)C[C@H]([NH3+])C(=O)[O-]
REMARK SMILES IDX 4 1 5 2 6 3 7 7 8 8 9 9 2 10 3 11 1 12
REMARK H PARENT 6 4 6 5 6 6 1 13 1 14
REMARK Flexibility Score: inf
ROOT
ATOM      1  C   UNL     1     137.250 152.380  96.018  1.00  0.00     0.171 C 
ENDROOT
BRANCH   1   2
ATOM      2  C   UNL     1     136.226 152.758  97.108  1.00  0.00     0.237 C 
BRANCH   2   3
ATOM      3  N   UNL     1     134.875 152.832  96.541  1.00  0.00    -0.350 N 
ATOM      4  H   UNL     1     134.932 153.012  95.512  1.00  0.00     0.345 HD
ATOM      5  H   UNL     1     134.325 153.601  96.992  1.00  0.00     0.345 HD
ATOM      6  H   UNL     1     134.378 151.923  96.686  1.00  0.00     0.345 HD
ENDBRANCH   2   3
BRANCH   2   7
ATOM      7  C   UNL     1     136.589 154.065  97.764  1.00  0.00     0.100 C 
ATOM      8  O   UNL     1     137.607 154.706  97.391  1.00  0.00    -0.544 OA
ATOM      9  O   UNL     1     135.806 154.564  98.798  1.00  0.00    -0.544 OA
ENDBRANCH   2   7
ENDBRANCH   1   2
BRANCH   1  10
ATOM     10  C   UNL     1     136.816 152.861  94.663  1.00  0.00     0.223 C 
ATOM     11  O   UNL     1     136.115 152.115  93.929  1.00  0.00    -0.275 OA
ATOM     12  N   UNL     1     137.166 154.170  94.215  1.00  0.00    -0.369 N 
ATOM     13  H   UNL     1     137.733 154.805  94.819  1.00  0.00     0.159 HD
ATOM     14  H   UNL     1     136.853 154.508  93.278  1.00  0.00     0.159 HD
ENDBRANCH   1  10
TORSDOF 4
ENDMDL
MODEL 4
REMARK VINA RESULT:    -1.304      2.178      3.838
REMARK INTER + INTRA:          -2.054
REMARK INTER:                  -1.704
REMARK INTRA:                  -0.350
REMARK UNBOUND:                -0.483
REMARK SMILES NC(=O)C[C@H]([NH3+])C(=O)[O-]
REMARK SMILES IDX 4 1 5 2 6 3 7 7 8 8 9 9 2 10 3 11 1 12
REMARK H PARENT 6 4 6 5 6 6 1 13 1 14
REMARK Flexibility Score: inf
ROOT
ATOM      1  C   UNL     1     153.522 137.441  96.204  1.00  0.00     0.171 C 
ENDROOT
BRANCH   1   2
ATOM      2  C   UNL     1     154.388 136.811  97.315  1.00  0.00     0.237 C 
BRANCH   2   3
ATOM      3  N   UNL     1     154.180 135.359  97.366  1.00  0.00    -0.350 N 
ATOM      4  H   UNL     1     153.620 135.111  98.214  1.00  0.00     0.345 HD
ATOM      5  H   UNL     1     155.098 134.855  97.403  1.00  0.00     0.345 HD
ATOM      6  H   UNL     1     153.650 135.045  96.521  1.00  0.00     0.345 HD
ENDBRANCH   2   3
BRANCH   2   7
ATOM      7  C   UNL     1     154.085 137.430  98.655  1.00  0.00     0.100 C 
ATOM      8  O   UNL     1     152.951 137.288  99.183  1.00  0.00    -0.544 OA
ATOM      9  O   UNL     1     155.058 138.174  99.311  1.00  0.00    -0.544 OA
ENDBRANCH   2   7
ENDBRANCH   1   2
BRANCH   1  10
ATOM     10  C   UNL     1     152.530 136.458  95.652  1.00  0.00     0.223 C 
ATOM     11  O   UNL     1     151.570 136.068  96.368  1.00  0.00    -0.275 OA
ATOM     12  N   UNL     1     152.649 135.988  94.309  1.00  0.00    -0.369 N 
ATOM     13  H   UNL     1     153.430 136.315  93.699  1.00  0.00     0.159 HD
ATOM     14  H   UNL     1     151.951 135.315  93.923  1.00  0.00     0.159 HD
ENDBRANCH   1  10
TORSDOF 4
ENDMDL
MODEL 5
REMARK VINA RESULT:    -1.272      1.855      2.027
REMARK INTER + INTRA:          -2.016
REMARK INTER:                  -1.666
REMARK INTRA:                  -0.350
REMARK UNBOUND:                -0.483
REMARK SMILES NC(=O)C[C@H]([NH3+])C(=O)[O-]
REMARK SMILES IDX 4 1 5 2 6 3 7 7 8 8 9 9 2 10 3 11 1 12
REMARK H PARENT 6 4 6 5 6 6 1 13 1 14
REMARK Flexibility Score: inf
ROOT
ATOM      1  C   UNL     1     152.723 136.014  96.706  1.00  0.00     0.171 C 
ENDROOT
BRANCH   1   2
ATOM      2  C   UNL     1     152.425 136.460  95.260  1.00  0.00     0.237 C 
BRANCH   2   3
ATOM      3  N   UNL     1     153.576 137.172  94.694  1.00  0.00    -0.350 N 
ATOM      4  H   UNL     1     153.683 138.102  95.161  1.00  0.00     0.345 HD
ATOM      5  H   UNL     1     153.452 137.319  93.665  1.00  0.00     0.345 HD
ATOM      6  H   UNL     1     154.451 136.622  94.859  1.00  0.00     0.345 HD
ENDBRANCH   2   3
BRANCH   2   7
ATOM      7  C   UNL     1     151.195 137.328  95.203  1.00  0.00     0.100 C 
ATOM      8  O   UNL     1     150.553 137.459  94.127  1.00  0.00    -0.544 OA
ATOM      9  O   UNL     1     150.767 138.002  96.341  1.00  0.00    -0.544 OA
ENDBRANCH   2   7
ENDBRANCH   1   2
BRANCH   1  10
ATOM     10  C   UNL     1     153.952 136.685  97.249  1.00  0.00     0.223 C 
ATOM     11  O   UNL     1     153.959 137.932  97.423  1.00  0.00    -0.275 OA
ATOM     12  N   UNL     1     155.100 135.913  97.601  1.00  0.00    -0.369 N 
ATOM     13  H   UNL     1     155.103 134.877  97.477  1.00  0.00     0.159 HD
ATOM     14  H   UNL     1     155.949 136.379  97.991  1.00  0.00     0.159 HD
ENDBRANCH   1  10
TORSDOF 4
ENDMDL
MODEL 6
REMARK VINA RESULT:    -1.262     22.863     23.512
REMARK INTER + INTRA:          -2.004
REMARK INTER:                  -1.526
REMARK INTRA:                  -0.478
REMARK UNBOUND:                -0.483
REMARK SMILES NC(=O)C[C@H]([NH3+])C(=O)[O-]
REMARK SMILES IDX 4 1 5 2 6 3 7 7 8 8 9 9 2 10 3 11 1 12
REMARK H PARENT 6 4 6 5 6 6 1 13 1 14
REMARK Flexibility Score: inf
ROOT
ATOM      1  C   UNL     1     137.253 152.735  96.572  1.00  0.00     0.171 C 
ENDROOT
BRANCH   1   2
ATOM      2  C   UNL     1     137.007 152.378  95.092  1.00  0.00     0.237 C 
BRANCH   2   3
ATOM      3  N   UNL     1     136.852 153.596  94.289  1.00  0.00    -0.350 N 
ATOM      4  H   UNL     1     136.060 154.169  94.662  1.00  0.00     0.345 HD
ATOM      5  H   UNL     1     136.658 153.358  93.287  1.00  0.00     0.345 HD
ATOM      6  H   UNL     1     137.724 154.171  94.342  1.00  0.00     0.345 HD
ENDBRANCH   2   3
BRANCH   2   7
ATOM      7  C   UNL     1     135.796 151.495  94.941  1.00  0.00     0.100 C 
ATOM      8  O   UNL     1     135.602 150.852  93.875  1.00  0.00    -0.544 OA
ATOM      9  O   UNL     1     134.875 151.396  95.977  1.00  0.00    -0.544 OA
ENDBRANCH   2   7
ENDBRANCH   1   2
BRANCH   1  10
ATOM     10  C   UNL     1     136.635 154.056  96.932  1.00  0.00     0.223 C 
ATOM     11  O   UNL     1     137.313 155.113  96.834  1.00  0.00    -0.275 OA
ATOM     12  N   UNL     1     135.272 154.125  97.352  1.00  0.00    -0.369 N 
ATOM     13  H   UNL     1     134.693 153.260  97.422  1.00  0.00     0.159 HD
ATOM     14  H   UNL     1     134.840 155.046  97.589  1.00  0.00     0.159 HD
ENDBRANCH   1  10
TORSDOF 4
ENDMDL
MODEL 7
REMARK VINA RESULT:    -1.201      2.351      2.790
REMARK INTER + INTRA:          -1.930
REMARK INTER:                  -1.418
REMARK INTRA:                  -0.513
REMARK UNBOUND:                -0.483
REMARK SMILES NC(=O)C[C@H]([NH3+])C(=O)[O-]
REMARK SMILES IDX 4 1 5 2 6 3 7 7 8 8 9 9 2 10 3 11 1 12
REMARK H PARENT 6 4 6 5 6 6 1 13 1 14
REMARK Flexibility Score: inf
ROOT
ATOM      1  C   UNL     1     152.264 138.023  96.783  1.00  0.00     0.171 C 
ENDROOT
BRANCH   1   2
ATOM      2  C   UNL     1     152.784 136.626  96.386  1.00  0.00     0.237 C 
BRANCH   2   3
ATOM      3  N   UNL     1     154.225 136.522  96.644  1.00  0.00    -0.350 N 
ATOM      4  H   UNL     1     154.676 137.459  96.524  1.00  0.00     0.345 HD
ATOM      5  H   UNL     1     154.671 135.841  95.984  1.00  0.00     0.345 HD
ATOM      6  H   UNL     1     154.388 136.205  97.627  1.00  0.00     0.345 HD
ENDBRANCH   2   3
BRANCH   2   7
ATOM      7  C   UNL     1     152.490 136.330  94.938  1.00  0.00     0.100 C 
ATOM      8  O   UNL     1     151.678 135.420  94.623  1.00  0.00    -0.544 OA
ATOM      9  O   UNL     1     153.128 137.054  93.938  1.00  0.00    -0.544 OA
ENDBRANCH   2   7
ENDBRANCH   1   2
BRANCH   1  10
ATOM     10  C   UNL     1     153.340 139.065  96.673  1.00  0.00     0.223 C 
ATOM     11  O   UNL     1     154.099 139.288  97.653  1.00  0.00    -0.275 OA
ATOM     12  N   UNL     1     153.529 139.781  95.452  1.00  0.00    -0.369 N 
ATOM     13  H   UNL     1     152.918 139.596  94.627  1.00  0.00     0.159 HD
ATOM     14  H   UNL     1     154.286 140.496  95.373  1.00  0.00     0.159 HD
ENDBRANCH   1  10
TORSDOF 4
ENDMDL
MODEL 8
REMARK VINA RESULT:    -0.383      1.812      2.203
REMARK INTER + INTRA:          -0.944
REMARK INTER:                  -0.470
REMARK INTRA:                  -0.474
REMARK UNBOUND:                -0.483
REMARK SMILES NC(=O)C[C@H]([NH3+])C(=O)[O-]
REMARK SMILES IDX 4 1 5 2 6 3 7 7 8 8 9 9 2 10 3 11 1 12
REMARK H PARENT 6 4 6 5 6 6 1 13 1 14
REMARK Flexibility Score: inf
ROOT
ATOM      1  C   UNL     1     153.459 136.823  96.641  1.00  0.00     0.171 C 
ENDROOT
BRANCH   1   2
ATOM      2  C   UNL     1     152.835 138.131  96.112  1.00  0.00     0.237 C 
BRANCH   2   3
ATOM      3  N   UNL     1     151.373 138.086  96.225  1.00  0.00    -0.350 N 
ATOM      4  H   UNL     1     150.969 139.021  95.988  1.00  0.00     0.345 HD
ATOM      5  H   UNL     1     151.085 137.826  97.198  1.00  0.00     0.345 HD
ATOM      6  H   UNL     1     150.986 137.383  95.554  1.00  0.00     0.345 HD
ENDBRANCH   2   3
BRANCH   2   7
ATOM      7  C   UNL     1     153.241 138.387  94.684  1.00  0.00     0.100 C 
ATOM      8  O   UNL     1     153.562 137.430  93.930  1.00  0.00    -0.544 OA
ATOM      9  O   UNL     1     153.275 139.686  94.193  1.00  0.00    -0.544 OA
ENDBRANCH   2   7
ENDBRANCH   1   2
BRANCH   1  10
ATOM     10  C   UNL     1     152.498 135.673  96.542  1.00  0.00     0.223 C 
ATOM     11  O   UNL     1     151.711 135.430  97.495  1.00  0.00    -0.275 OA
ATOM     12  N   UNL     1     152.447 134.875  95.359  1.00  0.00    -0.369 N 
ATOM     13  H   UNL     1     153.082 135.075  94.555  1.00  0.00     0.159 HD
ATOM     14  H   UNL     1     151.770 134.084  95.286  1.00  0.00     0.159 HD
ENDBRANCH   1  10
TORSDOF 4
ENDMDL
