MODEL 1
REMARK VINA RESULT:     8.577      0.000      0.000
REMARK INTER + INTRA:          15.208
REMARK INTER:                  15.596
REMARK INTRA:                  -0.388
REMARK UNBOUND:                -0.388
REMARK SMILES CCCCCCCCCCCCCC[C@H](C)C(=O)[O-]
REMARK SMILES IDX 9 1 10 2 11 3 12 4 13 5 14 6 15 7 16 8 17 9 18 10 19 11 8 12
REMARK SMILES IDX 7 13 6 14 5 15 4 16 3 17 2 18 1 19
REMARK H PARENT
REMARK Flexibility Score: inf
ROOT
ATOM      1  C   UNL     1     -11.294  19.004 -15.716  1.00  0.00     0.000 C 
ENDROOT
BRANCH   1   2
ATOM      2  C   UNL     1     -11.052  19.788 -17.022  1.00  0.00     0.000 C 
BRANCH   2   3
ATOM      3  C   UNL     1     -11.336  19.001 -18.317  1.00  0.00     0.000 C 
BRANCH   3   4
ATOM      4  C   UNL     1     -11.848  19.850 -19.498  1.00  0.00     0.000 C 
BRANCH   4   5
ATOM      5  C   UNL     1     -13.074  19.276 -20.232  1.00  0.00     0.001 C 
BRANCH   5   6
ATOM      6  C   UNL     1     -13.954  20.370 -20.869  1.00  0.00     0.009 C 
BRANCH   6   7
ATOM      7  C   UNL     1     -13.909  20.403 -22.412  1.00  0.00     0.032 C 
ATOM      8  C   UNL     1     -14.480  19.130 -23.052  1.00  0.00     0.014 C 
BRANCH   7   9
ATOM      9  C   UNL     1     -12.524  20.707 -22.922  1.00  0.00     0.044 C 
ATOM     10  O   UNL     1     -12.179  21.901 -23.124  1.00  0.00    -0.550 OA
ATOM     11  O   UNL     1     -11.600  19.687 -23.121  1.00  0.00    -0.550 OA
ENDBRANCH   7   9
ENDBRANCH   6   7
ENDBRANCH   5   6
ENDBRANCH   4   5
ENDBRANCH   3   4
ENDBRANCH   2   3
ENDBRANCH   1   2
BRANCH   1  12
ATOM     12  C   UNL     1     -12.270  19.673 -14.731  1.00  0.00     0.000 C 
BRANCH  12  13
ATOM     13  C   UNL     1     -11.920  19.386 -13.260  1.00  0.00    -0.000 C 
BRANCH  13  14
ATOM     14  C   UNL     1     -13.143  19.493 -12.335  1.00  0.00    -0.000 C 
BRANCH  14  15
ATOM     15  C   UNL     1     -13.087  18.492 -11.168  1.00  0.00    -0.000 C 
BRANCH  15  16
ATOM     16  C   UNL     1     -12.562  19.123  -9.866  1.00  0.00    -0.000 C 
BRANCH  16  17
ATOM     17  C   UNL     1     -13.568  19.135  -8.697  1.00  0.00    -0.000 C 
BRANCH  17  18
ATOM     18  C   UNL     1     -13.148  19.987  -7.487  1.00  0.00    -0.003 C 
ATOM     19  C   UNL     1     -12.129  21.069  -7.846  1.00  0.00     0.004 C 
ENDBRANCH  17  18
ENDBRANCH  16  17
ENDBRANCH  15  16
ENDBRANCH  14  15
ENDBRANCH  13  14
ENDBRANCH  12  13
ENDBRANCH   1  12
TORSDOF 14
ENDMDL
MODEL 2
REMARK VINA RESULT:     9.421      1.412      1.634
REMARK INTER + INTRA:          16.743
REMARK INTER:                  17.385
REMARK INTRA:                  -0.642
REMARK UNBOUND:                -0.388
REMARK SMILES CCCCCCCCCCCCCC[C@H](C)C(=O)[O-]
REMARK SMILES IDX 9 1 10 2 11 3 12 4 13 5 14 6 15 7 16 8 17 9 18 10 19 11 8 12
REMARK SMILES IDX 7 13 6 14 5 15 4 16 3 17 2 18 1 19
REMARK H PARENT
REMARK Flexibility Score: inf
ROOT
ATOM      1  C   UNL     1     -13.297  18.413 -16.017  1.00  0.00     0.000 C 
ENDROOT
BRANCH   1   2
ATOM      2  C   UNL     1     -14.541  17.801 -16.694  1.00  0.00     0.000 C 
BRANCH   2   3
ATOM      3  C   UNL     1     -14.520  17.818 -18.235  1.00  0.00     0.000 C 
BRANCH   3   4
ATOM      4  C   UNL     1     -14.701  19.209 -18.875  1.00  0.00     0.000 C 
BRANCH   4   5
ATOM      5  C   UNL     1     -13.709  19.542 -20.005  1.00  0.00     0.001 C 
BRANCH   5   6
ATOM      6  C   UNL     1     -14.226  20.649 -20.946  1.00  0.00     0.009 C 
BRANCH   6   7
ATOM      7  C   UNL     1     -14.042  20.342 -22.448  1.00  0.00     0.032 C 
ATOM      8  C   UNL     1     -14.529  18.938 -22.833  1.00  0.00     0.014 C 
BRANCH   7   9
ATOM      9  C   UNL     1     -12.623  20.579 -22.895  1.00  0.00     0.044 C 
ATOM     10  O   UNL     1     -12.226  21.752 -23.125  1.00  0.00    -0.550 OA
ATOM     11  O   UNL     1     -11.726  19.523 -23.005  1.00  0.00    -0.550 OA
ENDBRANCH   7   9
ENDBRANCH   6   7
ENDBRANCH   5   6
ENDBRANCH   4   5
ENDBRANCH   3   4
ENDBRANCH   2   3
ENDBRANCH   1   2
BRANCH   1  12
ATOM     12  C   UNL     1     -13.418  18.606 -14.495  1.00  0.00     0.000 C 
BRANCH  12  13
ATOM     13  C   UNL     1     -12.192  19.308 -13.885  1.00  0.00    -0.000 C 
BRANCH  13  14
ATOM     14  C   UNL     1     -12.370  19.605 -12.388  1.00  0.00    -0.000 C 
BRANCH  14  15
ATOM     15  C   UNL     1     -13.144  18.495 -11.656  1.00  0.00    -0.000 C 
BRANCH  15  16
ATOM     16  C   UNL     1     -13.810  18.988 -10.359  1.00  0.00    -0.000 C 
BRANCH  16  17
ATOM     17  C   UNL     1     -13.027  20.079  -9.599  1.00  0.00    -0.000 C 
BRANCH  17  18
ATOM     18  C   UNL     1     -12.686  19.736  -8.139  1.00  0.00    -0.003 C 
ATOM     19  C   UNL     1     -12.297  20.963  -7.314  1.00  0.00     0.004 C 
ENDBRANCH  17  18
ENDBRANCH  16  17
ENDBRANCH  15  16
ENDBRANCH  14  15
ENDBRANCH  13  14
ENDBRANCH  12  13
ENDBRANCH   1  12
TORSDOF 14
ENDMDL
MODEL 3
REMARK VINA RESULT:     9.942      5.274     11.047
REMARK INTER + INTRA:          17.691
REMARK INTER:                  18.252
REMARK INTRA:                  -0.561
REMARK UNBOUND:                -0.388
REMARK SMILES CCCCCCCCCCCCCC[C@H](C)C(=O)[O-]
REMARK SMILES IDX 9 1 10 2 11 3 12 4 13 5 14 6 15 7 16 8 17 9 18 10 19 11 8 12
REMARK SMILES IDX 7 13 6 14 5 15 4 16 3 17 2 18 1 19
REMARK H PARENT
REMARK Flexibility Score: inf
ROOT
ATOM      1  C   UNL     1     -13.486  18.329 -15.455  1.00  0.00     0.000 C 
ENDROOT
BRANCH   1   2
ATOM      2  C   UNL     1     -12.068  18.848 -15.139  1.00  0.00     0.000 C 
BRANCH   2   3
ATOM      3  C   UNL     1     -11.890  19.434 -13.724  1.00  0.00     0.000 C 
BRANCH   3   4
ATOM      4  C   UNL     1     -13.154  19.407 -12.841  1.00  0.00     0.000 C 
BRANCH   4   5
ATOM      5  C   UNL     1     -13.042  18.549 -11.567  1.00  0.00     0.001 C 
BRANCH   5   6
ATOM      6  C   UNL     1     -13.469  19.311 -10.297  1.00  0.00     0.009 C 
BRANCH   6   7
ATOM      7  C   UNL     1     -12.456  19.225  -9.134  1.00  0.00     0.032 C 
ATOM      8  C   UNL     1     -12.269  17.793  -8.612  1.00  0.00     0.014 C 
BRANCH   7   9
ATOM      9  C   UNL     1     -12.804  20.179  -8.021  1.00  0.00     0.044 C 
ATOM     10  O   UNL     1     -12.108  21.213  -7.841  1.00  0.00    -0.550 OA
ATOM     11  O   UNL     1     -13.920  19.962  -7.221  1.00  0.00    -0.550 OA
ENDBRANCH   7   9
ENDBRANCH   6   7
ENDBRANCH   5   6
ENDBRANCH   4   5
ENDBRANCH   3   4
ENDBRANCH   2   3
ENDBRANCH   1   2
BRANCH   1  12
ATOM     12  C   UNL     1     -13.618  17.588 -16.798  1.00  0.00     0.000 C 
BRANCH  12  13
ATOM     13  C   UNL     1     -14.637  18.248 -17.744  1.00  0.00    -0.000 C 
BRANCH  13  14
ATOM     14  C   UNL     1     -13.984  18.785 -19.027  1.00  0.00    -0.000 C 
BRANCH  14  15
ATOM     15  C   UNL     1     -14.851  19.845 -19.729  1.00  0.00    -0.000 C 
BRANCH  15  16
ATOM     16  C   UNL     1     -14.070  20.648 -20.785  1.00  0.00    -0.000 C 
BRANCH  16  17
ATOM     17  C   UNL     1     -14.036  20.014 -22.191  1.00  0.00    -0.000 C 
BRANCH  17  18
ATOM     18  C   UNL     1     -12.917  20.533 -23.110  1.00  0.00    -0.003 C 
ATOM     19  C   UNL     1     -11.571  19.855 -22.852  1.00  0.00     0.004 C 
ENDBRANCH  17  18
ENDBRANCH  16  17
ENDBRANCH  15  16
ENDBRANCH  14  15
ENDBRANCH  13  14
ENDBRANCH  12  13
ENDBRANCH   1  12
TORSDOF 14
ENDMDL
MODEL 4
REMARK VINA RESULT:    11.482     12.471     15.555
REMARK INTER + INTRA:          20.491
REMARK INTER:                  20.738
REMARK INTRA:                  -0.246
REMARK UNBOUND:                -0.388
REMARK SMILES CCCCCCCCCCCCCC[C@H](C)C(=O)[O-]
REMARK SMILES IDX 9 1 10 2 11 3 12 4 13 5 14 6 15 7 16 8 17 9 18 10 19 11 8 12
REMARK SMILES IDX 7 13 6 14 5 15 4 16 3 17 2 18 1 19
REMARK H PARENT
REMARK Flexibility Score: inf
ROOT
ATOM      1  C   UNL     1      -7.415   7.188 -19.155  1.00  0.00     0.000 C 
ENDROOT
BRANCH   1   2
ATOM      2  C   UNL     1      -7.495   8.183 -17.980  1.00  0.00     0.000 C 
BRANCH   2   3
ATOM      3  C   UNL     1      -8.464   9.364 -18.190  1.00  0.00     0.000 C 
BRANCH   3   4
ATOM      4  C   UNL     1      -8.144  10.626 -17.364  1.00  0.00     0.000 C 
BRANCH   4   5
ATOM      5  C   UNL     1      -6.977  11.477 -17.899  1.00  0.00     0.001 C 
BRANCH   5   6
ATOM      6  C   UNL     1      -5.909  11.765 -16.825  1.00  0.00     0.009 C 
BRANCH   6   7
ATOM      7  C   UNL     1      -4.890  12.857 -17.219  1.00  0.00     0.032 C 
ATOM      8  C   UNL     1      -3.444  12.342 -17.240  1.00  0.00     0.014 C 
BRANCH   7   9
ATOM      9  C   UNL     1      -5.029  14.085 -16.357  1.00  0.00     0.044 C 
ATOM     10  O   UNL     1      -4.003  14.736 -16.024  1.00  0.00    -0.550 OA
ATOM     11  O   UNL     1      -6.282  14.544 -15.969  1.00  0.00    -0.550 OA
ENDBRANCH   7   9
ENDBRANCH   6   7
ENDBRANCH   5   6
ENDBRANCH   4   5
ENDBRANCH   3   4
ENDBRANCH   2   3
ENDBRANCH   1   2
BRANCH   1  12
ATOM     12  C   UNL     1      -7.711   5.723 -18.783  1.00  0.00     0.000 C 
BRANCH  12  13
ATOM     13  C   UNL     1      -8.060   4.857 -20.007  1.00  0.00    -0.000 C 
BRANCH  13  14
ATOM     14  C   UNL     1      -6.877   3.993 -20.470  1.00  0.00    -0.000 C 
BRANCH  14  15
ATOM     15  C   UNL     1      -7.271   3.000 -21.576  1.00  0.00    -0.000 C 
BRANCH  15  16
ATOM     16  C   UNL     1      -7.847   3.694 -22.823  1.00  0.00    -0.000 C 
BRANCH  16  17
ATOM     17  C   UNL     1      -7.607   5.216 -22.891  1.00  0.00    -0.000 C 
BRANCH  17  18
ATOM     18  C   UNL     1      -8.869   6.064 -23.124  1.00  0.00    -0.003 C 
ATOM     19  C   UNL     1     -10.153   5.233 -23.120  1.00  0.00     0.004 C 
ENDBRANCH  17  18
ENDBRANCH  16  17
ENDBRANCH  15  16
ENDBRANCH  14  15
ENDBRANCH  13  14
ENDBRANCH  12  13
ENDBRANCH   1  12
TORSDOF 14
ENDMDL
