MODEL 1
REMARK VINA RESULT:    -3.274      0.000      0.000
REMARK INTER + INTRA:          -4.404
REMARK INTER:                  -4.231
REMARK INTRA:                  -0.173
REMARK UNBOUND:                -0.173
REMARK SMILES CCCCCCC(=O)[O-]
REMARK SMILES IDX 5 1 6 2 7 3 8 4 9 5 4 6 3 7 2 8 1 9
REMARK H PARENT
REMARK Flexibility Score: inf
ROOT
ATOM      1  C   UNL     1      56.980  28.287  50.749  1.00  0.00     0.006 C 
ENDROOT
BRANCH   1   2
ATOM      2  C   UNL     1      58.086  29.147  50.123  1.00  0.00     0.053 C 
BRANCH   2   3
ATOM      3  C   UNL     1      59.330  28.354  49.866  1.00  0.00     0.041 C 
ATOM      4  O   UNL     1      59.253  27.128  49.588  1.00  0.00    -0.550 OA
ATOM      5  O   UNL     1      60.576  28.960  49.968  1.00  0.00    -0.550 OA
ENDBRANCH   2   3
ENDBRANCH   1   2
BRANCH   1   6
ATOM      6  C   UNL     1      55.641  29.036  50.838  1.00  0.00     0.000 C 
BRANCH   6   7
ATOM      7  C   UNL     1      54.475  28.127  50.435  1.00  0.00    -0.000 C 
BRANCH   7   8
ATOM      8  C   UNL     1      54.952  26.687  50.211  1.00  0.00    -0.003 C 
ATOM      9  C   UNL     1      53.851  25.832  49.589  1.00  0.00     0.004 C 
ENDBRANCH   7   8
ENDBRANCH   6   7
ENDBRANCH   1   6
TORSDOF 5
ENDMDL
MODEL 2
REMARK VINA RESULT:    -3.263      0.369      1.122
REMARK INTER + INTRA:          -4.390
REMARK INTER:                  -4.182
REMARK INTRA:                  -0.208
REMARK UNBOUND:                -0.173
REMARK SMILES CCCCCCC(=O)[O-]
REMARK SMILES IDX 5 1 6 2 7 3 8 4 9 5 4 6 3 7 2 8 1 9
REMARK H PARENT
REMARK Flexibility Score: inf
ROOT
ATOM      1  C   UNL     1      57.038  28.380  50.973  1.00  0.00     0.006 C 
ENDROOT
BRANCH   1   2
ATOM      2  C   UNL     1      58.153  28.990  50.113  1.00  0.00     0.053 C 
BRANCH   2   3
ATOM      3  C   UNL     1      59.234  27.998  49.817  1.00  0.00     0.041 C 
ATOM      4  O   UNL     1      60.403  28.393  49.564  1.00  0.00    -0.550 OA
ATOM      5  O   UNL     1      58.945  26.639  49.787  1.00  0.00    -0.550 OA
ENDBRANCH   2   3
ENDBRANCH   1   2
BRANCH   1   6
ATOM      6  C   UNL     1      55.717  29.156  50.849  1.00  0.00     0.000 C 
BRANCH   6   7
ATOM      7  C   UNL     1      54.562  28.219  50.481  1.00  0.00    -0.000 C 
BRANCH   7   8
ATOM      8  C   UNL     1      55.054  26.775  50.323  1.00  0.00    -0.003 C 
ATOM      9  C   UNL     1      54.021  25.917  49.597  1.00  0.00     0.004 C 
ENDBRANCH   7   8
ENDBRANCH   6   7
ENDBRANCH   1   6
TORSDOF 5
ENDMDL
MODEL 3
REMARK VINA RESULT:    -3.166      1.253      2.148
REMARK INTER + INTRA:          -4.265
REMARK INTER:                  -4.056
REMARK INTRA:                  -0.209
REMARK UNBOUND:                -0.173
REMARK SMILES CCCCCCC(=O)[O-]
REMARK SMILES IDX 5 1 6 2 7 3 8 4 9 5 4 6 3 7 2 8 1 9
REMARK H PARENT
REMARK Flexibility Score: inf
ROOT
ATOM      1  C   UNL     1      57.487  27.378  50.878  1.00  0.00     0.006 C 
ENDROOT
BRANCH   1   2
ATOM      2  C   UNL     1      58.705  27.007  50.021  1.00  0.00     0.053 C 
BRANCH   2   3
ATOM      3  C   UNL     1      59.479  28.218  49.601  1.00  0.00     0.041 C 
ATOM      4  O   UNL     1      60.739  28.203  49.622  1.00  0.00    -0.550 OA
ATOM      5  O   UNL     1      58.812  29.375  49.218  1.00  0.00    -0.550 OA
ENDBRANCH   2   3
ENDBRANCH   1   2
BRANCH   1   6
ATOM      6  C   UNL     1      56.274  26.483  50.582  1.00  0.00     0.000 C 
BRANCH   6   7
ATOM      7  C   UNL     1      55.009  27.324  50.372  1.00  0.00    -0.000 C 
BRANCH   7   8
ATOM      8  C   UNL     1      55.264  28.795  50.717  1.00  0.00    -0.003 C 
ATOM      9  C   UNL     1      53.974  29.609  50.651  1.00  0.00     0.004 C 
ENDBRANCH   7   8
ENDBRANCH   6   7
ENDBRANCH   1   6
TORSDOF 5
ENDMDL
MODEL 4
REMARK VINA RESULT:    -3.062      1.620      2.357
REMARK INTER + INTRA:          -4.130
REMARK INTER:                  -3.878
REMARK INTRA:                  -0.252
REMARK UNBOUND:                -0.173
REMARK SMILES CCCCCCC(=O)[O-]
REMARK SMILES IDX 5 1 6 2 7 3 8 4 9 5 4 6 3 7 2 8 1 9
REMARK H PARENT
REMARK Flexibility Score: inf
ROOT
ATOM      1  C   UNL     1      58.703  29.454  49.590  1.00  0.00     0.006 C 
ENDROOT
BRANCH   1   2
ATOM      2  C   UNL     1      59.568  28.188  49.549  1.00  0.00     0.053 C 
BRANCH   2   3
ATOM      3  C   UNL     1      60.884  28.390  50.234  1.00  0.00     0.041 C 
ATOM      4  O   UNL     1      60.921  28.746  51.442  1.00  0.00    -0.550 OA
ATOM      5  O   UNL     1      62.069  28.218  49.531  1.00  0.00    -0.550 OA
ENDBRANCH   2   3
ENDBRANCH   1   2
BRANCH   1   6
ATOM      6  C   UNL     1      57.555  29.343  50.605  1.00  0.00     0.000 C 
BRANCH   6   7
ATOM      7  C   UNL     1      57.053  27.898  50.711  1.00  0.00    -0.000 C 
BRANCH   7   8
ATOM      8  C   UNL     1      55.523  27.841  50.637  1.00  0.00    -0.003 C 
ATOM      9  C   UNL     1      54.912  29.233  50.780  1.00  0.00     0.004 C 
ENDBRANCH   7   8
ENDBRANCH   6   7
ENDBRANCH   1   6
TORSDOF 5
ENDMDL
MODEL 5
REMARK VINA RESULT:    -3.047      2.663      4.865
REMARK INTER + INTRA:          -4.111
REMARK INTER:                  -3.964
REMARK INTRA:                  -0.148
REMARK UNBOUND:                -0.173
REMARK SMILES CCCCCCC(=O)[O-]
REMARK SMILES IDX 5 1 6 2 7 3 8 4 9 5 4 6 3 7 2 8 1 9
REMARK H PARENT
REMARK Flexibility Score: inf
ROOT
ATOM      1  C   UNL     1      56.837  28.369  50.753  1.00  0.00     0.006 C 
ENDROOT
BRANCH   1   2
ATOM      2  C   UNL     1      55.370  28.818  50.745  1.00  0.00     0.053 C 
BRANCH   2   3
ATOM      3  C   UNL     1      54.449  27.706  50.350  1.00  0.00     0.041 C 
ATOM      4  O   UNL     1      53.203  27.892  50.335  1.00  0.00    -0.550 OA
ATOM      5  O   UNL     1      54.962  26.455  50.033  1.00  0.00    -0.550 OA
ENDBRANCH   2   3
ENDBRANCH   1   2
BRANCH   1   6
ATOM      6  C   UNL     1      57.810  29.558  50.746  1.00  0.00     0.000 C 
BRANCH   6   7
ATOM      7  C   UNL     1      58.785  29.464  49.567  1.00  0.00    -0.000 C 
BRANCH   7   8
ATOM      8  C   UNL     1      59.474  28.094  49.531  1.00  0.00    -0.003 C 
ATOM      9  C   UNL     1      60.946  28.207  49.918  1.00  0.00     0.004 C 
ENDBRANCH   7   8
ENDBRANCH   6   7
ENDBRANCH   1   6
TORSDOF 5
ENDMDL
MODEL 6
REMARK VINA RESULT:    -3.022      3.365      4.962
REMARK INTER + INTRA:          -4.079
REMARK INTER:                  -3.865
REMARK INTRA:                  -0.214
REMARK UNBOUND:                -0.173
REMARK SMILES CCCCCCC(=O)[O-]
REMARK SMILES IDX 5 1 6 2 7 3 8 4 9 5 4 6 3 7 2 8 1 9
REMARK H PARENT
REMARK Flexibility Score: inf
ROOT
ATOM      1  C   UNL     1      55.233  28.113  50.671  1.00  0.00     0.006 C 
ENDROOT
BRANCH   1   2
ATOM      2  C   UNL     1      55.356  26.636  50.273  1.00  0.00     0.053 C 
BRANCH   2   3
ATOM      3  C   UNL     1      54.025  25.952  50.254  1.00  0.00     0.041 C 
ATOM      4  O   UNL     1      53.455  25.706  49.158  1.00  0.00    -0.550 OA
ATOM      5  O   UNL     1      53.396  25.616  51.446  1.00  0.00    -0.550 OA
ENDBRANCH   2   3
ENDBRANCH   1   2
BRANCH   1   6
ATOM      6  C   UNL     1      56.594  28.827  50.687  1.00  0.00     0.000 C 
BRANCH   6   7
ATOM      7  C   UNL     1      57.745  27.814  50.702  1.00  0.00    -0.000 C 
BRANCH   7   8
ATOM      8  C   UNL     1      58.918  28.302  49.844  1.00  0.00    -0.003 C 
ATOM      9  C   UNL     1      58.753  29.772  49.469  1.00  0.00     0.004 C 
ENDBRANCH   7   8
ENDBRANCH   6   7
ENDBRANCH   1   6
TORSDOF 5
ENDMDL
MODEL 7
REMARK VINA RESULT:    -2.867      3.412      4.938
REMARK INTER + INTRA:          -3.878
REMARK INTER:                  -3.609
REMARK INTRA:                  -0.270
REMARK UNBOUND:                -0.173
REMARK SMILES CCCCCCC(=O)[O-]
REMARK SMILES IDX 5 1 6 2 7 3 8 4 9 5 4 6 3 7 2 8 1 9
REMARK H PARENT
REMARK Flexibility Score: inf
ROOT
ATOM      1  C   UNL     1      55.900  27.644  51.416  1.00  0.00     0.006 C 
ENDROOT
BRANCH   1   2
ATOM      2  C   UNL     1      55.358  28.915  50.750  1.00  0.00     0.053 C 
BRANCH   2   3
ATOM      3  C   UNL     1      53.914  28.776  50.378  1.00  0.00     0.041 C 
ATOM      4  O   UNL     1      53.162  29.787  50.374  1.00  0.00    -0.550 OA
ATOM      5  O   UNL     1      53.389  27.527  50.072  1.00  0.00    -0.550 OA
ENDBRANCH   2   3
ENDBRANCH   1   2
BRANCH   1   6
ATOM      6  C   UNL     1      57.066  27.026  50.628  1.00  0.00     0.000 C 
BRANCH   6   7
ATOM      7  C   UNL     1      58.392  27.708  50.983  1.00  0.00    -0.000 C 
BRANCH   7   8
ATOM      8  C   UNL     1      59.088  28.243  49.726  1.00  0.00    -0.003 C 
ATOM      9  C   UNL     1      58.791  29.726  49.520  1.00  0.00     0.004 C 
ENDBRANCH   7   8
ENDBRANCH   6   7
ENDBRANCH   1   6
TORSDOF 5
ENDMDL
MODEL 8
REMARK VINA RESULT:    -2.815     12.446     13.771
REMARK INTER + INTRA:          -3.811
REMARK INTER:                  -3.664
REMARK INTRA:                  -0.148
REMARK UNBOUND:                -0.173
REMARK SMILES CCCCCCC(=O)[O-]
REMARK SMILES IDX 5 1 6 2 7 3 8 4 9 5 4 6 3 7 2 8 1 9
REMARK H PARENT
REMARK Flexibility Score: inf
ROOT
ATOM      1  C   UNL     1      63.219  31.702  59.624  1.00  0.00     0.006 C 
ENDROOT
BRANCH   1   2
ATOM      2  C   UNL     1      63.712  31.136  60.962  1.00  0.00     0.053 C 
BRANCH   2   3
ATOM      3  C   UNL     1      63.301  29.708  61.149  1.00  0.00     0.041 C 
ATOM      4  O   UNL     1      64.055  28.777  60.762  1.00  0.00    -0.550 OA
ATOM      5  O   UNL     1      62.070  29.406  61.717  1.00  0.00    -0.550 OA
ENDBRANCH   2   3
ENDBRANCH   1   2
BRANCH   1   6
ATOM      6  C   UNL     1      62.787  33.172  59.738  1.00  0.00     0.000 C 
BRANCH   6   7
ATOM      7  C   UNL     1      63.579  33.894  60.834  1.00  0.00    -0.000 C 
BRANCH   7   8
ATOM      8  C   UNL     1      62.869  35.182  61.267  1.00  0.00    -0.003 C 
ATOM      9  C   UNL     1      63.531  35.788  62.502  1.00  0.00     0.004 C 
ENDBRANCH   7   8
ENDBRANCH   6   7
ENDBRANCH   1   6
TORSDOF 5
ENDMDL
MODEL 9
REMARK VINA RESULT:    -2.654     17.514     18.408
REMARK INTER + INTRA:          -3.603
REMARK INTER:                  -3.374
REMARK INTRA:                  -0.228
REMARK UNBOUND:                -0.173
REMARK SMILES CCCCCCC(=O)[O-]
REMARK SMILES IDX 5 1 6 2 7 3 8 4 9 5 4 6 3 7 2 8 1 9
REMARK H PARENT
REMARK Flexibility Score: inf
ROOT
ATOM      1  C   UNL     1      70.878  31.443  60.039  1.00  0.00     0.006 C 
ENDROOT
BRANCH   1   2
ATOM      2  C   UNL     1      72.145  30.687  60.461  1.00  0.00     0.053 C 
BRANCH   2   3
ATOM      3  C   UNL     1      72.119  30.323  61.914  1.00  0.00     0.041 C 
ATOM      4  O   UNL     1      71.168  29.639  62.378  1.00  0.00    -0.550 OA
ATOM      5  O   UNL     1      73.125  30.767  62.762  1.00  0.00    -0.550 OA
ENDBRANCH   2   3
ENDBRANCH   1   2
BRANCH   1   6
ATOM      6  C   UNL     1      70.895  32.909  60.498  1.00  0.00     0.000 C 
BRANCH   6   7
ATOM      7  C   UNL     1      70.495  33.848  59.354  1.00  0.00    -0.000 C 
BRANCH   7   8
ATOM      8  C   UNL     1      70.954  33.291  58.001  1.00  0.00    -0.003 C 
ATOM      9  C   UNL     1      71.320  34.417  57.037  1.00  0.00     0.004 C 
ENDBRANCH   7   8
ENDBRANCH   6   7
ENDBRANCH   1   6
TORSDOF 5
ENDMDL
