MODEL 1
REMARK VINA RESULT:    48.174      0.000      0.000
REMARK INTER + INTRA:          52.169
REMARK INTER:                  52.399
REMARK INTRA:                  -0.230
REMARK UNBOUND:                -0.230
REMARK SMILES C[C@H]1[C@H](C)CC[C@@]2(C(=O)[O-])CC[C@]3(C)C(=CC[C@H]4[C@@]5(C)CC[C@@H](O)C(C)(C)[C@H]5CC[C@]43C)[C@@H]12
REMARK SMILES IDX 7 1 6 2 11 3 33 4 5 5 12 6 15 7 2 8 3 9 13 10 16 11 1 12
REMARK SMILES IDX 4 13 14 14 31 15 17 16 18 17 30 18 32 19 19 20 29 21 28 22
REMARK SMILES IDX 21 23 20 24 25 25 22 26 23 27 26 28 27 29 8 30 9 31 10 32
REMARK SMILES IDX 24 33
REMARK H PARENT 24 34
REMARK Flexibility Score: inf
ROOT
ATOM      1  C   UNL     1      36.684 -27.971  -8.157  1.00  0.00     0.017 C 
ATOM      2  C   UNL     1      35.775 -26.722  -7.966  1.00  0.00     0.014 C 
ATOM      3  C   UNL     1      37.828 -27.884  -7.084  1.00  0.00     0.014 C 
ATOM      4  C   UNL     1      35.834 -29.283  -7.967  1.00  0.00     0.030 C 
ATOM      5  C   UNL     1      34.535 -26.748  -8.859  1.00  0.00     0.004 C 
ATOM      6  C   UNL     1      38.420 -29.252  -6.658  1.00  0.00     0.013 C 
ATOM      7  C   UNL     1      35.978 -29.763  -6.517  1.00  0.00    -0.063 C 
ATOM      8  C   UNL     1      34.405 -29.274  -8.621  1.00  0.00    -0.003 C 
ATOM      9  C   UNL     1      33.627 -27.930  -8.500  1.00  0.00    -0.011 C 
ATOM     10  C   UNL     1      37.362 -30.338  -6.161  1.00  0.00    -0.006 C 
ATOM     11  C   UNL     1      35.199 -29.210  -5.574  1.00  0.00    -0.027 C 
ATOM     12  C   UNL     1      33.567 -30.484  -8.165  1.00  0.00     0.008 C 
ATOM     13  C   UNL     1      32.386 -27.906  -9.411  1.00  0.00     0.008 C 
ATOM     14  C   UNL     1      37.563 -31.649  -7.003  1.00  0.00     0.017 C 
ATOM     15  C   UNL     1      37.516 -30.707  -4.592  1.00  0.00    -0.020 C 
ATOM     16  C   UNL     1      35.447 -29.297  -4.109  1.00  0.00     0.032 C 
ATOM     17  C   UNL     1      36.926 -29.561  -3.693  1.00  0.00     0.006 C 
ATOM     18  C   UNL     1      36.726 -32.015  -4.235  1.00  0.00     0.008 C 
ATOM     19  C   UNL     1      39.044 -30.946  -4.300  1.00  0.00     0.012 C 
ATOM     20  C   UNL     1      37.102 -29.799  -2.096  1.00  0.00    -0.025 C 
ATOM     21  C   UNL     1      36.289 -32.177  -2.753  1.00  0.00     0.005 C 
ATOM     22  C   UNL     1      37.122 -31.356  -1.730  1.00  0.00     0.003 C 
ATOM     23  C   UNL     1      35.962 -29.063  -1.300  1.00  0.00     0.010 C 
ATOM     24  C   UNL     1      38.455 -29.134  -1.664  1.00  0.00     0.012 C 
ATOM     25  C   UNL     1      36.839 -31.727  -0.200  1.00  0.00    -0.006 C 
ATOM     26  C   UNL     1      35.885 -29.390   0.191  1.00  0.00     0.033 C 
ATOM     27  C   UNL     1      35.676 -30.891   0.405  1.00  0.00     0.120 C 
ATOM     28  C   UNL     1      38.126 -31.516   0.651  1.00  0.00     0.014 C 
ATOM     29  C   UNL     1      36.496 -33.234  -0.013  1.00  0.00     0.014 C 
ENDROOT
BRANCH   1  30
ATOM     30  C   UNL     1      37.336 -27.944  -9.539  1.00  0.00     0.048 C 
ATOM     31  O   UNL     1      37.641 -29.016 -10.125  1.00  0.00    -0.550 OA
ATOM     32  O   UNL     1      37.712 -26.739 -10.125  1.00  0.00    -0.550 OA
ENDBRANCH   1  30
BRANCH  27  33
ATOM     33  O   UNL     1      34.446 -31.283  -0.158  1.00  0.00    -0.393 OA
ATOM     34  H   UNL     1      33.787 -30.575   0.064  1.00  0.00     0.210 HD
ENDBRANCH  27  33
TORSDOF 2
ENDMDL
