MODEL 1
REMARK VINA RESULT:    -6.580      0.000      0.000
REMARK INTER + INTRA:          -7.666
REMARK INTER:                  -7.926
REMARK INTRA:                   0.260
REMARK UNBOUND:                 0.260
REMARK SMILES Oc1cc(O)c2c(c1)O[C@@H](c1ccc(O)c(O)c1)[C@H](O)C2
REMARK SMILES IDX 21 1 19 2 10 3 9 4 7 5 8 6 2 7 3 8 4 9 6 10 20 11 11 13
REMARK SMILES IDX 18 14 12 15 16 16 13 17 14 18 17 19 15 21 5 23 1 25
REMARK H PARENT 20 12 17 20 15 22 5 24 1 26
REMARK Flexibility Score: inf
ROOT
ATOM      1  C   UNL     1      74.681  44.241  -4.196  1.00  0.00     0.079 C 
ATOM      2  C   UNL     1      74.148  43.188  -5.183  1.00  0.00     0.164 C 
ATOM      3  C   UNL     1      73.789  41.897  -4.421  1.00  0.00     0.232 C 
ATOM      4  O   UNL     1      72.852  42.184  -3.381  1.00  0.00    -0.482 OA
ATOM      5  C   UNL     1      72.899  43.366  -2.633  1.00  0.00     0.131 A 
ATOM      6  C   UNL     1      72.061  43.507  -1.523  1.00  0.00     0.093 A 
ATOM      7  C   UNL     1      72.094  44.681  -0.761  1.00  0.00     0.122 A 
ATOM      8  C   UNL     1      72.968  45.715  -1.112  1.00  0.00     0.092 A 
ATOM      9  C   UNL     1      73.809  45.585  -2.227  1.00  0.00     0.126 A 
ATOM     10  C   UNL     1      73.763  44.414  -3.007  1.00  0.00     0.039 A 
ENDROOT
BRANCH   2  11
ATOM     11  O   UNL     1      75.125  42.909  -6.152  1.00  0.00    -0.389 OA
ATOM     12  H   UNL     1      74.644  42.766  -7.009  1.00  0.00     0.211 HD
ENDBRANCH   2  11
BRANCH   3  13
ATOM     13  C   UNL     1      73.210  40.859  -5.353  1.00  0.00    -0.001 A 
ATOM     14  C   UNL     1      73.903  40.476  -6.515  1.00  0.00     0.057 A 
ATOM     15  C   UNL     1      71.993  40.229  -5.042  1.00  0.00     0.012 A 
ATOM     16  C   UNL     1      73.378  39.492  -7.366  1.00  0.00     0.157 A 
ATOM     17  C   UNL     1      71.469  39.249  -5.890  1.00  0.00     0.050 A 
ATOM     18  C   UNL     1      72.154  38.878  -7.050  1.00  0.00     0.157 A 
BRANCH  16  19
ATOM     19  O   UNL     1      74.069  39.123  -8.518  1.00  0.00    -0.504 OA
ATOM     20  H   UNL     1      73.893  38.239  -8.982  1.00  0.00     0.293 HD
ENDBRANCH  16  19
BRANCH  18  21
ATOM     21  O   UNL     1      71.606  37.897  -7.876  1.00  0.00    -0.504 OA
ATOM     22  H   UNL     1      70.647  37.940  -8.200  1.00  0.00     0.293 HD
ENDBRANCH  18  21
ENDBRANCH   3  13
BRANCH   9  23
ATOM     23  O   UNL     1      74.687  46.616  -2.561  1.00  0.00    -0.507 OA
ATOM     24  H   UNL     1      75.499  46.454  -3.145  1.00  0.00     0.293 HD
ENDBRANCH   9  23
BRANCH   7  25
ATOM     25  O   UNL     1      71.265  44.831   0.348  1.00  0.00    -0.508 OA
ATOM     26  H   UNL     1      71.354  45.625   0.972  1.00  0.00     0.293 HD
ENDBRANCH   7  25
TORSDOF 6
ENDMDL
MODEL 2
REMARK VINA RESULT:    -6.424     12.506     15.049
REMARK INTER + INTRA:          -7.478
REMARK INTER:                  -7.176
REMARK INTRA:                  -0.303
REMARK UNBOUND:                 0.260
REMARK SMILES Oc1cc(O)c2c(c1)O[C@@H](c1ccc(O)c(O)c1)[C@H](O)C2
REMARK SMILES IDX 21 1 19 2 10 3 9 4 7 5 8 6 2 7 3 8 4 9 6 10 20 11 11 13
REMARK SMILES IDX 18 14 12 15 16 16 13 17 14 18 17 19 15 21 5 23 1 25
REMARK H PARENT 20 12 17 20 15 22 5 24 1 26
REMARK Flexibility Score: inf
ROOT
ATOM      1  C   UNL     1      71.182  48.350   6.018  1.00  0.00     0.079 C 
ATOM      2  C   UNL     1      69.819  48.769   6.596  1.00  0.00     0.164 C 
ATOM      3  C   UNL     1      69.358  47.734   7.640  1.00  0.00     0.232 C 
ATOM      4  O   UNL     1      70.351  47.583   8.656  1.00  0.00    -0.482 OA
ATOM      5  C   UNL     1      71.722  47.632   8.379  1.00  0.00     0.131 A 
ATOM      6  C   UNL     1      72.636  47.309   9.386  1.00  0.00     0.093 A 
ATOM      7  C   UNL     1      74.011  47.350   9.129  1.00  0.00     0.122 A 
ATOM      8  C   UNL     1      74.471  47.715   7.859  1.00  0.00     0.092 A 
ATOM      9  C   UNL     1      73.563  48.046   6.844  1.00  0.00     0.126 A 
ATOM     10  C   UNL     1      72.180  48.025   7.106  1.00  0.00     0.039 A 
ENDROOT
BRANCH   2  11
ATOM     11  O   UNL     1      68.871  48.855   5.564  1.00  0.00    -0.389 OA
ATOM     12  H   UNL     1      69.041  49.711   5.090  1.00  0.00     0.211 HD
ENDBRANCH   2  11
BRANCH   3  13
ATOM     13  C   UNL     1      68.047  48.142   8.269  1.00  0.00    -0.001 A 
ATOM     14  C   UNL     1      66.840  47.553   7.853  1.00  0.00     0.057 A 
ATOM     15  C   UNL     1      68.026  49.083   9.312  1.00  0.00     0.012 A 
ATOM     16  C   UNL     1      65.626  47.914   8.456  1.00  0.00     0.157 A 
ATOM     17  C   UNL     1      66.816  49.443   9.914  1.00  0.00     0.050 A 
ATOM     18  C   UNL     1      65.616  48.865   9.491  1.00  0.00     0.157 A 
BRANCH  16  19
ATOM     19  O   UNL     1      64.434  47.329   8.033  1.00  0.00    -0.504 OA
ATOM     20  H   UNL     1      64.425  46.546   7.389  1.00  0.00     0.293 HD
ENDBRANCH  16  19
BRANCH  18  21
ATOM     21  O   UNL     1      64.426  49.244  10.110  1.00  0.00    -0.504 OA
ATOM     22  H   UNL     1      64.236  49.037  11.083  1.00  0.00     0.293 HD
ENDBRANCH  18  21
ENDBRANCH   3  13
BRANCH   9  23
ATOM     23  O   UNL     1      74.031  48.395   5.577  1.00  0.00    -0.507 OA
ATOM     24  H   UNL     1      74.899  48.904   5.453  1.00  0.00     0.293 HD
ENDBRANCH   9  23
BRANCH   7  25
ATOM     25  O   UNL     1      74.930  47.028  10.125  1.00  0.00    -0.508 OA
ATOM     26  H   UNL     1      74.840  46.180  10.674  1.00  0.00     0.293 HD
ENDBRANCH   7  25
TORSDOF 6
ENDMDL
MODEL 3
REMARK VINA RESULT:    -6.363     11.818     14.421
REMARK INTER + INTRA:          -7.405
REMARK INTER:                  -7.108
REMARK INTRA:                  -0.297
REMARK UNBOUND:                 0.260
REMARK SMILES Oc1cc(O)c2c(c1)O[C@@H](c1ccc(O)c(O)c1)[C@H](O)C2
REMARK SMILES IDX 21 1 19 2 10 3 9 4 7 5 8 6 2 7 3 8 4 9 6 10 20 11 11 13
REMARK SMILES IDX 18 14 12 15 16 16 13 17 14 18 17 19 15 21 5 23 1 25
REMARK H PARENT 20 12 17 20 15 22 5 24 1 26
REMARK Flexibility Score: inf
ROOT
ATOM      1  C   UNL     1      70.779  49.112   9.180  1.00  0.00     0.079 C 
ATOM      2  C   UNL     1      69.465  48.313   9.233  1.00  0.00     0.164 C 
ATOM      3  C   UNL     1      68.837  48.253   7.827  1.00  0.00     0.232 C 
ATOM      4  O   UNL     1      69.769  47.699   6.895  1.00  0.00    -0.482 OA
ATOM      5  C   UNL     1      71.142  47.959   6.963  1.00  0.00     0.131 A 
ATOM      6  C   UNL     1      71.972  47.525   5.925  1.00  0.00     0.093 A 
ATOM      7  C   UNL     1      73.349  47.776   5.972  1.00  0.00     0.122 A 
ATOM      8  C   UNL     1      73.894  48.463   7.062  1.00  0.00     0.092 A 
ATOM      9  C   UNL     1      73.070  48.897   8.111  1.00  0.00     0.126 A 
ATOM     10  C   UNL     1      71.689  48.628   8.075  1.00  0.00     0.039 A 
ENDROOT
BRANCH   2  11
ATOM     11  O   UNL     1      68.571  48.926  10.125  1.00  0.00    -0.389 OA
ATOM     12  H   UNL     1      67.853  49.335   9.573  1.00  0.00     0.211 HD
ENDBRANCH   2  11
BRANCH   3  13
ATOM     13  C   UNL     1      67.572  47.427   7.830  1.00  0.00    -0.001 A 
ATOM     14  C   UNL     1      67.636  46.022   7.834  1.00  0.00     0.057 A 
ATOM     15  C   UNL     1      66.317  48.056   7.878  1.00  0.00     0.012 A 
ATOM     16  C   UNL     1      66.462  45.256   7.864  1.00  0.00     0.157 A 
ATOM     17  C   UNL     1      65.146  47.292   7.908  1.00  0.00     0.050 A 
ATOM     18  C   UNL     1      65.212  45.896   7.900  1.00  0.00     0.157 A 
BRANCH  16  19
ATOM     19  O   UNL     1      66.534  43.864   7.861  1.00  0.00    -0.504 OA
ATOM     20  H   UNL     1      66.915  43.353   7.073  1.00  0.00     0.293 HD
ENDBRANCH  16  19
BRANCH  18  21
ATOM     21  O   UNL     1      64.026  45.162   7.930  1.00  0.00    -0.504 OA
ATOM     22  H   UNL     1      64.016  44.153   7.846  1.00  0.00     0.293 HD
ENDBRANCH  18  21
ENDBRANCH   3  13
BRANCH   9  23
ATOM     23  O   UNL     1      73.621  49.594   9.187  1.00  0.00    -0.507 OA
ATOM     24  H   UNL     1      74.209  49.134   9.873  1.00  0.00     0.293 HD
ENDBRANCH   9  23
BRANCH   7  25
ATOM     25  O   UNL     1      74.184  47.351   4.943  1.00  0.00    -0.508 OA
ATOM     26  H   UNL     1      74.349  47.925   4.124  1.00  0.00     0.293 HD
ENDBRANCH   7  25
TORSDOF 6
ENDMDL
MODEL 4
REMARK VINA RESULT:    -6.127     12.364     15.236
REMARK INTER + INTRA:          -7.120
REMARK INTER:                  -6.839
REMARK INTRA:                  -0.282
REMARK UNBOUND:                 0.260
REMARK SMILES Oc1cc(O)c2c(c1)O[C@@H](c1ccc(O)c(O)c1)[C@H](O)C2
REMARK SMILES IDX 21 1 19 2 10 3 9 4 7 5 8 6 2 7 3 8 4 9 6 10 20 11 11 13
REMARK SMILES IDX 18 14 12 15 16 16 13 17 14 18 17 19 15 21 5 23 1 25
REMARK H PARENT 20 12 17 20 15 22 5 24 1 26
REMARK Flexibility Score: inf
ROOT
ATOM      1  C   UNL     1      67.477  49.036   9.762  1.00  0.00     0.079 C 
ATOM      2  C   UNL     1      68.821  49.192   9.029  1.00  0.00     0.164 C 
ATOM      3  C   UNL     1      69.491  47.813   8.875  1.00  0.00     0.232 C 
ATOM      4  O   UNL     1      68.611  46.910   8.202  1.00  0.00    -0.482 OA
ATOM      5  C   UNL     1      67.227  46.920   8.406  1.00  0.00     0.131 A 
ATOM      6  C   UNL     1      66.446  45.903   7.847  1.00  0.00     0.093 A 
ATOM      7  C   UNL     1      65.059  45.894   8.040  1.00  0.00     0.122 A 
ATOM      8  C   UNL     1      64.454  46.905   8.794  1.00  0.00     0.092 A 
ATOM      9  C   UNL     1      65.228  47.933   9.353  1.00  0.00     0.126 A 
ATOM     10  C   UNL     1      66.620  47.955   9.144  1.00  0.00     0.039 A 
ENDROOT
BRANCH   2  11
ATOM     11  O   UNL     1      69.662  50.048   9.757  1.00  0.00    -0.389 OA
ATOM     12  H   UNL     1      70.544  50.038   9.300  1.00  0.00     0.211 HD
ENDBRANCH   2  11
BRANCH   3  13
ATOM     13  C   UNL     1      70.789  47.921   8.110  1.00  0.00    -0.001 A 
ATOM     14  C   UNL     1      72.018  47.973   8.791  1.00  0.00     0.057 A 
ATOM     15  C   UNL     1      70.784  47.923   6.705  1.00  0.00     0.012 A 
ATOM     16  C   UNL     1      73.224  48.046   8.080  1.00  0.00     0.157 A 
ATOM     17  C   UNL     1      71.986  47.996   5.996  1.00  0.00     0.050 A 
ATOM     18  C   UNL     1      73.206  48.059   6.675  1.00  0.00     0.157 A 
BRANCH  16  19
ATOM     19  O   UNL     1      74.437  48.103   8.763  1.00  0.00    -0.504 OA
ATOM     20  H   UNL     1      75.094  48.861   8.618  1.00  0.00     0.293 HD
ENDBRANCH  16  19
BRANCH  18  21
ATOM     21  O   UNL     1      74.388  48.131   5.939  1.00  0.00    -0.504 OA
ATOM     22  H   UNL     1      74.463  48.684   5.093  1.00  0.00     0.293 HD
ENDBRANCH  18  21
ENDBRANCH   3  13
BRANCH   9  23
ATOM     23  O   UNL     1      64.617  48.929  10.116  1.00  0.00    -0.507 OA
ATOM     24  H   UNL     1      64.395  48.787  11.094  1.00  0.00     0.293 HD
ENDBRANCH   9  23
BRANCH   7  25
ATOM     25  O   UNL     1      64.273  44.885   7.490  1.00  0.00    -0.508 OA
ATOM     26  H   UNL     1      64.570  44.369   6.670  1.00  0.00     0.293 HD
ENDBRANCH   7  25
TORSDOF 6
ENDMDL
MODEL 5
REMARK VINA RESULT:    -6.109     11.231     14.428
REMARK INTER + INTRA:          -7.099
REMARK INTER:                  -6.906
REMARK INTRA:                  -0.193
REMARK UNBOUND:                 0.260
REMARK SMILES Oc1cc(O)c2c(c1)O[C@@H](c1ccc(O)c(O)c1)[C@H](O)C2
REMARK SMILES IDX 21 1 19 2 10 3 9 4 7 5 8 6 2 7 3 8 4 9 6 10 20 11 11 13
REMARK SMILES IDX 18 14 12 15 16 16 13 17 14 18 17 19 15 21 5 23 1 25
REMARK H PARENT 20 12 17 20 15 22 5 24 1 26
REMARK Flexibility Score: inf
ROOT
ATOM      1  C   UNL     1      68.275  49.153   9.433  1.00  0.00     0.079 C 
ATOM      2  C   UNL     1      69.532  49.221   8.549  1.00  0.00     0.164 C 
ATOM      3  C   UNL     1      70.069  47.798   8.299  1.00  0.00     0.232 C 
ATOM      4  O   UNL     1      69.048  46.981   7.723  1.00  0.00    -0.482 OA
ATOM      5  C   UNL     1      67.702  47.093   8.088  1.00  0.00     0.131 A 
ATOM      6  C   UNL     1      66.783  46.152   7.613  1.00  0.00     0.093 A 
ATOM      7  C   UNL     1      65.432  46.245   7.967  1.00  0.00     0.122 A 
ATOM      8  C   UNL     1      65.001  47.283   8.801  1.00  0.00     0.092 A 
ATOM      9  C   UNL     1      65.913  48.235   9.278  1.00  0.00     0.126 A 
ATOM     10  C   UNL     1      67.269  48.155   8.906  1.00  0.00     0.039 A 
ENDROOT
BRANCH   2  11
ATOM     11  O   UNL     1      70.517  49.994   9.184  1.00  0.00    -0.389 OA
ATOM     12  H   UNL     1      70.949  49.408   9.860  1.00  0.00     0.211 HD
ENDBRANCH   2  11
BRANCH   3  13
ATOM     13  C   UNL     1      71.273  47.823   7.388  1.00  0.00    -0.001 A 
ATOM     14  C   UNL     1      71.114  47.756   5.992  1.00  0.00     0.057 A 
ATOM     15  C   UNL     1      72.564  47.961   7.924  1.00  0.00     0.012 A 
ATOM     16  C   UNL     1      72.230  47.806   5.145  1.00  0.00     0.157 A 
ATOM     17  C   UNL     1      73.677  48.011   7.080  1.00  0.00     0.050 A 
ATOM     18  C   UNL     1      73.518  47.933   5.694  1.00  0.00     0.157 A 
BRANCH  16  19
ATOM     19  O   UNL     1      72.064  47.733   3.763  1.00  0.00    -0.504 OA
ATOM     20  H   UNL     1      71.185  47.445   3.348  1.00  0.00     0.293 HD
ENDBRANCH  16  19
BRANCH  18  21
ATOM     21  O   UNL     1      74.648  47.985   4.878  1.00  0.00    -0.504 OA
ATOM     22  H   UNL     1      75.516  48.403   5.188  1.00  0.00     0.293 HD
ENDBRANCH  18  21
ENDBRANCH   3  13
BRANCH   9  23
ATOM     23  O   UNL     1      65.476  49.257  10.121  1.00  0.00    -0.507 OA
ATOM     24  H   UNL     1      66.092  49.683  10.803  1.00  0.00     0.293 HD
ENDBRANCH   9  23
BRANCH   7  25
ATOM     25  O   UNL     1      64.510  45.312   7.501  1.00  0.00    -0.508 OA
ATOM     26  H   UNL     1      64.780  44.576   6.858  1.00  0.00     0.293 HD
ENDBRANCH   7  25
TORSDOF 6
ENDMDL
MODEL 6
REMARK VINA RESULT:    -5.976     10.685     14.128
REMARK INTER + INTRA:          -6.939
REMARK INTER:                  -6.602
REMARK INTRA:                  -0.337
REMARK UNBOUND:                 0.260
REMARK SMILES Oc1cc(O)c2c(c1)O[C@@H](c1ccc(O)c(O)c1)[C@H](O)C2
REMARK SMILES IDX 21 1 19 2 10 3 9 4 7 5 8 6 2 7 3 8 4 9 6 10 20 11 11 13
REMARK SMILES IDX 18 14 12 15 16 16 13 17 14 18 17 19 15 21 5 23 1 25
REMARK H PARENT 20 12 17 20 15 22 5 24 1 26
REMARK Flexibility Score: inf
ROOT
ATOM      1  C   UNL     1      71.153  44.490   7.139  1.00  0.00     0.079 C 
ATOM      2  C   UNL     1      69.774  45.091   7.463  1.00  0.00     0.164 C 
ATOM      3  C   UNL     1      69.952  46.434   8.198  1.00  0.00     0.232 C 
ATOM      4  O   UNL     1      70.756  47.320   7.417  1.00  0.00    -0.482 OA
ATOM      5  C   UNL     1      71.837  46.872   6.649  1.00  0.00     0.131 A 
ATOM      6  C   UNL     1      72.683  47.808   6.046  1.00  0.00     0.093 A 
ATOM      7  C   UNL     1      73.770  47.381   5.275  1.00  0.00     0.122 A 
ATOM      8  C   UNL     1      74.011  46.013   5.108  1.00  0.00     0.092 A 
ATOM      9  C   UNL     1      73.165  45.066   5.704  1.00  0.00     0.126 A 
ATOM     10  C   UNL     1      72.060  45.493   6.463  1.00  0.00     0.039 A 
ENDROOT
BRANCH   2  11
ATOM     11  O   UNL     1      69.046  44.202   8.270  1.00  0.00    -0.389 OA
ATOM     12  H   UNL     1      69.421  43.297   8.108  1.00  0.00     0.211 HD
ENDBRANCH   2  11
BRANCH   3  13
ATOM     13  C   UNL     1      68.617  47.080   8.484  1.00  0.00    -0.001 A 
ATOM     14  C   UNL     1      67.658  47.218   7.465  1.00  0.00     0.057 A 
ATOM     15  C   UNL     1      68.302  47.507   9.784  1.00  0.00     0.012 A 
ATOM     16  C   UNL     1      66.408  47.794   7.736  1.00  0.00     0.157 A 
ATOM     17  C   UNL     1      67.056  48.081  10.055  1.00  0.00     0.050 A 
ATOM     18  C   UNL     1      66.109  48.228   9.039  1.00  0.00     0.157 A 
BRANCH  16  19
ATOM     19  O   UNL     1      65.466  47.932   6.719  1.00  0.00    -0.504 OA
ATOM     20  H   UNL     1      64.613  47.384   6.707  1.00  0.00     0.293 HD
ENDBRANCH  16  19
BRANCH  18  21
ATOM     21  O   UNL     1      64.875  48.805   9.340  1.00  0.00    -0.504 OA
ATOM     22  H   UNL     1      64.679  49.212  10.247  1.00  0.00     0.293 HD
ENDBRANCH  18  21
ENDBRANCH   3  13
BRANCH   9  23
ATOM     23  O   UNL     1      73.422  43.704   5.544  1.00  0.00    -0.507 OA
ATOM     24  H   UNL     1      72.674  43.036   5.404  1.00  0.00     0.293 HD
ENDBRANCH   9  23
BRANCH   7  25
ATOM     25  O   UNL     1      74.620  48.305   4.672  1.00  0.00    -0.508 OA
ATOM     26  H   UNL     1      74.314  49.250   4.468  1.00  0.00     0.293 HD
ENDBRANCH   7  25
TORSDOF 6
ENDMDL
MODEL 7
REMARK VINA RESULT:    -5.897     12.981     15.328
REMARK INTER + INTRA:          -6.843
REMARK INTER:                  -6.789
REMARK INTRA:                  -0.054
REMARK UNBOUND:                 0.260
REMARK SMILES Oc1cc(O)c2c(c1)O[C@@H](c1ccc(O)c(O)c1)[C@H](O)C2
REMARK SMILES IDX 21 1 19 2 10 3 9 4 7 5 8 6 2 7 3 8 4 9 6 10 20 11 11 13
REMARK SMILES IDX 18 14 12 15 16 16 13 17 14 18 17 19 15 21 5 23 1 25
REMARK H PARENT 20 12 17 20 15 22 5 24 1 26
REMARK Flexibility Score: inf
ROOT
ATOM      1  C   UNL     1      67.459  45.215   7.150  1.00  0.00     0.079 C 
ATOM      2  C   UNL     1      68.830  45.764   7.583  1.00  0.00     0.164 C 
ATOM      3  C   UNL     1      68.798  47.304   7.579  1.00  0.00     0.232 C 
ATOM      4  O   UNL     1      67.739  47.776   8.415  1.00  0.00    -0.482 OA
ATOM      5  C   UNL     1      66.507  47.119   8.510  1.00  0.00     0.131 A 
ATOM      6  C   UNL     1      65.461  47.725   9.211  1.00  0.00     0.093 A 
ATOM      7  C   UNL     1      64.220  47.085   9.317  1.00  0.00     0.122 A 
ATOM      8  C   UNL     1      64.028  45.836   8.717  1.00  0.00     0.092 A 
ATOM      9  C   UNL     1      65.073  45.218   8.016  1.00  0.00     0.126 A 
ATOM     10  C   UNL     1      66.328  45.850   7.926  1.00  0.00     0.039 A 
ENDROOT
BRANCH   2  11
ATOM     11  O   UNL     1      69.824  45.309   6.701  1.00  0.00    -0.389 OA
ATOM     12  H   UNL     1      69.581  44.378   6.453  1.00  0.00     0.211 HD
ENDBRANCH   2  11
BRANCH   3  13
ATOM     13  C   UNL     1      70.112  47.877   8.053  1.00  0.00    -0.001 A 
ATOM     14  C   UNL     1      71.222  47.929   7.190  1.00  0.00     0.057 A 
ATOM     15  C   UNL     1      70.227  48.409   9.348  1.00  0.00     0.012 A 
ATOM     16  C   UNL     1      72.434  48.486   7.622  1.00  0.00     0.157 A 
ATOM     17  C   UNL     1      71.435  48.964   9.779  1.00  0.00     0.050 A 
ATOM     18  C   UNL     1      72.540  49.004   8.924  1.00  0.00     0.157 A 
BRANCH  16  19
ATOM     19  O   UNL     1      73.530  48.528   6.762  1.00  0.00    -0.504 OA
ATOM     20  H   UNL     1      74.236  47.801   6.765  1.00  0.00     0.293 HD
ENDBRANCH  16  19
BRANCH  18  21
ATOM     21  O   UNL     1      73.732  49.564   9.383  1.00  0.00    -0.504 OA
ATOM     22  H   UNL     1      74.564  49.006   9.537  1.00  0.00     0.293 HD
ENDBRANCH  18  21
ENDBRANCH   3  13
BRANCH   9  23
ATOM     23  O   UNL     1      64.867  43.978   7.409  1.00  0.00    -0.507 OA
ATOM     24  H   UNL     1      65.074  43.111   7.889  1.00  0.00     0.293 HD
ENDBRANCH   9  23
BRANCH   7  25
ATOM     25  O   UNL     1      63.171  47.681  10.011  1.00  0.00    -0.508 OA
ATOM     26  H   UNL     1      62.213  47.372   9.891  1.00  0.00     0.293 HD
ENDBRANCH   7  25
TORSDOF 6
ENDMDL
MODEL 8
REMARK VINA RESULT:    -5.682     13.554     15.841
REMARK INTER + INTRA:          -6.585
REMARK INTER:                  -6.221
REMARK INTRA:                  -0.364
REMARK UNBOUND:                 0.260
REMARK SMILES Oc1cc(O)c2c(c1)O[C@@H](c1ccc(O)c(O)c1)[C@H](O)C2
REMARK SMILES IDX 21 1 19 2 10 3 9 4 7 5 8 6 2 7 3 8 4 9 6 10 20 11 11 13
REMARK SMILES IDX 18 14 12 15 16 16 13 17 14 18 17 19 15 21 5 23 1 25
REMARK H PARENT 20 12 17 20 15 22 5 24 1 26
REMARK Flexibility Score: inf
ROOT
ATOM      1  C   UNL     1      65.430  47.976   9.033  1.00  0.00     0.079 C 
ATOM      2  C   UNL     1      66.853  48.502   8.778  1.00  0.00     0.164 C 
ATOM      3  C   UNL     1      67.883  47.514   9.358  1.00  0.00     0.232 C 
ATOM      4  O   UNL     1      67.682  46.212   8.805  1.00  0.00    -0.482 OA
ATOM      5  C   UNL     1      66.409  45.704   8.525  1.00  0.00     0.131 A 
ATOM      6  C   UNL     1      66.274  44.365   8.145  1.00  0.00     0.093 A 
ATOM      7  C   UNL     1      65.009  43.837   7.862  1.00  0.00     0.122 A 
ATOM      8  C   UNL     1      63.877  44.652   7.960  1.00  0.00     0.092 A 
ATOM      9  C   UNL     1      64.002  45.998   8.334  1.00  0.00     0.126 A 
ATOM     10  C   UNL     1      65.275  46.536   8.600  1.00  0.00     0.039 A 
ENDROOT
BRANCH   2  11
ATOM     11  O   UNL     1      67.011  49.759   9.383  1.00  0.00    -0.389 OA
ATOM     12  H   UNL     1      66.259  50.325   9.065  1.00  0.00     0.211 HD
ENDBRANCH   2  11
BRANCH   3  13
ATOM     13  C   UNL     1      69.295  47.971   9.077  1.00  0.00    -0.001 A 
ATOM     14  C   UNL     1      69.787  48.002   7.760  1.00  0.00     0.057 A 
ATOM     15  C   UNL     1      70.117  48.417  10.125  1.00  0.00     0.012 A 
ATOM     16  C   UNL     1      71.088  48.452   7.496  1.00  0.00     0.157 A 
ATOM     17  C   UNL     1      71.414  48.866   9.863  1.00  0.00     0.050 A 
ATOM     18  C   UNL     1      71.905  48.885   8.554  1.00  0.00     0.157 A 
BRANCH  16  19
ATOM     19  O   UNL     1      71.570  48.475   6.188  1.00  0.00    -0.504 OA
ATOM     20  H   UNL     1      70.951  48.606   5.396  1.00  0.00     0.293 HD
ENDBRANCH  16  19
BRANCH  18  21
ATOM     21  O   UNL     1      73.204  49.338   8.324  1.00  0.00    -0.504 OA
ATOM     22  H   UNL     1      74.013  48.745   8.465  1.00  0.00     0.293 HD
ENDBRANCH  18  21
ENDBRANCH   3  13
BRANCH   9  23
ATOM     23  O   UNL     1      62.865  46.799   8.443  1.00  0.00    -0.507 OA
ATOM     24  H   UNL     1      61.937  46.398   8.515  1.00  0.00     0.293 HD
ENDBRANCH   9  23
BRANCH   7  25
ATOM     25  O   UNL     1      64.864  42.504   7.485  1.00  0.00    -0.508 OA
ATOM     26  H   UNL     1      65.652  41.866   7.481  1.00  0.00     0.293 HD
ENDBRANCH   7  25
TORSDOF 6
ENDMDL
