MODEL 1
REMARK VINA RESULT:    -2.890      0.000      0.000
REMARK INTER + INTRA:          -3.711
REMARK INTER:                  -3.396
REMARK INTRA:                  -0.315
REMARK UNBOUND:                -0.315
REMARK SMILES [NH3+][C@@H](CO)C(=O)[O-]
REMARK SMILES IDX 3 1 2 2 1 3 5 7 6 8 7 9 4 10
REMARK H PARENT 1 4 1 5 1 6 4 11
REMARK Flexibility Score: inf
ROOT
ATOM      1  C   UNL     1      45.929  17.186  75.942  1.00  0.00     0.227 C 
ENDROOT
BRANCH   1   2
ATOM      2  C   UNL     1      45.854  18.701  76.203  1.00  0.00     0.253 C 
BRANCH   2   3
ATOM      3  N   UNL     1      47.026  19.392  75.651  1.00  0.00    -0.348 N 
ATOM      4  H   UNL     1      46.875  19.630  74.643  1.00  0.00     0.345 HD
ATOM      5  H   UNL     1      47.870  18.780  75.736  1.00  0.00     0.345 HD
ATOM      6  H   UNL     1      47.208  20.270  76.188  1.00  0.00     0.345 HD
ENDBRANCH   2   3
BRANCH   2   7
ATOM      7  C   UNL     1      45.744  18.961  77.683  1.00  0.00     0.102 C 
ATOM      8  O   UNL     1      46.737  18.773  78.434  1.00  0.00    -0.544 OA
ATOM      9  O   UNL     1      44.552  19.424  78.226  1.00  0.00    -0.544 OA
ENDBRANCH   2   7
ENDBRANCH   1   2
BRANCH   1  10
ATOM     10  O   UNL     1      45.259  16.474  76.948  1.00  0.00    -0.390 OA
ATOM     11  H   UNL     1      45.956  16.018  77.487  1.00  0.00     0.210 HD
ENDBRANCH   1  10
TORSDOF 4
ENDMDL
MODEL 2
REMARK VINA RESULT:    -2.840      7.963      8.560
REMARK INTER + INTRA:          -3.653
REMARK INTER:                  -3.417
REMARK INTRA:                  -0.236
REMARK UNBOUND:                -0.315
REMARK SMILES [NH3+][C@@H](CO)C(=O)[O-]
REMARK SMILES IDX 3 1 2 2 1 3 5 7 6 8 7 9 4 10
REMARK H PARENT 1 4 1 5 1 6 4 11
REMARK Flexibility Score: inf
ROOT
ATOM      1  C   UNL     1      37.477  17.844  79.957  1.00  0.00     0.227 C 
ENDROOT
BRANCH   1   2
ATOM      2  C   UNL     1      38.084  18.937  80.856  1.00  0.00     0.253 C 
BRANCH   2   3
ATOM      3  N   UNL     1      37.050  19.585  81.672  1.00  0.00    -0.348 N 
ATOM      4  H   UNL     1      37.358  20.540  81.970  1.00  0.00     0.345 HD
ATOM      5  H   UNL     1      36.855  19.007  82.521  1.00  0.00     0.345 HD
ATOM      6  H   UNL     1      36.163  19.666  81.125  1.00  0.00     0.345 HD
ENDBRANCH   2   3
BRANCH   2   7
ATOM      7  C   UNL     1      38.797  19.958  80.010  1.00  0.00     0.102 C 
ATOM      8  O   UNL     1      38.288  21.094  79.825  1.00  0.00    -0.544 OA
ATOM      9  O   UNL     1      40.029  19.658  79.439  1.00  0.00    -0.544 OA
ENDBRANCH   2   7
ENDBRANCH   1   2
BRANCH   1  10
ATOM     10  O   UNL     1      38.472  17.224  79.188  1.00  0.00    -0.390 OA
ATOM     11  H   UNL     1      38.302  16.247  79.234  1.00  0.00     0.210 HD
ENDBRANCH   1  10
TORSDOF 4
ENDMDL
MODEL 3
REMARK VINA RESULT:    -2.803      8.031      8.619
REMARK INTER + INTRA:          -3.609
REMARK INTER:                  -3.603
REMARK INTRA:                  -0.006
REMARK UNBOUND:                -0.315
REMARK SMILES [NH3+][C@@H](CO)C(=O)[O-]
REMARK SMILES IDX 3 1 2 2 1 3 5 7 6 8 7 9 4 10
REMARK H PARENT 1 4 1 5 1 6 4 11
REMARK Flexibility Score: inf
ROOT
ATOM      1  C   UNL     1      37.757  17.781  79.980  1.00  0.00     0.227 C 
ENDROOT
BRANCH   1   2
ATOM      2  C   UNL     1      38.441  19.160  80.006  1.00  0.00     0.253 C 
BRANCH   2   3
ATOM      3  N   UNL     1      39.853  19.043  80.389  1.00  0.00    -0.348 N 
ATOM      4  H   UNL     1      40.087  18.056  80.646  1.00  0.00     0.345 HD
ATOM      5  H   UNL     1      40.051  19.666  81.206  1.00  0.00     0.345 HD
ATOM      6  H   UNL     1      40.464  19.344  79.596  1.00  0.00     0.345 HD
ENDBRANCH   2   3
BRANCH   2   7
ATOM      7  C   UNL     1      37.716  20.073  80.961  1.00  0.00     0.102 C 
ATOM      8  O   UNL     1      37.408  21.242  80.608  1.00  0.00    -0.544 OA
ATOM      9  O   UNL     1      37.368  19.625  82.230  1.00  0.00    -0.544 OA
ENDBRANCH   2   7
ENDBRANCH   1   2
BRANCH   1  10
ATOM     10  O   UNL     1      38.498  16.874  79.209  1.00  0.00    -0.390 OA
ATOM     11  H   UNL     1      38.612  16.057  79.762  1.00  0.00     0.210 HD
ENDBRANCH   1  10
TORSDOF 4
ENDMDL
MODEL 4
REMARK VINA RESULT:    -2.681      2.069      3.138
REMARK INTER + INTRA:          -3.465
REMARK INTER:                  -3.243
REMARK INTRA:                  -0.222
REMARK UNBOUND:                -0.315
REMARK SMILES [NH3+][C@@H](CO)C(=O)[O-]
REMARK SMILES IDX 3 1 2 2 1 3 5 7 6 8 7 9 4 10
REMARK H PARENT 1 4 1 5 1 6 4 11
REMARK Flexibility Score: inf
ROOT
ATOM      1  C   UNL     1      46.805  20.237  77.710  1.00  0.00     0.227 C 
ENDROOT
BRANCH   1   2
ATOM      2  C   UNL     1      46.306  18.824  78.067  1.00  0.00     0.253 C 
BRANCH   2   3
ATOM      3  N   UNL     1      47.312  18.089  78.843  1.00  0.00    -0.348 N 
ATOM      4  H   UNL     1      48.224  18.603  78.849  1.00  0.00     0.345 HD
ATOM      5  H   UNL     1      47.456  17.140  78.427  1.00  0.00     0.345 HD
ATOM      6  H   UNL     1      46.983  17.965  79.827  1.00  0.00     0.345 HD
ENDBRANCH   2   3
BRANCH   2   7
ATOM      7  C   UNL     1      45.963  18.070  76.810  1.00  0.00     0.102 C 
ATOM      8  O   UNL     1      45.680  16.844  76.865  1.00  0.00    -0.544 OA
ATOM      9  O   UNL     1      45.942  18.724  75.584  1.00  0.00    -0.544 OA
ENDBRANCH   2   7
ENDBRANCH   1   2
BRANCH   1  10
ATOM     10  O   UNL     1      48.087  20.182  77.143  1.00  0.00    -0.390 OA
ATOM     11  H   UNL     1      48.444  21.108  77.158  1.00  0.00     0.210 HD
ENDBRANCH   1  10
TORSDOF 4
ENDMDL
MODEL 5
REMARK VINA RESULT:    -2.631      7.605      8.391
REMARK INTER + INTRA:          -3.407
REMARK INTER:                  -3.401
REMARK INTRA:                  -0.006
REMARK UNBOUND:                -0.315
REMARK SMILES [NH3+][C@@H](CO)C(=O)[O-]
REMARK SMILES IDX 3 1 2 2 1 3 5 7 6 8 7 9 4 10
REMARK H PARENT 1 4 1 5 1 6 4 11
REMARK Flexibility Score: inf
ROOT
ATOM      1  C   UNL     1      39.779  19.780  79.499  1.00  0.00     0.227 C 
ENDROOT
BRANCH   1   2
ATOM      2  C   UNL     1      38.857  18.860  80.320  1.00  0.00     0.253 C 
BRANCH   2   3
ATOM      3  N   UNL     1      38.383  17.730  79.512  1.00  0.00    -0.348 N 
ATOM      4  H   UNL     1      38.209  16.891  80.114  1.00  0.00     0.345 HD
ATOM      5  H   UNL     1      39.097  17.489  78.787  1.00  0.00     0.345 HD
ATOM      6  H   UNL     1      37.497  17.988  79.021  1.00  0.00     0.345 HD
ENDBRANCH   2   3
BRANCH   2   7
ATOM      7  C   UNL     1      37.688  19.649  80.850  1.00  0.00     0.102 C 
ATOM      8  O   UNL     1      36.990  20.348  80.069  1.00  0.00    -0.544 OA
ATOM      9  O   UNL     1      37.363  19.597  82.200  1.00  0.00    -0.544 OA
ENDBRANCH   2   7
ENDBRANCH   1   2
BRANCH   1  10
ATOM     10  O   UNL     1      41.126  19.510  79.778  1.00  0.00    -0.390 OA
ATOM     11  H   UNL     1      41.248  19.647  80.754  1.00  0.00     0.210 HD
ENDBRANCH   1  10
TORSDOF 4
ENDMDL
MODEL 6
REMARK VINA RESULT:    -2.596     18.993     19.870
REMARK INTER + INTRA:          -3.366
REMARK INTER:                  -3.036
REMARK INTRA:                  -0.331
REMARK UNBOUND:                -0.315
REMARK SMILES [NH3+][C@@H](CO)C(=O)[O-]
REMARK SMILES IDX 3 1 2 2 1 3 5 7 6 8 7 9 4 10
REMARK H PARENT 1 4 1 5 1 6 4 11
REMARK Flexibility Score: inf
ROOT
ATOM      1  C   UNL     1      44.107  31.768  93.119  1.00  0.00     0.227 C 
ENDROOT
BRANCH   1   2
ATOM      2  C   UNL     1      44.386  30.599  92.157  1.00  0.00     0.253 C 
BRANCH   2   3
ATOM      3  N   UNL     1      44.916  29.436  92.879  1.00  0.00    -0.348 N 
ATOM      4  H   UNL     1      44.143  28.899  93.336  1.00  0.00     0.345 HD
ATOM      5  H   UNL     1      45.594  29.752  93.611  1.00  0.00     0.345 HD
ATOM      6  H   UNL     1      45.425  28.807  92.217  1.00  0.00     0.345 HD
ENDBRANCH   2   3
BRANCH   2   7
ATOM      7  C   UNL     1      45.353  31.034  91.088  1.00  0.00     0.102 C 
ATOM      8  O   UNL     1      44.960  31.760  90.137  1.00  0.00    -0.544 OA
ATOM      9  O   UNL     1      46.687  30.652  91.152  1.00  0.00    -0.544 OA
ENDBRANCH   2   7
ENDBRANCH   1   2
BRANCH   1  10
ATOM     10  O   UNL     1      44.880  32.887  92.777  1.00  0.00    -0.390 OA
ATOM     11  H   UNL     1      45.781  32.741  93.168  1.00  0.00     0.210 HD
ENDBRANCH   1  10
TORSDOF 4
ENDMDL
MODEL 7
REMARK VINA RESULT:    -2.566      2.120      2.879
REMARK INTER + INTRA:          -3.331
REMARK INTER:                  -3.126
REMARK INTRA:                  -0.205
REMARK UNBOUND:                -0.315
REMARK SMILES [NH3+][C@@H](CO)C(=O)[O-]
REMARK SMILES IDX 3 1 2 2 1 3 5 7 6 8 7 9 4 10
REMARK H PARENT 1 4 1 5 1 6 4 11
REMARK Flexibility Score: inf
ROOT
ATOM      1  C   UNL     1      46.016  19.095  78.129  1.00  0.00     0.227 C 
ENDROOT
BRANCH   1   2
ATOM      2  C   UNL     1      45.733  18.483  76.745  1.00  0.00     0.253 C 
BRANCH   2   3
ATOM      3  N   UNL     1      46.148  17.076  76.693  1.00  0.00    -0.348 N 
ATOM      4  H   UNL     1      47.149  16.995  76.396  1.00  0.00     0.345 HD
ATOM      5  H   UNL     1      45.546  16.554  76.016  1.00  0.00     0.345 HD
ATOM      6  H   UNL     1      46.035  16.636  77.635  1.00  0.00     0.345 HD
ENDBRANCH   2   3
BRANCH   2   7
ATOM      7  C   UNL     1      46.443  19.276  75.680  1.00  0.00     0.102 C 
ATOM      8  O   UNL     1      47.268  20.172  76.002  1.00  0.00    -0.544 OA
ATOM      9  O   UNL     1      46.205  19.015  74.336  1.00  0.00    -0.544 OA
ENDBRANCH   2   7
ENDBRANCH   1   2
BRANCH   1  10
ATOM     10  O   UNL     1      47.212  18.590  78.660  1.00  0.00    -0.390 OA
ATOM     11  H   UNL     1      47.927  18.805  78.005  1.00  0.00     0.210 HD
ENDBRANCH   1  10
TORSDOF 4
ENDMDL
MODEL 8
REMARK VINA RESULT:    -2.560      8.408      8.891
REMARK INTER + INTRA:          -3.323
REMARK INTER:                  -2.917
REMARK INTRA:                  -0.406
REMARK UNBOUND:                -0.315
REMARK SMILES [NH3+][C@@H](CO)C(=O)[O-]
REMARK SMILES IDX 3 1 2 2 1 3 5 7 6 8 7 9 4 10
REMARK H PARENT 1 4 1 5 1 6 4 11
REMARK Flexibility Score: inf
ROOT
ATOM      1  C   UNL     1      38.519  21.425  79.691  1.00  0.00     0.227 C 
ENDROOT
BRANCH   1   2
ATOM      2  C   UNL     1      39.001  20.145  80.397  1.00  0.00     0.253 C 
BRANCH   2   3
ATOM      3  N   UNL     1      39.809  19.315  79.496  1.00  0.00    -0.348 N 
ATOM      4  H   UNL     1      40.346  19.912  78.824  1.00  0.00     0.345 HD
ATOM      5  H   UNL     1      39.187  18.668  78.958  1.00  0.00     0.345 HD
ATOM      6  H   UNL     1      40.479  18.735  80.049  1.00  0.00     0.345 HD
ENDBRANCH   2   3
BRANCH   2   7
ATOM      7  C   UNL     1      37.818  19.364  80.905  1.00  0.00     0.102 C 
ATOM      8  O   UNL     1      37.361  19.584  82.057  1.00  0.00    -0.544 OA
ATOM      9  O   UNL     1      37.212  18.407  80.099  1.00  0.00    -0.544 OA
ENDBRANCH   2   7
ENDBRANCH   1   2
BRANCH   1  10
ATOM     10  O   UNL     1      37.121  21.517  79.729  1.00  0.00    -0.390 OA
ATOM     11  H   UNL     1      36.830  21.086  80.574  1.00  0.00     0.210 HD
ENDBRANCH   1  10
TORSDOF 4
ENDMDL
MODEL 9
REMARK VINA RESULT:    -2.548      2.725      2.981
REMARK INTER + INTRA:          -3.309
REMARK INTER:                  -3.092
REMARK INTRA:                  -0.217
REMARK UNBOUND:                -0.315
REMARK SMILES [NH3+][C@@H](CO)C(=O)[O-]
REMARK SMILES IDX 3 1 2 2 1 3 5 7 6 8 7 9 4 10
REMARK H PARENT 1 4 1 5 1 6 4 11
REMARK Flexibility Score: inf
ROOT
ATOM      1  C   UNL     1      46.130  19.359  73.240  1.00  0.00     0.227 C 
ENDROOT
BRANCH   1   2
ATOM      2  C   UNL     1      46.799  20.194  74.347  1.00  0.00     0.253 C 
BRANCH   2   3
ATOM      3  N   UNL     1      48.229  20.385  74.075  1.00  0.00    -0.348 N 
ATOM      4  H   UNL     1      48.408  20.420  73.045  1.00  0.00     0.345 HD
ATOM      5  H   UNL     1      48.776  19.597  74.492  1.00  0.00     0.345 HD
ATOM      6  H   UNL     1      48.559  21.275  74.511  1.00  0.00     0.345 HD
ENDBRANCH   2   3
BRANCH   2   7
ATOM      7  C   UNL     1      46.606  19.523  75.682  1.00  0.00     0.102 C 
ATOM      8  O   UNL     1      47.057  20.057  76.729  1.00  0.00    -0.544 OA
ATOM      9  O   UNL     1      45.918  18.319  75.767  1.00  0.00    -0.544 OA
ENDBRANCH   2   7
ENDBRANCH   1   2
BRANCH   1  10
ATOM     10  O   UNL     1      46.769  18.119  73.099  1.00  0.00    -0.390 OA
ATOM     11  H   UNL     1      46.126  17.519  72.638  1.00  0.00     0.210 HD
ENDBRANCH   1  10
TORSDOF 4
ENDMDL
