MODEL 1
REMARK VINA RESULT:    -4.763      0.000      0.000
REMARK INTER + INTRA:          -6.533
REMARK INTER:                  -6.156
REMARK INTRA:                  -0.377
REMARK UNBOUND:                -0.377
REMARK SMILES CCO[C@H]1O[C@@H](CO)[C@@H](O)[C@H](O)[C@@H]1O
REMARK SMILES IDX 4 1 13 2 11 3 9 4 6 5 5 6 3 7 2 8 1 9 14 10 12 12 7 14 8 15
REMARK SMILES IDX 10 17
REMARK H PARENT 14 11 12 13 8 16 10 18
REMARK Flexibility Score: inf
ROOT
ATOM      1  C   UNL     1      22.742   2.461  40.657  1.00  0.00     0.281 C 
ATOM      2  C   UNL     1      21.547   3.321  40.189  1.00  0.00     0.202 C 
ATOM      3  C   UNL     1      21.884   4.062  38.885  1.00  0.00     0.179 C 
ATOM      4  C   UNL     1      23.202   4.836  39.038  1.00  0.00     0.177 C 
ATOM      5  C   UNL     1      24.326   3.907  39.561  1.00  0.00     0.178 C 
ATOM      6  O   UNL     1      23.963   3.195  40.744  1.00  0.00    -0.341 OA
ENDROOT
BRANCH   1   7
ATOM      7  O   UNL     1      22.881   1.333  39.811  1.00  0.00    -0.350 OA
BRANCH   7   8
ATOM      8  C   UNL     1      21.935   0.339  40.143  1.00  0.00     0.160 C 
ATOM      9  C   UNL     1      22.465  -1.020  39.713  1.00  0.00     0.035 C 
ENDBRANCH   7   8
ENDBRANCH   1   7
BRANCH   2  10
ATOM     10  O   UNL     1      21.126   4.208  41.199  1.00  0.00    -0.385 OA
ATOM     11  H   UNL     1      20.171   4.026  41.396  1.00  0.00     0.211 HD
ENDBRANCH   2  10
BRANCH   3  12
ATOM     12  O   UNL     1      20.827   4.906  38.497  1.00  0.00    -0.387 OA
ATOM     13  H   UNL     1      20.928   5.767  38.981  1.00  0.00     0.211 HD
ENDBRANCH   3  12
BRANCH   5  14
ATOM     14  C   UNL     1      24.952   2.996  38.480  1.00  0.00     0.191 C 
BRANCH  14  15
ATOM     15  O   UNL     1      25.906   3.705  37.736  1.00  0.00    -0.394 OA
ATOM     16  H   UNL     1      26.085   4.547  38.223  1.00  0.00     0.210 HD
ENDBRANCH  14  15
ENDBRANCH   5  14
BRANCH   4  17
ATOM     17  O   UNL     1      23.575   5.408  37.809  1.00  0.00    -0.387 OA
ATOM     18  H   UNL     1      23.638   6.389  37.953  1.00  0.00     0.211 HD
ENDBRANCH   4  17
TORSDOF 7
ENDMDL
MODEL 2
REMARK VINA RESULT:    -4.746      1.741      3.586
REMARK INTER + INTRA:          -6.510
REMARK INTER:                  -6.121
REMARK INTRA:                  -0.389
REMARK UNBOUND:                -0.377
REMARK SMILES CCO[C@H]1O[C@@H](CO)[C@@H](O)[C@H](O)[C@@H]1O
REMARK SMILES IDX 4 1 13 2 11 3 9 4 6 5 5 6 3 7 2 8 1 9 14 10 12 12 7 14 8 15
REMARK SMILES IDX 10 17
REMARK H PARENT 14 11 12 13 8 16 10 18
REMARK Flexibility Score: inf
ROOT
ATOM      1  C   UNL     1      23.412   2.473  38.268  1.00  0.00     0.281 C 
ATOM      2  C   UNL     1      22.185   3.260  37.756  1.00  0.00     0.202 C 
ATOM      3  C   UNL     1      21.701   4.266  38.813  1.00  0.00     0.179 C 
ATOM      4  C   UNL     1      21.488   3.562  40.161  1.00  0.00     0.177 C 
ATOM      5  C   UNL     1      22.748   2.758  40.565  1.00  0.00     0.178 C 
ATOM      6  O   UNL     1      23.202   1.870  39.544  1.00  0.00    -0.341 OA
ENDROOT
BRANCH   1   7
ATOM      7  O   UNL     1      24.550   3.318  38.282  1.00  0.00    -0.350 OA
BRANCH   7   8
ATOM      8  C   UNL     1      24.880   3.735  36.974  1.00  0.00     0.160 C 
ATOM      9  C   UNL     1      26.208   3.114  36.571  1.00  0.00     0.035 C 
ENDBRANCH   7   8
ENDBRANCH   1   7
BRANCH   2  10
ATOM     10  O   UNL     1      21.152   2.392  37.351  1.00  0.00    -0.385 OA
ATOM     11  H   UNL     1      21.227   2.252  36.372  1.00  0.00     0.211 HD
ENDBRANCH   2  10
BRANCH   3  12
ATOM     12  O   UNL     1      20.537   4.929  38.382  1.00  0.00    -0.387 OA
ATOM     13  H   UNL     1      19.775   4.297  38.463  1.00  0.00     0.211 HD
ENDBRANCH   3  12
BRANCH   5  14
ATOM     14  C   UNL     1      23.886   3.618  41.162  1.00  0.00     0.191 C 
BRANCH  14  15
ATOM     15  O   UNL     1      23.594   3.962  42.490  1.00  0.00    -0.394 OA
ATOM     16  H   UNL     1      24.445   3.915  42.993  1.00  0.00     0.210 HD
ENDBRANCH  14  15
ENDBRANCH   5  14
BRANCH   4  17
ATOM     17  O   UNL     1      21.169   4.503  41.156  1.00  0.00    -0.387 OA
ATOM     18  H   UNL     1      21.648   5.342  40.926  1.00  0.00     0.211 HD
ENDBRANCH   4  17
TORSDOF 7
ENDMDL
MODEL 3
REMARK VINA RESULT:    -4.648      1.852      2.472
REMARK INTER + INTRA:          -6.384
REMARK INTER:                  -6.056
REMARK INTRA:                  -0.327
REMARK UNBOUND:                -0.377
REMARK SMILES CCO[C@H]1O[C@@H](CO)[C@@H](O)[C@H](O)[C@@H]1O
REMARK SMILES IDX 4 1 13 2 11 3 9 4 6 5 5 6 3 7 2 8 1 9 14 10 12 12 7 14 8 15
REMARK SMILES IDX 10 17
REMARK H PARENT 14 11 12 13 8 16 10 18
REMARK Flexibility Score: inf
ROOT
ATOM      1  C   UNL     1      22.308   1.776  39.121  1.00  0.00     0.281 C 
ATOM      2  C   UNL     1      21.189   2.368  40.007  1.00  0.00     0.202 C 
ATOM      3  C   UNL     1      21.462   3.849  40.316  1.00  0.00     0.179 C 
ATOM      4  C   UNL     1      22.879   4.022  40.881  1.00  0.00     0.177 C 
ATOM      5  C   UNL     1      23.925   3.353  39.955  1.00  0.00     0.178 C 
ATOM      6  O   UNL     1      23.616   1.994  39.646  1.00  0.00    -0.341 OA
ENDROOT
BRANCH   1   7
ATOM      7  O   UNL     1      22.193   2.284  37.803  1.00  0.00    -0.350 OA
BRANCH   7   8
ATOM      8  C   UNL     1      22.693   1.355  36.864  1.00  0.00     0.160 C 
ATOM      9  C   UNL     1      23.329   2.108  35.706  1.00  0.00     0.035 C 
ENDBRANCH   7   8
ENDBRANCH   1   7
BRANCH   2  10
ATOM     10  O   UNL     1      21.014   1.613  41.185  1.00  0.00    -0.385 OA
ATOM     11  H   UNL     1      20.741   2.230  41.913  1.00  0.00     0.211 HD
ENDBRANCH   2  10
BRANCH   3  12
ATOM     12  O   UNL     1      20.487   4.370  41.187  1.00  0.00    -0.387 OA
ATOM     13  H   UNL     1      19.701   3.764  41.167  1.00  0.00     0.211 HD
ENDBRANCH   3  12
BRANCH   5  14
ATOM     14  C   UNL     1      24.290   4.186  38.704  1.00  0.00     0.191 C 
BRANCH  14  15
ATOM     15  O   UNL     1      25.460   3.690  38.111  1.00  0.00    -0.394 OA
ATOM     16  H   UNL     1      25.888   3.091  38.772  1.00  0.00     0.210 HD
ENDBRANCH  14  15
ENDBRANCH   5  14
BRANCH   4  17
ATOM     17  O   UNL     1      23.174   5.388  41.044  1.00  0.00    -0.387 OA
ATOM     18  H   UNL     1      23.951   5.589  40.458  1.00  0.00     0.211 HD
ENDBRANCH   4  17
TORSDOF 7
ENDMDL
MODEL 4
REMARK VINA RESULT:    -4.620      1.901      4.058
REMARK INTER + INTRA:          -6.348
REMARK INTER:                  -5.924
REMARK INTRA:                  -0.424
REMARK UNBOUND:                -0.377
REMARK SMILES CCO[C@H]1O[C@@H](CO)[C@@H](O)[C@H](O)[C@@H]1O
REMARK SMILES IDX 4 1 13 2 11 3 9 4 6 5 5 6 3 7 2 8 1 9 14 10 12 12 7 14 8 15
REMARK SMILES IDX 10 17
REMARK H PARENT 14 11 12 13 8 16 10 18
REMARK Flexibility Score: inf
ROOT
ATOM      1  C   UNL     1      24.021   3.989  39.730  1.00  0.00     0.281 C 
ATOM      2  C   UNL     1      23.801   4.652  38.352  1.00  0.00     0.202 C 
ATOM      3  C   UNL     1      22.486   4.172  37.717  1.00  0.00     0.179 C 
ATOM      4  C   UNL     1      22.433   2.637  37.699  1.00  0.00     0.177 C 
ATOM      5  C   UNL     1      22.716   2.062  39.110  1.00  0.00     0.178 C 
ATOM      6  O   UNL     1      23.917   2.566  39.693  1.00  0.00    -0.341 OA
ENDROOT
BRANCH   1   7
ATOM      7  O   UNL     1      23.122   4.543  40.676  1.00  0.00    -0.350 OA
BRANCH   7   8
ATOM      8  C   UNL     1      23.794   4.859  41.877  1.00  0.00     0.160 C 
ATOM      9  C   UNL     1      24.064   6.355  41.921  1.00  0.00     0.035 C 
ENDBRANCH   7   8
ENDBRANCH   1   7
BRANCH   2  10
ATOM     10  O   UNL     1      24.901   4.437  37.498  1.00  0.00    -0.385 OA
ATOM     11  H   UNL     1      24.599   3.883  36.732  1.00  0.00     0.211 HD
ENDBRANCH   2  10
BRANCH   3  12
ATOM     12  O   UNL     1      22.322   4.713  36.428  1.00  0.00    -0.387 OA
ATOM     13  H   UNL     1      21.363   4.635  36.182  1.00  0.00     0.211 HD
ENDBRANCH   3  12
BRANCH   5  14
ATOM     14  C   UNL     1      21.509   2.122  40.074  1.00  0.00     0.191 C 
BRANCH  14  15
ATOM     15  O   UNL     1      21.904   1.779  41.375  1.00  0.00    -0.394 OA
ATOM     16  H   UNL     1      21.095   1.464  41.849  1.00  0.00     0.210 HD
ENDBRANCH  14  15
ENDBRANCH   5  14
BRANCH   4  17
ATOM     17  O   UNL     1      21.178   2.199  37.237  1.00  0.00    -0.387 OA
ATOM     18  H   UNL     1      21.254   1.222  37.075  1.00  0.00     0.211 HD
ENDBRANCH   4  17
TORSDOF 7
ENDMDL
MODEL 5
REMARK VINA RESULT:    -4.605     10.271     12.252
REMARK INTER + INTRA:          -6.328
REMARK INTER:                  -5.952
REMARK INTRA:                  -0.377
REMARK UNBOUND:                -0.377
REMARK SMILES CCO[C@H]1O[C@@H](CO)[C@@H](O)[C@H](O)[C@@H]1O
REMARK SMILES IDX 4 1 13 2 11 3 9 4 6 5 5 6 3 7 2 8 1 9 14 10 12 12 7 14 8 15
REMARK SMILES IDX 10 17
REMARK H PARENT 14 11 12 13 8 16 10 18
REMARK Flexibility Score: inf
ROOT
ATOM      1  C   UNL     1      33.746   3.012  41.777  1.00  0.00     0.281 C 
ATOM      2  C   UNL     1      33.090   1.920  42.651  1.00  0.00     0.202 C 
ATOM      3  C   UNL     1      33.470   2.101  44.129  1.00  0.00     0.179 C 
ATOM      4  C   UNL     1      34.995   2.204  44.279  1.00  0.00     0.177 C 
ATOM      5  C   UNL     1      35.568   3.285  43.328  1.00  0.00     0.178 C 
ATOM      6  O   UNL     1      35.155   3.118  41.972  1.00  0.00    -0.341 OA
ENDROOT
BRANCH   1   7
ATOM      7  O   UNL     1      33.103   4.255  42.003  1.00  0.00    -0.350 OA
BRANCH   7   8
ATOM      8  C   UNL     1      31.742   4.189  41.630  1.00  0.00     0.160 C 
ATOM      9  C   UNL     1      31.263   5.579  41.239  1.00  0.00     0.035 C 
ENDBRANCH   7   8
ENDBRANCH   1   7
BRANCH   2  10
ATOM     10  O   UNL     1      33.411   0.629  42.185  1.00  0.00    -0.385 OA
ATOM     11  H   UNL     1      34.221   0.694  41.616  1.00  0.00     0.211 HD
ENDBRANCH   2  10
BRANCH   3  12
ATOM     12  O   UNL     1      32.939   1.062  44.917  1.00  0.00    -0.387 OA
ATOM     13  H   UNL     1      33.695   0.517  45.257  1.00  0.00     0.211 HD
ENDBRANCH   3  12
BRANCH   5  14
ATOM     14  C   UNL     1      35.391   4.735  43.836  1.00  0.00     0.191 C 
BRANCH  14  15
ATOM     15  O   UNL     1      36.326   5.019  44.841  1.00  0.00    -0.394 OA
ATOM     16  H   UNL     1      37.120   5.407  44.395  1.00  0.00     0.210 HD
ENDBRANCH  14  15
ENDBRANCH   5  14
BRANCH   4  17
ATOM     17  O   UNL     1      35.335   2.497  45.612  1.00  0.00    -0.387 OA
ATOM     18  H   UNL     1      35.964   3.264  45.589  1.00  0.00     0.211 HD
ENDBRANCH   4  17
TORSDOF 7
ENDMDL
MODEL 6
REMARK VINA RESULT:    -4.511     15.249     16.898
REMARK INTER + INTRA:          -6.207
REMARK INTER:                  -5.784
REMARK INTRA:                  -0.423
REMARK UNBOUND:                -0.377
REMARK SMILES CCO[C@H]1O[C@@H](CO)[C@@H](O)[C@H](O)[C@@H]1O
REMARK SMILES IDX 4 1 13 2 11 3 9 4 6 5 5 6 3 7 2 8 1 9 14 10 12 12 7 14 8 15
REMARK SMILES IDX 10 17
REMARK H PARENT 14 11 12 13 8 16 10 18
REMARK Flexibility Score: inf
ROOT
ATOM      1  C   UNL     1      39.730   0.772  45.191  1.00  0.00     0.281 C 
ATOM      2  C   UNL     1      39.323   0.881  46.677  1.00  0.00     0.202 C 
ATOM      3  C   UNL     1      37.812   1.129  46.814  1.00  0.00     0.179 C 
ATOM      4  C   UNL     1      37.389   2.327  45.950  1.00  0.00     0.177 C 
ATOM      5  C   UNL     1      37.885   2.155  44.493  1.00  0.00     0.178 C 
ATOM      6  O   UNL     1      39.282   1.874  44.403  1.00  0.00    -0.341 OA
ENDROOT
BRANCH   1   7
ATOM      7  O   UNL     1      39.271  -0.458  44.658  1.00  0.00    -0.350 OA
BRANCH   7   8
ATOM      8  C   UNL     1      39.940  -1.545  45.262  1.00  0.00     0.160 C 
ATOM      9  C   UNL     1      38.933  -2.643  45.571  1.00  0.00     0.035 C 
ENDBRANCH   7   8
ENDBRANCH   1   7
BRANCH   2  10
ATOM     10  O   UNL     1      40.076   1.867  47.345  1.00  0.00    -0.385 OA
ATOM     11  H   UNL     1      40.699   2.280  46.692  1.00  0.00     0.211 HD
ENDBRANCH   2  10
BRANCH   3  12
ATOM     12  O   UNL     1      37.451   1.307  48.162  1.00  0.00    -0.387 OA
ATOM     13  H   UNL     1      37.662   0.469  48.651  1.00  0.00     0.211 HD
ENDBRANCH   3  12
BRANCH   5  14
ATOM     14  C   UNL     1      37.025   1.196  43.638  1.00  0.00     0.191 C 
BRANCH  14  15
ATOM     15  O   UNL     1      35.920   1.876  43.104  1.00  0.00    -0.394 OA
ATOM     16  H   UNL     1      35.114   1.502  43.539  1.00  0.00     0.210 HD
ENDBRANCH  14  15
ENDBRANCH   5  14
BRANCH   4  17
ATOM     17  O   UNL     1      35.991   2.475  45.975  1.00  0.00    -0.387 OA
ATOM     18  H   UNL     1      35.687   2.519  45.031  1.00  0.00     0.211 HD
ENDBRANCH   4  17
TORSDOF 7
ENDMDL
MODEL 7
REMARK VINA RESULT:    -4.471      1.802      3.782
REMARK INTER + INTRA:          -6.154
REMARK INTER:                  -5.786
REMARK INTRA:                  -0.368
REMARK UNBOUND:                -0.377
REMARK SMILES CCO[C@H]1O[C@@H](CO)[C@@H](O)[C@H](O)[C@@H]1O
REMARK SMILES IDX 4 1 13 2 11 3 9 4 6 5 5 6 3 7 2 8 1 9 14 10 12 12 7 14 8 15
REMARK SMILES IDX 10 17
REMARK H PARENT 14 11 12 13 8 16 10 18
REMARK Flexibility Score: inf
ROOT
ATOM      1  C   UNL     1      22.201   3.962  40.473  1.00  0.00     0.281 C 
ATOM      2  C   UNL     1      22.250   2.448  40.773  1.00  0.00     0.202 C 
ATOM      3  C   UNL     1      22.864   1.676  39.594  1.00  0.00     0.179 C 
ATOM      4  C   UNL     1      22.147   2.043  38.286  1.00  0.00     0.177 C 
ATOM      5  C   UNL     1      22.100   3.580  38.098  1.00  0.00     0.178 C 
ATOM      6  O   UNL     1      21.572   4.270  39.230  1.00  0.00    -0.341 OA
ENDROOT
BRANCH   1   7
ATOM      7  O   UNL     1      23.510   4.504  40.533  1.00  0.00    -0.350 OA
BRANCH   7   8
ATOM      8  C   UNL     1      23.850   4.844  41.861  1.00  0.00     0.160 C 
ATOM      9  C   UNL     1      24.114   6.339  41.943  1.00  0.00     0.035 C 
ENDBRANCH   7   8
ENDBRANCH   1   7
BRANCH   2  10
ATOM     10  O   UNL     1      20.977   1.951  41.114  1.00  0.00    -0.385 OA
ATOM     11  H   UNL     1      20.382   2.721  41.308  1.00  0.00     0.211 HD
ENDBRANCH   2  10
BRANCH   3  12
ATOM     12  O   UNL     1      22.838   0.289  39.830  1.00  0.00    -0.387 OA
ATOM     13  H   UNL     1      23.166  -0.169  39.012  1.00  0.00     0.211 HD
ENDBRANCH   3  12
BRANCH   5  14
ATOM     14  C   UNL     1      23.420   4.196  37.580  1.00  0.00     0.191 C 
BRANCH  14  15
ATOM     15  O   UNL     1      23.416   5.586  37.763  1.00  0.00    -0.394 OA
ATOM     16  H   UNL     1      24.353   5.891  37.675  1.00  0.00     0.210 HD
ENDBRANCH  14  15
ENDBRANCH   5  14
BRANCH   4  17
ATOM     17  O   UNL     1      22.789   1.436  37.192  1.00  0.00    -0.387 OA
ATOM     18  H   UNL     1      22.079   1.036  36.624  1.00  0.00     0.211 HD
ENDBRANCH   4  17
TORSDOF 7
ENDMDL
MODEL 8
REMARK VINA RESULT:    -4.372     14.157     15.803
REMARK INTER + INTRA:          -6.028
REMARK INTER:                  -5.660
REMARK INTRA:                  -0.368
REMARK UNBOUND:                -0.377
REMARK SMILES CCO[C@H]1O[C@@H](CO)[C@@H](O)[C@H](O)[C@@H]1O
REMARK SMILES IDX 4 1 13 2 11 3 9 4 6 5 5 6 3 7 2 8 1 9 14 10 12 12 7 14 8 15
REMARK SMILES IDX 10 17
REMARK H PARENT 14 11 12 13 8 16 10 18
REMARK Flexibility Score: inf
ROOT
ATOM      1  C   UNL     1      37.698  -0.543  44.264  1.00  0.00     0.281 C 
ATOM      2  C   UNL     1      38.427  -0.141  45.565  1.00  0.00     0.202 C 
ATOM      3  C   UNL     1      37.525   0.737  46.448  1.00  0.00     0.179 C 
ATOM      4  C   UNL     1      36.974   1.919  45.638  1.00  0.00     0.177 C 
ATOM      5  C   UNL     1      36.309   1.424  44.329  1.00  0.00     0.178 C 
ATOM      6  O   UNL     1      37.154   0.570  43.556  1.00  0.00    -0.341 OA
ENDROOT
BRANCH   1   7
ATOM      7  O   UNL     1      36.697  -1.504  44.553  1.00  0.00    -0.350 OA
BRANCH   7   8
ATOM      8  C   UNL     1      37.271  -2.676  45.094  1.00  0.00     0.160 C 
ATOM      9  C   UNL     1      37.419  -3.714  43.993  1.00  0.00     0.035 C 
ENDBRANCH   7   8
ENDBRANCH   1   7
BRANCH   2  10
ATOM     10  O   UNL     1      39.658   0.487  45.291  1.00  0.00    -0.385 OA
ATOM     11  H   UNL     1      40.386  -0.074  45.666  1.00  0.00     0.211 HD
ENDBRANCH   2  10
BRANCH   3  12
ATOM     12  O   UNL     1      38.213   1.170  47.597  1.00  0.00    -0.387 OA
ATOM     13  H   UNL     1      39.171   1.279  47.360  1.00  0.00     0.211 HD
ENDBRANCH   3  12
BRANCH   5  14
ATOM     14  C   UNL     1      34.886   0.850  44.516  1.00  0.00     0.191 C 
BRANCH  14  15
ATOM     15  O   UNL     1      33.987   1.873  44.850  1.00  0.00    -0.394 OA
ATOM     16  H   UNL     1      34.295   2.260  45.707  1.00  0.00     0.210 HD
ENDBRANCH  14  15
ENDBRANCH   5  14
BRANCH   4  17
ATOM     17  O   UNL     1      36.050   2.648  46.408  1.00  0.00    -0.387 OA
ATOM     18  H   UNL     1      36.568   3.117  47.114  1.00  0.00     0.211 HD
ENDBRANCH   4  17
TORSDOF 7
ENDMDL
MODEL 9
REMARK VINA RESULT:    -4.311     14.930     16.506
REMARK INTER + INTRA:          -5.948
REMARK INTER:                  -5.682
REMARK INTRA:                  -0.266
REMARK UNBOUND:                -0.377
REMARK SMILES CCO[C@H]1O[C@@H](CO)[C@@H](O)[C@H](O)[C@@H]1O
REMARK SMILES IDX 4 1 13 2 11 3 9 4 6 5 5 6 3 7 2 8 1 9 14 10 12 12 7 14 8 15
REMARK SMILES IDX 10 17
REMARK H PARENT 14 11 12 13 8 16 10 18
REMARK Flexibility Score: inf
ROOT
ATOM      1  C   UNL     1      36.778   0.532  44.739  1.00  0.00     0.281 C 
ATOM      2  C   UNL     1      36.981   2.056  44.883  1.00  0.00     0.202 C 
ATOM      3  C   UNL     1      38.415   2.376  45.334  1.00  0.00     0.179 C 
ATOM      4  C   UNL     1      38.772   1.566  46.589  1.00  0.00     0.177 C 
ATOM      5  C   UNL     1      38.487   0.059  46.368  1.00  0.00     0.178 C 
ATOM      6  O   UNL     1      37.163  -0.200  45.901  1.00  0.00    -0.341 OA
ENDROOT
BRANCH   1   7
ATOM      7  O   UNL     1      37.463   0.065  43.589  1.00  0.00    -0.350 OA
BRANCH   7   8
ATOM      8  C   UNL     1      36.664  -0.851  42.869  1.00  0.00     0.160 C 
ATOM      9  C   UNL     1      37.149  -2.265  43.148  1.00  0.00     0.035 C 
ENDBRANCH   7   8
ENDBRANCH   1   7
BRANCH   2  10
ATOM     10  O   UNL     1      36.024   2.622  45.749  1.00  0.00    -0.385 OA
ATOM     11  H   UNL     1      36.075   2.151  46.622  1.00  0.00     0.211 HD
ENDBRANCH   2  10
BRANCH   3  12
ATOM     12  O   UNL     1      38.581   3.758  45.543  1.00  0.00    -0.387 OA
ATOM     13  H   UNL     1      39.416   3.893  46.064  1.00  0.00     0.211 HD
ENDBRANCH   3  12
BRANCH   5  14
ATOM     14  C   UNL     1      39.569  -0.679  45.547  1.00  0.00     0.191 C 
BRANCH  14  15
ATOM     15  O   UNL     1      39.709  -1.999  45.998  1.00  0.00    -0.394 OA
ATOM     16  H   UNL     1      38.808  -2.409  45.976  1.00  0.00     0.210 HD
ENDBRANCH  14  15
ENDBRANCH   5  14
BRANCH   4  17
ATOM     17  O   UNL     1      40.124   1.762  46.926  1.00  0.00    -0.387 OA
ATOM     18  H   UNL     1      40.577   0.883  46.832  1.00  0.00     0.211 HD
ENDBRANCH   4  17
TORSDOF 7
ENDMDL
