MODEL 1
REMARK VINA RESULT:    -7.406      0.000      0.000
REMARK INTER + INTRA:         -13.690
REMARK INTER:                 -11.735
REMARK INTRA:                  -1.954
REMARK UNBOUND:                -1.954
REMARK SMILES CC[C@H](C=C[C@H](C)[C@H]1CC[C@@H]2[C@@H]3CC=C4C[C@@H](O[C@H]5O[C@H](CO)[C@@H](O)[C@@H](O)[C@H]5O)CC[C@@]4(C)[C@H]3CC[C@@]21C)C(C)C
REMARK SMILES IDX 8 1 9 2 10 3 11 4 37 5 36 6 35 7 34 8 12 9 13 10 14 11 15 12
REMARK SMILES IDX 32 13 31 14 30 15 17 16 16 17 33 18 38 19 6 20 7 21 5 22
REMARK SMILES IDX 4 23 3 24 2 25 1 26 39 27 40 28 41 29 18 30 19 31 28 32
REMARK SMILES IDX 20 33 26 34 21 35 24 36 29 37 27 39 22 41 23 42 25 44
REMARK H PARENT 29 38 27 40 23 43 25 45
REMARK Flexibility Score: inf
ROOT
ATOM      1  C   UNL     1       3.662  -5.638  26.367  1.00  0.00     0.002 C 
ATOM      2  C   UNL     1       2.204  -5.366  25.913  1.00  0.00     0.005 C 
ATOM      3  C   UNL     1       1.936  -3.877  26.101  1.00  0.00     0.005 C 
ATOM      4  C   UNL     1       3.300  -3.228  26.384  1.00  0.00    -0.001 C 
ATOM      5  C   UNL     1       4.376  -4.279  26.034  1.00  0.00    -0.026 C 
ATOM      6  C   UNL     1       4.703  -4.299  24.501  1.00  0.00     0.007 C 
ATOM      7  C   UNL     1       4.914  -2.914  23.881  1.00  0.00     0.005 C 
ATOM      8  C   UNL     1       3.679  -2.029  24.150  1.00  0.00     0.003 C 
ATOM      9  C   UNL     1       3.550  -1.862  25.686  1.00  0.00     0.000 C 
ATOM     10  C   UNL     1       2.519  -0.791  26.059  1.00  0.00     0.031 C 
ATOM     11  C   UNL     1       2.971   0.517  25.486  1.00  0.00    -0.027 C 
ATOM     12  C   UNL     1       3.505   0.582  24.244  1.00  0.00    -0.065 C 
ATOM     13  C   UNL     1       3.560  -0.662  23.334  1.00  0.00    -0.008 C 
ATOM     14  C   UNL     1       4.756  -0.467  22.353  1.00  0.00     0.014 C 
ATOM     15  C   UNL     1       4.716   0.835  21.543  1.00  0.00     0.033 C 
ATOM     16  C   UNL     1       4.137   2.057  22.289  1.00  0.00     0.125 C 
ATOM     17  C   UNL     1       4.201   1.866  23.816  1.00  0.00     0.063 C 
ATOM     18  C   UNL     1       2.232  -0.715  22.520  1.00  0.00     0.016 C 
ATOM     19  C   UNL     1       5.697  -3.959  26.783  1.00  0.00     0.012 C 
ENDROOT
BRANCH   1  20
ATOM     20  C   UNL     1       3.665  -6.170  27.848  1.00  0.00     0.012 C 
ATOM     21  C   UNL     1       2.417  -7.027  28.134  1.00  0.00     0.012 C 
BRANCH  20  22
ATOM     22  C   UNL     1       4.876  -6.988  28.247  1.00  0.00    -0.028 C 
ATOM     23  C   UNL     1       5.497  -7.847  27.405  1.00  0.00    -0.027 C 
BRANCH  23  24
ATOM     24  C   UNL     1       6.725  -8.621  27.821  1.00  0.00     0.014 C 
BRANCH  24  25
ATOM     25  C   UNL     1       7.922  -8.417  26.863  1.00  0.00     0.004 C 
ATOM     26  C   UNL     1       7.853  -7.145  26.009  1.00  0.00     0.004 C 
ENDBRANCH  24  25
BRANCH  24  27
ATOM     27  C   UNL     1       7.097  -8.452  29.330  1.00  0.00    -0.011 C 
ATOM     28  C   UNL     1       8.531  -7.917  29.485  1.00  0.00     0.008 C 
ATOM     29  C   UNL     1       6.935  -9.729  30.183  1.00  0.00     0.008 C 
ENDBRANCH  24  27
ENDBRANCH  23  24
ENDBRANCH  20  22
ENDBRANCH   1  20
BRANCH  16  30
ATOM     30  O   UNL     1       4.891   3.193  21.908  1.00  0.00    -0.346 OA
BRANCH  30  31
ATOM     31  C   UNL     1       5.542   3.053  20.637  1.00  0.00     0.282 C 
ATOM     32  C   UNL     1       7.139   3.150  20.607  1.00  0.00     0.202 C 
ATOM     33  O   UNL     1       4.972   4.037  19.798  1.00  0.00    -0.341 OA
ATOM     34  C   UNL     1       7.769   4.569  20.282  1.00  0.00     0.179 C 
ATOM     35  C   UNL     1       5.407   5.317  20.228  1.00  0.00     0.178 C 
ATOM     36  C   UNL     1       6.787   5.524  19.581  1.00  0.00     0.177 C 
BRANCH  32  37
ATOM     37  O   UNL     1       7.705   2.659  21.801  1.00  0.00    -0.385 OA
ATOM     38  H   UNL     1       8.408   3.297  22.100  1.00  0.00     0.211 HD
ENDBRANCH  32  37
BRANCH  34  39
ATOM     39  O   UNL     1       8.334   5.182  21.416  1.00  0.00    -0.387 OA
ATOM     40  H   UNL     1       9.239   5.517  21.177  1.00  0.00     0.211 HD
ENDBRANCH  34  39
BRANCH  35  41
ATOM     41  C   UNL     1       4.363   6.401  19.873  1.00  0.00     0.191 C 
BRANCH  41  42
ATOM     42  O   UNL     1       4.527   6.840  18.547  1.00  0.00    -0.394 OA
ATOM     43  H   UNL     1       4.688   6.043  17.989  1.00  0.00     0.210 HD
ENDBRANCH  41  42
ENDBRANCH  35  41
BRANCH  36  44
ATOM     44  O   UNL     1       7.260   6.857  19.617  1.00  0.00    -0.387 OA
ATOM     45  H   UNL     1       8.214   6.832  19.919  1.00  0.00     0.211 HD
ENDBRANCH  36  44
ENDBRANCH  30  31
ENDBRANCH  16  30
TORSDOF 12
ENDMDL
MODEL 2
REMARK VINA RESULT:    -6.911      1.896      3.384
REMARK INTER + INTRA:         -12.905
REMARK INTER:                 -11.161
REMARK INTRA:                  -1.744
REMARK UNBOUND:                -1.954
REMARK SMILES CC[C@H](C=C[C@H](C)[C@H]1CC[C@@H]2[C@@H]3CC=C4C[C@@H](O[C@H]5O[C@H](CO)[C@@H](O)[C@@H](O)[C@H]5O)CC[C@@]4(C)[C@H]3CC[C@@]21C)C(C)C
REMARK SMILES IDX 8 1 9 2 10 3 11 4 37 5 36 6 35 7 34 8 12 9 13 10 14 11 15 12
REMARK SMILES IDX 32 13 31 14 30 15 17 16 16 17 33 18 38 19 6 20 7 21 5 22
REMARK SMILES IDX 4 23 3 24 2 25 1 26 39 27 40 28 41 29 18 30 19 31 28 32
REMARK SMILES IDX 20 33 26 34 21 35 24 36 29 37 27 39 22 41 23 42 25 44
REMARK H PARENT 29 38 27 40 23 43 25 45
REMARK Flexibility Score: inf
ROOT
ATOM      1  C   UNL     1       3.252  -2.963  25.028  1.00  0.00     0.002 C 
ATOM      2  C   UNL     1       1.922  -2.222  24.734  1.00  0.00     0.005 C 
ATOM      3  C   UNL     1       2.200  -0.726  24.830  1.00  0.00     0.005 C 
ATOM      4  C   UNL     1       3.728  -0.577  24.889  1.00  0.00    -0.001 C 
ATOM      5  C   UNL     1       4.326  -1.946  24.500  1.00  0.00    -0.026 C 
ATOM      6  C   UNL     1       4.405  -2.132  22.945  1.00  0.00     0.007 C 
ATOM      7  C   UNL     1       4.979  -0.929  22.192  1.00  0.00     0.005 C 
ATOM      8  C   UNL     1       4.165   0.337  22.534  1.00  0.00     0.003 C 
ATOM      9  C   UNL     1       4.320   0.593  24.056  1.00  0.00     0.000 C 
ATOM     10  C   UNL     1       3.774   1.967  24.462  1.00  0.00     0.031 C 
ATOM     11  C   UNL     1       4.552   3.017  23.732  1.00  0.00    -0.027 C 
ATOM     12  C   UNL     1       4.894   2.850  22.432  1.00  0.00    -0.065 C 
ATOM     13  C   UNL     1       4.397   1.631  21.628  1.00  0.00    -0.008 C 
ATOM     14  C   UNL     1       5.436   1.366  20.496  1.00  0.00     0.014 C 
ATOM     15  C   UNL     1       5.720   2.573  19.592  1.00  0.00     0.033 C 
ATOM     16  C   UNL     1       5.699   3.945  20.299  1.00  0.00     0.125 C 
ATOM     17  C   UNL     1       5.912   3.800  21.818  1.00  0.00     0.063 C 
ATOM     18  C   UNL     1       3.027   2.008  20.990  1.00  0.00     0.016 C 
ATOM     19  C   UNL     1       5.771  -2.073  25.052  1.00  0.00     0.012 C 
ENDROOT
BRANCH   1  20
ATOM     20  C   UNL     1       3.289  -3.410  26.537  1.00  0.00     0.012 C 
ATOM     21  C   UNL     1       1.875  -3.741  27.053  1.00  0.00     0.012 C 
BRANCH  20  22
ATOM     22  C   UNL     1       4.173  -4.600  26.847  1.00  0.00    -0.028 C 
ATOM     23  C   UNL     1       4.434  -5.579  25.949  1.00  0.00    -0.027 C 
BRANCH  23  24
ATOM     24  C   UNL     1       5.350  -6.734  26.275  1.00  0.00     0.014 C 
BRANCH  24  25
ATOM     25  C   UNL     1       5.199  -7.923  25.297  1.00  0.00     0.004 C 
ATOM     26  C   UNL     1       5.155  -7.533  23.815  1.00  0.00     0.004 C 
ENDBRANCH  24  25
BRANCH  24  27
ATOM     27  C   UNL     1       6.836  -6.312  26.520  1.00  0.00    -0.011 C 
ATOM     28  C   UNL     1       7.268  -5.223  25.523  1.00  0.00     0.008 C 
ATOM     29  C   UNL     1       7.853  -7.473  26.478  1.00  0.00     0.008 C 
ENDBRANCH  24  27
ENDBRANCH  23  24
ENDBRANCH  20  22
ENDBRANCH   1  20
BRANCH  16  30
ATOM     30  O   UNL     1       6.728   4.737  19.736  1.00  0.00    -0.346 OA
BRANCH  30  31
ATOM     31  C   UNL     1       6.245   5.867  18.995  1.00  0.00     0.282 C 
ATOM     32  C   UNL     1       7.267   6.591  17.999  1.00  0.00     0.202 C 
ATOM     33  O   UNL     1       5.758   6.782  19.954  1.00  0.00    -0.341 OA
ATOM     34  C   UNL     1       8.053   7.850  18.562  1.00  0.00     0.179 C 
ATOM     35  C   UNL     1       6.855   7.329  20.668  1.00  0.00     0.178 C 
ATOM     36  C   UNL     1       7.384   8.480  19.797  1.00  0.00     0.177 C 
BRANCH  32  37
ATOM     37  O   UNL     1       8.194   5.676  17.460  1.00  0.00    -0.385 OA
ATOM     38  H   UNL     1       9.007   6.180  17.183  1.00  0.00     0.211 HD
ENDBRANCH  32  37
BRANCH  34  39
ATOM     39  O   UNL     1       9.409   7.571  18.819  1.00  0.00    -0.387 OA
ATOM     40  H   UNL     1       9.504   6.596  18.989  1.00  0.00     0.211 HD
ENDBRANCH  34  39
BRANCH  35  41
ATOM     41  C   UNL     1       6.429   7.748  22.095  1.00  0.00     0.191 C 
BRANCH  41  42
ATOM     42  O   UNL     1       7.521   8.268  22.811  1.00  0.00    -0.394 OA
ATOM     43  H   UNL     1       7.268   9.167  23.128  1.00  0.00     0.210 HD
ENDBRANCH  41  42
ENDBRANCH  35  41
BRANCH  36  44
ATOM     44  O   UNL     1       8.270   9.361  20.460  1.00  0.00    -0.387 OA
ATOM     45  H   UNL     1       9.195   9.164  20.134  1.00  0.00     0.211 HD
ENDBRANCH  36  44
ENDBRANCH  30  31
ENDBRANCH  16  30
TORSDOF 12
ENDMDL
MODEL 3
REMARK VINA RESULT:    -6.469      1.871      2.610
REMARK INTER + INTRA:         -12.205
REMARK INTER:                 -10.699
REMARK INTRA:                  -1.506
REMARK UNBOUND:                -1.954
REMARK SMILES CC[C@H](C=C[C@H](C)[C@H]1CC[C@@H]2[C@@H]3CC=C4C[C@@H](O[C@H]5O[C@H](CO)[C@@H](O)[C@@H](O)[C@H]5O)CC[C@@]4(C)[C@H]3CC[C@@]21C)C(C)C
REMARK SMILES IDX 8 1 9 2 10 3 11 4 37 5 36 6 35 7 34 8 12 9 13 10 14 11 15 12
REMARK SMILES IDX 32 13 31 14 30 15 17 16 16 17 33 18 38 19 6 20 7 21 5 22
REMARK SMILES IDX 4 23 3 24 2 25 1 26 39 27 40 28 41 29 18 30 19 31 28 32
REMARK SMILES IDX 20 33 26 34 21 35 24 36 29 37 27 39 22 41 23 42 25 44
REMARK H PARENT 29 38 27 40 23 43 25 45
REMARK Flexibility Score: inf
ROOT
ATOM      1  C   UNL     1       2.701  -6.713  23.089  1.00  0.00     0.002 C 
ATOM      2  C   UNL     1       1.875  -6.153  24.276  1.00  0.00     0.005 C 
ATOM      3  C   UNL     1       2.697  -5.043  24.923  1.00  0.00     0.005 C 
ATOM      4  C   UNL     1       3.858  -4.752  23.959  1.00  0.00    -0.001 C 
ATOM      5  C   UNL     1       3.519  -5.454  22.626  1.00  0.00    -0.026 C 
ATOM      6  C   UNL     1       2.562  -4.591  21.733  1.00  0.00     0.007 C 
ATOM      7  C   UNL     1       2.966  -3.119  21.614  1.00  0.00     0.005 C 
ATOM      8  C   UNL     1       3.086  -2.495  23.020  1.00  0.00     0.003 C 
ATOM      9  C   UNL     1       4.213  -3.251  23.771  1.00  0.00     0.000 C 
ATOM     10  C   UNL     1       4.600  -2.549  25.077  1.00  0.00     0.031 C 
ATOM     11  C   UNL     1       5.102  -1.178  24.744  1.00  0.00    -0.027 C 
ATOM     12  C   UNL     1       4.490  -0.426  23.798  1.00  0.00    -0.065 C 
ATOM     13  C   UNL     1       3.192  -0.905  23.116  1.00  0.00    -0.008 C 
ATOM     14  C   UNL     1       3.132  -0.235  21.709  1.00  0.00     0.014 C 
ATOM     15  C   UNL     1       3.243   1.295  21.722  1.00  0.00     0.033 C 
ATOM     16  C   UNL     1       4.179   1.878  22.803  1.00  0.00     0.125 C 
ATOM     17  C   UNL     1       5.192   0.828  23.297  1.00  0.00     0.063 C 
ATOM     18  C   UNL     1       1.992  -0.405  23.974  1.00  0.00     0.016 C 
ATOM     19  C   UNL     1       4.815  -5.700  21.809  1.00  0.00     0.012 C 
ENDROOT
BRANCH   1  20
ATOM     20  C   UNL     1       3.470  -8.009  23.542  1.00  0.00     0.012 C 
ATOM     21  C   UNL     1       3.414  -9.098  22.453  1.00  0.00     0.012 C 
BRANCH  20  22
ATOM     22  C   UNL     1       4.926  -7.813  23.910  1.00  0.00    -0.028 C 
ATOM     23  C   UNL     1       5.384  -7.899  25.182  1.00  0.00    -0.027 C 
BRANCH  23  24
ATOM     24  C   UNL     1       6.848  -7.736  25.512  1.00  0.00     0.014 C 
BRANCH  24  25
ATOM     25  C   UNL     1       7.122  -6.571  26.492  1.00  0.00     0.004 C 
ATOM     26  C   UNL     1       7.030  -5.173  25.870  1.00  0.00     0.004 C 
ENDBRANCH  24  25
BRANCH  24  27
ATOM     27  C   UNL     1       7.558  -9.070  25.913  1.00  0.00    -0.011 C 
ATOM     28  C   UNL     1       8.137  -8.976  27.336  1.00  0.00     0.008 C 
ATOM     29  C   UNL     1       8.667  -9.530  24.942  1.00  0.00     0.008 C 
ENDBRANCH  24  27
ENDBRANCH  23  24
ENDBRANCH  20  22
ENDBRANCH   1  20
BRANCH  16  30
ATOM     30  O   UNL     1       4.859   2.982  22.236  1.00  0.00    -0.346 OA
BRANCH  30  31
ATOM     31  C   UNL     1       5.263   2.773  20.875  1.00  0.00     0.282 C 
ATOM     32  C   UNL     1       6.829   2.826  20.550  1.00  0.00     0.202 C 
ATOM     33  O   UNL     1       4.567   3.736  20.111  1.00  0.00    -0.341 OA
ATOM     34  C   UNL     1       7.415   4.215  20.051  1.00  0.00     0.179 C 
ATOM     35  C   UNL     1       5.096   5.021  20.395  1.00  0.00     0.178 C 
ATOM     36  C   UNL     1       6.337   5.164  19.498  1.00  0.00     0.177 C 
BRANCH  32  37
ATOM     37  O   UNL     1       7.596   2.371  21.641  1.00  0.00    -0.385 OA
ATOM     38  H   UNL     1       7.915   1.451  21.437  1.00  0.00     0.211 HD
ENDBRANCH  32  37
BRANCH  34  39
ATOM     39  O   UNL     1       8.189   4.859  21.034  1.00  0.00    -0.387 OA
ATOM     40  H   UNL     1       8.926   5.352  20.584  1.00  0.00     0.211 HD
ENDBRANCH  34  39
BRANCH  35  41
ATOM     41  C   UNL     1       4.024   6.116  20.187  1.00  0.00     0.191 C 
BRANCH  41  42
ATOM     42  O   UNL     1       4.172   6.729  18.931  1.00  0.00    -0.394 OA
ATOM     43  H   UNL     1       3.280   6.765  18.511  1.00  0.00     0.210 HD
ENDBRANCH  41  42
ENDBRANCH  35  41
BRANCH  36  44
ATOM     44  O   UNL     1       6.833   6.485  19.387  1.00  0.00    -0.387 OA
ATOM     45  H   UNL     1       7.373   6.536  18.546  1.00  0.00     0.211 HD
ENDBRANCH  36  44
ENDBRANCH  30  31
ENDBRANCH  16  30
TORSDOF 12
ENDMDL
MODEL 4
REMARK VINA RESULT:    -5.977      1.412      2.898
REMARK INTER + INTRA:         -11.425
REMARK INTER:                 -10.283
REMARK INTRA:                  -1.142
REMARK UNBOUND:                -1.954
REMARK SMILES CC[C@H](C=C[C@H](C)[C@H]1CC[C@@H]2[C@@H]3CC=C4C[C@@H](O[C@H]5O[C@H](CO)[C@@H](O)[C@@H](O)[C@H]5O)CC[C@@]4(C)[C@H]3CC[C@@]21C)C(C)C
REMARK SMILES IDX 8 1 9 2 10 3 11 4 37 5 36 6 35 7 34 8 12 9 13 10 14 11 15 12
REMARK SMILES IDX 32 13 31 14 30 15 17 16 16 17 33 18 38 19 6 20 7 21 5 22
REMARK SMILES IDX 4 23 3 24 2 25 1 26 39 27 40 28 41 29 18 30 19 31 28 32
REMARK SMILES IDX 20 33 26 34 21 35 24 36 29 37 27 39 22 41 23 42 25 44
REMARK H PARENT 29 38 27 40 23 43 25 45
REMARK Flexibility Score: inf
ROOT
ATOM      1  C   UNL     1       3.450  -3.907  25.341  1.00  0.00     0.002 C 
ATOM      2  C   UNL     1       2.087  -3.506  24.718  1.00  0.00     0.005 C 
ATOM      3  C   UNL     1       1.986  -1.986  24.777  1.00  0.00     0.005 C 
ATOM      4  C   UNL     1       3.386  -1.478  25.158  1.00  0.00    -0.001 C 
ATOM      5  C   UNL     1       4.353  -2.669  24.996  1.00  0.00    -0.026 C 
ATOM      6  C   UNL     1       4.823  -2.848  23.510  1.00  0.00     0.007 C 
ATOM      7  C   UNL     1       5.261  -1.550  22.825  1.00  0.00     0.005 C 
ATOM      8  C   UNL     1       4.123  -0.510  22.901  1.00  0.00     0.003 C 
ATOM      9  C   UNL     1       3.867  -0.209  24.401  1.00  0.00     0.000 C 
ATOM     10  C   UNL     1       2.943   1.000  24.590  1.00  0.00     0.031 C 
ATOM     11  C   UNL     1       3.604   2.197  23.982  1.00  0.00    -0.027 C 
ATOM     12  C   UNL     1       4.261   2.103  22.801  1.00  0.00    -0.065 C 
ATOM     13  C   UNL     1       4.252   0.792  21.987  1.00  0.00    -0.008 C 
ATOM     14  C   UNL     1       5.552   0.770  21.127  1.00  0.00     0.014 C 
ATOM     15  C   UNL     1       5.750   2.000  20.232  1.00  0.00     0.033 C 
ATOM     16  C   UNL     1       5.255   3.336  20.829  1.00  0.00     0.125 C 
ATOM     17  C   UNL     1       5.146   3.261  22.364  1.00  0.00     0.063 C 
ATOM     18  C   UNL     1       3.012   0.827  21.043  1.00  0.00     0.016 C 
ATOM     19  C   UNL     1       5.625  -2.444  25.856  1.00  0.00     0.012 C 
ENDROOT
BRANCH   1  20
ATOM     20  C   UNL     1       3.245  -4.317  26.847  1.00  0.00     0.012 C 
ATOM     21  C   UNL     1       1.875  -4.990  27.058  1.00  0.00     0.012 C 
BRANCH  20  22
ATOM     22  C   UNL     1       4.297  -5.242  27.423  1.00  0.00    -0.028 C 
ATOM     23  C   UNL     1       4.540  -6.480  26.930  1.00  0.00    -0.027 C 
BRANCH  23  24
ATOM     24  C   UNL     1       5.621  -7.365  27.503  1.00  0.00     0.014 C 
BRANCH  24  25
ATOM     25  C   UNL     1       5.158  -8.825  27.719  1.00  0.00     0.004 C 
ATOM     26  C   UNL     1       5.445  -9.390  29.115  1.00  0.00     0.004 C 
ENDBRANCH  24  25
BRANCH  24  27
ATOM     27  C   UNL     1       6.992  -7.249  26.759  1.00  0.00    -0.011 C 
ATOM     28  C   UNL     1       7.038  -8.191  25.544  1.00  0.00     0.008 C 
ATOM     29  C   UNL     1       8.231  -7.500  27.646  1.00  0.00     0.008 C 
ENDBRANCH  24  27
ENDBRANCH  23  24
ENDBRANCH  20  22
ENDBRANCH   1  20
BRANCH  16  30
ATOM     30  O   UNL     1       6.175   4.344  20.455  1.00  0.00    -0.346 OA
BRANCH  30  31
ATOM     31  C   UNL     1       5.919   5.615  21.070  1.00  0.00     0.282 C 
ATOM     32  C   UNL     1       4.623   6.421  20.591  1.00  0.00     0.202 C 
ATOM     33  O   UNL     1       7.084   6.387  20.865  1.00  0.00    -0.341 OA
ATOM     34  C   UNL     1       4.828   7.506  19.451  1.00  0.00     0.179 C 
ATOM     35  C   UNL     1       7.179   6.724  19.491  1.00  0.00     0.178 C 
ATOM     36  C   UNL     1       6.290   7.964  19.306  1.00  0.00     0.177 C 
BRANCH  32  37
ATOM     37  O   UNL     1       3.585   5.547  20.209  1.00  0.00    -0.385 OA
ATOM     38  H   UNL     1       3.743   4.665  20.643  1.00  0.00     0.211 HD
ENDBRANCH  32  37
BRANCH  34  39
ATOM     39  O   UNL     1       4.312   7.090  18.209  1.00  0.00    -0.387 OA
ATOM     40  H   UNL     1       3.602   7.727  17.932  1.00  0.00     0.211 HD
ENDBRANCH  34  39
BRANCH  35  41
ATOM     41  C   UNL     1       8.656   6.924  19.074  1.00  0.00     0.191 C 
BRANCH  41  42
ATOM     42  O   UNL     1       8.769   7.050  17.678  1.00  0.00    -0.394 OA
ATOM     43  H   UNL     1       9.652   7.443  17.486  1.00  0.00     0.210 HD
ENDBRANCH  41  42
ENDBRANCH  35  41
BRANCH  36  44
ATOM     44  O   UNL     1       6.488   8.654  18.086  1.00  0.00    -0.387 OA
ATOM     45  H   UNL     1       6.168   8.060  17.347  1.00  0.00     0.211 HD
ENDBRANCH  36  44
ENDBRANCH  30  31
ENDBRANCH  16  30
TORSDOF 12
ENDMDL
MODEL 5
REMARK VINA RESULT:    -5.827      5.604     11.597
REMARK INTER + INTRA:         -11.188
REMARK INTER:                 -11.126
REMARK INTRA:                  -0.062
REMARK UNBOUND:                -1.954
REMARK SMILES CC[C@H](C=C[C@H](C)[C@H]1CC[C@@H]2[C@@H]3CC=C4C[C@@H](O[C@H]5O[C@H](CO)[C@@H](O)[C@@H](O)[C@H]5O)CC[C@@]4(C)[C@H]3CC[C@@]21C)C(C)C
REMARK SMILES IDX 8 1 9 2 10 3 11 4 37 5 36 6 35 7 34 8 12 9 13 10 14 11 15 12
REMARK SMILES IDX 32 13 31 14 30 15 17 16 16 17 33 18 38 19 6 20 7 21 5 22
REMARK SMILES IDX 4 23 3 24 2 25 1 26 39 27 40 28 41 29 18 30 19 31 28 32
REMARK SMILES IDX 20 33 26 34 21 35 24 36 29 37 27 39 22 41 23 42 25 44
REMARK H PARENT 29 38 27 40 23 43 25 45
REMARK Flexibility Score: inf
ROOT
ATOM      1  C   UNL     1       2.639   0.316  22.769  1.00  0.00     0.002 C 
ATOM      2  C   UNL     1       3.718  -0.292  21.834  1.00  0.00     0.005 C 
ATOM      3  C   UNL     1       4.791  -0.915  22.719  1.00  0.00     0.005 C 
ATOM      4  C   UNL     1       4.214  -0.934  24.144  1.00  0.00    -0.001 C 
ATOM      5  C   UNL     1       2.706  -0.631  24.020  1.00  0.00    -0.026 C 
ATOM      6  C   UNL     1       1.875  -1.913  23.666  1.00  0.00     0.007 C 
ATOM      7  C   UNL     1       2.228  -3.146  24.503  1.00  0.00     0.005 C 
ATOM      8  C   UNL     1       3.738  -3.442  24.384  1.00  0.00     0.003 C 
ATOM      9  C   UNL     1       4.500  -2.222  24.965  1.00  0.00     0.000 C 
ATOM     10  C   UNL     1       5.994  -2.514  25.141  1.00  0.00     0.031 C 
ATOM     11  C   UNL     1       6.142  -3.654  26.100  1.00  0.00    -0.027 C 
ATOM     12  C   UNL     1       5.309  -4.721  26.044  1.00  0.00    -0.065 C 
ATOM     13  C   UNL     1       4.258  -4.852  24.922  1.00  0.00    -0.008 C 
ATOM     14  C   UNL     1       3.092  -5.725  25.479  1.00  0.00     0.014 C 
ATOM     15  C   UNL     1       3.520  -7.093  26.028  1.00  0.00     0.033 C 
ATOM     16  C   UNL     1       4.893  -7.118  26.733  1.00  0.00     0.125 C 
ATOM     17  C   UNL     1       5.314  -5.711  27.199  1.00  0.00     0.063 C 
ATOM     18  C   UNL     1       4.928  -5.593  23.726  1.00  0.00     0.016 C 
ATOM     19  C   UNL     1       2.160  -0.085  25.366  1.00  0.00     0.012 C 
ENDROOT
BRANCH   1  20
ATOM     20  C   UNL     1       2.904   1.857  22.951  1.00  0.00     0.012 C 
ATOM     21  C   UNL     1       3.839   2.122  24.148  1.00  0.00     0.012 C 
BRANCH  20  22
ATOM     22  C   UNL     1       3.494   2.567  21.751  1.00  0.00    -0.028 C 
ATOM     23  C   UNL     1       4.764   3.037  21.722  1.00  0.00    -0.027 C 
BRANCH  23  24
ATOM     24  C   UNL     1       5.335   3.707  20.496  1.00  0.00     0.014 C 
BRANCH  24  25
ATOM     25  C   UNL     1       5.230   5.250  20.545  1.00  0.00     0.004 C 
ATOM     26  C   UNL     1       5.628   5.963  19.248  1.00  0.00     0.004 C 
ENDBRANCH  24  25
BRANCH  24  27
ATOM     27  C   UNL     1       6.757   3.191  20.097  1.00  0.00    -0.011 C 
ATOM     28  C   UNL     1       6.753   1.663  19.914  1.00  0.00     0.008 C 
ATOM     29  C   UNL     1       7.885   3.585  21.075  1.00  0.00     0.008 C 
ENDBRANCH  24  27
ENDBRANCH  23  24
ENDBRANCH  20  22
ENDBRANCH   1  20
BRANCH  16  30
ATOM     30  O   UNL     1       4.792  -7.989  27.844  1.00  0.00    -0.346 OA
BRANCH  30  31
ATOM     31  C   UNL     1       5.354  -9.289  27.611  1.00  0.00     0.282 C 
ATOM     32  C   UNL     1       5.866 -10.113  28.883  1.00  0.00     0.202 C 
ATOM     33  O   UNL     1       6.408  -9.096  26.690  1.00  0.00    -0.341 OA
ATOM     34  C   UNL     1       7.406  -9.993  29.248  1.00  0.00     0.179 C 
ATOM     35  C   UNL     1       7.469  -8.414  27.339  1.00  0.00     0.178 C 
ATOM     36  C   UNL     1       8.271  -9.500  28.074  1.00  0.00     0.177 C 
BRANCH  32  37
ATOM     37  O   UNL     1       5.100  -9.819  30.029  1.00  0.00    -0.385 OA
ATOM     38  H   UNL     1       4.400  -9.158  29.776  1.00  0.00     0.211 HD
ENDBRANCH  32  37
BRANCH  34  39
ATOM     39  O   UNL     1       7.631  -9.209  30.395  1.00  0.00    -0.387 OA
ATOM     40  H   UNL     1       8.359  -9.628  30.927  1.00  0.00     0.211 HD
ENDBRANCH  34  39
BRANCH  35  41
ATOM     41  C   UNL     1       8.291  -7.584  26.325  1.00  0.00     0.191 C 
BRANCH  41  42
ATOM     42  O   UNL     1       8.526  -8.319  25.150  1.00  0.00    -0.394 OA
ATOM     43  H   UNL     1       7.975  -7.921  24.436  1.00  0.00     0.210 HD
ENDBRANCH  41  42
ENDBRANCH  35  41
BRANCH  36  44
ATOM     44  O   UNL     1       9.548  -9.086  28.522  1.00  0.00    -0.387 OA
ATOM     45  H   UNL     1      10.220  -9.388  27.845  1.00  0.00     0.211 HD
ENDBRANCH  36  44
ENDBRANCH  30  31
ENDBRANCH  16  30
TORSDOF 12
ENDMDL
MODEL 6
REMARK VINA RESULT:    -5.779      2.733      4.489
REMARK INTER + INTRA:         -11.112
REMARK INTER:                  -9.786
REMARK INTRA:                  -1.326
REMARK UNBOUND:                -1.954
REMARK SMILES CC[C@H](C=C[C@H](C)[C@H]1CC[C@@H]2[C@@H]3CC=C4C[C@@H](O[C@H]5O[C@H](CO)[C@@H](O)[C@@H](O)[C@H]5O)CC[C@@]4(C)[C@H]3CC[C@@]21C)C(C)C
REMARK SMILES IDX 8 1 9 2 10 3 11 4 37 5 36 6 35 7 34 8 12 9 13 10 14 11 15 12
REMARK SMILES IDX 32 13 31 14 30 15 17 16 16 17 33 18 38 19 6 20 7 21 5 22
REMARK SMILES IDX 4 23 3 24 2 25 1 26 39 27 40 28 41 29 18 30 19 31 28 32
REMARK SMILES IDX 20 33 26 34 21 35 24 36 29 37 27 39 22 41 23 42 25 44
REMARK H PARENT 29 38 27 40 23 43 25 45
REMARK Flexibility Score: inf
ROOT
ATOM      1  C   UNL     1       3.427  -3.181  24.539  1.00  0.00     0.002 C 
ATOM      2  C   UNL     1       4.119  -3.616  23.221  1.00  0.00     0.005 C 
ATOM      3  C   UNL     1       3.632  -2.682  22.119  1.00  0.00     0.005 C 
ATOM      4  C   UNL     1       2.893  -1.534  22.824  1.00  0.00    -0.001 C 
ATOM      5  C   UNL     1       3.238  -1.636  24.325  1.00  0.00    -0.026 C 
ATOM      6  C   UNL     1       4.612  -0.959  24.661  1.00  0.00     0.007 C 
ATOM      7  C   UNL     1       4.802   0.428  24.038  1.00  0.00     0.005 C 
ATOM      8  C   UNL     1       4.610   0.344  22.509  1.00  0.00     0.003 C 
ATOM      9  C   UNL     1       3.153  -0.115  22.246  1.00  0.00     0.000 C 
ATOM     10  C   UNL     1       2.770   0.020  20.769  1.00  0.00     0.031 C 
ATOM     11  C   UNL     1       2.880   1.463  20.383  1.00  0.00    -0.027 C 
ATOM     12  C   UNL     1       3.912   2.221  20.824  1.00  0.00    -0.065 C 
ATOM     13  C   UNL     1       5.066   1.601  21.638  1.00  0.00    -0.008 C 
ATOM     14  C   UNL     1       5.668   2.733  22.526  1.00  0.00     0.014 C 
ATOM     15  C   UNL     1       6.115   3.983  21.756  1.00  0.00     0.033 C 
ATOM     16  C   UNL     1       5.241   4.354  20.539  1.00  0.00     0.125 C 
ATOM     17  C   UNL     1       3.836   3.731  20.643  1.00  0.00     0.063 C 
ATOM     18  C   UNL     1       6.148   1.108  20.631  1.00  0.00     0.016 C 
ATOM     19  C   UNL     1       2.153  -0.920  25.172  1.00  0.00     0.012 C 
ENDROOT
BRANCH   1  20
ATOM     20  C   UNL     1       2.164  -4.084  24.798  1.00  0.00     0.012 C 
ATOM     21  C   UNL     1       2.269  -5.419  24.035  1.00  0.00     0.012 C 
BRANCH  20  22
ATOM     22  C   UNL     1       1.882  -4.415  26.249  1.00  0.00    -0.028 C 
ATOM     23  C   UNL     1       2.631  -3.942  27.273  1.00  0.00    -0.027 C 
BRANCH  23  24
ATOM     24  C   UNL     1       2.301  -4.259  28.712  1.00  0.00     0.014 C 
BRANCH  24  25
ATOM     25  C   UNL     1       3.171  -5.398  29.296  1.00  0.00     0.004 C 
ATOM     26  C   UNL     1       2.410  -6.692  29.607  1.00  0.00     0.004 C 
ENDBRANCH  24  25
BRANCH  24  27
ATOM     27  C   UNL     1       2.221  -2.999  29.634  1.00  0.00    -0.011 C 
ATOM     28  C   UNL     1       2.221  -1.707  28.799  1.00  0.00     0.008 C 
ATOM     29  C   UNL     1       3.328  -2.912  30.707  1.00  0.00     0.008 C 
ENDBRANCH  24  27
ENDBRANCH  23  24
ENDBRANCH  20  22
ENDBRANCH   1  20
BRANCH  16  30
ATOM     30  O   UNL     1       5.144   5.766  20.492  1.00  0.00    -0.346 OA
BRANCH  30  31
ATOM     31  C   UNL     1       5.314   6.311  19.175  1.00  0.00     0.282 C 
ATOM     32  C   UNL     1       6.771   6.226  18.521  1.00  0.00     0.202 C 
ATOM     33  O   UNL     1       4.884   7.654  19.252  1.00  0.00    -0.341 OA
ATOM     34  C   UNL     1       7.713   7.492  18.691  1.00  0.00     0.179 C 
ATOM     35  C   UNL     1       5.823   8.395  20.015  1.00  0.00     0.178 C 
ATOM     36  C   UNL     1       6.943   8.780  19.034  1.00  0.00     0.177 C 
BRANCH  32  37
ATOM     37  O   UNL     1       7.464   5.078  18.955  1.00  0.00    -0.385 OA
ATOM     38  H   UNL     1       6.796   4.402  19.251  1.00  0.00     0.211 HD
ENDBRANCH  32  37
BRANCH  34  39
ATOM     39  O   UNL     1       8.752   7.273  19.615  1.00  0.00    -0.387 OA
ATOM     40  H   UNL     1       8.459   6.578  20.262  1.00  0.00     0.211 HD
ENDBRANCH  34  39
BRANCH  35  41
ATOM     41  C   UNL     1       5.140   9.596  20.713  1.00  0.00     0.191 C 
BRANCH  41  42
ATOM     42  O   UNL     1       5.819   9.939  21.895  1.00  0.00    -0.394 OA
ATOM     43  H   UNL     1       6.759   9.663  21.788  1.00  0.00     0.210 HD
ENDBRANCH  41  42
ENDBRANCH  35  41
BRANCH  36  44
ATOM     44  O   UNL     1       7.819   9.786  19.506  1.00  0.00    -0.387 OA
ATOM     45  H   UNL     1       7.926  10.461  18.775  1.00  0.00     0.211 HD
ENDBRANCH  36  44
ENDBRANCH  30  31
ENDBRANCH  16  30
TORSDOF 12
ENDMDL
MODEL 7
REMARK VINA RESULT:    -5.463      2.386      4.961
REMARK INTER + INTRA:         -10.611
REMARK INTER:                  -9.983
REMARK INTRA:                  -0.629
REMARK UNBOUND:                -1.954
REMARK SMILES CC[C@H](C=C[C@H](C)[C@H]1CC[C@@H]2[C@@H]3CC=C4C[C@@H](O[C@H]5O[C@H](CO)[C@@H](O)[C@@H](O)[C@H]5O)CC[C@@]4(C)[C@H]3CC[C@@]21C)C(C)C
REMARK SMILES IDX 8 1 9 2 10 3 11 4 37 5 36 6 35 7 34 8 12 9 13 10 14 11 15 12
REMARK SMILES IDX 32 13 31 14 30 15 17 16 16 17 33 18 38 19 6 20 7 21 5 22
REMARK SMILES IDX 4 23 3 24 2 25 1 26 39 27 40 28 41 29 18 30 19 31 28 32
REMARK SMILES IDX 20 33 26 34 21 35 24 36 29 37 27 39 22 41 23 42 25 44
REMARK H PARENT 29 38 27 40 23 43 25 45
REMARK Flexibility Score: inf
ROOT
ATOM      1  C   UNL     1       3.510  -2.433  24.577  1.00  0.00     0.002 C 
ATOM      2  C   UNL     1       4.192  -2.985  23.298  1.00  0.00     0.005 C 
ATOM      3  C   UNL     1       3.737  -2.121  22.128  1.00  0.00     0.005 C 
ATOM      4  C   UNL     1       3.032  -0.901  22.743  1.00  0.00    -0.001 C 
ATOM      5  C   UNL     1       3.370  -0.903  24.249  1.00  0.00    -0.026 C 
ATOM      6  C   UNL     1       4.763  -0.245  24.541  1.00  0.00     0.007 C 
ATOM      7  C   UNL     1       4.997   1.085  23.819  1.00  0.00     0.005 C 
ATOM      8  C   UNL     1       4.807   0.895  22.299  1.00  0.00     0.003 C 
ATOM      9  C   UNL     1       3.337   0.463  22.064  1.00  0.00     0.000 C 
ATOM     10  C   UNL     1       2.962   0.500  20.578  1.00  0.00     0.031 C 
ATOM     11  C   UNL     1       3.118   1.906  20.088  1.00  0.00    -0.027 C 
ATOM     12  C   UNL     1       4.171   2.663  20.476  1.00  0.00    -0.065 C 
ATOM     13  C   UNL     1       5.303   2.070  21.340  1.00  0.00    -0.008 C 
ATOM     14  C   UNL     1       5.937   3.246  22.145  1.00  0.00     0.014 C 
ATOM     15  C   UNL     1       6.424   4.421  21.288  1.00  0.00     0.033 C 
ATOM     16  C   UNL     1       5.565   4.728  20.043  1.00  0.00     0.125 C 
ATOM     17  C   UNL     1       4.142   4.157  20.185  1.00  0.00     0.063 C 
ATOM     18  C   UNL     1       6.372   1.472  20.378  1.00  0.00     0.016 C 
ATOM     19  C   UNL     1       2.305  -0.094  25.035  1.00  0.00     0.012 C 
ENDROOT
BRANCH   1  20
ATOM     20  C   UNL     1       2.220  -3.276  24.895  1.00  0.00     0.012 C 
ATOM     21  C   UNL     1       2.303  -4.679  24.264  1.00  0.00     0.012 C 
BRANCH  20  22
ATOM     22  C   UNL     1       1.904  -3.459  26.365  1.00  0.00    -0.028 C 
ATOM     23  C   UNL     1       2.568  -4.332  27.160  1.00  0.00    -0.027 C 
BRANCH  23  24
ATOM     24  C   UNL     1       2.254  -4.465  28.631  1.00  0.00     0.014 C 
BRANCH  24  25
ATOM     25  C   UNL     1       2.833  -5.755  29.259  1.00  0.00     0.004 C 
ATOM     26  C   UNL     1       3.814  -6.521  28.364  1.00  0.00     0.004 C 
ENDBRANCH  24  25
BRANCH  24  27
ATOM     27  C   UNL     1       2.559  -3.176  29.461  1.00  0.00    -0.011 C 
ATOM     28  C   UNL     1       1.929  -3.264  30.862  1.00  0.00     0.008 C 
ATOM     29  C   UNL     1       2.122  -1.856  28.789  1.00  0.00     0.008 C 
ENDBRANCH  24  27
ENDBRANCH  23  24
ENDBRANCH  20  22
ENDBRANCH   1  20
BRANCH  16  30
ATOM     30  O   UNL     1       5.512   6.134  19.890  1.00  0.00    -0.346 OA
BRANCH  30  31
ATOM     31  C   UNL     1       6.341   6.846  20.821  1.00  0.00     0.282 C 
ATOM     32  C   UNL     1       5.888   8.323  21.237  1.00  0.00     0.202 C 
ATOM     33  O   UNL     1       7.634   6.869  20.251  1.00  0.00    -0.341 OA
ATOM     34  C   UNL     1       6.521   9.529  20.422  1.00  0.00     0.179 C 
ATOM     35  C   UNL     1       7.626   7.731  19.124  1.00  0.00     0.178 C 
ATOM     36  C   UNL     1       7.817   9.149  19.685  1.00  0.00     0.177 C 
BRANCH  32  37
ATOM     37  O   UNL     1       4.484   8.451  21.229  1.00  0.00    -0.385 OA
ATOM     38  H   UNL     1       4.210   8.956  22.041  1.00  0.00     0.211 HD
ENDBRANCH  32  37
BRANCH  34  39
ATOM     39  O   UNL     1       5.602  10.125  19.538  1.00  0.00    -0.387 OA
ATOM     40  H   UNL     1       5.309   9.442  18.878  1.00  0.00     0.211 HD
ENDBRANCH  34  39
BRANCH  35  41
ATOM     41  C   UNL     1       8.695   7.299  18.093  1.00  0.00     0.191 C 
BRANCH  41  42
ATOM     42  O   UNL     1       8.275   6.160  17.384  1.00  0.00    -0.394 OA
ATOM     43  H   UNL     1       7.608   6.453  16.720  1.00  0.00     0.210 HD
ENDBRANCH  41  42
ENDBRANCH  35  41
BRANCH  36  44
ATOM     44  O   UNL     1       8.156  10.124  18.718  1.00  0.00    -0.387 OA
ATOM     45  H   UNL     1       9.149  10.096  18.594  1.00  0.00     0.211 HD
ENDBRANCH  36  44
ENDBRANCH  30  31
ENDBRANCH  16  30
TORSDOF 12
ENDMDL
MODEL 8
REMARK VINA RESULT:    -5.452      2.834      4.029
REMARK INTER + INTRA:         -10.593
REMARK INTER:                  -8.883
REMARK INTRA:                  -1.710
REMARK UNBOUND:                -1.954
REMARK SMILES CC[C@H](C=C[C@H](C)[C@H]1CC[C@@H]2[C@@H]3CC=C4C[C@@H](O[C@H]5O[C@H](CO)[C@@H](O)[C@@H](O)[C@H]5O)CC[C@@]4(C)[C@H]3CC[C@@]21C)C(C)C
REMARK SMILES IDX 8 1 9 2 10 3 11 4 37 5 36 6 35 7 34 8 12 9 13 10 14 11 15 12
REMARK SMILES IDX 32 13 31 14 30 15 17 16 16 17 33 18 38 19 6 20 7 21 5 22
REMARK SMILES IDX 4 23 3 24 2 25 1 26 39 27 40 28 41 29 18 30 19 31 28 32
REMARK SMILES IDX 20 33 26 34 21 35 24 36 29 37 27 39 22 41 23 42 25 44
REMARK H PARENT 29 38 27 40 23 43 25 45
REMARK Flexibility Score: inf
ROOT
ATOM      1  C   UNL     1       2.741  -5.150  24.019  1.00  0.00     0.002 C 
ATOM      2  C   UNL     1       1.911  -4.294  25.011  1.00  0.00     0.005 C 
ATOM      3  C   UNL     1       2.715  -3.034  25.311  1.00  0.00     0.005 C 
ATOM      4  C   UNL     1       3.864  -3.005  24.290  1.00  0.00    -0.001 C 
ATOM      5  C   UNL     1       3.531  -4.058  23.212  1.00  0.00    -0.026 C 
ATOM      6  C   UNL     1       2.551  -3.496  22.124  1.00  0.00     0.007 C 
ATOM      7  C   UNL     1       2.924  -2.109  21.592  1.00  0.00     0.005 C 
ATOM      8  C   UNL     1       3.041  -1.115  22.766  1.00  0.00     0.003 C 
ATOM      9  C   UNL     1       4.188  -1.611  23.685  1.00  0.00     0.000 C 
ATOM     10  C   UNL     1       4.569  -0.564  24.738  1.00  0.00     0.031 C 
ATOM     11  C   UNL     1       5.041   0.667  24.028  1.00  0.00    -0.027 C 
ATOM     12  C   UNL     1       4.409   1.113  22.917  1.00  0.00    -0.065 C 
ATOM     13  C   UNL     1       3.116   0.440  22.411  1.00  0.00    -0.008 C 
ATOM     14  C   UNL     1       3.034   0.687  20.874  1.00  0.00     0.014 C 
ATOM     15  C   UNL     1       3.115   2.162  20.456  1.00  0.00     0.033 C 
ATOM     16  C   UNL     1       4.045   3.041  21.320  1.00  0.00     0.125 C 
ATOM     17  C   UNL     1       5.082   2.189  22.077  1.00  0.00     0.063 C 
ATOM     18  C   UNL     1       1.912   1.139  23.109  1.00  0.00     0.016 C 
ATOM     19  C   UNL     1       4.826  -4.500  22.481  1.00  0.00     0.012 C 
ENDROOT
BRANCH   1  20
ATOM     20  C   UNL     1       3.538  -6.254  24.808  1.00  0.00     0.012 C 
ATOM     21  C   UNL     1       2.859  -6.574  26.154  1.00  0.00     0.012 C 
BRANCH  20  22
ATOM     22  C   UNL     1       3.736  -7.566  24.078  1.00  0.00    -0.028 C 
ATOM     23  C   UNL     1       3.360  -7.760  22.792  1.00  0.00    -0.027 C 
BRANCH  23  24
ATOM     24  C   UNL     1       3.606  -9.069  22.081  1.00  0.00     0.014 C 
BRANCH  24  25
ATOM     25  C   UNL     1       2.310  -9.877  21.835  1.00  0.00     0.004 C 
ATOM     26  C   UNL     1       1.975 -10.122  20.360  1.00  0.00     0.004 C 
ENDBRANCH  24  25
BRANCH  24  27
ATOM     27  C   UNL     1       4.510  -8.938  20.811  1.00  0.00    -0.011 C 
ATOM     28  C   UNL     1       5.830  -9.705  20.997  1.00  0.00     0.008 C 
ATOM     29  C   UNL     1       4.820  -7.487  20.385  1.00  0.00     0.008 C 
ENDBRANCH  24  27
ENDBRANCH  23  24
ENDBRANCH  20  22
ENDBRANCH   1  20
BRANCH  16  30
ATOM     30  O   UNL     1       4.700   3.953  20.458  1.00  0.00    -0.346 OA
BRANCH  30  31
ATOM     31  C   UNL     1       6.128   3.807  20.443  1.00  0.00     0.282 C 
ATOM     32  C   UNL     1       6.986   4.831  21.323  1.00  0.00     0.202 C 
ATOM     33  O   UNL     1       6.511   3.881  19.085  1.00  0.00    -0.341 OA
ATOM     34  C   UNL     1       7.547   6.120  20.587  1.00  0.00     0.179 C 
ATOM     35  C   UNL     1       6.332   5.212  18.627  1.00  0.00     0.178 C 
ATOM     36  C   UNL     1       7.598   5.971  19.056  1.00  0.00     0.177 C 
BRANCH  32  37
ATOM     37  O   UNL     1       6.283   5.232  22.476  1.00  0.00    -0.385 OA
ATOM     38  H   UNL     1       5.429   4.723  22.516  1.00  0.00     0.211 HD
ENDBRANCH  32  37
BRANCH  34  39
ATOM     39  O   UNL     1       6.858   7.293  20.949  1.00  0.00    -0.387 OA
ATOM     40  H   UNL     1       7.412   7.797  21.602  1.00  0.00     0.211 HD
ENDBRANCH  34  39
BRANCH  35  41
ATOM     41  C   UNL     1       6.052   5.238  17.106  1.00  0.00     0.191 C 
BRANCH  41  42
ATOM     42  O   UNL     1       5.475   6.462  16.725  1.00  0.00    -0.394 OA
ATOM     43  H   UNL     1       5.680   6.603  15.771  1.00  0.00     0.210 HD
ENDBRANCH  41  42
ENDBRANCH  35  41
BRANCH  36  44
ATOM     44  O   UNL     1       7.773   7.227  18.428  1.00  0.00    -0.387 OA
ATOM     45  H   UNL     1       7.118   7.282  17.673  1.00  0.00     0.211 HD
ENDBRANCH  36  44
ENDBRANCH  30  31
ENDBRANCH  16  30
TORSDOF 12
ENDMDL
MODEL 9
REMARK VINA RESULT:    -5.275      4.804     11.862
REMARK INTER + INTRA:         -10.313
REMARK INTER:                  -9.157
REMARK INTRA:                  -1.156
REMARK UNBOUND:                -1.954
REMARK SMILES CC[C@H](C=C[C@H](C)[C@H]1CC[C@@H]2[C@@H]3CC=C4C[C@@H](O[C@H]5O[C@H](CO)[C@@H](O)[C@@H](O)[C@H]5O)CC[C@@]4(C)[C@H]3CC[C@@]21C)C(C)C
REMARK SMILES IDX 8 1 9 2 10 3 11 4 37 5 36 6 35 7 34 8 12 9 13 10 14 11 15 12
REMARK SMILES IDX 32 13 31 14 30 15 17 16 16 17 33 18 38 19 6 20 7 21 5 22
REMARK SMILES IDX 4 23 3 24 2 25 1 26 39 27 40 28 41 29 18 30 19 31 28 32
REMARK SMILES IDX 20 33 26 34 21 35 24 36 29 37 27 39 22 41 23 42 25 44
REMARK H PARENT 29 38 27 40 23 43 25 45
REMARK Flexibility Score: inf
ROOT
ATOM      1  C   UNL     1       3.814   2.711  22.096  1.00  0.00     0.002 C 
ATOM      2  C   UNL     1       2.369   2.455  22.600  1.00  0.00     0.005 C 
ATOM      3  C   UNL     1       2.035   0.997  22.308  1.00  0.00     0.005 C 
ATOM      4  C   UNL     1       3.358   0.325  21.908  1.00  0.00    -0.001 C 
ATOM      5  C   UNL     1       4.489   1.305  22.285  1.00  0.00    -0.026 C 
ATOM      6  C   UNL     1       4.887   1.190  23.797  1.00  0.00     0.007 C 
ATOM      7  C   UNL     1       5.073  -0.247  24.294  1.00  0.00     0.005 C 
ATOM      8  C   UNL     1       3.794  -1.064  24.018  1.00  0.00     0.003 C 
ATOM      9  C   UNL     1       3.586  -1.101  22.482  1.00  0.00     0.000 C 
ATOM     10  C   UNL     1       2.498  -2.102  22.077  1.00  0.00     0.031 C 
ATOM     11  C   UNL     1       2.924  -3.467  22.522  1.00  0.00    -0.027 C 
ATOM     12  C   UNL     1       3.513  -3.651  23.728  1.00  0.00    -0.065 C 
ATOM     13  C   UNL     1       3.659  -2.487  24.729  1.00  0.00    -0.008 C 
ATOM     14  C   UNL     1       4.891  -2.802  25.631  1.00  0.00     0.014 C 
ATOM     15  C   UNL     1       4.838  -4.164  26.337  1.00  0.00     0.033 C 
ATOM     16  C   UNL     1       4.177  -5.300  25.527  1.00  0.00     0.125 C 
ATOM     17  C   UNL     1       4.177  -4.989  24.018  1.00  0.00     0.063 C 
ATOM     18  C   UNL     1       2.374  -2.452  25.610  1.00  0.00     0.016 C 
ATOM     19  C   UNL     1       5.760   1.000  21.449  1.00  0.00     0.012 C 
ENDROOT
BRANCH   1  20
ATOM     20  C   UNL     1       3.769   3.360  20.664  1.00  0.00     0.012 C 
ATOM     21  C   UNL     1       2.856   4.601  20.644  1.00  0.00     0.012 C 
BRANCH  20  22
ATOM     22  C   UNL     1       5.108   3.775  20.090  1.00  0.00    -0.028 C 
ATOM     23  C   UNL     1       5.508   5.067  20.009  1.00  0.00    -0.027 C 
BRANCH  23  24
ATOM     24  C   UNL     1       6.865   5.447  19.467  1.00  0.00     0.014 C 
BRANCH  24  25
ATOM     25  C   UNL     1       6.824   5.880  17.983  1.00  0.00     0.004 C 
ATOM     26  C   UNL     1       5.639   6.777  17.607  1.00  0.00     0.004 C 
ENDBRANCH  24  25
BRANCH  24  27
ATOM     27  C   UNL     1       7.658   6.434  20.384  1.00  0.00    -0.011 C 
ATOM     28  C   UNL     1       6.710   7.167  21.350  1.00  0.00     0.008 C 
ATOM     29  C   UNL     1       8.516   7.471  19.628  1.00  0.00     0.008 C 
ENDBRANCH  24  27
ENDBRANCH  23  24
ENDBRANCH  20  22
ENDBRANCH   1  20
BRANCH  16  30
ATOM     30  O   UNL     1       4.903  -6.488  25.779  1.00  0.00    -0.346 OA
BRANCH  30  31
ATOM     31  C   UNL     1       5.811  -6.386  26.885  1.00  0.00     0.282 C 
ATOM     32  C   UNL     1       7.377  -6.371  26.560  1.00  0.00     0.202 C 
ATOM     33  O   UNL     1       5.496  -7.460  27.747  1.00  0.00    -0.341 OA
ATOM     34  C   UNL     1       8.141  -7.760  26.626  1.00  0.00     0.179 C 
ATOM     35  C   UNL     1       5.895  -8.676  27.133  1.00  0.00     0.178 C 
ATOM     36  C   UNL     1       7.393  -8.825  27.446  1.00  0.00     0.177 C 
BRANCH  32  37
ATOM     37  O   UNL     1       7.637  -5.764  25.314  1.00  0.00    -0.385 OA
ATOM     38  H   UNL     1       7.176  -4.882  25.293  1.00  0.00     0.211 HD
ENDBRANCH  32  37
BRANCH  34  39
ATOM     39  O   UNL     1       8.474  -8.256  25.352  1.00  0.00    -0.387 OA
ATOM     40  H   UNL     1       7.760  -8.883  25.060  1.00  0.00     0.211 HD
ENDBRANCH  34  39
BRANCH  35  41
ATOM     41  C   UNL     1       5.016  -9.853  27.619  1.00  0.00     0.191 C 
BRANCH  41  42
ATOM     42  O   UNL     1       3.779  -9.389  28.097  1.00  0.00    -0.394 OA
ATOM     43  H   UNL     1       3.598  -8.523  27.662  1.00  0.00     0.210 HD
ENDBRANCH  41  42
ENDBRANCH  35  41
BRANCH  36  44
ATOM     44  O   UNL     1       7.919 -10.116  27.203  1.00  0.00    -0.387 OA
ATOM     45  H   UNL     1       7.285 -10.592  26.591  1.00  0.00     0.211 HD
ENDBRANCH  36  44
ENDBRANCH  30  31
ENDBRANCH  16  30
TORSDOF 12
ENDMDL
