MODEL 1
REMARK VINA RESULT:    -3.688      0.000      0.000
REMARK INTER + INTRA:          -5.955
REMARK INTER:                  -5.629
REMARK INTRA:                  -0.326
REMARK UNBOUND:                -0.326
REMARK SMILES O=C([O-])CCCCCCCCC(=O)[O-]
REMARK SMILES IDX 7 1 6 2 5 3 4 4 2 5 1 6 3 7 8 8 9 9 10 10 11 11 12 12 13 13
REMARK SMILES IDX 14 14
REMARK H PARENT
REMARK Flexibility Score: inf
ROOT
ATOM      1  C   UNL     1      47.760  47.000  42.159  1.00  0.00     0.000 C 
ENDROOT
BRANCH   1   2
ATOM      2  C   UNL     1      46.704  47.042  41.048  1.00  0.00     0.000 C 
BRANCH   2   3
ATOM      3  C   UNL     1      45.301  47.268  41.631  1.00  0.00     0.006 C 
BRANCH   3   4
ATOM      4  C   UNL     1      44.736  48.647  41.266  1.00  0.00     0.053 C 
BRANCH   4   5
ATOM      5  C   UNL     1      43.503  48.970  42.055  1.00  0.00     0.041 C 
ATOM      6  O   UNL     1      42.390  48.492  41.712  1.00  0.00    -0.550 OA
ATOM      7  O   UNL     1      43.579  49.824  43.148  1.00  0.00    -0.550 OA
ENDBRANCH   4   5
ENDBRANCH   3   4
ENDBRANCH   2   3
ENDBRANCH   1   2
BRANCH   1   8
ATOM      8  C   UNL     1      48.120  45.552  42.520  1.00  0.00     0.000 C 
BRANCH   8   9
ATOM      9  C   UNL     1      49.283  45.461  43.522  1.00  0.00     0.000 C 
BRANCH   9  10
ATOM     10  C   UNL     1      49.879  46.835  43.863  1.00  0.00     0.006 C 
BRANCH  10  11
ATOM     11  C   UNL     1      51.151  46.687  44.702  1.00  0.00     0.053 C 
BRANCH  11  12
ATOM     12  C   UNL     1      50.903  47.118  46.114  1.00  0.00     0.041 C 
ATOM     13  O   UNL     1      51.862  47.482  46.843  1.00  0.00    -0.550 OA
ATOM     14  O   UNL     1      49.618  47.069  46.639  1.00  0.00    -0.550 OA
ENDBRANCH  11  12
ENDBRANCH  10  11
ENDBRANCH   9  10
ENDBRANCH   8   9
ENDBRANCH   1   8
TORSDOF 9
ENDMDL
MODEL 2
REMARK VINA RESULT:    -3.619      1.051      1.312
REMARK INTER + INTRA:          -5.849
REMARK INTER:                  -5.424
REMARK INTRA:                  -0.425
REMARK UNBOUND:                -0.326
REMARK SMILES O=C([O-])CCCCCCCCC(=O)[O-]
REMARK SMILES IDX 7 1 6 2 5 3 4 4 2 5 1 6 3 7 8 8 9 9 10 10 11 11 12 12 13 13
REMARK SMILES IDX 14 14
REMARK H PARENT
REMARK Flexibility Score: inf
ROOT
ATOM      1  C   UNL     1      48.335  46.873  42.897  1.00  0.00     0.000 C 
ENDROOT
BRANCH   1   2
ATOM      2  C   UNL     1      47.219  46.428  41.944  1.00  0.00     0.000 C 
BRANCH   2   3
ATOM      3  C   UNL     1      46.285  47.599  41.605  1.00  0.00     0.006 C 
BRANCH   3   4
ATOM      4  C   UNL     1      44.813  47.171  41.554  1.00  0.00     0.053 C 
BRANCH   4   5
ATOM      5  C   UNL     1      43.888  48.337  41.727  1.00  0.00     0.041 C 
ATOM      6  O   UNL     1      42.681  48.148  42.032  1.00  0.00    -0.550 OA
ATOM      7  O   UNL     1      44.351  49.630  41.518  1.00  0.00    -0.550 OA
ENDBRANCH   4   5
ENDBRANCH   3   4
ENDBRANCH   2   3
ENDBRANCH   1   2
BRANCH   1   8
ATOM      8  C   UNL     1      49.498  47.511  42.122  1.00  0.00     0.000 C 
BRANCH   8   9
ATOM      9  C   UNL     1      50.867  46.949  42.537  1.00  0.00     0.000 C 
BRANCH   9  10
ATOM     10  C   UNL     1      50.771  45.959  43.708  1.00  0.00     0.006 C 
BRANCH  10  11
ATOM     11  C   UNL     1      51.780  46.309  44.805  1.00  0.00     0.053 C 
BRANCH  11  12
ATOM     12  C   UNL     1      51.086  46.924  45.979  1.00  0.00     0.041 C 
ATOM     13  O   UNL     1      51.753  47.512  46.872  1.00  0.00    -0.550 OA
ATOM     14  O   UNL     1      49.710  46.804  46.114  1.00  0.00    -0.550 OA
ENDBRANCH  11  12
ENDBRANCH  10  11
ENDBRANCH   9  10
ENDBRANCH   8   9
ENDBRANCH   1   8
TORSDOF 9
ENDMDL
MODEL 3
REMARK VINA RESULT:    -3.612      0.789      7.070
REMARK INTER + INTRA:          -5.838
REMARK INTER:                  -5.467
REMARK INTRA:                  -0.371
REMARK UNBOUND:                -0.326
REMARK SMILES O=C([O-])CCCCCCCCC(=O)[O-]
REMARK SMILES IDX 7 1 6 2 5 3 4 4 2 5 1 6 3 7 8 8 9 9 10 10 11 11 12 12 13 13
REMARK SMILES IDX 14 14
REMARK H PARENT
REMARK Flexibility Score: inf
ROOT
ATOM      1  C   UNL     1      48.997  47.145  42.942  1.00  0.00     0.000 C 
ENDROOT
BRANCH   1   2
ATOM      2  C   UNL     1      49.010  45.685  43.410  1.00  0.00     0.000 C 
BRANCH   2   3
ATOM      3  C   UNL     1      50.023  45.480  44.546  1.00  0.00     0.006 C 
BRANCH   3   4
ATOM      4  C   UNL     1      50.884  46.727  44.788  1.00  0.00     0.053 C 
BRANCH   4   5
ATOM      5  C   UNL     1      50.838  47.166  46.219  1.00  0.00     0.041 C 
ATOM      6  O   UNL     1      51.899  47.477  46.821  1.00  0.00    -0.550 OA
ATOM      7  O   UNL     1      49.626  47.199  46.899  1.00  0.00    -0.550 OA
ENDBRANCH   4   5
ENDBRANCH   3   4
ENDBRANCH   2   3
ENDBRANCH   1   2
BRANCH   1   8
ATOM      8  C   UNL     1      48.245  47.289  41.610  1.00  0.00     0.000 C 
BRANCH   8   9
ATOM      9  C   UNL     1      46.805  46.757  41.681  1.00  0.00     0.000 C 
BRANCH   9  10
ATOM     10  C   UNL     1      45.763  47.812  41.282  1.00  0.00     0.006 C 
BRANCH  10  11
ATOM     11  C   UNL     1      44.342  47.307  41.546  1.00  0.00     0.053 C 
BRANCH  11  12
ATOM     12  C   UNL     1      43.411  48.455  41.776  1.00  0.00     0.041 C 
ATOM     13  O   UNL     1      43.853  49.555  42.202  1.00  0.00    -0.550 OA
ATOM     14  O   UNL     1      42.047  48.295  41.569  1.00  0.00    -0.550 OA
ENDBRANCH  11  12
ENDBRANCH  10  11
ENDBRANCH   9  10
ENDBRANCH   8   9
ENDBRANCH   1   8
TORSDOF 9
ENDMDL
MODEL 4
REMARK VINA RESULT:    -3.293     13.648     15.454
REMARK INTER + INTRA:          -5.352
REMARK INTER:                  -5.001
REMARK INTRA:                  -0.351
REMARK UNBOUND:                -0.326
REMARK SMILES O=C([O-])CCCCCCCCC(=O)[O-]
REMARK SMILES IDX 7 1 6 2 5 3 4 4 2 5 1 6 3 7 8 8 9 9 10 10 11 11 12 12 13 13
REMARK SMILES IDX 14 14
REMARK H PARENT
REMARK Flexibility Score: inf
ROOT
ATOM      1  C   UNL     1      49.779  46.316  55.318  1.00  0.00     0.000 C 
ENDROOT
BRANCH   1   2
ATOM      2  C   UNL     1      50.398  44.956  54.975  1.00  0.00     0.000 C 
BRANCH   2   3
ATOM      3  C   UNL     1      51.932  45.032  54.984  1.00  0.00     0.006 C 
BRANCH   3   4
ATOM      4  C   UNL     1      52.460  45.975  56.072  1.00  0.00     0.053 C 
BRANCH   4   5
ATOM      5  C   UNL     1      52.660  45.264  57.376  1.00  0.00     0.041 C 
ATOM      6  O   UNL     1      51.665  44.875  58.043  1.00  0.00    -0.550 OA
ATOM      7  O   UNL     1      53.942  45.060  57.870  1.00  0.00    -0.550 OA
ENDBRANCH   4   5
ENDBRANCH   3   4
ENDBRANCH   2   3
ENDBRANCH   1   2
BRANCH   1   8
ATOM      8  C   UNL     1      49.035  46.259  56.661  1.00  0.00     0.000 C 
BRANCH   8   9
ATOM      9  C   UNL     1      48.431  44.875  56.945  1.00  0.00     0.000 C 
BRANCH   9  10
ATOM     10  C   UNL     1      47.273  44.930  57.953  1.00  0.00     0.006 C 
BRANCH  10  11
ATOM     11  C   UNL     1      47.164  46.318  58.589  1.00  0.00     0.053 C 
BRANCH  11  12
ATOM     12  C   UNL     1      47.883  46.353  59.900  1.00  0.00     0.041 C 
ATOM     13  O   UNL     1      48.347  47.439  60.339  1.00  0.00    -0.550 OA
ATOM     14  O   UNL     1      48.086  45.180  60.613  1.00  0.00    -0.550 OA
ENDBRANCH  11  12
ENDBRANCH  10  11
ENDBRANCH   9  10
ENDBRANCH   8   9
ENDBRANCH   1   8
TORSDOF 9
ENDMDL
MODEL 5
REMARK VINA RESULT:    -3.172     11.864     14.595
REMARK INTER + INTRA:          -5.168
REMARK INTER:                  -4.772
REMARK INTRA:                  -0.396
REMARK UNBOUND:                -0.326
REMARK SMILES O=C([O-])CCCCCCCCC(=O)[O-]
REMARK SMILES IDX 7 1 6 2 5 3 4 4 2 5 1 6 3 7 8 8 9 9 10 10 11 11 12 12 13 13
REMARK SMILES IDX 14 14
REMARK H PARENT
REMARK Flexibility Score: inf
ROOT
ATOM      1  C   UNL     1      49.823  46.401  55.419  1.00  0.00     0.000 C 
ENDROOT
BRANCH   1   2
ATOM      2  C   UNL     1      51.280  46.426  54.941  1.00  0.00     0.000 C 
BRANCH   2   3
ATOM      3  C   UNL     1      51.660  45.099  54.267  1.00  0.00     0.006 C 
BRANCH   3   4
ATOM      4  C   UNL     1      53.177  44.875  54.239  1.00  0.00     0.053 C 
BRANCH   4   5
ATOM      5  C   UNL     1      53.763  45.195  52.898  1.00  0.00     0.041 C 
ATOM      6  O   UNL     1      53.019  45.580  51.958  1.00  0.00    -0.550 OA
ATOM      7  O   UNL     1      55.125  45.036  52.677  1.00  0.00    -0.550 OA
ENDBRANCH   4   5
ENDBRANCH   3   4
ENDBRANCH   2   3
ENDBRANCH   1   2
BRANCH   1   8
ATOM      8  C   UNL     1      49.610  45.309  56.478  1.00  0.00     0.000 C 
BRANCH   8   9
ATOM      9  C   UNL     1      50.741  45.261  57.517  1.00  0.00     0.000 C 
BRANCH   9  10
ATOM     10  C   UNL     1      50.248  45.549  58.943  1.00  0.00     0.006 C 
BRANCH  10  11
ATOM     11  C   UNL     1      48.743  45.296  59.064  1.00  0.00     0.053 C 
BRANCH  11  12
ATOM     12  C   UNL     1      48.082  46.410  59.814  1.00  0.00     0.041 C 
ATOM     13  O   UNL     1      48.003  47.559  59.303  1.00  0.00    -0.550 OA
ATOM     14  O   UNL     1      47.599  46.193  61.097  1.00  0.00    -0.550 OA
ENDBRANCH  11  12
ENDBRANCH  10  11
ENDBRANCH   9  10
ENDBRANCH   8   9
ENDBRANCH   1   8
TORSDOF 9
ENDMDL
MODEL 6
REMARK VINA RESULT:    -3.171     21.077     23.472
REMARK INTER + INTRA:          -5.166
REMARK INTER:                  -4.795
REMARK INTRA:                  -0.370
REMARK UNBOUND:                -0.326
REMARK SMILES O=C([O-])CCCCCCCCC(=O)[O-]
REMARK SMILES IDX 7 1 6 2 5 3 4 4 2 5 1 6 3 7 8 8 9 9 10 10 11 11 12 12 13 13
REMARK SMILES IDX 14 14
REMARK H PARENT
REMARK Flexibility Score: inf
ROOT
ATOM      1  C   UNL     1      46.474  63.892  59.016  1.00  0.00     0.000 C 
ENDROOT
BRANCH   1   2
ATOM      2  C   UNL     1      46.791  63.432  60.445  1.00  0.00     0.000 C 
BRANCH   2   3
ATOM      3  C   UNL     1      48.187  63.904  60.877  1.00  0.00     0.006 C 
BRANCH   3   4
ATOM      4  C   UNL     1      49.306  63.170  60.127  1.00  0.00     0.053 C 
BRANCH   4   5
ATOM      5  C   UNL     1      50.537  64.015  59.999  1.00  0.00     0.041 C 
ATOM      6  O   UNL     1      50.612  65.119  60.600  1.00  0.00    -0.550 OA
ATOM      7  O   UNL     1      51.587  63.598  59.191  1.00  0.00    -0.550 OA
ENDBRANCH   4   5
ENDBRANCH   3   4
ENDBRANCH   2   3
ENDBRANCH   1   2
BRANCH   1   8
ATOM      8  C   UNL     1      45.176  64.713  58.978  1.00  0.00     0.000 C 
BRANCH   8   9
ATOM      9  C   UNL     1      44.620  64.879  57.555  1.00  0.00     0.000 C 
BRANCH   9  10
ATOM     10  C   UNL     1      44.942  63.681  56.649  1.00  0.00     0.006 C 
BRANCH  10  11
ATOM     11  C   UNL     1      43.720  63.275  55.822  1.00  0.00     0.053 C 
BRANCH  11  12
ATOM     12  C   UNL     1      43.397  64.329  54.810  1.00  0.00     0.041 C 
ATOM     13  O   UNL     1      42.236  64.813  54.747  1.00  0.00    -0.550 OA
ATOM     14  O   UNL     1      44.364  64.740  53.902  1.00  0.00    -0.550 OA
ENDBRANCH  11  12
ENDBRANCH  10  11
ENDBRANCH   9  10
ENDBRANCH   8   9
ENDBRANCH   1   8
TORSDOF 9
ENDMDL
MODEL 7
REMARK VINA RESULT:    -2.922      2.015      2.362
REMARK INTER + INTRA:          -4.786
REMARK INTER:                  -4.348
REMARK INTRA:                  -0.438
REMARK UNBOUND:                -0.326
REMARK SMILES O=C([O-])CCCCCCCCC(=O)[O-]
REMARK SMILES IDX 7 1 6 2 5 3 4 4 2 5 1 6 3 7 8 8 9 9 10 10 11 11 12 12 13 13
REMARK SMILES IDX 14 14
REMARK H PARENT
REMARK Flexibility Score: inf
ROOT
ATOM      1  C   UNL     1      47.798  47.124  42.369  1.00  0.00     0.000 C 
ENDROOT
BRANCH   1   2
ATOM      2  C   UNL     1      47.325  45.817  41.721  1.00  0.00     0.000 C 
BRANCH   2   3
ATOM      3  C   UNL     1      45.860  45.924  41.272  1.00  0.00     0.006 C 
BRANCH   3   4
ATOM      4  C   UNL     1      45.325  47.358  41.376  1.00  0.00     0.053 C 
BRANCH   4   5
ATOM      5  C   UNL     1      43.854  47.383  41.662  1.00  0.00     0.041 C 
ATOM      6  O   UNL     1      43.262  46.334  42.027  1.00  0.00    -0.550 OA
ATOM      7  O   UNL     1      43.132  48.558  41.493  1.00  0.00    -0.550 OA
ENDBRANCH   4   5
ENDBRANCH   3   4
ENDBRANCH   2   3
ENDBRANCH   1   2
BRANCH   1   8
ATOM      8  C   UNL     1      48.637  46.842  43.625  1.00  0.00     0.000 C 
BRANCH   8   9
ATOM      9  C   UNL     1      49.258  45.436  43.621  1.00  0.00     0.000 C 
BRANCH   9  10
ATOM     10  C   UNL     1      50.139  45.174  44.851  1.00  0.00     0.006 C 
BRANCH  10  11
ATOM     11  C   UNL     1      51.306  46.163  44.911  1.00  0.00     0.053 C 
BRANCH  11  12
ATOM     12  C   UNL     1      52.221  45.968  43.743  1.00  0.00     0.041 C 
ATOM     13  O   UNL     1      52.178  46.762  42.765  1.00  0.00    -0.550 OA
ATOM     14  O   UNL     1      53.084  44.882  43.710  1.00  0.00    -0.550 OA
ENDBRANCH  11  12
ENDBRANCH  10  11
ENDBRANCH   9  10
ENDBRANCH   8   9
ENDBRANCH   1   8
TORSDOF 9
ENDMDL
MODEL 8
REMARK VINA RESULT:    -2.869      3.204      4.390
REMARK INTER + INTRA:          -4.705
REMARK INTER:                  -4.286
REMARK INTRA:                  -0.419
REMARK UNBOUND:                -0.326
REMARK SMILES O=C([O-])CCCCCCCCC(=O)[O-]
REMARK SMILES IDX 7 1 6 2 5 3 4 4 2 5 1 6 3 7 8 8 9 9 10 10 11 11 12 12 13 13
REMARK SMILES IDX 14 14
REMARK H PARENT
REMARK Flexibility Score: inf
ROOT
ATOM      1  C   UNL     1      50.530  47.034  44.322  1.00  0.00     0.000 C 
ENDROOT
BRANCH   1   2
ATOM      2  C   UNL     1      49.194  46.284  44.245  1.00  0.00     0.000 C 
BRANCH   2   3
ATOM      3  C   UNL     1      48.808  45.997  42.787  1.00  0.00     0.006 C 
BRANCH   3   4
ATOM      4  C   UNL     1      48.142  47.204  42.114  1.00  0.00     0.053 C 
BRANCH   4   5
ATOM      5  C   UNL     1      46.742  46.894  41.677  1.00  0.00     0.041 C 
ATOM      6  O   UNL     1      46.379  45.700  41.515  1.00  0.00    -0.550 OA
ATOM      7  O   UNL     1      45.850  47.927  41.416  1.00  0.00    -0.550 OA
ENDBRANCH   4   5
ENDBRANCH   3   4
ENDBRANCH   2   3
ENDBRANCH   1   2
BRANCH   1   8
ATOM      8  C   UNL     1      51.462  46.392  45.361  1.00  0.00     0.000 C 
BRANCH   8   9
ATOM      9  C   UNL     1      51.871  44.959  44.985  1.00  0.00     0.000 C 
BRANCH   9  10
ATOM     10  C   UNL     1      52.535  44.875  43.603  1.00  0.00     0.006 C 
BRANCH  10  11
ATOM     11  C   UNL     1      53.560  45.997  43.418  1.00  0.00     0.053 C 
BRANCH  11  12
ATOM     12  C   UNL     1      53.678  46.370  41.974  1.00  0.00     0.041 C 
ATOM     13  O   UNL     1      52.834  47.144  41.448  1.00  0.00    -0.550 OA
ATOM     14  O   UNL     1      54.688  45.822  41.195  1.00  0.00    -0.550 OA
ENDBRANCH  11  12
ENDBRANCH  10  11
ENDBRANCH   9  10
ENDBRANCH   8   9
ENDBRANCH   1   8
TORSDOF 9
ENDMDL
