MODEL 1
REMARK VINA RESULT:    -3.944      0.000      0.000
REMARK INTER + INTRA:          -5.586
REMARK INTER:                  -4.981
REMARK INTRA:                  -0.605
REMARK UNBOUND:                -0.605
REMARK SMILES C=C[C@](C)(O)CCC=C(C)C
REMARK SMILES IDX 6 1 7 2 8 3 10 4 9 5 11 6 3 7 4 8 2 9 1 10 5 11
REMARK H PARENT 5 12
REMARK Flexibility Score: inf
ROOT
ATOM      1  C   UNL     1       1.016 -14.593  10.593  1.00  0.00     0.043 C 
ENDROOT
BRANCH   1   2
ATOM      2  C   UNL     1       1.625 -13.297  10.030  1.00  0.00     0.030 C 
BRANCH   2   3
ATOM      3  C   UNL     1       0.790 -12.769   8.889  1.00  0.00    -0.028 C 
ATOM      4  C   UNL     1       2.741 -12.604   7.328  1.00  0.00     0.039 C 
ATOM      5  C   UNL     1       1.282 -12.429   7.678  1.00  0.00    -0.080 C 
ATOM      6  C   UNL     1       0.332 -11.876   6.647  1.00  0.00     0.039 C 
ENDBRANCH   2   3
ENDBRANCH   1   2
BRANCH   1   7
ATOM      7  C   UNL     1       1.759 -15.876  10.140  1.00  0.00     0.080 C 
ATOM      8  C   UNL     1       3.177 -15.546   9.621  1.00  0.00     0.047 C 
BRANCH   7   9
ATOM      9  C   UNL     1       0.951 -16.563   9.047  1.00  0.00    -0.001 C 
ATOM     10  C   UNL     1      -0.233 -16.110   8.617  1.00  0.00     0.007 C 
ENDBRANCH   7   9
BRANCH   7  11
ATOM     11  O   UNL     1       1.855 -16.745  11.246  1.00  0.00    -0.386 OA
ATOM     12  H   UNL     1       0.940 -16.885  11.608  1.00  0.00     0.211 HD
ENDBRANCH   7  11
ENDBRANCH   1   7
TORSDOF 5
ENDMDL
MODEL 2
REMARK VINA RESULT:    -3.772      3.206      5.683
REMARK INTER + INTRA:          -5.369
REMARK INTER:                  -5.155
REMARK INTRA:                  -0.214
REMARK UNBOUND:                -0.605
REMARK SMILES C=C[C@](C)(O)CCC=C(C)C
REMARK SMILES IDX 6 1 7 2 8 3 10 4 9 5 11 6 3 7 4 8 2 9 1 10 5 11
REMARK H PARENT 5 12
REMARK Flexibility Score: inf
ROOT
ATOM      1  C   UNL     1       1.574 -15.708  11.532  1.00  0.00     0.043 C 
ENDROOT
BRANCH   1   2
ATOM      2  C   UNL     1       2.290 -16.746  12.412  1.00  0.00     0.030 C 
BRANCH   2   3
ATOM      3  C   UNL     1       1.425 -17.138  13.585  1.00  0.00    -0.028 C 
ATOM      4  C   UNL     1       2.703 -19.243  14.031  1.00  0.00     0.039 C 
ATOM      5  C   UNL     1       1.582 -18.269  14.306  1.00  0.00    -0.080 C 
ATOM      6  C   UNL     1       0.614 -18.548  15.426  1.00  0.00     0.039 C 
ENDBRANCH   2   3
ENDBRANCH   1   2
BRANCH   1   7
ATOM      7  C   UNL     1       1.734 -15.967  10.011  1.00  0.00     0.080 C 
ATOM      8  C   UNL     1       3.094 -15.444   9.496  1.00  0.00     0.047 C 
BRANCH   7   9
ATOM      9  C   UNL     1       0.596 -15.282   9.265  1.00  0.00    -0.001 C 
ATOM     10  C   UNL     1      -0.313 -15.950   8.544  1.00  0.00     0.007 C 
ENDBRANCH   7   9
BRANCH   7  11
ATOM     11  O   UNL     1       1.651 -17.356   9.788  1.00  0.00    -0.386 OA
ATOM     12  H   UNL     1       1.923 -17.534   8.848  1.00  0.00     0.211 HD
ENDBRANCH   7  11
ENDBRANCH   1   7
TORSDOF 5
ENDMDL
MODEL 3
REMARK VINA RESULT:    -3.485      1.148      2.290
REMARK INTER + INTRA:          -5.007
REMARK INTER:                  -4.430
REMARK INTRA:                  -0.577
REMARK UNBOUND:                -0.605
REMARK SMILES C=C[C@](C)(O)CCC=C(C)C
REMARK SMILES IDX 6 1 7 2 8 3 10 4 9 5 11 6 3 7 4 8 2 9 1 10 5 11
REMARK H PARENT 5 12
REMARK Flexibility Score: inf
ROOT
ATOM      1  C   UNL     1       1.278 -15.950   9.579  1.00  0.00     0.043 C 
ENDROOT
BRANCH   1   2
ATOM      2  C   UNL     1       0.191 -14.872   9.424  1.00  0.00     0.030 C 
BRANCH   2   3
ATOM      3  C   UNL     1       0.413 -14.067   8.168  1.00  0.00    -0.028 C 
ATOM      4  C   UNL     1       1.064 -11.998   9.418  1.00  0.00     0.039 C 
ATOM      5  C   UNL     1       0.781 -12.767   8.149  1.00  0.00    -0.080 C 
ATOM      6  C   UNL     1       0.926 -12.081   6.816  1.00  0.00     0.039 C 
ENDBRANCH   2   3
ENDBRANCH   1   2
BRANCH   1   7
ATOM      7  C   UNL     1       2.056 -15.861  10.918  1.00  0.00     0.080 C 
ATOM      8  C   UNL     1       1.495 -14.734  11.814  1.00  0.00     0.047 C 
BRANCH   7   9
ATOM      9  C   UNL     1       3.529 -15.609  10.625  1.00  0.00    -0.001 C 
ATOM     10  C   UNL     1       4.114 -15.944   9.468  1.00  0.00     0.007 C 
ENDBRANCH   7   9
BRANCH   7  11
ATOM     11  O   UNL     1       1.931 -17.096  11.584  1.00  0.00    -0.386 OA
ATOM     12  H   UNL     1       2.067 -17.821  10.917  1.00  0.00     0.211 HD
ENDBRANCH   7  11
ENDBRANCH   1   7
TORSDOF 5
ENDMDL
MODEL 4
REMARK VINA RESULT:    -3.407      1.999      4.249
REMARK INTER + INTRA:          -4.908
REMARK INTER:                  -4.180
REMARK INTRA:                  -0.727
REMARK UNBOUND:                -0.605
REMARK SMILES C=C[C@](C)(O)CCC=C(C)C
REMARK SMILES IDX 6 1 7 2 8 3 10 4 9 5 11 6 3 7 4 8 2 9 1 10 5 11
REMARK H PARENT 5 12
REMARK Flexibility Score: inf
ROOT
ATOM      1  C   UNL     1       0.609 -13.392  10.482  1.00  0.00     0.043 C 
ENDROOT
BRANCH   1   2
ATOM      2  C   UNL     1       1.757 -13.590  11.486  1.00  0.00     0.030 C 
BRANCH   2   3
ATOM      3  C   UNL     1       1.480 -14.770  12.385  1.00  0.00    -0.028 C 
ATOM      4  C   UNL     1       3.527 -16.013  11.654  1.00  0.00     0.039 C 
ATOM      5  C   UNL     1       2.252 -15.877  12.452  1.00  0.00    -0.080 C 
ATOM      6  C   UNL     1       1.827 -16.995  13.369  1.00  0.00     0.039 C 
ENDBRANCH   2   3
ENDBRANCH   1   2
BRANCH   1   7
ATOM      7  C   UNL     1       0.924 -13.934   9.063  1.00  0.00     0.080 C 
ATOM      8  C   UNL     1       0.518 -12.915   7.974  1.00  0.00     0.047 C 
BRANCH   7   9
ATOM      9  C   UNL     1       0.180 -15.246   8.852  1.00  0.00    -0.001 C 
ATOM     10  C   UNL     1       0.717 -16.443   9.118  1.00  0.00     0.007 C 
ENDBRANCH   7   9
BRANCH   7  11
ATOM     11  O   UNL     1       2.309 -14.180   8.981  1.00  0.00    -0.386 OA
ATOM     12  H   UNL     1       2.634 -14.416   9.891  1.00  0.00     0.211 HD
ENDBRANCH   7  11
ENDBRANCH   1   7
TORSDOF 5
ENDMDL
MODEL 5
REMARK VINA RESULT:    -3.357      1.981      3.876
REMARK INTER + INTRA:          -4.844
REMARK INTER:                  -4.183
REMARK INTRA:                  -0.662
REMARK UNBOUND:                -0.605
REMARK SMILES C=C[C@](C)(O)CCC=C(C)C
REMARK SMILES IDX 6 1 7 2 8 3 10 4 9 5 11 6 3 7 4 8 2 9 1 10 5 11
REMARK H PARENT 5 12
REMARK Flexibility Score: inf
ROOT
ATOM      1  C   UNL     1       2.732 -12.566   7.823  1.00  0.00     0.043 C 
ENDROOT
BRANCH   1   2
ATOM      2  C   UNL     1       1.460 -12.626   8.687  1.00  0.00     0.030 C 
BRANCH   2   3
ATOM      3  C   UNL     1       0.615 -13.817   8.308  1.00  0.00    -0.028 C 
ATOM      4  C   UNL     1       1.015 -14.994  10.481  1.00  0.00     0.039 C 
ATOM      5  C   UNL     1       0.427 -14.900   9.093  1.00  0.00    -0.080 C 
ATOM      6  C   UNL     1      -0.412 -16.034   8.563  1.00  0.00     0.039 C 
ENDBRANCH   2   3
ENDBRANCH   1   2
BRANCH   1   7
ATOM      7  C   UNL     1       4.035 -12.847   8.616  1.00  0.00     0.080 C 
ATOM      8  C   UNL     1       5.166 -11.883   8.190  1.00  0.00     0.047 C 
BRANCH   7   9
ATOM      9  C   UNL     1       4.464 -14.289   8.378  1.00  0.00    -0.001 C 
ATOM     10  C   UNL     1       4.323 -15.255   9.294  1.00  0.00     0.007 C 
ENDBRANCH   7   9
BRANCH   7  11
ATOM     11  O   UNL     1       3.764 -12.675   9.988  1.00  0.00    -0.386 OA
ATOM     12  H   UNL     1       4.605 -12.389  10.435  1.00  0.00     0.211 HD
ENDBRANCH   7  11
ENDBRANCH   1   7
TORSDOF 5
ENDMDL
MODEL 6
REMARK VINA RESULT:    -3.335      2.859      4.031
REMARK INTER + INTRA:          -4.818
REMARK INTER:                  -4.523
REMARK INTRA:                  -0.294
REMARK UNBOUND:                -0.605
REMARK SMILES C=C[C@](C)(O)CCC=C(C)C
REMARK SMILES IDX 6 1 7 2 8 3 10 4 9 5 11 6 3 7 4 8 2 9 1 10 5 11
REMARK H PARENT 5 12
REMARK Flexibility Score: inf
ROOT
ATOM      1  C   UNL     1       1.944 -15.576  12.319  1.00  0.00     0.043 C 
ENDROOT
BRANCH   1   2
ATOM      2  C   UNL     1       2.520 -15.965  10.947  1.00  0.00     0.030 C 
BRANCH   2   3
ATOM      3  C   UNL     1       1.417 -16.378  10.004  1.00  0.00    -0.028 C 
ATOM      4  C   UNL     1       0.874 -14.022   9.352  1.00  0.00     0.039 C 
ATOM      5  C   UNL     1       0.652 -15.515   9.300  1.00  0.00    -0.080 C 
ATOM      6  C   UNL     1      -0.442 -16.074   8.426  1.00  0.00     0.039 C 
ENDBRANCH   2   3
ENDBRANCH   1   2
BRANCH   1   7
ATOM      7  C   UNL     1       2.524 -16.404  13.495  1.00  0.00     0.080 C 
ATOM      8  C   UNL     1       4.026 -16.699  13.281  1.00  0.00     0.047 C 
BRANCH   7   9
ATOM      9  C   UNL     1       1.749 -17.709  13.618  1.00  0.00    -0.001 C 
ATOM     10  C   UNL     1       2.302 -18.852  14.043  1.00  0.00     0.007 C 
ENDBRANCH   7   9
BRANCH   7  11
ATOM     11  O   UNL     1       2.356 -15.664  14.682  1.00  0.00    -0.386 OA
ATOM     12  H   UNL     1       1.711 -14.930  14.499  1.00  0.00     0.211 HD
ENDBRANCH   7  11
ENDBRANCH   1   7
TORSDOF 5
ENDMDL
MODEL 7
REMARK VINA RESULT:    -3.312      2.288      4.596
REMARK INTER + INTRA:          -4.789
REMARK INTER:                  -4.133
REMARK INTRA:                  -0.656
REMARK UNBOUND:                -0.605
REMARK SMILES C=C[C@](C)(O)CCC=C(C)C
REMARK SMILES IDX 6 1 7 2 8 3 10 4 9 5 11 6 3 7 4 8 2 9 1 10 5 11
REMARK H PARENT 5 12
REMARK Flexibility Score: inf
ROOT
ATOM      1  C   UNL     1       2.734 -14.383   9.263  1.00  0.00     0.043 C 
ENDROOT
BRANCH   1   2
ATOM      2  C   UNL     1       3.267 -15.761   9.694  1.00  0.00     0.030 C 
BRANCH   2   3
ATOM      3  C   UNL     1       4.023 -15.656  10.995  1.00  0.00    -0.028 C 
ATOM      4  C   UNL     1       2.194 -16.729  12.327  1.00  0.00     0.039 C 
ATOM      5  C   UNL     1       3.543 -16.064  12.191  1.00  0.00    -0.080 C 
ATOM      6  C   UNL     1       4.397 -15.858  13.415  1.00  0.00     0.039 C 
ENDBRANCH   2   3
ENDBRANCH   1   2
BRANCH   1   7
ATOM      7  C   UNL     1       1.190 -14.258   9.353  1.00  0.00     0.080 C 
ATOM      8  C   UNL     1       0.764 -13.541  10.653  1.00  0.00     0.047 C 
BRANCH   7   9
ATOM      9  C   UNL     1       0.572 -15.649   9.297  1.00  0.00    -0.001 C 
ATOM     10  C   UNL     1      -0.408 -15.981   8.448  1.00  0.00     0.007 C 
ENDBRANCH   7   9
BRANCH   7  11
ATOM     11  O   UNL     1       0.742 -13.518   8.240  1.00  0.00    -0.386 OA
ATOM     12  H   UNL     1       1.270 -13.803   7.447  1.00  0.00     0.211 HD
ENDBRANCH   7  11
ENDBRANCH   1   7
TORSDOF 5
ENDMDL
MODEL 8
REMARK VINA RESULT:    -3.282      3.140      4.501
REMARK INTER + INTRA:          -4.750
REMARK INTER:                  -4.501
REMARK INTRA:                  -0.249
REMARK UNBOUND:                -0.605
REMARK SMILES C=C[C@](C)(O)CCC=C(C)C
REMARK SMILES IDX 6 1 7 2 8 3 10 4 9 5 11 6 3 7 4 8 2 9 1 10 5 11
REMARK H PARENT 5 12
REMARK Flexibility Score: inf
ROOT
ATOM      1  C   UNL     1       1.833 -16.090  12.471  1.00  0.00     0.043 C 
ENDROOT
BRANCH   1   2
ATOM      2  C   UNL     1       2.442 -16.026  11.059  1.00  0.00     0.030 C 
BRANCH   2   3
ATOM      3  C   UNL     1       1.414 -16.397  10.019  1.00  0.00    -0.028 C 
ATOM      4  C   UNL     1       0.720 -14.023   9.629  1.00  0.00     0.039 C 
ATOM      5  C   UNL     1       0.615 -15.510   9.386  1.00  0.00    -0.080 C 
ATOM      6  C   UNL     1      -0.395 -16.031   8.397  1.00  0.00     0.039 C 
ENDBRANCH   2   3
ENDBRANCH   1   2
BRANCH   1   7
ATOM      7  C   UNL     1       2.702 -16.875  13.488  1.00  0.00     0.080 C 
ATOM      8  C   UNL     1       2.117 -18.280  13.754  1.00  0.00     0.047 C 
BRANCH   7   9
ATOM      9  C   UNL     1       2.780 -16.088  14.790  1.00  0.00    -0.001 C 
ATOM     10  C   UNL     1       2.878 -16.669  15.992  1.00  0.00     0.007 C 
ENDBRANCH   7   9
BRANCH   7  11
ATOM     11  O   UNL     1       4.001 -17.000  12.956  1.00  0.00    -0.386 OA
ATOM     12  H   UNL     1       3.990 -17.737  12.288  1.00  0.00     0.211 HD
ENDBRANCH   7  11
ENDBRANCH   1   7
TORSDOF 5
ENDMDL
MODEL 9
REMARK VINA RESULT:    -2.693      1.924      3.753
REMARK INTER + INTRA:          -4.006
REMARK INTER:                  -3.380
REMARK INTRA:                  -0.626
REMARK UNBOUND:                -0.605
REMARK SMILES C=C[C@](C)(O)CCC=C(C)C
REMARK SMILES IDX 6 1 7 2 8 3 10 4 9 5 11 6 3 7 4 8 2 9 1 10 5 11
REMARK H PARENT 5 12
REMARK Flexibility Score: inf
ROOT
ATOM      1  C   UNL     1       2.472 -12.509  10.276  1.00  0.00     0.043 C 
ENDROOT
BRANCH   1   2
ATOM      2  C   UNL     1       1.620 -13.595  10.955  1.00  0.00     0.030 C 
BRANCH   2   3
ATOM      3  C   UNL     1       0.638 -14.191   9.977  1.00  0.00    -0.028 C 
ATOM      4  C   UNL     1       1.803 -16.406   9.911  1.00  0.00     0.039 C 
ATOM      5  C   UNL     1       0.722 -15.444   9.479  1.00  0.00    -0.080 C 
ATOM      6  C   UNL     1      -0.312 -15.889   8.477  1.00  0.00     0.039 C 
ENDBRANCH   2   3
ENDBRANCH   1   2
BRANCH   1   7
ATOM      7  C   UNL     1       3.887 -12.995   9.865  1.00  0.00     0.080 C 
ATOM      8  C   UNL     1       4.936 -11.875  10.046  1.00  0.00     0.047 C 
BRANCH   7   9
ATOM      9  C   UNL     1       3.856 -13.452   8.412  1.00  0.00    -0.001 C 
ATOM     10  C   UNL     1       3.618 -12.622   7.389  1.00  0.00     0.007 C 
ENDBRANCH   7   9
BRANCH   7  11
ATOM     11  O   UNL     1       4.229 -14.094  10.678  1.00  0.00    -0.386 OA
ATOM     12  H   UNL     1       4.818 -14.697  10.149  1.00  0.00     0.211 HD
ENDBRANCH   7  11
ENDBRANCH   1   7
TORSDOF 5
ENDMDL
