MODEL 1
REMARK VINA RESULT:    -3.472      0.000      0.000
REMARK INTER + INTRA:         -11.789
REMARK INTER:                  -8.750
REMARK INTRA:                  -3.039
REMARK UNBOUND:                -3.039
REMARK SMILES CCCCCCCCCCCCCCCCCCCCCCCCCCCC(=O)[O-]
REMARK SMILES IDX 15 1 16 2 17 3 18 4 19 5 20 6 21 7 22 8 23 9 24 10 25 11
REMARK SMILES IDX 26 12 27 13 28 14 29 15 30 16 14 17 13 18 12 19 11 20 10 21
REMARK SMILES IDX 9 22 8 23 7 24 6 25 5 26 4 27 3 28 2 29 1 30
REMARK H PARENT
REMARK Flexibility Score: inf
ROOT
ATOM      1  C   UNL     1       2.930  21.195  14.840  1.00  0.00     0.000 C 
ENDROOT
BRANCH   1   2
ATOM      2  C   UNL     1       3.082  19.877  15.620  1.00  0.00     0.000 C 
BRANCH   2   3
ATOM      3  C   UNL     1       1.916  18.888  15.396  1.00  0.00     0.000 C 
BRANCH   3   4
ATOM      4  C   UNL     1       2.004  18.106  14.070  1.00  0.00     0.000 C 
BRANCH   4   5
ATOM      5  C   UNL     1       3.427  17.937  13.496  1.00  0.00     0.000 C 
BRANCH   5   6
ATOM      6  C   UNL     1       4.412  17.158  14.384  1.00  0.00     0.000 C 
BRANCH   6   7
ATOM      7  C   UNL     1       5.559  16.521  13.587  1.00  0.00     0.000 C 
BRANCH   7   8
ATOM      8  C   UNL     1       5.480  14.989  13.645  1.00  0.00     0.000 C 
BRANCH   8   9
ATOM      9  C   UNL     1       4.054  14.468  13.903  1.00  0.00     0.000 C 
BRANCH   9  10
ATOM     10  C   UNL     1       3.276  14.045  12.644  1.00  0.00     0.000 C 
BRANCH  10  11
ATOM     11  C   UNL     1       4.036  14.342  11.340  1.00  0.00     0.000 C 
BRANCH  11  12
ATOM     12  C   UNL     1       3.242  15.244  10.376  1.00  0.00     0.006 C 
BRANCH  12  13
ATOM     13  C   UNL     1       3.960  16.558  10.022  1.00  0.00     0.053 C 
BRANCH  13  14
ATOM     14  C   UNL     1       3.183  17.396   9.055  1.00  0.00     0.041 C 
ATOM     15  O   UNL     1       2.834  18.565   9.366  1.00  0.00    -0.550 OA
ATOM     16  O   UNL     1       2.845  16.887   7.806  1.00  0.00    -0.550 OA
ENDBRANCH  13  14
ENDBRANCH  12  13
ENDBRANCH  11  12
ENDBRANCH  10  11
ENDBRANCH   9  10
ENDBRANCH   8   9
ENDBRANCH   7   8
ENDBRANCH   6   7
ENDBRANCH   5   6
ENDBRANCH   4   5
ENDBRANCH   3   4
ENDBRANCH   2   3
ENDBRANCH   1   2
BRANCH   1  17
ATOM     17  C   UNL     1       1.877  22.130  15.460  1.00  0.00     0.000 C 
BRANCH  17  18
ATOM     18  C   UNL     1       1.962  23.575  14.918  1.00  0.00     0.000 C 
BRANCH  18  19
ATOM     19  C   UNL     1       2.415  24.610  15.965  1.00  0.00     0.000 C 
BRANCH  19  20
ATOM     20  C   UNL     1       1.890  26.036  15.730  1.00  0.00     0.000 C 
BRANCH  20  21
ATOM     21  C   UNL     1       2.861  27.137  16.213  1.00  0.00     0.000 C 
BRANCH  21  22
ATOM     22  C   UNL     1       2.711  28.443  15.421  1.00  0.00    -0.000 C 
BRANCH  22  23
ATOM     23  C   UNL     1       2.498  28.161  13.928  1.00  0.00    -0.000 C 
BRANCH  23  24
ATOM     24  C   UNL     1       3.744  28.543  13.113  1.00  0.00    -0.000 C 
BRANCH  24  25
ATOM     25  C   UNL     1       4.186  27.426  12.155  1.00  0.00    -0.000 C 
BRANCH  25  26
ATOM     26  C   UNL     1       3.683  26.040  12.593  1.00  0.00    -0.000 C 
BRANCH  26  27
ATOM     27  C   UNL     1       4.784  25.196  13.256  1.00  0.00    -0.000 C 
BRANCH  27  28
ATOM     28  C   UNL     1       5.842  26.059  13.967  1.00  0.00    -0.000 C 
BRANCH  28  29
ATOM     29  C   UNL     1       6.081  25.621  15.419  1.00  0.00    -0.003 C 
ATOM     30  C   UNL     1       7.141  26.468  16.123  1.00  0.00     0.004 C 
ENDBRANCH  28  29
ENDBRANCH  27  28
ENDBRANCH  26  27
ENDBRANCH  25  26
ENDBRANCH  24  25
ENDBRANCH  23  24
ENDBRANCH  22  23
ENDBRANCH  21  22
ENDBRANCH  20  21
ENDBRANCH  19  20
ENDBRANCH  18  19
ENDBRANCH  17  18
ENDBRANCH   1  17
TORSDOF 26
ENDMDL
MODEL 2
REMARK VINA RESULT:    -3.365      1.286      2.310
REMARK INTER + INTRA:         -11.520
REMARK INTER:                  -9.273
REMARK INTRA:                  -2.246
REMARK UNBOUND:                -3.039
REMARK SMILES CCCCCCCCCCCCCCCCCCCCCCCCCCCC(=O)[O-]
REMARK SMILES IDX 15 1 16 2 17 3 18 4 19 5 20 6 21 7 22 8 23 9 24 10 25 11
REMARK SMILES IDX 26 12 27 13 28 14 29 15 30 16 14 17 13 18 12 19 11 20 10 21
REMARK SMILES IDX 9 22 8 23 7 24 6 25 5 26 4 27 3 28 2 29 1 30
REMARK H PARENT
REMARK Flexibility Score: inf
ROOT
ATOM      1  C   UNL     1       2.748  21.059  14.963  1.00  0.00     0.000 C 
ENDROOT
BRANCH   1   2
ATOM      2  C   UNL     1       2.158  19.773  15.565  1.00  0.00     0.000 C 
BRANCH   2   3
ATOM      3  C   UNL     1       3.192  18.637  15.733  1.00  0.00     0.000 C 
BRANCH   3   4
ATOM      4  C   UNL     1       4.448  18.798  14.852  1.00  0.00     0.000 C 
BRANCH   4   5
ATOM      5  C   UNL     1       4.838  17.555  14.025  1.00  0.00     0.000 C 
BRANCH   5   6
ATOM      6  C   UNL     1       5.712  16.521  14.755  1.00  0.00     0.000 C 
BRANCH   6   7
ATOM      7  C   UNL     1       5.265  15.074  14.499  1.00  0.00     0.000 C 
BRANCH   7   8
ATOM      8  C   UNL     1       3.740  14.943  14.622  1.00  0.00     0.000 C 
BRANCH   8   9
ATOM      9  C   UNL     1       3.118  14.079  13.510  1.00  0.00     0.000 C 
BRANCH   9  10
ATOM     10  C   UNL     1       2.330  14.857  12.441  1.00  0.00     0.000 C 
BRANCH  10  11
ATOM     11  C   UNL     1       2.830  14.589  11.011  1.00  0.00     0.000 C 
BRANCH  11  12
ATOM     12  C   UNL     1       3.438  15.839  10.346  1.00  0.00     0.006 C 
BRANCH  12  13
ATOM     13  C   UNL     1       4.123  15.554   8.998  1.00  0.00     0.053 C 
BRANCH  13  14
ATOM     14  C   UNL     1       4.705  16.785   8.377  1.00  0.00     0.041 C 
ATOM     15  O   UNL     1       4.233  17.236   7.300  1.00  0.00    -0.550 OA
ATOM     16  O   UNL     1       5.768  17.439   8.988  1.00  0.00    -0.550 OA
ENDBRANCH  13  14
ENDBRANCH  12  13
ENDBRANCH  11  12
ENDBRANCH  10  11
ENDBRANCH   9  10
ENDBRANCH   8   9
ENDBRANCH   7   8
ENDBRANCH   6   7
ENDBRANCH   5   6
ENDBRANCH   4   5
ENDBRANCH   3   4
ENDBRANCH   2   3
ENDBRANCH   1   2
BRANCH   1  17
ATOM     17  C   UNL     1       1.875  22.296  15.240  1.00  0.00     0.000 C 
BRANCH  17  18
ATOM     18  C   UNL     1       2.691  23.608  15.301  1.00  0.00     0.000 C 
BRANCH  18  19
ATOM     19  C   UNL     1       3.065  24.175  13.919  1.00  0.00     0.000 C 
BRANCH  19  20
ATOM     20  C   UNL     1       2.173  25.331  13.435  1.00  0.00     0.000 C 
BRANCH  20  21
ATOM     21  C   UNL     1       2.861  26.248  12.398  1.00  0.00     0.000 C 
BRANCH  21  22
ATOM     22  C   UNL     1       2.853  27.723  12.820  1.00  0.00    -0.000 C 
BRANCH  22  23
ATOM     23  C   UNL     1       3.759  27.954  14.037  1.00  0.00    -0.000 C 
BRANCH  23  24
ATOM     24  C   UNL     1       2.966  28.559  15.206  1.00  0.00    -0.000 C 
BRANCH  24  25
ATOM     25  C   UNL     1       3.013  27.682  16.467  1.00  0.00    -0.000 C 
BRANCH  25  26
ATOM     26  C   UNL     1       4.147  26.644  16.420  1.00  0.00    -0.000 C 
BRANCH  26  27
ATOM     27  C   UNL     1       5.425  27.134  17.121  1.00  0.00    -0.000 C 
BRANCH  27  28
ATOM     28  C   UNL     1       6.586  26.131  16.999  1.00  0.00    -0.000 C 
BRANCH  28  29
ATOM     29  C   UNL     1       7.349  26.270  15.674  1.00  0.00    -0.003 C 
ATOM     30  C   UNL     1       6.519  25.833  14.467  1.00  0.00     0.004 C 
ENDBRANCH  28  29
ENDBRANCH  27  28
ENDBRANCH  26  27
ENDBRANCH  25  26
ENDBRANCH  24  25
ENDBRANCH  23  24
ENDBRANCH  22  23
ENDBRANCH  21  22
ENDBRANCH  20  21
ENDBRANCH  19  20
ENDBRANCH  18  19
ENDBRANCH  17  18
ENDBRANCH   1  17
TORSDOF 26
ENDMDL
MODEL 3
REMARK VINA RESULT:    -3.232      1.626      3.940
REMARK INTER + INTRA:         -11.185
REMARK INTER:                  -8.271
REMARK INTRA:                  -2.914
REMARK UNBOUND:                -3.039
REMARK SMILES CCCCCCCCCCCCCCCCCCCCCCCCCCCC(=O)[O-]
REMARK SMILES IDX 15 1 16 2 17 3 18 4 19 5 20 6 21 7 22 8 23 9 24 10 25 11
REMARK SMILES IDX 26 12 27 13 28 14 29 15 30 16 14 17 13 18 12 19 11 20 10 21
REMARK SMILES IDX 9 22 8 23 7 24 6 25 5 26 4 27 3 28 2 29 1 30
REMARK H PARENT
REMARK Flexibility Score: inf
ROOT
ATOM      1  C   UNL     1       5.705  17.302  13.935  1.00  0.00     0.000 C 
ENDROOT
BRANCH   1   2
ATOM      2  C   UNL     1       5.998  16.108  14.860  1.00  0.00     0.000 C 
BRANCH   2   3
ATOM      3  C   UNL     1       5.423  16.274  16.285  1.00  0.00     0.000 C 
BRANCH   3   4
ATOM      4  C   UNL     1       4.632  15.049  16.787  1.00  0.00     0.000 C 
BRANCH   4   5
ATOM      5  C   UNL     1       3.104  15.246  16.886  1.00  0.00     0.000 C 
BRANCH   5   6
ATOM      6  C   UNL     1       2.347  15.233  15.547  1.00  0.00     0.000 C 
BRANCH   6   7
ATOM      7  C   UNL     1       2.942  14.245  14.534  1.00  0.00     0.000 C 
BRANCH   7   8
ATOM      8  C   UNL     1       2.252  14.379  13.169  1.00  0.00     0.000 C 
BRANCH   8   9
ATOM      9  C   UNL     1       3.247  14.503  12.000  1.00  0.00     0.000 C 
BRANCH   9  10
ATOM     10  C   UNL     1       2.754  15.346  10.810  1.00  0.00     0.000 C 
BRANCH  10  11
ATOM     11  C   UNL     1       3.431  16.725  10.731  1.00  0.00     0.000 C 
BRANCH  11  12
ATOM     12  C   UNL     1       3.254  17.400   9.357  1.00  0.00     0.006 C 
BRANCH  12  13
ATOM     13  C   UNL     1       4.561  17.529   8.556  1.00  0.00     0.053 C 
BRANCH  13  14
ATOM     14  C   UNL     1       4.619  16.589   7.392  1.00  0.00     0.041 C 
ATOM     15  O   UNL     1       4.998  15.400   7.557  1.00  0.00    -0.550 OA
ATOM     16  O   UNL     1       4.250  17.024   6.125  1.00  0.00    -0.550 OA
ENDBRANCH  13  14
ENDBRANCH  12  13
ENDBRANCH  11  12
ENDBRANCH  10  11
ENDBRANCH   9  10
ENDBRANCH   8   9
ENDBRANCH   7   8
ENDBRANCH   6   7
ENDBRANCH   5   6
ENDBRANCH   4   5
ENDBRANCH   3   4
ENDBRANCH   2   3
ENDBRANCH   1   2
BRANCH   1  17
ATOM     17  C   UNL     1       4.247  17.783  14.034  1.00  0.00     0.000 C 
BRANCH  17  18
ATOM     18  C   UNL     1       4.097  19.091  14.844  1.00  0.00     0.000 C 
BRANCH  18  19
ATOM     19  C   UNL     1       3.017  19.028  15.940  1.00  0.00     0.000 C 
BRANCH  19  20
ATOM     20  C   UNL     1       1.875  20.046  15.777  1.00  0.00     0.000 C 
BRANCH  20  21
ATOM     21  C   UNL     1       2.243  21.243  14.871  1.00  0.00     0.000 C 
BRANCH  21  22
ATOM     22  C   UNL     1       1.999  22.595  15.555  1.00  0.00    -0.000 C 
BRANCH  22  23
ATOM     23  C   UNL     1       2.960  23.666  15.020  1.00  0.00    -0.000 C 
BRANCH  23  24
ATOM     24  C   UNL     1       2.338  24.417  13.833  1.00  0.00    -0.000 C 
BRANCH  24  25
ATOM     25  C   UNL     1       3.388  25.163  12.993  1.00  0.00    -0.000 C 
BRANCH  25  26
ATOM     26  C   UNL     1       4.803  25.057  13.589  1.00  0.00    -0.000 C 
BRANCH  26  27
ATOM     27  C   UNL     1       5.319  26.402  14.123  1.00  0.00    -0.000 C 
BRANCH  27  28
ATOM     28  C   UNL     1       5.067  26.574  15.632  1.00  0.00    -0.000 C 
BRANCH  28  29
ATOM     29  C   UNL     1       3.850  27.461  15.929  1.00  0.00    -0.003 C 
ATOM     30  C   UNL     1       4.188  28.640  16.840  1.00  0.00     0.004 C 
ENDBRANCH  28  29
ENDBRANCH  27  28
ENDBRANCH  26  27
ENDBRANCH  25  26
ENDBRANCH  24  25
ENDBRANCH  23  24
ENDBRANCH  22  23
ENDBRANCH  21  22
ENDBRANCH  20  21
ENDBRANCH  19  20
ENDBRANCH  18  19
ENDBRANCH  17  18
ENDBRANCH   1  17
TORSDOF 26
ENDMDL
MODEL 4
REMARK VINA RESULT:    -3.047      3.144     10.337
REMARK INTER + INTRA:         -10.719
REMARK INTER:                  -7.825
REMARK INTRA:                  -2.893
REMARK UNBOUND:                -3.039
REMARK SMILES CCCCCCCCCCCCCCCCCCCCCCCCCCCC(=O)[O-]
REMARK SMILES IDX 15 1 16 2 17 3 18 4 19 5 20 6 21 7 22 8 23 9 24 10 25 11
REMARK SMILES IDX 26 12 27 13 28 14 29 15 30 16 14 17 13 18 12 19 11 20 10 21
REMARK SMILES IDX 9 22 8 23 7 24 6 25 5 26 4 27 3 28 2 29 1 30
REMARK H PARENT
REMARK Flexibility Score: inf
ROOT
ATOM      1  C   UNL     1       2.262  21.409  14.762  1.00  0.00     0.000 C 
ENDROOT
BRANCH   1   2
ATOM      2  C   UNL     1       1.875  22.550  15.718  1.00  0.00     0.000 C 
BRANCH   2   3
ATOM      3  C   UNL     1       2.394  23.935  15.271  1.00  0.00     0.000 C 
BRANCH   3   4
ATOM      4  C   UNL     1       2.566  24.077  13.745  1.00  0.00     0.000 C 
BRANCH   4   5
ATOM      5  C   UNL     1       3.831  24.836  13.291  1.00  0.00     0.000 C 
BRANCH   5   6
ATOM      6  C   UNL     1       5.031  24.757  14.250  1.00  0.00     0.000 C 
BRANCH   6   7
ATOM      7  C   UNL     1       6.064  25.866  14.006  1.00  0.00     0.000 C 
BRANCH   7   8
ATOM      8  C   UNL     1       6.824  26.200  15.298  1.00  0.00     0.000 C 
BRANCH   8   9
ATOM      9  C   UNL     1       5.950  26.075  16.560  1.00  0.00     0.000 C 
BRANCH   9  10
ATOM     10  C   UNL     1       5.248  27.372  16.999  1.00  0.00     0.000 C 
BRANCH  10  11
ATOM     11  C   UNL     1       3.756  27.404  16.627  1.00  0.00     0.000 C 
BRANCH  11  12
ATOM     12  C   UNL     1       3.419  28.496  15.593  1.00  0.00     0.006 C 
BRANCH  12  13
ATOM     13  C   UNL     1       2.757  27.957  14.313  1.00  0.00     0.053 C 
BRANCH  13  14
ATOM     14  C   UNL     1       3.473  28.388  13.071  1.00  0.00     0.041 C 
ATOM     15  O   UNL     1       4.633  28.873  13.143  1.00  0.00    -0.550 OA
ATOM     16  O   UNL     1       2.861  28.251  11.831  1.00  0.00    -0.550 OA
ENDBRANCH  13  14
ENDBRANCH  12  13
ENDBRANCH  11  12
ENDBRANCH  10  11
ENDBRANCH   9  10
ENDBRANCH   8   9
ENDBRANCH   7   8
ENDBRANCH   6   7
ENDBRANCH   5   6
ENDBRANCH   4   5
ENDBRANCH   3   4
ENDBRANCH   2   3
ENDBRANCH   1   2
BRANCH   1  17
ATOM     17  C   UNL     1       3.523  20.656  15.221  1.00  0.00     0.000 C 
BRANCH  17  18
ATOM     18  C   UNL     1       3.288  19.139  15.399  1.00  0.00     0.000 C 
BRANCH  18  19
ATOM     19  C   UNL     1       1.913  18.657  14.899  1.00  0.00     0.000 C 
BRANCH  19  20
ATOM     20  C   UNL     1       1.922  18.035  13.492  1.00  0.00     0.000 C 
BRANCH  20  21
ATOM     21  C   UNL     1       3.329  17.603  13.018  1.00  0.00     0.000 C 
BRANCH  21  22
ATOM     22  C   UNL     1       3.388  16.121  12.627  1.00  0.00    -0.000 C 
BRANCH  22  23
ATOM     23  C   UNL     1       2.245  15.756  11.670  1.00  0.00    -0.000 C 
BRANCH  23  24
ATOM     24  C   UNL     1       2.597  16.137  10.224  1.00  0.00    -0.000 C 
BRANCH  24  25
ATOM     25  C   UNL     1       3.853  15.412   9.713  1.00  0.00    -0.000 C 
BRANCH  25  26
ATOM     26  C   UNL     1       3.937  15.392   8.177  1.00  0.00    -0.000 C 
BRANCH  26  27
ATOM     27  C   UNL     1       2.934  16.352   7.519  1.00  0.00    -0.000 C 
BRANCH  27  28
ATOM     28  C   UNL     1       3.608  17.331   6.541  1.00  0.00    -0.000 C 
BRANCH  28  29
ATOM     29  C   UNL     1       3.462  18.795   6.980  1.00  0.00    -0.003 C 
ATOM     30  C   UNL     1       3.083  18.934   8.453  1.00  0.00     0.004 C 
ENDBRANCH  28  29
ENDBRANCH  27  28
ENDBRANCH  26  27
ENDBRANCH  25  26
ENDBRANCH  24  25
ENDBRANCH  23  24
ENDBRANCH  22  23
ENDBRANCH  21  22
ENDBRANCH  20  21
ENDBRANCH  19  20
ENDBRANCH  18  19
ENDBRANCH  17  18
ENDBRANCH   1  17
TORSDOF 26
ENDMDL
MODEL 5
REMARK VINA RESULT:    -3.021      1.538      3.159
REMARK INTER + INTRA:         -10.652
REMARK INTER:                  -8.666
REMARK INTRA:                  -1.986
REMARK UNBOUND:                -3.039
REMARK SMILES CCCCCCCCCCCCCCCCCCCCCCCCCCCC(=O)[O-]
REMARK SMILES IDX 15 1 16 2 17 3 18 4 19 5 20 6 21 7 22 8 23 9 24 10 25 11
REMARK SMILES IDX 26 12 27 13 28 14 29 15 30 16 14 17 13 18 12 19 11 20 10 21
REMARK SMILES IDX 9 22 8 23 7 24 6 25 5 26 4 27 3 28 2 29 1 30
REMARK H PARENT
REMARK Flexibility Score: inf
ROOT
ATOM      1  C   UNL     1       2.267  22.749  14.362  1.00  0.00     0.000 C 
ENDROOT
BRANCH   1   2
ATOM      2  C   UNL     1       1.875  21.830  15.532  1.00  0.00     0.000 C 
BRANCH   2   3
ATOM      3  C   UNL     1       2.634  20.484  15.542  1.00  0.00     0.000 C 
BRANCH   3   4
ATOM      4  C   UNL     1       2.041  19.424  14.592  1.00  0.00     0.000 C 
BRANCH   4   5
ATOM      5  C   UNL     1       2.972  18.236  14.266  1.00  0.00     0.000 C 
BRANCH   5   6
ATOM      6  C   UNL     1       2.344  17.118  13.417  1.00  0.00     0.000 C 
BRANCH   6   7
ATOM      7  C   UNL     1       3.331  16.504  12.414  1.00  0.00     0.000 C 
BRANCH   7   8
ATOM      8  C   UNL     1       2.792  15.179  11.856  1.00  0.00     0.000 C 
BRANCH   8   9
ATOM      9  C   UNL     1       2.023  15.350  10.534  1.00  0.00     0.000 C 
BRANCH   9  10
ATOM     10  C   UNL     1       2.759  14.844   9.280  1.00  0.00     0.000 C 
BRANCH  10  11
ATOM     11  C   UNL     1       2.921  15.928   8.200  1.00  0.00     0.000 C 
BRANCH  11  12
ATOM     12  C   UNL     1       4.125  16.855   8.459  1.00  0.00     0.006 C 
BRANCH  12  13
ATOM     13  C   UNL     1       3.828  18.343   8.211  1.00  0.00     0.053 C 
BRANCH  13  14
ATOM     14  C   UNL     1       3.487  18.631   6.781  1.00  0.00     0.041 C 
ATOM     15  O   UNL     1       2.891  19.697   6.475  1.00  0.00    -0.550 OA
ATOM     16  O   UNL     1       3.831  17.724   5.786  1.00  0.00    -0.550 OA
ENDBRANCH  13  14
ENDBRANCH  12  13
ENDBRANCH  11  12
ENDBRANCH  10  11
ENDBRANCH   9  10
ENDBRANCH   8   9
ENDBRANCH   7   8
ENDBRANCH   6   7
ENDBRANCH   5   6
ENDBRANCH   4   5
ENDBRANCH   3   4
ENDBRANCH   2   3
ENDBRANCH   1   2
BRANCH   1  17
ATOM     17  C   UNL     1       2.951  24.045  14.832  1.00  0.00     0.000 C 
BRANCH  17  18
ATOM     18  C   UNL     1       2.020  24.947  15.673  1.00  0.00     0.000 C 
BRANCH  18  19
ATOM     19  C   UNL     1       2.754  25.787  16.734  1.00  0.00     0.000 C 
BRANCH  19  20
ATOM     20  C   UNL     1       2.987  27.257  16.344  1.00  0.00     0.000 C 
BRANCH  20  21
ATOM     21  C   UNL     1       4.480  27.655  16.309  1.00  0.00     0.000 C 
BRANCH  21  22
ATOM     22  C   UNL     1       5.415  26.451  16.485  1.00  0.00    -0.000 C 
BRANCH  22  23
ATOM     23  C   UNL     1       6.537  26.465  15.439  1.00  0.00    -0.000 C 
BRANCH  23  24
ATOM     24  C   UNL     1       6.088  25.774  14.142  1.00  0.00    -0.000 C 
BRANCH  24  25
ATOM     25  C   UNL     1       4.991  26.558  13.406  1.00  0.00    -0.000 C 
BRANCH  25  26
ATOM     26  C   UNL     1       5.522  27.851  12.762  1.00  0.00    -0.000 C 
BRANCH  26  27
ATOM     27  C   UNL     1       4.460  28.961  12.706  1.00  0.00    -0.000 C 
BRANCH  27  28
ATOM     28  C   UNL     1       3.025  28.405  12.713  1.00  0.00    -0.000 C 
BRANCH  28  29
ATOM     29  C   UNL     1       2.569  27.932  11.325  1.00  0.00    -0.003 C 
ATOM     30  C   UNL     1       2.206  26.448  11.298  1.00  0.00     0.004 C 
ENDBRANCH  28  29
ENDBRANCH  27  28
ENDBRANCH  26  27
ENDBRANCH  25  26
ENDBRANCH  24  25
ENDBRANCH  23  24
ENDBRANCH  22  23
ENDBRANCH  21  22
ENDBRANCH  20  21
ENDBRANCH  19  20
ENDBRANCH  18  19
ENDBRANCH  17  18
ENDBRANCH   1  17
TORSDOF 26
ENDMDL
MODEL 6
REMARK VINA RESULT:    -2.928      3.128     10.436
REMARK INTER + INTRA:         -10.417
REMARK INTER:                  -8.363
REMARK INTRA:                  -2.053
REMARK UNBOUND:                -3.039
REMARK SMILES CCCCCCCCCCCCCCCCCCCCCCCCCCCC(=O)[O-]
REMARK SMILES IDX 15 1 16 2 17 3 18 4 19 5 20 6 21 7 22 8 23 9 24 10 25 11
REMARK SMILES IDX 26 12 27 13 28 14 29 15 30 16 14 17 13 18 12 19 11 20 10 21
REMARK SMILES IDX 9 22 8 23 7 24 6 25 5 26 4 27 3 28 2 29 1 30
REMARK H PARENT
REMARK Flexibility Score: inf
ROOT
ATOM      1  C   UNL     1       2.612  23.212  15.230  1.00  0.00     0.000 C 
ENDROOT
BRANCH   1   2
ATOM      2  C   UNL     1       1.911  24.338  14.451  1.00  0.00     0.000 C 
BRANCH   2   3
ATOM      3  C   UNL     1       2.443  24.519  13.012  1.00  0.00     0.000 C 
BRANCH   3   4
ATOM      4  C   UNL     1       3.623  25.505  12.899  1.00  0.00     0.000 C 
BRANCH   4   5
ATOM      5  C   UNL     1       4.974  24.982  13.431  1.00  0.00     0.000 C 
BRANCH   5   6
ATOM      6  C   UNL     1       5.895  26.043  14.057  1.00  0.00     0.000 C 
BRANCH   6   7
ATOM      7  C   UNL     1       6.393  25.652  15.455  1.00  0.00     0.000 C 
BRANCH   7   8
ATOM      8  C   UNL     1       5.857  26.622  16.518  1.00  0.00     0.000 C 
BRANCH   8   9
ATOM      9  C   UNL     1       4.376  26.378  16.863  1.00  0.00     0.000 C 
BRANCH   9  10
ATOM     10  C   UNL     1       3.542  27.650  17.099  1.00  0.00     0.000 C 
BRANCH  10  11
ATOM     11  C   UNL     1       3.328  28.474  15.818  1.00  0.00     0.000 C 
BRANCH  11  12
ATOM     12  C   UNL     1       2.297  27.840  14.865  1.00  0.00     0.006 C 
BRANCH  12  13
ATOM     13  C   UNL     1       1.878  28.758  13.703  1.00  0.00     0.053 C 
BRANCH  13  14
ATOM     14  C   UNL     1       2.862  28.745  12.576  1.00  0.00     0.041 C 
ATOM     15  O   UNL     1       4.098  28.805  12.812  1.00  0.00    -0.550 OA
ATOM     16  O   UNL     1       2.417  28.663  11.262  1.00  0.00    -0.550 OA
ENDBRANCH  13  14
ENDBRANCH  12  13
ENDBRANCH  11  12
ENDBRANCH  10  11
ENDBRANCH   9  10
ENDBRANCH   8   9
ENDBRANCH   7   8
ENDBRANCH   6   7
ENDBRANCH   5   6
ENDBRANCH   4   5
ENDBRANCH   3   4
ENDBRANCH   2   3
ENDBRANCH   1   2
BRANCH   1  17
ATOM     17  C   UNL     1       1.881  21.864  15.107  1.00  0.00     0.000 C 
BRANCH  17  18
ATOM     18  C   UNL     1       2.804  20.652  15.370  1.00  0.00     0.000 C 
BRANCH  18  19
ATOM     19  C   UNL     1       2.048  19.347  15.682  1.00  0.00     0.000 C 
BRANCH  19  20
ATOM     20  C   UNL     1       1.958  18.359  14.506  1.00  0.00     0.000 C 
BRANCH  20  21
ATOM     21  C   UNL     1       3.329  17.789  14.075  1.00  0.00     0.000 C 
BRANCH  21  22
ATOM     22  C   UNL     1       4.407  17.971  15.153  1.00  0.00    -0.000 C 
BRANCH  22  23
ATOM     23  C   UNL     1       4.537  16.712  16.021  1.00  0.00    -0.000 C 
BRANCH  23  24
ATOM     24  C   UNL     1       3.578  15.612  15.541  1.00  0.00    -0.000 C 
BRANCH  24  25
ATOM     25  C   UNL     1       4.231  14.663  14.525  1.00  0.00    -0.000 C 
BRANCH  25  26
ATOM     26  C   UNL     1       3.194  13.903  13.678  1.00  0.00    -0.000 C 
BRANCH  26  27
ATOM     27  C   UNL     1       3.271  14.266  12.187  1.00  0.00    -0.000 C 
BRANCH  27  28
ATOM     28  C   UNL     1       4.528  15.085  11.843  1.00  0.00    -0.000 C 
BRANCH  28  29
ATOM     29  C   UNL     1       4.233  16.233  10.866  1.00  0.00    -0.003 C 
ATOM     30  C   UNL     1       2.742  16.394  10.578  1.00  0.00     0.004 C 
ENDBRANCH  28  29
ENDBRANCH  27  28
ENDBRANCH  26  27
ENDBRANCH  25  26
ENDBRANCH  24  25
ENDBRANCH  23  24
ENDBRANCH  22  23
ENDBRANCH  21  22
ENDBRANCH  20  21
ENDBRANCH  19  20
ENDBRANCH  18  19
ENDBRANCH  17  18
ENDBRANCH   1  17
TORSDOF 26
ENDMDL
MODEL 7
REMARK VINA RESULT:    -2.915      2.080      5.719
REMARK INTER + INTRA:         -10.386
REMARK INTER:                  -7.803
REMARK INTRA:                  -2.583
REMARK UNBOUND:                -3.039
REMARK SMILES CCCCCCCCCCCCCCCCCCCCCCCCCCCC(=O)[O-]
REMARK SMILES IDX 15 1 16 2 17 3 18 4 19 5 20 6 21 7 22 8 23 9 24 10 25 11
REMARK SMILES IDX 26 12 27 13 28 14 29 15 30 16 14 17 13 18 12 19 11 20 10 21
REMARK SMILES IDX 9 22 8 23 7 24 6 25 5 26 4 27 3 28 2 29 1 30
REMARK H PARENT
REMARK Flexibility Score: inf
ROOT
ATOM      1  C   UNL     1       4.937  16.573  13.561  1.00  0.00     0.000 C 
ENDROOT
BRANCH   1   2
ATOM      2  C   UNL     1       4.864  15.501  12.461  1.00  0.00     0.000 C 
BRANCH   2   3
ATOM      3  C   UNL     1       3.757  14.448  12.697  1.00  0.00     0.000 C 
BRANCH   3   4
ATOM      4  C   UNL     1       2.331  15.033  12.719  1.00  0.00     0.000 C 
BRANCH   4   5
ATOM      5  C   UNL     1       1.986  15.979  11.549  1.00  0.00     0.000 C 
BRANCH   5   6
ATOM      6  C   UNL     1       1.884  17.470  11.911  1.00  0.00     0.000 C 
BRANCH   6   7
ATOM      7  C   UNL     1       2.244  18.395  10.740  1.00  0.00     0.000 C 
BRANCH   7   8
ATOM      8  C   UNL     1       1.995  17.697   9.396  1.00  0.00     0.000 C 
BRANCH   8   9
ATOM      9  C   UNL     1       3.099  17.974   8.359  1.00  0.00     0.000 C 
BRANCH   9  10
ATOM     10  C   UNL     1       4.508  17.504   8.764  1.00  0.00     0.000 C 
BRANCH  10  11
ATOM     11  C   UNL     1       4.852  16.105   8.224  1.00  0.00     0.000 C 
BRANCH  11  12
ATOM     12  C   UNL     1       3.975  15.693   7.026  1.00  0.00     0.006 C 
BRANCH  12  13
ATOM     13  C   UNL     1       4.668  15.860   5.662  1.00  0.00     0.053 C 
BRANCH  13  14
ATOM     14  C   UNL     1       3.791  16.529   4.650  1.00  0.00     0.041 C 
ATOM     15  O   UNL     1       2.591  16.793   4.926  1.00  0.00    -0.550 OA
ATOM     16  O   UNL     1       4.299  16.865   3.401  1.00  0.00    -0.550 OA
ENDBRANCH  13  14
ENDBRANCH  12  13
ENDBRANCH  11  12
ENDBRANCH  10  11
ENDBRANCH   9  10
ENDBRANCH   8   9
ENDBRANCH   7   8
ENDBRANCH   6   7
ENDBRANCH   5   6
ENDBRANCH   4   5
ENDBRANCH   3   4
ENDBRANCH   2   3
ENDBRANCH   1   2
BRANCH   1  17
ATOM     17  C   UNL     1       5.979  16.239  14.644  1.00  0.00     0.000 C 
BRANCH  17  18
ATOM     18  C   UNL     1       5.382  16.221  16.069  1.00  0.00     0.000 C 
BRANCH  18  19
ATOM     19  C   UNL     1       3.845  16.325  16.105  1.00  0.00     0.000 C 
BRANCH  19  20
ATOM     20  C   UNL     1       3.302  17.586  16.798  1.00  0.00     0.000 C 
BRANCH  20  21
ATOM     21  C   UNL     1       1.901  18.008  16.299  1.00  0.00     0.000 C 
BRANCH  21  22
ATOM     22  C   UNL     1       1.963  19.109  15.232  1.00  0.00    -0.000 C 
BRANCH  22  23
ATOM     23  C   UNL     1       1.875  20.502  15.871  1.00  0.00    -0.000 C 
BRANCH  23  24
ATOM     24  C   UNL     1       2.206  21.598  14.846  1.00  0.00    -0.000 C 
BRANCH  24  25
ATOM     25  C   UNL     1       2.017  23.013  15.415  1.00  0.00    -0.000 C 
BRANCH  25  26
ATOM     26  C   UNL     1       2.837  24.069  14.653  1.00  0.00    -0.000 C 
BRANCH  26  27
ATOM     27  C   UNL     1       3.568  25.040  15.594  1.00  0.00    -0.000 C 
BRANCH  27  28
ATOM     28  C   UNL     1       4.965  25.423  15.077  1.00  0.00    -0.000 C 
BRANCH  28  29
ATOM     29  C   UNL     1       5.307  26.897  15.340  1.00  0.00    -0.003 C 
ATOM     30  C   UNL     1       5.956  27.576  14.135  1.00  0.00     0.004 C 
ENDBRANCH  28  29
ENDBRANCH  27  28
ENDBRANCH  26  27
ENDBRANCH  25  26
ENDBRANCH  24  25
ENDBRANCH  23  24
ENDBRANCH  22  23
ENDBRANCH  21  22
ENDBRANCH  20  21
ENDBRANCH  19  20
ENDBRANCH  18  19
ENDBRANCH  17  18
ENDBRANCH   1  17
TORSDOF 26
ENDMDL
MODEL 8
REMARK VINA RESULT:    -2.753      1.302      2.534
REMARK INTER + INTRA:          -9.977
REMARK INTER:                  -7.960
REMARK INTRA:                  -2.017
REMARK UNBOUND:                -3.039
REMARK SMILES CCCCCCCCCCCCCCCCCCCCCCCCCCCC(=O)[O-]
REMARK SMILES IDX 15 1 16 2 17 3 18 4 19 5 20 6 21 7 22 8 23 9 24 10 25 11
REMARK SMILES IDX 26 12 27 13 28 14 29 15 30 16 14 17 13 18 12 19 11 20 10 21
REMARK SMILES IDX 9 22 8 23 7 24 6 25 5 26 4 27 3 28 2 29 1 30
REMARK H PARENT
REMARK Flexibility Score: inf
ROOT
ATOM      1  C   UNL     1       2.751  20.645  14.690  1.00  0.00     0.000 C 
ENDROOT
BRANCH   1   2
ATOM      2  C   UNL     1       2.112  19.344  15.204  1.00  0.00     0.000 C 
BRANCH   2   3
ATOM      3  C   UNL     1       2.822  18.754  16.443  1.00  0.00     0.000 C 
BRANCH   3   4
ATOM      4  C   UNL     1       4.312  18.427  16.216  1.00  0.00     0.000 C 
BRANCH   4   5
ATOM      5  C   UNL     1       4.635  17.710  14.887  1.00  0.00     0.000 C 
BRANCH   5   6
ATOM      6  C   UNL     1       5.617  16.531  14.994  1.00  0.00     0.000 C 
BRANCH   6   7
ATOM      7  C   UNL     1       5.207  15.333  14.125  1.00  0.00     0.000 C 
BRANCH   7   8
ATOM      8  C   UNL     1       3.993  14.611  14.726  1.00  0.00     0.000 C 
BRANCH   8   9
ATOM      9  C   UNL     1       2.780  14.580  13.777  1.00  0.00     0.000 C 
BRANCH   9  10
ATOM     10  C   UNL     1       2.857  15.555  12.588  1.00  0.00     0.000 C 
BRANCH  10  11
ATOM     11  C   UNL     1       2.204  14.997  11.312  1.00  0.00     0.000 C 
BRANCH  11  12
ATOM     12  C   UNL     1       3.104  15.136  10.069  1.00  0.00     0.006 C 
BRANCH  12  13
ATOM     13  C   UNL     1       3.696  16.544   9.885  1.00  0.00     0.053 C 
BRANCH  13  14
ATOM     14  C   UNL     1       4.774  16.584   8.847  1.00  0.00     0.041 C 
ATOM     15  O   UNL     1       5.625  17.513   8.852  1.00  0.00    -0.550 OA
ATOM     16  O   UNL     1       4.843  15.594   7.875  1.00  0.00    -0.550 OA
ENDBRANCH  13  14
ENDBRANCH  12  13
ENDBRANCH  11  12
ENDBRANCH  10  11
ENDBRANCH   9  10
ENDBRANCH   8   9
ENDBRANCH   7   8
ENDBRANCH   6   7
ENDBRANCH   5   6
ENDBRANCH   4   5
ENDBRANCH   3   4
ENDBRANCH   2   3
ENDBRANCH   1   2
BRANCH   1  17
ATOM     17  C   UNL     1       2.056  21.903  15.240  1.00  0.00     0.000 C 
BRANCH  17  18
ATOM     18  C   UNL     1       2.813  23.207  14.901  1.00  0.00     0.000 C 
BRANCH  18  19
ATOM     19  C   UNL     1       1.956  24.480  15.034  1.00  0.00     0.000 C 
BRANCH  19  20
ATOM     20  C   UNL     1       2.012  25.152  16.416  1.00  0.00     0.000 C 
BRANCH  20  21
ATOM     21  C   UNL     1       2.127  26.692  16.348  1.00  0.00     0.000 C 
BRANCH  21  22
ATOM     22  C   UNL     1       3.338  27.226  17.125  1.00  0.00    -0.000 C 
BRANCH  22  23
ATOM     23  C   UNL     1       4.528  27.477  16.189  1.00  0.00    -0.000 C 
BRANCH  23  24
ATOM     24  C   UNL     1       5.793  26.778  16.712  1.00  0.00    -0.000 C 
BRANCH  24  25
ATOM     25  C   UNL     1       6.456  25.888  15.649  1.00  0.00    -0.000 C 
BRANCH  25  26
ATOM     26  C   UNL     1       5.515  25.575  14.472  1.00  0.00    -0.000 C 
BRANCH  26  27
ATOM     27  C   UNL     1       5.319  26.780  13.538  1.00  0.00    -0.000 C 
BRANCH  27  28
ATOM     28  C   UNL     1       4.100  26.616  12.612  1.00  0.00    -0.000 C 
BRANCH  28  29
ATOM     29  C   UNL     1       3.082  27.754  12.771  1.00  0.00    -0.003 C 
ATOM     30  C   UNL     1       2.270  28.001  11.501  1.00  0.00     0.004 C 
ENDBRANCH  28  29
ENDBRANCH  27  28
ENDBRANCH  26  27
ENDBRANCH  25  26
ENDBRANCH  24  25
ENDBRANCH  23  24
ENDBRANCH  22  23
ENDBRANCH  21  22
ENDBRANCH  20  21
ENDBRANCH  19  20
ENDBRANCH  18  19
ENDBRANCH  17  18
ENDBRANCH   1  17
TORSDOF 26
ENDMDL
