MODEL 1
REMARK VINA RESULT:    -4.157      0.000      0.000
REMARK INTER + INTRA:          -4.157
REMARK INTER:                  -4.157
REMARK INTRA:                   0.000
REMARK UNBOUND:                 0.000
REMARK SMILES CC1=CC[C@@H]2[C@H](C1)C2(C)C
REMARK SMILES IDX 1 1 2 2 3 3 4 4 5 5 6 6 7 7 8 8 9 9 10 10
REMARK H PARENT
REMARK Flexibility Score: inf
ROOT
ATOM      1  C   UNL     1     141.700 145.162 136.771  1.00  0.00     0.039 C 
ATOM      2  C   UNL     1     141.033 144.492 135.600  1.00  0.00    -0.077 C 
ATOM      3  C   UNL     1     141.245 144.963 134.360  1.00  0.00    -0.028 C 
ATOM      4  C   UNL     1     140.607 144.328 133.156  1.00  0.00     0.031 C 
ATOM      5  C   UNL     1     139.167 143.857 133.450  1.00  0.00     0.003 C 
ATOM      6  C   UNL     1     138.915 143.308 134.873  1.00  0.00     0.003 C 
ATOM      7  C   UNL     1     140.134 143.297 135.820  1.00  0.00     0.034 C 
ATOM      8  C   UNL     1     138.860 142.365 133.659  1.00  0.00    -0.029 C 
ATOM      9  C   UNL     1     139.961 141.308 133.446  1.00  0.00     0.012 C 
ATOM     10  C   UNL     1     137.448 141.940 133.245  1.00  0.00     0.012 C 
ENDROOT
TORSDOF 0
ENDMDL
MODEL 2
REMARK VINA RESULT:    -4.147      4.248      6.418
REMARK INTER + INTRA:          -4.147
REMARK INTER:                  -4.147
REMARK INTRA:                   0.000
REMARK UNBOUND:                 0.000
REMARK SMILES CC1=CC[C@@H]2[C@H](C1)C2(C)C
REMARK SMILES IDX 1 1 2 2 3 3 4 4 5 5 6 6 7 7 8 8 9 9 10 10
REMARK H PARENT
REMARK Flexibility Score: inf
ROOT
ATOM      1  C   UNL     1     140.543 137.006 136.865  1.00  0.00     0.039 C 
ATOM      2  C   UNL     1     141.196 137.692 135.695  1.00  0.00    -0.077 C 
ATOM      3  C   UNL     1     140.964 137.242 134.452  1.00  0.00    -0.028 C 
ATOM      4  C   UNL     1     141.587 137.893 133.249  1.00  0.00     0.031 C 
ATOM      5  C   UNL     1     143.033 138.354 133.529  1.00  0.00     0.003 C 
ATOM      6  C   UNL     1     143.309 138.879 134.957  1.00  0.00     0.003 C 
ATOM      7  C   UNL     1     142.103 138.880 135.921  1.00  0.00     0.034 C 
ATOM      8  C   UNL     1     143.349 139.841 133.757  1.00  0.00    -0.029 C 
ATOM      9  C   UNL     1     142.250 140.905 133.577  1.00  0.00     0.012 C 
ATOM     10  C   UNL     1     144.757 140.267 133.329  1.00  0.00     0.012 C 
ENDROOT
TORSDOF 0
ENDMDL
MODEL 3
REMARK VINA RESULT:    -4.145      3.631      4.420
REMARK INTER + INTRA:          -4.145
REMARK INTER:                  -4.145
REMARK INTRA:                   0.000
REMARK UNBOUND:                 0.000
REMARK SMILES CC1=CC[C@@H]2[C@H](C1)C2(C)C
REMARK SMILES IDX 1 1 2 2 3 3 4 4 5 5 6 6 7 7 8 8 9 9 10 10
REMARK H PARENT
REMARK Flexibility Score: inf
ROOT
ATOM      1  C   UNL     1     145.131 140.604 136.767  1.00  0.00     0.039 C 
ATOM      2  C   UNL     1     144.423 141.271 135.618  1.00  0.00    -0.077 C 
ATOM      3  C   UNL     1     144.855 141.060 134.364  1.00  0.00    -0.028 C 
ATOM      4  C   UNL     1     144.182 141.697 133.181  1.00  0.00     0.031 C 
ATOM      5  C   UNL     1     143.718 143.136 133.490  1.00  0.00     0.003 C 
ATOM      6  C   UNL     1     143.213 143.387 134.929  1.00  0.00     0.003 C 
ATOM      7  C   UNL     1     143.234 142.167 135.876  1.00  0.00     0.034 C 
ATOM      8  C   UNL     1     142.232 143.440 133.746  1.00  0.00    -0.029 C 
ATOM      9  C   UNL     1     141.172 142.336 133.565  1.00  0.00     0.012 C 
ATOM     10  C   UNL     1     141.792 144.851 133.345  1.00  0.00     0.012 C 
ENDROOT
TORSDOF 0
ENDMDL
MODEL 4
REMARK VINA RESULT:    -4.144      3.784      4.558
REMARK INTER + INTRA:          -4.144
REMARK INTER:                  -4.144
REMARK INTRA:                   0.000
REMARK UNBOUND:                 0.000
REMARK SMILES CC1=CC[C@@H]2[C@H](C1)C2(C)C
REMARK SMILES IDX 1 1 2 2 3 3 4 4 5 5 6 6 7 7 8 8 9 9 10 10
REMARK H PARENT
REMARK Flexibility Score: inf
ROOT
ATOM      1  C   UNL     1     136.993 141.638 136.906  1.00  0.00     0.039 C 
ATOM      2  C   UNL     1     137.671 140.992 135.728  1.00  0.00    -0.077 C 
ATOM      3  C   UNL     1     137.232 141.255 134.487  1.00  0.00    -0.028 C 
ATOM      4  C   UNL     1     137.876 140.640 133.276  1.00  0.00     0.031 C 
ATOM      5  C   UNL     1     138.304 139.179 133.532  1.00  0.00     0.003 C 
ATOM      6  C   UNL     1     138.817 138.868 134.957  1.00  0.00     0.003 C 
ATOM      7  C   UNL     1     138.838 140.056 135.943  1.00  0.00     0.034 C 
ATOM      8  C   UNL     1     139.783 138.828 133.762  1.00  0.00    -0.029 C 
ATOM      9  C   UNL     1     140.872 139.908 133.606  1.00  0.00     0.012 C 
ATOM     10  C   UNL     1     140.181 137.419 133.310  1.00  0.00     0.012 C 
ENDROOT
TORSDOF 0
ENDMDL
MODEL 5
REMARK VINA RESULT:    -4.112      3.988      5.199
REMARK INTER + INTRA:          -4.112
REMARK INTER:                  -4.112
REMARK INTRA:                   0.000
REMARK UNBOUND:                 0.000
REMARK SMILES CC1=CC[C@@H]2[C@H](C1)C2(C)C
REMARK SMILES IDX 1 1 2 2 3 3 4 4 5 5 6 6 7 7 8 8 9 9 10 10
REMARK H PARENT
REMARK Flexibility Score: inf
ROOT
ATOM      1  C   UNL     1     142.570 143.767 133.842  1.00  0.00     0.039 C 
ATOM      2  C   UNL     1     143.108 142.366 133.725  1.00  0.00    -0.077 C 
ATOM      3  C   UNL     1     144.402 142.130 133.998  1.00  0.00    -0.028 C 
ATOM      4  C   UNL     1     144.989 140.750 133.902  1.00  0.00     0.031 C 
ATOM      5  C   UNL     1     144.408 139.960 132.710  1.00  0.00     0.003 C 
ATOM      6  C   UNL     1     142.917 140.220 132.392  1.00  0.00     0.003 C 
ATOM      7  C   UNL     1     142.198 141.235 133.307  1.00  0.00     0.034 C 
ATOM      8  C   UNL     1     143.364 138.855 132.940  1.00  0.00    -0.029 C 
ATOM      9  C   UNL     1     142.985 138.430 134.373  1.00  0.00     0.012 C 
ATOM     10  C   UNL     1     143.389 137.728 131.903  1.00  0.00     0.012 C 
ENDROOT
TORSDOF 0
ENDMDL
MODEL 6
REMARK VINA RESULT:    -4.099      2.169      4.020
REMARK INTER + INTRA:          -4.099
REMARK INTER:                  -4.099
REMARK INTRA:                   0.000
REMARK UNBOUND:                 0.000
REMARK SMILES CC1=CC[C@@H]2[C@H](C1)C2(C)C
REMARK SMILES IDX 1 1 2 2 3 3 4 4 5 5 6 6 7 7 8 8 9 9 10 10
REMARK H PARENT
REMARK Flexibility Score: inf
ROOT
ATOM      1  C   UNL     1     138.417 142.547 133.911  1.00  0.00     0.039 C 
ATOM      2  C   UNL     1     139.813 143.097 133.787  1.00  0.00    -0.077 C 
ATOM      3  C   UNL     1     140.033 144.400 134.022  1.00  0.00    -0.028 C 
ATOM      4  C   UNL     1     141.408 144.999 133.917  1.00  0.00     0.031 C 
ATOM      5  C   UNL     1     142.212 144.391 132.748  1.00  0.00     0.003 C 
ATOM      6  C   UNL     1     141.969 142.889 132.473  1.00  0.00     0.003 C 
ATOM      7  C   UNL     1     140.956 142.186 133.403  1.00  0.00     0.034 C 
ATOM      8  C   UNL     1     143.326 143.366 133.016  1.00  0.00    -0.029 C 
ATOM      9  C   UNL     1     143.746 143.035 134.462  1.00  0.00     0.012 C 
ATOM     10  C   UNL     1     144.459 143.372 131.985  1.00  0.00     0.012 C 
ENDROOT
TORSDOF 0
ENDMDL
MODEL 7
REMARK VINA RESULT:    -4.088      4.351      5.444
REMARK INTER + INTRA:          -4.088
REMARK INTER:                  -4.088
REMARK INTRA:                   0.000
REMARK UNBOUND:                 0.000
REMARK SMILES CC1=CC[C@@H]2[C@H](C1)C2(C)C
REMARK SMILES IDX 1 1 2 2 3 3 4 4 5 5 6 6 7 7 8 8 9 9 10 10
REMARK H PARENT
REMARK Flexibility Score: inf
ROOT
ATOM      1  C   UNL     1     143.797 139.609 133.646  1.00  0.00     0.039 C 
ATOM      2  C   UNL     1     142.390 139.081 133.579  1.00  0.00    -0.077 C 
ATOM      3  C   UNL     1     142.157 137.786 133.846  1.00  0.00    -0.028 C 
ATOM      4  C   UNL     1     140.770 137.208 133.799  1.00  0.00     0.031 C 
ATOM      5  C   UNL     1     139.937 137.807 132.646  1.00  0.00     0.003 C 
ATOM      6  C   UNL     1     140.194 139.300 132.335  1.00  0.00     0.003 C 
ATOM      7  C   UNL     1     141.249 140.003 133.216  1.00  0.00     0.034 C 
ATOM      8  C   UNL     1     138.848 138.855 132.932  1.00  0.00    -0.029 C 
ATOM      9  C   UNL     1     138.484 139.220 134.384  1.00  0.00     0.012 C 
ATOM     10  C   UNL     1     137.681 138.849 131.940  1.00  0.00     0.012 C 
ENDROOT
TORSDOF 0
ENDMDL
MODEL 8
REMARK VINA RESULT:    -4.083      1.878      4.333
REMARK INTER + INTRA:          -4.083
REMARK INTER:                  -4.083
REMARK INTRA:                   0.000
REMARK UNBOUND:                 0.000
REMARK SMILES CC1=CC[C@@H]2[C@H](C1)C2(C)C
REMARK SMILES IDX 1 1 2 2 3 3 4 4 5 5 6 6 7 7 8 8 9 9 10 10
REMARK H PARENT
REMARK Flexibility Score: inf
ROOT
ATOM      1  C   UNL     1     139.684 138.400 133.883  1.00  0.00     0.039 C 
ATOM      2  C   UNL     1     139.123 139.791 133.764  1.00  0.00    -0.077 C 
ATOM      3  C   UNL     1     137.825 140.006 134.035  1.00  0.00    -0.028 C 
ATOM      4  C   UNL     1     137.216 141.376 133.937  1.00  0.00     0.031 C 
ATOM      5  C   UNL     1     137.786 142.175 132.745  1.00  0.00     0.003 C 
ATOM      6  C   UNL     1     139.281 141.939 132.429  1.00  0.00     0.003 C 
ATOM      7  C   UNL     1     140.016 140.937 133.346  1.00  0.00     0.034 C 
ATOM      8  C   UNL     1     138.811 143.297 132.976  1.00  0.00    -0.029 C 
ATOM      9  C   UNL     1     139.181 143.729 134.408  1.00  0.00     0.012 C 
ATOM     10  C   UNL     1     138.769 144.422 131.937  1.00  0.00     0.012 C 
ENDROOT
TORSDOF 0
ENDMDL
MODEL 9
REMARK VINA RESULT:    -4.058      4.154      5.321
REMARK INTER + INTRA:          -4.058
REMARK INTER:                  -4.058
REMARK INTRA:                   0.000
REMARK UNBOUND:                 0.000
REMARK SMILES CC1=CC[C@@H]2[C@H](C1)C2(C)C
REMARK SMILES IDX 1 1 2 2 3 3 4 4 5 5 6 6 7 7 8 8 9 9 10 10
REMARK H PARENT
REMARK Flexibility Score: inf
ROOT
ATOM      1  C   UNL     1     144.821 140.887 135.858  1.00  0.00     0.039 C 
ATOM      2  C   UNL     1     144.406 141.256 134.459  1.00  0.00    -0.077 C 
ATOM      3  C   UNL     1     144.507 140.345 133.478  1.00  0.00    -0.028 C 
ATOM      4  C   UNL     1     144.102 140.660 132.065  1.00  0.00     0.031 C 
ATOM      5  C   UNL     1     144.474 142.105 131.669  1.00  0.00     0.003 C 
ATOM      6  C   UNL     1     144.356 143.162 132.791  1.00  0.00     0.003 C 
ATOM      7  C   UNL     1     143.878 142.641 134.164  1.00  0.00     0.034 C 
ATOM      8  C   UNL     1     143.394 143.196 131.592  1.00  0.00    -0.029 C 
ATOM      9  C   UNL     1     141.907 142.832 131.777  1.00  0.00     0.012 C 
ATOM     10  C   UNL     1     143.680 144.306 130.576  1.00  0.00     0.012 C 
ENDROOT
TORSDOF 0
ENDMDL
