MODEL 1
REMARK VINA RESULT:    -5.456      0.000      0.000
REMARK INTER + INTRA:          -6.299
REMARK INTER:                  -6.253
REMARK INTRA:                  -0.047
REMARK UNBOUND:                -0.047
REMARK SMILES O=C([O-])c1cc(O)c(O)c(O)c1
REMARK SMILES IDX 4 1 5 2 12 3 6 4 10 5 8 6 2 7 1 8 3 9 7 10 11 12 9 14
REMARK H PARENT 7 11 11 13 9 15
REMARK Flexibility Score: inf
ROOT
ATOM      1  C   UNL     1      27.315  25.281  45.609  1.00  0.00     0.005 A 
ATOM      2  C   UNL     1      28.577  25.221  44.998  1.00  0.00     0.060 A 
ATOM      3  C   UNL     1      26.805  26.531  46.000  1.00  0.00     0.060 A 
ATOM      4  C   UNL     1      29.321  26.385  44.778  1.00  0.00     0.162 A 
ATOM      5  C   UNL     1      27.544  27.703  45.783  1.00  0.00     0.162 A 
ATOM      6  C   UNL     1      28.806  27.632  45.170  1.00  0.00     0.200 A 
ENDROOT
BRANCH   1   7
ATOM      7  C   UNL     1      26.536  24.044  45.838  1.00  0.00     0.072 C 
ATOM      8  O   UNL     1      25.382  23.913  45.347  1.00  0.00    -0.545 OA
ATOM      9  O   UNL     1      27.066  23.007  46.596  1.00  0.00    -0.545 OA
ENDBRANCH   1   7
BRANCH   4  10
ATOM     10  O   UNL     1      30.571  26.282  44.168  1.00  0.00    -0.504 OA
ATOM     11  H   UNL     1      30.699  25.824  43.273  1.00  0.00     0.293 HD
ENDBRANCH   4  10
BRANCH   5  12
ATOM     12  O   UNL     1      27.028  28.937  46.175  1.00  0.00    -0.504 OA
ATOM     13  H   UNL     1      26.613  29.576  45.507  1.00  0.00     0.293 HD
ENDBRANCH   5  12
BRANCH   6  14
ATOM     14  O   UNL     1      29.556  28.788  44.947  1.00  0.00    -0.502 OA
ATOM     15  H   UNL     1      29.456  29.342  44.104  1.00  0.00     0.293 HD
ENDBRANCH   6  14
TORSDOF 4
ENDMDL
MODEL 2
REMARK VINA RESULT:    -5.446      0.032      2.429
REMARK INTER + INTRA:          -6.288
REMARK INTER:                  -6.241
REMARK INTRA:                  -0.047
REMARK UNBOUND:                -0.047
REMARK SMILES O=C([O-])c1cc(O)c(O)c(O)c1
REMARK SMILES IDX 4 1 5 2 12 3 6 4 10 5 8 6 2 7 1 8 3 9 7 10 11 12 9 14
REMARK H PARENT 7 11 11 13 9 15
REMARK Flexibility Score: inf
ROOT
ATOM      1  C   UNL     1      27.337  25.282  45.592  1.00  0.00     0.005 A 
ATOM      2  C   UNL     1      26.833  26.532  45.985  1.00  0.00     0.060 A 
ATOM      3  C   UNL     1      28.598  25.219  44.974  1.00  0.00     0.060 A 
ATOM      4  C   UNL     1      27.571  27.700  45.769  1.00  0.00     0.162 A 
ATOM      5  C   UNL     1      29.345  26.385  44.754  1.00  0.00     0.162 A 
ATOM      6  C   UNL     1      28.832  27.631  45.151  1.00  0.00     0.200 A 
ENDROOT
BRANCH   1   7
ATOM      7  C   UNL     1      26.549  24.052  45.826  1.00  0.00     0.072 C 
ATOM      8  O   UNL     1      25.381  23.941  45.367  1.00  0.00    -0.545 OA
ATOM      9  O   UNL     1      27.087  22.998  46.554  1.00  0.00    -0.545 OA
ENDBRANCH   1   7
BRANCH   4  10
ATOM     10  O   UNL     1      27.034  28.922  46.174  1.00  0.00    -0.504 OA
ATOM     11  H   UNL     1      27.618  29.699  46.462  1.00  0.00     0.293 HD
ENDBRANCH   4  10
BRANCH   5  12
ATOM     12  O   UNL     1      30.594  26.309  44.140  1.00  0.00    -0.504 OA
ATOM     13  H   UNL     1      30.827  25.559  43.499  1.00  0.00     0.293 HD
ENDBRANCH   5  12
BRANCH   6  14
ATOM     14  O   UNL     1      29.560  28.803  44.939  1.00  0.00    -0.502 OA
ATOM     15  H   UNL     1      30.318  28.852  44.267  1.00  0.00     0.293 HD
ENDBRANCH   6  14
TORSDOF 4
ENDMDL
MODEL 3
REMARK VINA RESULT:    -5.299      1.672      4.026
REMARK INTER + INTRA:          -6.120
REMARK INTER:                  -6.070
REMARK INTRA:                  -0.050
REMARK UNBOUND:                -0.047
REMARK SMILES O=C([O-])c1cc(O)c(O)c(O)c1
REMARK SMILES IDX 4 1 5 2 12 3 6 4 10 5 8 6 2 7 1 8 3 9 7 10 11 12 9 14
REMARK H PARENT 7 11 11 13 9 15
REMARK Flexibility Score: inf
ROOT
ATOM      1  C   UNL     1      28.803  25.416  45.422  1.00  0.00     0.005 A 
ATOM      2  C   UNL     1      28.269  26.537  44.767  1.00  0.00     0.060 A 
ATOM      3  C   UNL     1      27.945  24.359  45.772  1.00  0.00     0.060 A 
ATOM      4  C   UNL     1      26.905  26.607  44.466  1.00  0.00     0.162 A 
ATOM      5  C   UNL     1      26.577  24.420  45.473  1.00  0.00     0.162 A 
ATOM      6  C   UNL     1      26.053  25.547  44.818  1.00  0.00     0.200 A 
ENDROOT
BRANCH   1   7
ATOM      7  C   UNL     1      30.247  25.351  45.737  1.00  0.00     0.072 C 
ATOM      8  O   UNL     1      31.098  25.851  44.952  1.00  0.00    -0.545 OA
ATOM      9  O   UNL     1      30.687  24.740  46.904  1.00  0.00    -0.545 OA
ENDBRANCH   1   7
BRANCH   4  10
ATOM     10  O   UNL     1      26.415  27.740  43.815  1.00  0.00    -0.504 OA
ATOM     11  H   UNL     1      26.348  28.640  44.276  1.00  0.00     0.293 HD
ENDBRANCH   4  10
BRANCH   5  12
ATOM     12  O   UNL     1      25.737  23.365  45.825  1.00  0.00    -0.504 OA
ATOM     13  H   UNL     1      25.825  22.889  46.716  1.00  0.00     0.293 HD
ENDBRANCH   5  12
BRANCH   6  14
ATOM     14  O   UNL     1      24.693  25.626  44.513  1.00  0.00    -0.502 OA
ATOM     15  H   UNL     1      24.025  26.067  45.134  1.00  0.00     0.293 HD
ENDBRANCH   6  14
TORSDOF 4
ENDMDL
MODEL 4
REMARK VINA RESULT:    -5.264      1.691      3.858
REMARK INTER + INTRA:          -6.080
REMARK INTER:                  -6.032
REMARK INTRA:                  -0.049
REMARK UNBOUND:                -0.047
REMARK SMILES O=C([O-])c1cc(O)c(O)c(O)c1
REMARK SMILES IDX 4 1 5 2 12 3 6 4 10 5 8 6 2 7 1 8 3 9 7 10 11 12 9 14
REMARK H PARENT 7 11 11 13 9 15
REMARK Flexibility Score: inf
ROOT
ATOM      1  C   UNL     1      28.799  25.399  45.472  1.00  0.00     0.005 A 
ATOM      2  C   UNL     1      27.932  24.346  45.804  1.00  0.00     0.060 A 
ATOM      3  C   UNL     1      28.282  26.527  44.813  1.00  0.00     0.060 A 
ATOM      4  C   UNL     1      26.572  24.413  45.486  1.00  0.00     0.162 A 
ATOM      5  C   UNL     1      26.919  26.603  44.491  1.00  0.00     0.162 A 
ATOM      6  C   UNL     1      26.059  25.544  44.828  1.00  0.00     0.200 A 
ENDROOT
BRANCH   1   7
ATOM      7  C   UNL     1      30.237  25.318  45.813  1.00  0.00     0.072 C 
ATOM      8  O   UNL     1      31.115  25.666  44.978  1.00  0.00    -0.545 OA
ATOM      9  O   UNL     1      30.641  24.859  47.061  1.00  0.00    -0.545 OA
ENDBRANCH   1   7
BRANCH   4  10
ATOM     10  O   UNL     1      25.744  23.345  45.833  1.00  0.00    -0.504 OA
ATOM     11  H   UNL     1      26.057  22.383  45.786  1.00  0.00     0.293 HD
ENDBRANCH   4  10
BRANCH   5  12
ATOM     12  O   UNL     1      26.417  27.727  43.838  1.00  0.00    -0.504 OA
ATOM     13  H   UNL     1      25.436  27.978  43.888  1.00  0.00     0.293 HD
ENDBRANCH   5  12
BRANCH   6  14
ATOM     14  O   UNL     1      24.700  25.602  44.514  1.00  0.00    -0.502 OA
ATOM     15  H   UNL     1      24.207  26.481  44.414  1.00  0.00     0.293 HD
ENDBRANCH   6  14
TORSDOF 4
ENDMDL
MODEL 5
REMARK VINA RESULT:    -4.969      8.638     10.085
REMARK INTER + INTRA:          -5.742
REMARK INTER:                  -5.691
REMARK INTRA:                  -0.051
REMARK UNBOUND:                -0.047
REMARK SMILES O=C([O-])c1cc(O)c(O)c(O)c1
REMARK SMILES IDX 4 1 5 2 12 3 6 4 10 5 8 6 2 7 1 8 3 9 7 10 11 12 9 14
REMARK H PARENT 7 11 11 13 9 15
REMARK Flexibility Score: inf
ROOT
ATOM      1  C   UNL     1      17.500  26.290  44.059  1.00  0.00     0.005 A 
ATOM      2  C   UNL     1      17.302  27.262  45.053  1.00  0.00     0.060 A 
ATOM      3  C   UNL     1      18.739  26.232  43.399  1.00  0.00     0.060 A 
ATOM      4  C   UNL     1      18.320  28.162  45.385  1.00  0.00     0.162 A 
ATOM      5  C   UNL     1      19.765  27.130  43.726  1.00  0.00     0.162 A 
ATOM      6  C   UNL     1      19.557  28.099  44.722  1.00  0.00     0.200 A 
ENDROOT
BRANCH   1   7
ATOM      7  C   UNL     1      16.417  25.343  43.715  1.00  0.00     0.072 C 
ATOM      8  O   UNL     1      15.544  25.029  44.568  1.00  0.00    -0.545 OA
ATOM      9  O   UNL     1      16.346  24.785  42.444  1.00  0.00    -0.545 OA
ENDBRANCH   1   7
BRANCH   4  10
ATOM     10  O   UNL     1      18.082  29.114  46.377  1.00  0.00    -0.504 OA
ATOM     11  H   UNL     1      17.774  28.857  47.308  1.00  0.00     0.293 HD
ENDBRANCH   4  10
BRANCH   5  12
ATOM     12  O   UNL     1      20.990  27.062  43.065  1.00  0.00    -0.504 OA
ATOM     13  H   UNL     1      21.695  27.783  43.175  1.00  0.00     0.293 HD
ENDBRANCH   5  12
BRANCH   6  14
ATOM     14  O   UNL     1      20.567  29.002  45.060  1.00  0.00    -0.502 OA
ATOM     15  H   UNL     1      20.398  29.800  45.661  1.00  0.00     0.293 HD
ENDBRANCH   6  14
TORSDOF 4
ENDMDL
MODEL 6
REMARK VINA RESULT:    -4.962      8.621      9.786
REMARK INTER + INTRA:          -5.734
REMARK INTER:                  -5.683
REMARK INTRA:                  -0.051
REMARK UNBOUND:                -0.047
REMARK SMILES O=C([O-])c1cc(O)c(O)c(O)c1
REMARK SMILES IDX 4 1 5 2 12 3 6 4 10 5 8 6 2 7 1 8 3 9 7 10 11 12 9 14
REMARK H PARENT 7 11 11 13 9 15
REMARK Flexibility Score: inf
ROOT
ATOM      1  C   UNL     1      17.520  26.270  44.045  1.00  0.00     0.005 A 
ATOM      2  C   UNL     1      18.761  26.229  43.388  1.00  0.00     0.060 A 
ATOM      3  C   UNL     1      17.309  27.238  45.042  1.00  0.00     0.060 A 
ATOM      4  C   UNL     1      19.774  27.134  43.717  1.00  0.00     0.162 A 
ATOM      5  C   UNL     1      18.319  28.149  45.378  1.00  0.00     0.162 A 
ATOM      6  C   UNL     1      19.557  28.099  44.715  1.00  0.00     0.200 A 
ENDROOT
BRANCH   1   7
ATOM      7  C   UNL     1      16.454  25.308  43.689  1.00  0.00     0.072 C 
ATOM      8  O   UNL     1      15.566  24.996  44.527  1.00  0.00    -0.545 OA
ATOM      9  O   UNL     1      16.416  24.733  42.424  1.00  0.00    -0.545 OA
ENDBRANCH   1   7
BRANCH   4  10
ATOM     10  O   UNL     1      20.993  27.058  43.041  1.00  0.00    -0.504 OA
ATOM     11  H   UNL     1      21.804  27.592  43.331  1.00  0.00     0.293 HD
ENDBRANCH   4  10
BRANCH   5  12
ATOM     12  O   UNL     1      18.098  29.104  46.369  1.00  0.00    -0.504 OA
ATOM     13  H   UNL     1      17.204  29.573  46.466  1.00  0.00     0.293 HD
ENDBRANCH   5  12
BRANCH   6  14
ATOM     14  O   UNL     1      20.575  28.999  45.037  1.00  0.00    -0.502 OA
ATOM     15  H   UNL     1      20.661  29.409  45.960  1.00  0.00     0.293 HD
ENDBRANCH   6  14
TORSDOF 4
ENDMDL
MODEL 7
REMARK VINA RESULT:    -4.692      9.655     11.234
REMARK INTER + INTRA:          -5.425
REMARK INTER:                  -5.376
REMARK INTRA:                  -0.049
REMARK UNBOUND:                -0.047
REMARK SMILES O=C([O-])c1cc(O)c(O)c(O)c1
REMARK SMILES IDX 4 1 5 2 12 3 6 4 10 5 8 6 2 7 1 8 3 9 7 10 11 12 9 14
REMARK H PARENT 7 11 11 13 9 15
REMARK Flexibility Score: inf
ROOT
ATOM      1  C   UNL     1      19.700  24.245  39.714  1.00  0.00     0.005 A 
ATOM      2  C   UNL     1      19.292  24.058  38.384  1.00  0.00     0.060 A 
ATOM      3  C   UNL     1      20.457  23.242  40.343  1.00  0.00     0.060 A 
ATOM      4  C   UNL     1      19.631  22.893  37.689  1.00  0.00     0.162 A 
ATOM      5  C   UNL     1      20.803  22.071  39.653  1.00  0.00     0.162 A 
ATOM      6  C   UNL     1      20.389  21.893  38.322  1.00  0.00     0.200 A 
ENDROOT
BRANCH   1   7
ATOM      7  C   UNL     1      19.335  25.482  40.440  1.00  0.00     0.072 C 
ATOM      8  O   UNL     1      18.979  25.435  41.649  1.00  0.00    -0.545 OA
ATOM      9  O   UNL     1      19.382  26.715  39.801  1.00  0.00    -0.545 OA
ENDBRANCH   1   7
BRANCH   4  10
ATOM     10  O   UNL     1      19.205  22.746  36.369  1.00  0.00    -0.504 OA
ATOM     11  H   UNL     1      19.340  21.885  35.851  1.00  0.00     0.293 HD
ENDBRANCH   4  10
BRANCH   5  12
ATOM     12  O   UNL     1      21.554  21.083  40.287  1.00  0.00    -0.504 OA
ATOM     13  H   UNL     1      21.403  20.098  40.101  1.00  0.00     0.293 HD
ENDBRANCH   5  12
BRANCH   6  14
ATOM     14  O   UNL     1      20.723  20.733  37.621  1.00  0.00    -0.502 OA
ATOM     15  H   UNL     1      21.580  20.222  37.800  1.00  0.00     0.293 HD
ENDBRANCH   6  14
TORSDOF 4
ENDMDL
MODEL 8
REMARK VINA RESULT:    -4.605      8.356      9.426
REMARK INTER + INTRA:          -5.325
REMARK INTER:                  -5.276
REMARK INTRA:                  -0.049
REMARK UNBOUND:                -0.047
REMARK SMILES O=C([O-])c1cc(O)c(O)c(O)c1
REMARK SMILES IDX 4 1 5 2 12 3 6 4 10 5 8 6 2 7 1 8 3 9 7 10 11 12 9 14
REMARK H PARENT 7 11 11 13 9 15
REMARK Flexibility Score: inf
ROOT
ATOM      1  C   UNL     1      18.661  25.206  42.388  1.00  0.00     0.005 A 
ATOM      2  C   UNL     1      19.639  26.104  41.933  1.00  0.00     0.060 A 
ATOM      3  C   UNL     1      18.186  25.326  43.706  1.00  0.00     0.060 A 
ATOM      4  C   UNL     1      20.138  27.105  42.773  1.00  0.00     0.162 A 
ATOM      5  C   UNL     1      18.680  26.326  44.555  1.00  0.00     0.162 A 
ATOM      6  C   UNL     1      19.659  27.220  44.089  1.00  0.00     0.200 A 
ENDROOT
BRANCH   1   7
ATOM      7  C   UNL     1      18.140  24.151  41.492  1.00  0.00     0.072 C 
ATOM      8  O   UNL     1      18.916  23.519  40.725  1.00  0.00    -0.545 OA
ATOM      9  O   UNL     1      16.785  23.840  41.482  1.00  0.00    -0.545 OA
ENDBRANCH   1   7
BRANCH   4  10
ATOM     10  O   UNL     1      21.110  27.976  42.282  1.00  0.00    -0.504 OA
ATOM     11  H   UNL     1      20.879  28.896  41.924  1.00  0.00     0.293 HD
ENDBRANCH   4  10
BRANCH   5  12
ATOM     12  O   UNL     1      18.201  26.435  45.859  1.00  0.00    -0.504 OA
ATOM     13  H   UNL     1      18.195  27.321  46.352  1.00  0.00     0.293 HD
ENDBRANCH   5  12
BRANCH   6  14
ATOM     14  O   UNL     1      20.163  28.222  44.921  1.00  0.00    -0.502 OA
ATOM     15  H   UNL     1      20.991  28.085  45.489  1.00  0.00     0.293 HD
ENDBRANCH   6  14
TORSDOF 4
ENDMDL
MODEL 9
REMARK VINA RESULT:    -4.598      8.349      9.604
REMARK INTER + INTRA:          -5.316
REMARK INTER:                  -5.268
REMARK INTRA:                  -0.049
REMARK UNBOUND:                -0.047
REMARK SMILES O=C([O-])c1cc(O)c(O)c(O)c1
REMARK SMILES IDX 4 1 5 2 12 3 6 4 10 5 8 6 2 7 1 8 3 9 7 10 11 12 9 14
REMARK H PARENT 7 11 11 13 9 15
REMARK Flexibility Score: inf
ROOT
ATOM      1  C   UNL     1      18.653  25.252  42.360  1.00  0.00     0.005 A 
ATOM      2  C   UNL     1      18.200  25.363  43.685  1.00  0.00     0.060 A 
ATOM      3  C   UNL     1      19.633  26.147  41.897  1.00  0.00     0.060 A 
ATOM      4  C   UNL     1      18.713  26.348  44.535  1.00  0.00     0.162 A 
ATOM      5  C   UNL     1      20.153  27.137  42.743  1.00  0.00     0.162 A 
ATOM      6  C   UNL     1      19.693  27.240  44.067  1.00  0.00     0.200 A 
ENDROOT
BRANCH   1   7
ATOM      7  C   UNL     1      18.105  24.207  41.468  1.00  0.00     0.072 C 
ATOM      8  O   UNL     1      18.868  23.526  40.733  1.00  0.00    -0.545 OA
ATOM      9  O   UNL     1      16.738  23.960  41.430  1.00  0.00    -0.545 OA
ENDBRANCH   1   7
BRANCH   4  10
ATOM     10  O   UNL     1      18.235  26.425  45.844  1.00  0.00    -0.504 OA
ATOM     11  H   UNL     1      18.611  25.851  46.589  1.00  0.00     0.293 HD
ENDBRANCH   4  10
BRANCH   5  12
ATOM     12  O   UNL     1      21.124  28.019  42.273  1.00  0.00    -0.504 OA
ATOM     13  H   UNL     1      21.582  27.879  41.379  1.00  0.00     0.293 HD
ENDBRANCH   5  12
BRANCH   6  14
ATOM     14  O   UNL     1      20.198  28.220  44.923  1.00  0.00    -0.502 OA
ATOM     15  H   UNL     1      19.676  29.058  45.152  1.00  0.00     0.293 HD
ENDBRANCH   6  14
TORSDOF 4
ENDMDL
