MODEL 1
REMARK VINA RESULT:    -4.707      0.000      0.000
REMARK INTER + INTRA:          -7.695
REMARK INTER:                  -7.183
REMARK INTRA:                  -0.512
REMARK UNBOUND:                -0.512
REMARK SMILES O=C([O-])CCCCCCCCC(=O)[O-]
REMARK SMILES IDX 7 1 6 2 5 3 4 4 2 5 1 6 3 7 8 8 9 9 10 10 11 11 12 12 13 13
REMARK SMILES IDX 14 14
REMARK H PARENT
REMARK Flexibility Score: inf
ROOT
ATOM      1  C   UNL     1     -14.745  42.331  22.612  1.00  0.00     0.000 C 
ENDROOT
BRANCH   1   2
ATOM      2  C   UNL     1     -15.740  43.212  21.838  1.00  0.00     0.000 C 
BRANCH   2   3
ATOM      3  C   UNL     1     -16.300  44.361  22.692  1.00  0.00     0.006 C 
BRANCH   3   4
ATOM      4  C   UNL     1     -16.510  45.650  21.886  1.00  0.00     0.053 C 
BRANCH   4   5
ATOM      5  C   UNL     1     -16.351  46.848  22.768  1.00  0.00     0.041 C 
ATOM      6  O   UNL     1     -16.285  47.999  22.265  1.00  0.00    -0.550 OA
ATOM      7  O   UNL     1     -16.325  46.696  24.148  1.00  0.00    -0.550 OA
ENDBRANCH   4   5
ENDBRANCH   3   4
ENDBRANCH   2   3
ENDBRANCH   1   2
BRANCH   1   8
ATOM      8  C   UNL     1     -15.160  40.850  22.653  1.00  0.00     0.000 C 
BRANCH   8   9
ATOM      9  C   UNL     1     -16.679  40.595  22.633  1.00  0.00     0.000 C 
BRANCH   9  10
ATOM     10  C   UNL     1     -17.186  40.095  21.273  1.00  0.00     0.006 C 
BRANCH  10  11
ATOM     11  C   UNL     1     -18.544  40.717  20.931  1.00  0.00     0.053 C 
BRANCH  11  12
ATOM     12  C   UNL     1     -18.408  41.681  19.795  1.00  0.00     0.041 C 
ATOM     13  O   UNL     1     -18.739  42.887  19.945  1.00  0.00    -0.550 OA
ATOM     14  O   UNL     1     -17.960  41.239  18.557  1.00  0.00    -0.550 OA
ENDBRANCH  11  12
ENDBRANCH  10  11
ENDBRANCH   9  10
ENDBRANCH   8   9
ENDBRANCH   1   8
TORSDOF 9
ENDMDL
MODEL 2
REMARK VINA RESULT:    -4.681      1.610      2.149
REMARK INTER + INTRA:          -7.656
REMARK INTER:                  -7.263
REMARK INTRA:                  -0.392
REMARK UNBOUND:                -0.512
REMARK SMILES O=C([O-])CCCCCCCCC(=O)[O-]
REMARK SMILES IDX 7 1 6 2 5 3 4 4 2 5 1 6 3 7 8 8 9 9 10 10 11 11 12 12 13 13
REMARK SMILES IDX 14 14
REMARK H PARENT
REMARK Flexibility Score: inf
ROOT
ATOM      1  C   UNL     1     -17.338  44.268  21.563  1.00  0.00     0.000 C 
ENDROOT
BRANCH   1   2
ATOM      2  C   UNL     1     -16.391  44.386  22.769  1.00  0.00     0.000 C 
BRANCH   2   3
ATOM      3  C   UNL     1     -16.821  45.486  23.752  1.00  0.00     0.006 C 
BRANCH   3   4
ATOM      4  C   UNL     1     -15.870  46.690  23.747  1.00  0.00     0.053 C 
BRANCH   4   5
ATOM      5  C   UNL     1     -16.298  47.688  22.719  1.00  0.00     0.041 C 
ATOM      6  O   UNL     1     -15.933  47.561  21.522  1.00  0.00    -0.550 OA
ATOM      7  O   UNL     1     -17.141  48.734  23.075  1.00  0.00    -0.550 OA
ENDBRANCH   4   5
ENDBRANCH   3   4
ENDBRANCH   2   3
ENDBRANCH   1   2
BRANCH   1   8
ATOM      8  C   UNL     1     -17.436  42.833  21.014  1.00  0.00     0.000 C 
BRANCH   8   9
ATOM      9  C   UNL     1     -16.806  41.747  21.907  1.00  0.00     0.000 C 
BRANCH   9  10
ATOM     10  C   UNL     1     -17.193  40.323  21.482  1.00  0.00     0.006 C 
BRANCH  10  11
ATOM     11  C   UNL     1     -18.323  40.348  20.447  1.00  0.00     0.053 C 
BRANCH  11  12
ATOM     12  C   UNL     1     -17.827  39.866  19.120  1.00  0.00     0.041 C 
ATOM     13  O   UNL     1     -18.015  40.558  18.085  1.00  0.00    -0.550 OA
ATOM     14  O   UNL     1     -17.201  38.631  19.018  1.00  0.00    -0.550 OA
ENDBRANCH  11  12
ENDBRANCH  10  11
ENDBRANCH   9  10
ENDBRANCH   8   9
ENDBRANCH   1   8
TORSDOF 9
ENDMDL
MODEL 3
REMARK VINA RESULT:    -4.577      0.988      5.693
REMARK INTER + INTRA:          -7.497
REMARK INTER:                  -6.843
REMARK INTRA:                  -0.654
REMARK UNBOUND:                -0.512
REMARK SMILES O=C([O-])CCCCCCCCC(=O)[O-]
REMARK SMILES IDX 7 1 6 2 5 3 4 4 2 5 1 6 3 7 8 8 9 9 10 10 11 11 12 12 13 13
REMARK SMILES IDX 14 14
REMARK H PARENT
REMARK Flexibility Score: inf
ROOT
ATOM      1  C   UNL     1     -14.935  41.058  22.681  1.00  0.00     0.000 C 
ENDROOT
BRANCH   1   2
ATOM      2  C   UNL     1     -16.362  40.551  22.952  1.00  0.00     0.000 C 
BRANCH   2   3
ATOM      3  C   UNL     1     -16.988  39.866  21.726  1.00  0.00     0.006 C 
BRANCH   3   4
ATOM      4  C   UNL     1     -18.129  40.685  21.109  1.00  0.00     0.053 C 
BRANCH   4   5
ATOM      5  C   UNL     1     -18.394  40.236  19.707  1.00  0.00     0.041 C 
ATOM      6  O   UNL     1     -18.864  41.042  18.862  1.00  0.00    -0.550 OA
ATOM      7  O   UNL     1     -18.075  38.940  19.320  1.00  0.00    -0.550 OA
ENDBRANCH   4   5
ENDBRANCH   3   4
ENDBRANCH   2   3
ENDBRANCH   1   2
BRANCH   1   8
ATOM      8  C   UNL     1     -14.844  42.593  22.627  1.00  0.00     0.000 C 
BRANCH   8   9
ATOM      9  C   UNL     1     -15.637  43.256  21.485  1.00  0.00     0.000 C 
BRANCH   9  10
ATOM     10  C   UNL     1     -16.831  44.081  21.984  1.00  0.00     0.006 C 
BRANCH  10  11
ATOM     11  C   UNL     1     -16.454  44.895  23.227  1.00  0.00     0.053 C 
BRANCH  11  12
ATOM     12  C   UNL     1     -16.425  46.356  22.907  1.00  0.00     0.041 C 
ATOM     13  O   UNL     1     -16.228  46.741  21.724  1.00  0.00    -0.550 OA
ATOM     14  O   UNL     1     -16.568  47.294  23.921  1.00  0.00    -0.550 OA
ENDBRANCH  11  12
ENDBRANCH  10  11
ENDBRANCH   9  10
ENDBRANCH   8   9
ENDBRANCH   1   8
TORSDOF 9
ENDMDL
MODEL 4
REMARK VINA RESULT:    -4.565      1.955      6.478
REMARK INTER + INTRA:          -7.479
REMARK INTER:                  -6.945
REMARK INTRA:                  -0.535
REMARK UNBOUND:                -0.512
REMARK SMILES O=C([O-])CCCCCCCCC(=O)[O-]
REMARK SMILES IDX 7 1 6 2 5 3 4 4 2 5 1 6 3 7 8 8 9 9 10 10 11 11 12 12 13 13
REMARK SMILES IDX 14 14
REMARK H PARENT
REMARK Flexibility Score: inf
ROOT
ATOM      1  C   UNL     1     -18.072  42.466  21.191  1.00  0.00     0.000 C 
ENDROOT
BRANCH   1   2
ATOM      2  C   UNL     1     -18.432  42.375  19.698  1.00  0.00     0.000 C 
BRANCH   2   3
ATOM      3  C   UNL     1     -18.966  40.989  19.303  1.00  0.00     0.006 C 
BRANCH   3   4
ATOM      4  C   UNL     1     -18.018  40.236  18.360  1.00  0.00     0.053 C 
BRANCH   4   5
ATOM      5  C   UNL     1     -17.437  39.042  19.049  1.00  0.00     0.041 C 
ATOM      6  O   UNL     1     -16.953  38.096  18.375  1.00  0.00    -0.550 OA
ATOM      7  O   UNL     1     -17.385  38.997  20.436  1.00  0.00    -0.550 OA
ENDBRANCH   4   5
ENDBRANCH   3   4
ENDBRANCH   2   3
ENDBRANCH   1   2
BRANCH   1   8
ATOM      8  C   UNL     1     -16.564  42.307  21.456  1.00  0.00     0.000 C 
BRANCH   8   9
ATOM      9  C   UNL     1     -15.846  43.582  21.934  1.00  0.00     0.000 C 
BRANCH   9  10
ATOM     10  C   UNL     1     -16.788  44.787  22.070  1.00  0.00     0.006 C 
BRANCH  10  11
ATOM     11  C   UNL     1     -16.784  45.327  23.504  1.00  0.00     0.053 C 
BRANCH  11  12
ATOM     12  C   UNL     1     -15.911  46.538  23.603  1.00  0.00     0.041 C 
ATOM     13  O   UNL     1     -16.081  47.508  22.817  1.00  0.00    -0.550 OA
ATOM     14  O   UNL     1     -14.880  46.579  24.533  1.00  0.00    -0.550 OA
ENDBRANCH  11  12
ENDBRANCH  10  11
ENDBRANCH   9  10
ENDBRANCH   8   9
ENDBRANCH   1   8
TORSDOF 9
ENDMDL
MODEL 5
REMARK VINA RESULT:    -4.399      5.395      7.026
REMARK INTER + INTRA:          -7.226
REMARK INTER:                  -6.931
REMARK INTRA:                  -0.295
REMARK UNBOUND:                -0.512
REMARK SMILES O=C([O-])CCCCCCCCC(=O)[O-]
REMARK SMILES IDX 7 1 6 2 5 3 4 4 2 5 1 6 3 7 8 8 9 9 10 10 11 11 12 12 13 13
REMARK SMILES IDX 14 14
REMARK H PARENT
REMARK Flexibility Score: inf
ROOT
ATOM      1  C   UNL     1     -16.976  37.834  18.325  1.00  0.00     0.000 C 
ENDROOT
BRANCH   1   2
ATOM      2  C   UNL     1     -17.260  39.335  18.502  1.00  0.00     0.000 C 
BRANCH   2   3
ATOM      3  C   UNL     1     -18.275  39.616  19.621  1.00  0.00     0.006 C 
BRANCH   3   4
ATOM      4  C   UNL     1     -17.645  40.326  20.827  1.00  0.00     0.053 C 
BRANCH   4   5
ATOM      5  C   UNL     1     -17.863  41.803  20.735  1.00  0.00     0.041 C 
ATOM      6  O   UNL     1     -18.785  42.263  20.014  1.00  0.00    -0.550 OA
ATOM      7  O   UNL     1     -17.077  42.669  21.485  1.00  0.00    -0.550 OA
ENDBRANCH   4   5
ENDBRANCH   3   4
ENDBRANCH   2   3
ENDBRANCH   1   2
BRANCH   1   8
ATOM      8  C   UNL     1     -16.605  37.459  16.879  1.00  0.00     0.000 C 
BRANCH   8   9
ATOM      9  C   UNL     1     -16.027  36.043  16.698  1.00  0.00     0.000 C 
BRANCH   9  10
ATOM     10  C   UNL     1     -16.064  35.561  15.241  1.00  0.00     0.006 C 
BRANCH  10  11
ATOM     11  C   UNL     1     -16.189  36.745  14.275  1.00  0.00     0.053 C 
BRANCH  11  12
ATOM     12  C   UNL     1     -17.211  36.454  13.222  1.00  0.00     0.041 C 
ATOM     13  O   UNL     1     -18.400  36.844  13.367  1.00  0.00    -0.550 OA
ATOM     14  O   UNL     1     -16.863  35.711  12.101  1.00  0.00    -0.550 OA
ENDBRANCH  11  12
ENDBRANCH  10  11
ENDBRANCH   9  10
ENDBRANCH   8   9
ENDBRANCH   1   8
TORSDOF 9
ENDMDL
MODEL 6
REMARK VINA RESULT:    -4.394     10.016     13.343
REMARK INTER + INTRA:          -7.218
REMARK INTER:                  -6.766
REMARK INTRA:                  -0.452
REMARK UNBOUND:                -0.512
REMARK SMILES O=C([O-])CCCCCCCCC(=O)[O-]
REMARK SMILES IDX 7 1 6 2 5 3 4 4 2 5 1 6 3 7 8 8 9 9 10 10 11 11 12 12 13 13
REMARK SMILES IDX 14 14
REMARK H PARENT
REMARK Flexibility Score: inf
ROOT
ATOM      1  C   UNL     1     -18.255  31.921  13.611  1.00  0.00     0.000 C 
ENDROOT
BRANCH   1   2
ATOM      2  C   UNL     1     -19.614  31.489  14.186  1.00  0.00     0.000 C 
BRANCH   2   3
ATOM      3  C   UNL     1     -20.650  32.624  14.167  1.00  0.00     0.006 C 
BRANCH   3   4
ATOM      4  C   UNL     1     -22.093  32.108  14.074  1.00  0.00     0.053 C 
BRANCH   4   5
ATOM      5  C   UNL     1     -22.804  32.311  15.374  1.00  0.00     0.041 C 
ATOM      6  O   UNL     1     -22.200  32.820  16.353  1.00  0.00    -0.550 OA
ATOM      7  O   UNL     1     -24.148  31.982  15.489  1.00  0.00    -0.550 OA
ENDBRANCH   4   5
ENDBRANCH   3   4
ENDBRANCH   2   3
ENDBRANCH   1   2
BRANCH   1   8
ATOM      8  C   UNL     1     -18.067  33.448  13.592  1.00  0.00     0.000 C 
BRANCH   8   9
ATOM      9  C   UNL     1     -17.220  33.989  12.425  1.00  0.00     0.000 C 
BRANCH   9  10
ATOM     10  C   UNL     1     -16.982  35.503  12.508  1.00  0.00     0.006 C 
BRANCH  10  11
ATOM     11  C   UNL     1     -17.958  36.159  13.491  1.00  0.00     0.053 C 
BRANCH  11  12
ATOM     12  C   UNL     1     -17.475  37.521  13.877  1.00  0.00     0.041 C 
ATOM     13  O   UNL     1     -16.635  37.656  14.806  1.00  0.00    -0.550 OA
ATOM     14  O   UNL     1     -17.988  38.646  13.245  1.00  0.00    -0.550 OA
ENDBRANCH  11  12
ENDBRANCH  10  11
ENDBRANCH   9  10
ENDBRANCH   8   9
ENDBRANCH   1   8
TORSDOF 9
ENDMDL
MODEL 7
REMARK VINA RESULT:    -4.374     10.686     12.392
REMARK INTER + INTRA:          -7.188
REMARK INTER:                  -6.653
REMARK INTRA:                  -0.535
REMARK UNBOUND:                -0.512
REMARK SMILES O=C([O-])CCCCCCCCC(=O)[O-]
REMARK SMILES IDX 7 1 6 2 5 3 4 4 2 5 1 6 3 7 8 8 9 9 10 10 11 11 12 12 13 13
REMARK SMILES IDX 14 14
REMARK H PARENT
REMARK Flexibility Score: inf
ROOT
ATOM      1  C   UNL     1     -16.230  38.680  12.688  1.00  0.00     0.000 C 
ENDROOT
BRANCH   1   2
ATOM      2  C   UNL     1     -17.730  38.578  13.008  1.00  0.00     0.000 C 
BRANCH   2   3
ATOM      3  C   UNL     1     -18.146  37.166  13.448  1.00  0.00     0.006 C 
BRANCH   3   4
ATOM      4  C   UNL     1     -17.175  36.083  12.960  1.00  0.00     0.053 C 
BRANCH   4   5
ATOM      5  C   UNL     1     -17.135  34.943  13.928  1.00  0.00     0.041 C 
ATOM      6  O   UNL     1     -17.626  33.828  13.614  1.00  0.00    -0.550 OA
ATOM      7  O   UNL     1     -16.511  35.099  15.160  1.00  0.00    -0.550 OA
ENDBRANCH   4   5
ENDBRANCH   3   4
ENDBRANCH   2   3
ENDBRANCH   1   2
BRANCH   1   8
ATOM      8  C   UNL     1     -15.846  40.012  12.021  1.00  0.00     0.000 C 
BRANCH   8   9
ATOM      9  C   UNL     1     -17.024  40.961  11.730  1.00  0.00     0.000 C 
BRANCH   9  10
ATOM     10  C   UNL     1     -17.382  41.032  10.239  1.00  0.00     0.006 C 
BRANCH  10  11
ATOM     11  C   UNL     1     -16.376  40.243   9.395  1.00  0.00     0.053 C 
BRANCH  11  12
ATOM     12  C   UNL     1     -15.653  41.154   8.454  1.00  0.00     0.041 C 
ATOM     13  O   UNL     1     -16.121  41.380   7.306  1.00  0.00    -0.550 OA
ATOM     14  O   UNL     1     -14.439  41.718   8.825  1.00  0.00    -0.550 OA
ENDBRANCH  11  12
ENDBRANCH  10  11
ENDBRANCH   9  10
ENDBRANCH   8   9
ENDBRANCH   1   8
TORSDOF 9
ENDMDL
MODEL 8
REMARK VINA RESULT:    -4.370      5.506      9.169
REMARK INTER + INTRA:          -7.182
REMARK INTER:                  -6.898
REMARK INTRA:                  -0.284
REMARK UNBOUND:                -0.512
REMARK SMILES O=C([O-])CCCCCCCCC(=O)[O-]
REMARK SMILES IDX 7 1 6 2 5 3 4 4 2 5 1 6 3 7 8 8 9 9 10 10 11 11 12 12 13 13
REMARK SMILES IDX 14 14
REMARK H PARENT
REMARK Flexibility Score: inf
ROOT
ATOM      1  C   UNL     1     -16.638  37.556  16.774  1.00  0.00     0.000 C 
ENDROOT
BRANCH   1   2
ATOM      2  C   UNL     1     -15.922  36.204  16.620  1.00  0.00     0.000 C 
BRANCH   2   3
ATOM      3  C   UNL     1     -16.325  35.465  15.334  1.00  0.00     0.006 C 
BRANCH   3   4
ATOM      4  C   UNL     1     -16.001  36.265  14.065  1.00  0.00     0.053 C 
BRANCH   4   5
ATOM      5  C   UNL     1     -17.152  36.217  13.110  1.00  0.00     0.041 C 
ATOM      6  O   UNL     1     -17.054  35.576  12.032  1.00  0.00    -0.550 OA
ATOM      7  O   UNL     1     -18.350  36.840  13.435  1.00  0.00    -0.550 OA
ENDBRANCH   4   5
ENDBRANCH   3   4
ENDBRANCH   2   3
ENDBRANCH   1   2
BRANCH   1   8
ATOM      8  C   UNL     1     -17.009  37.877  18.233  1.00  0.00     0.000 C 
BRANCH   8   9
ATOM      9  C   UNL     1     -17.261  39.367  18.531  1.00  0.00     0.000 C 
BRANCH   9  10
ATOM     10  C   UNL     1     -18.353  39.591  19.587  1.00  0.00     0.006 C 
BRANCH  10  11
ATOM     11  C   UNL     1     -18.753  41.068  19.656  1.00  0.00     0.053 C 
BRANCH  11  12
ATOM     12  C   UNL     1     -18.050  41.749  20.788  1.00  0.00     0.041 C 
ATOM     13  O   UNL     1     -17.511  41.067  21.699  1.00  0.00    -0.550 OA
ATOM     14  O   UNL     1     -18.031  43.135  20.863  1.00  0.00    -0.550 OA
ENDBRANCH  11  12
ENDBRANCH  10  11
ENDBRANCH   9  10
ENDBRANCH   8   9
ENDBRANCH   1   8
TORSDOF 9
ENDMDL
MODEL 9
REMARK VINA RESULT:    -4.313     10.507     11.656
REMARK INTER + INTRA:          -7.094
REMARK INTER:                  -6.479
REMARK INTRA:                  -0.615
REMARK UNBOUND:                -0.512
REMARK SMILES O=C([O-])CCCCCCCCC(=O)[O-]
REMARK SMILES IDX 7 1 6 2 5 3 4 4 2 5 1 6 3 7 8 8 9 9 10 10 11 11 12 12 13 13
REMARK SMILES IDX 14 14
REMARK H PARENT
REMARK Flexibility Score: inf
ROOT
ATOM      1  C   UNL     1     -15.825  39.910  12.118  1.00  0.00     0.000 C 
ENDROOT
BRANCH   1   2
ATOM      2  C   UNL     1     -17.023  40.842  11.869  1.00  0.00     0.000 C 
BRANCH   2   3
ATOM      3  C   UNL     1     -17.456  40.866  10.395  1.00  0.00     0.006 C 
BRANCH   3   4
ATOM      4  C   UNL     1     -16.359  40.363   9.447  1.00  0.00     0.053 C 
BRANCH   4   5
ATOM      5  C   UNL     1     -15.727  41.510   8.725  1.00  0.00     0.041 C 
ATOM      6  O   UNL     1     -15.981  41.709   7.508  1.00  0.00    -0.550 OA
ATOM      7  O   UNL     1     -14.896  42.389   9.408  1.00  0.00    -0.550 OA
ENDBRANCH   4   5
ENDBRANCH   3   4
ENDBRANCH   2   3
ENDBRANCH   1   2
BRANCH   1   8
ATOM      8  C   UNL     1     -16.221  38.594  12.810  1.00  0.00     0.000 C 
BRANCH   8   9
ATOM      9  C   UNL     1     -17.691  38.507  13.259  1.00  0.00     0.000 C 
BRANCH   9  10
ATOM     10  C   UNL     1     -18.245  37.075  13.228  1.00  0.00     0.006 C 
BRANCH  10  11
ATOM     11  C   UNL     1     -17.135  36.065  12.916  1.00  0.00     0.053 C 
BRANCH  11  12
ATOM     12  C   UNL     1     -17.094  34.993  13.959  1.00  0.00     0.041 C 
ATOM     13  O   UNL     1     -17.770  33.941  13.811  1.00  0.00    -0.550 OA
ATOM     14  O   UNL     1     -16.348  35.176  15.116  1.00  0.00    -0.550 OA
ENDBRANCH  11  12
ENDBRANCH  10  11
ENDBRANCH   9  10
ENDBRANCH   8   9
ENDBRANCH   1   8
TORSDOF 9
ENDMDL
