MODEL 1
REMARK VINA RESULT:    -7.474      0.000      0.000
REMARK INTER + INTRA:          -9.263
REMARK INTER:                  -9.222
REMARK INTRA:                  -0.041
REMARK UNBOUND:                -0.041
REMARK SMILES Oc1cc(O)c2cc(O)c(-c3cc(O)c(O)c(O)c3)[o+]c2c1
REMARK SMILES IDX 10 1 20 2 21 3 22 4 2 5 3 6 4 7 6 8 7 9 8 10 11 11 12 12
REMARK SMILES IDX 13 13 19 14 15 15 17 16 14 17 16 19 18 21 9 23 1 25 5 27
REMARK H PARENT 14 18 16 20 18 22 9 24 1 26 5 28
REMARK Flexibility Score: inf
ROOT
ATOM      1  C   UNL     1      22.358  54.339 -16.806  1.00  0.00     0.402 A 
ATOM      2  O   UNL     1      23.090  55.129 -16.020  1.00  0.00    -0.202 OA
ATOM      3  C   UNL     1      23.397  56.382 -16.334  1.00  0.00     0.368 A 
ATOM      4  C   UNL     1      24.175  57.145 -15.457  1.00  0.00     0.162 A 
ATOM      5  C   UNL     1      24.509  58.468 -15.778  1.00  0.00     0.128 A 
ATOM      6  C   UNL     1      24.064  59.027 -16.980  1.00  0.00     0.093 A 
ATOM      7  C   UNL     1      23.283  58.275 -17.870  1.00  0.00     0.136 A 
ATOM      8  C   UNL     1      22.947  56.946 -17.547  1.00  0.00     0.125 A 
ATOM      9  C   UNL     1      22.164  56.152 -18.393  1.00  0.00     0.078 A 
ATOM     10  C   UNL     1      21.854  54.840 -18.023  1.00  0.00     0.223 A 
ENDROOT
BRANCH   1  11
ATOM     11  C   UNL     1      22.090  52.955 -16.352  1.00  0.00     0.091 A 
ATOM     12  C   UNL     1      20.789  52.424 -16.353  1.00  0.00     0.068 A 
ATOM     13  C   UNL     1      20.559  51.104 -15.941  1.00  0.00     0.162 A 
ATOM     14  C   UNL     1      23.162  52.135 -15.965  1.00  0.00     0.068 A 
ATOM     15  C   UNL     1      21.631  50.300 -15.536  1.00  0.00     0.200 A 
ATOM     16  C   UNL     1      22.938  50.815 -15.551  1.00  0.00     0.162 A 
BRANCH  13  17
ATOM     17  O   UNL     1      19.267  50.583 -15.938  1.00  0.00    -0.504 OA
ATOM     18  H   UNL     1      18.912  50.039 -16.716  1.00  0.00     0.293 HD
ENDBRANCH  13  17
BRANCH  15  19
ATOM     19  O   UNL     1      21.383  48.989 -15.124  1.00  0.00    -0.502 OA
ATOM     20  H   UNL     1      21.285  48.741 -14.147  1.00  0.00     0.293 HD
ENDBRANCH  15  19
BRANCH  16  21
ATOM     21  O   UNL     1      24.009  50.015 -15.155  1.00  0.00    -0.504 OA
ATOM     22  H   UNL     1      24.953  50.381 -15.102  1.00  0.00     0.293 HD
ENDBRANCH  16  21
ENDBRANCH   1  11
BRANCH  10  23
ATOM     23  O   UNL     1      21.033  54.059 -18.837  1.00  0.00    -0.500 OA
ATOM     24  H   UNL     1      20.918  54.260 -19.824  1.00  0.00     0.294 HD
ENDBRANCH  10  23
BRANCH   5  25
ATOM     25  O   UNL     1      25.283  59.234 -14.909  1.00  0.00    -0.507 OA
ATOM     26  H   UNL     1      25.896  59.964 -15.251  1.00  0.00     0.293 HD
ENDBRANCH   5  25
BRANCH   7  27
ATOM     27  O   UNL     1      22.844  58.846 -19.065  1.00  0.00    -0.507 OA
ATOM     28  H   UNL     1      22.198  58.362 -19.679  1.00  0.00     0.293 HD
ENDBRANCH   7  27
TORSDOF 7
ENDMDL
MODEL 2
REMARK VINA RESULT:    -7.449      1.855      7.273
REMARK INTER + INTRA:          -9.232
REMARK INTER:                  -8.859
REMARK INTRA:                  -0.374
REMARK UNBOUND:                -0.041
REMARK SMILES Oc1cc(O)c2cc(O)c(-c3cc(O)c(O)c(O)c3)[o+]c2c1
REMARK SMILES IDX 10 1 20 2 21 3 22 4 2 5 3 6 4 7 6 8 7 9 8 10 11 11 12 12
REMARK SMILES IDX 13 13 19 14 15 15 17 16 14 17 16 19 18 21 9 23 1 25 5 27
REMARK H PARENT 14 18 16 20 18 22 9 24 1 26 5 28
REMARK Flexibility Score: inf
ROOT
ATOM      1  C   UNL     1      21.362  53.863 -16.869  1.00  0.00     0.402 A 
ATOM      2  O   UNL     1      21.837  52.789 -17.497  1.00  0.00    -0.202 OA
ATOM      3  C   UNL     1      21.429  51.553 -17.235  1.00  0.00     0.368 A 
ATOM      4  C   UNL     1      21.983  50.477 -17.936  1.00  0.00     0.162 A 
ATOM      5  C   UNL     1      21.562  49.168 -17.667  1.00  0.00     0.128 A 
ATOM      6  C   UNL     1      20.586  48.936 -16.693  1.00  0.00     0.093 A 
ATOM      7  C   UNL     1      20.021  50.004 -15.982  1.00  0.00     0.136 A 
ATOM      8  C   UNL     1      20.443  51.320 -16.253  1.00  0.00     0.125 A 
ATOM      9  C   UNL     1      19.909  52.424 -15.579  1.00  0.00     0.078 A 
ATOM     10  C   UNL     1      20.357  53.711 -15.891  1.00  0.00     0.223 A 
ENDROOT
BRANCH   1  11
ATOM     11  C   UNL     1      21.903  55.190 -17.241  1.00  0.00     0.091 A 
ATOM     12  C   UNL     1      21.265  56.000 -18.196  1.00  0.00     0.068 A 
ATOM     13  C   UNL     1      21.781  57.263 -18.517  1.00  0.00     0.162 A 
ATOM     14  C   UNL     1      23.047  55.677 -16.588  1.00  0.00     0.068 A 
ATOM     15  C   UNL     1      22.935  57.732 -17.877  1.00  0.00     0.200 A 
ATOM     16  C   UNL     1      23.569  56.938 -16.906  1.00  0.00     0.162 A 
BRANCH  13  17
ATOM     17  O   UNL     1      21.148  58.060 -19.469  1.00  0.00    -0.504 OA
ATOM     18  H   UNL     1      21.659  58.751 -20.006  1.00  0.00     0.293 HD
ENDBRANCH  13  17
BRANCH  15  19
ATOM     19  O   UNL     1      23.438  58.989 -18.214  1.00  0.00    -0.502 OA
ATOM     20  H   UNL     1      24.401  59.127 -18.498  1.00  0.00     0.293 HD
ENDBRANCH  15  19
BRANCH  16  21
ATOM     21  O   UNL     1      24.713  57.404 -16.261  1.00  0.00    -0.504 OA
ATOM     22  H   UNL     1      25.541  57.676 -16.780  1.00  0.00     0.293 HD
ENDBRANCH  16  21
ENDBRANCH   1  11
BRANCH  10  23
ATOM     23  O   UNL     1      19.794  54.820 -15.260  1.00  0.00    -0.500 OA
ATOM     24  H   UNL     1      20.220  55.239 -14.441  1.00  0.00     0.294 HD
ENDBRANCH  10  23
BRANCH   5  25
ATOM     25  O   UNL     1      22.109  48.091 -18.362  1.00  0.00    -0.507 OA
ATOM     26  H   UNL     1      22.637  48.225 -19.216  1.00  0.00     0.293 HD
ENDBRANCH   5  25
BRANCH   7  27
ATOM     27  O   UNL     1      19.046  49.759 -15.014  1.00  0.00    -0.507 OA
ATOM     28  H   UNL     1      18.923  48.839 -14.605  1.00  0.00     0.293 HD
ENDBRANCH   7  27
TORSDOF 7
ENDMDL
MODEL 3
REMARK VINA RESULT:    -7.405      1.836      7.443
REMARK INTER + INTRA:          -9.178
REMARK INTER:                  -8.805
REMARK INTRA:                  -0.373
REMARK UNBOUND:                -0.041
REMARK SMILES Oc1cc(O)c2cc(O)c(-c3cc(O)c(O)c(O)c3)[o+]c2c1
REMARK SMILES IDX 10 1 20 2 21 3 22 4 2 5 3 6 4 7 6 8 7 9 8 10 11 11 12 12
REMARK SMILES IDX 13 13 19 14 15 15 17 16 14 17 16 19 18 21 9 23 1 25 5 27
REMARK H PARENT 14 18 16 20 18 22 9 24 1 26 5 28
REMARK Flexibility Score: inf
ROOT
ATOM      1  C   UNL     1      21.351  53.912 -16.772  1.00  0.00     0.402 A 
ATOM      2  O   UNL     1      21.851  52.838 -17.381  1.00  0.00    -0.202 OA
ATOM      3  C   UNL     1      21.454  51.599 -17.112  1.00  0.00     0.368 A 
ATOM      4  C   UNL     1      22.033  50.523 -17.792  1.00  0.00     0.162 A 
ATOM      5  C   UNL     1      21.626  49.211 -17.516  1.00  0.00     0.128 A 
ATOM      6  C   UNL     1      20.637  48.977 -16.554  1.00  0.00     0.093 A 
ATOM      7  C   UNL     1      20.047  50.045 -15.864  1.00  0.00     0.136 A 
ATOM      8  C   UNL     1      20.456  51.364 -16.143  1.00  0.00     0.125 A 
ATOM      9  C   UNL     1      19.897  52.468 -15.490  1.00  0.00     0.078 A 
ATOM     10  C   UNL     1      20.333  53.757 -15.809  1.00  0.00     0.223 A 
ENDROOT
BRANCH   1  11
ATOM     11  C   UNL     1      21.880  55.242 -17.151  1.00  0.00     0.091 A 
ATOM     12  C   UNL     1      23.052  55.757 -16.569  1.00  0.00     0.068 A 
ATOM     13  C   UNL     1      23.548  57.008 -16.958  1.00  0.00     0.162 A 
ATOM     14  C   UNL     1      21.232  55.984 -18.151  1.00  0.00     0.068 A 
ATOM     15  C   UNL     1      22.883  57.752 -17.942  1.00  0.00     0.200 A 
ATOM     16  C   UNL     1      21.723  57.237 -18.543  1.00  0.00     0.162 A 
BRANCH  13  17
ATOM     17  O   UNL     1      24.707  57.517 -16.375  1.00  0.00    -0.504 OA
ATOM     18  H   UNL     1      24.946  58.500 -16.441  1.00  0.00     0.293 HD
ENDBRANCH  13  17
BRANCH  15  19
ATOM     19  O   UNL     1      23.390  58.999 -18.312  1.00  0.00    -0.502 OA
ATOM     20  H   UNL     1      24.296  59.327 -18.000  1.00  0.00     0.293 HD
ENDBRANCH  15  19
BRANCH  16  21
ATOM     21  O   UNL     1      21.062  57.970 -19.528  1.00  0.00    -0.504 OA
ATOM     22  H   UNL     1      21.548  58.658 -20.092  1.00  0.00     0.293 HD
ENDBRANCH  16  21
ENDBRANCH   1  11
BRANCH  10  23
ATOM     23  O   UNL     1      19.745  54.866 -15.199  1.00  0.00    -0.500 OA
ATOM     24  H   UNL     1      19.442  55.669 -15.738  1.00  0.00     0.294 HD
ENDBRANCH  10  23
BRANCH   5  25
ATOM     25  O   UNL     1      22.198  48.134 -18.190  1.00  0.00    -0.507 OA
ATOM     26  H   UNL     1      21.663  47.302 -18.407  1.00  0.00     0.293 HD
ENDBRANCH   5  25
BRANCH   7  27
ATOM     27  O   UNL     1      19.060  49.798 -14.909  1.00  0.00    -0.507 OA
ATOM     28  H   UNL     1      18.817  48.855 -14.628  1.00  0.00     0.293 HD
ENDBRANCH   7  27
TORSDOF 7
ENDMDL
MODEL 4
REMARK VINA RESULT:    -7.372      2.660      4.517
REMARK INTER + INTRA:          -9.138
REMARK INTER:                  -8.936
REMARK INTRA:                  -0.201
REMARK UNBOUND:                -0.041
REMARK SMILES Oc1cc(O)c2cc(O)c(-c3cc(O)c(O)c(O)c3)[o+]c2c1
REMARK SMILES IDX 10 1 20 2 21 3 22 4 2 5 3 6 4 7 6 8 7 9 8 10 11 11 12 12
REMARK SMILES IDX 13 13 19 14 15 15 17 16 14 17 16 19 18 21 9 23 1 25 5 27
REMARK H PARENT 14 18 16 20 18 22 9 24 1 26 5 28
REMARK Flexibility Score: inf
ROOT
ATOM      1  C   UNL     1      22.589  51.329 -16.707  1.00  0.00     0.402 A 
ATOM      2  O   UNL     1      21.941  52.431 -17.084  1.00  0.00    -0.202 OA
ATOM      3  C   UNL     1      22.175  53.628 -16.558  1.00  0.00     0.368 A 
ATOM      4  C   UNL     1      21.447  54.735 -17.006  1.00  0.00     0.162 A 
ATOM      5  C   UNL     1      21.682  56.003 -16.457  1.00  0.00     0.128 A 
ATOM      6  C   UNL     1      22.648  56.161 -15.457  1.00  0.00     0.093 A 
ATOM      7  C   UNL     1      23.385  55.061 -14.998  1.00  0.00     0.136 A 
ATOM      8  C   UNL     1      23.149  53.787 -15.550  1.00  0.00     0.125 A 
ATOM      9  C   UNL     1      23.861  52.655 -15.135  1.00  0.00     0.078 A 
ATOM     10  C   UNL     1      23.593  51.414 -15.721  1.00  0.00     0.223 A 
ENDROOT
BRANCH   1  11
ATOM     11  C   UNL     1      22.233  50.049 -17.360  1.00  0.00     0.091 A 
ATOM     12  C   UNL     1      23.168  49.334 -18.128  1.00  0.00     0.068 A 
ATOM     13  C   UNL     1      22.817  48.113 -18.719  1.00  0.00     0.162 A 
ATOM     14  C   UNL     1      20.953  49.506 -17.164  1.00  0.00     0.068 A 
ATOM     15  C   UNL     1      21.531  47.589 -18.537  1.00  0.00     0.200 A 
ATOM     16  C   UNL     1      20.596  48.286 -17.753  1.00  0.00     0.162 A 
BRANCH  13  17
ATOM     17  O   UNL     1      23.746  47.409 -19.485  1.00  0.00    -0.504 OA
ATOM     18  H   UNL     1      23.476  46.606 -20.039  1.00  0.00     0.293 HD
ENDBRANCH  13  17
BRANCH  15  19
ATOM     19  O   UNL     1      21.199  46.374 -19.138  1.00  0.00    -0.502 OA
ATOM     20  H   UNL     1      21.811  45.916 -19.802  1.00  0.00     0.293 HD
ENDBRANCH  15  19
BRANCH  16  21
ATOM     21  O   UNL     1      19.317  47.764 -17.563  1.00  0.00    -0.504 OA
ATOM     22  H   UNL     1      19.170  46.781 -17.365  1.00  0.00     0.293 HD
ENDBRANCH  16  21
ENDBRANCH   1  11
BRANCH  10  23
ATOM     23  O   UNL     1      24.332  50.291 -15.349  1.00  0.00    -0.500 OA
ATOM     24  H   UNL     1      24.071  49.359 -15.651  1.00  0.00     0.294 HD
ENDBRANCH  10  23
BRANCH   5  25
ATOM     25  O   UNL     1      20.962  57.111 -16.898  1.00  0.00    -0.507 OA
ATOM     26  H   UNL     1      19.954  57.156 -16.810  1.00  0.00     0.293 HD
ENDBRANCH   5  25
BRANCH   7  27
ATOM     27  O   UNL     1      24.346  55.233 -14.001  1.00  0.00    -0.507 OA
ATOM     28  H   UNL     1      24.120  55.668 -13.114  1.00  0.00     0.293 HD
ENDBRANCH   7  27
TORSDOF 7
ENDMDL
MODEL 5
REMARK VINA RESULT:    -7.361      2.405      7.188
REMARK INTER + INTRA:          -9.124
REMARK INTER:                  -8.791
REMARK INTRA:                  -0.333
REMARK UNBOUND:                -0.041
REMARK SMILES Oc1cc(O)c2cc(O)c(-c3cc(O)c(O)c(O)c3)[o+]c2c1
REMARK SMILES IDX 10 1 20 2 21 3 22 4 2 5 3 6 4 7 6 8 7 9 8 10 11 11 12 12
REMARK SMILES IDX 13 13 19 14 15 15 17 16 14 17 16 19 18 21 9 23 1 25 5 27
REMARK H PARENT 14 18 16 20 18 22 9 24 1 26 5 28
REMARK Flexibility Score: inf
ROOT
ATOM      1  C   UNL     1      21.572  55.314 -15.427  1.00  0.00     0.402 A 
ATOM      2  O   UNL     1      22.232  54.157 -15.429  1.00  0.00    -0.202 OA
ATOM      3  C   UNL     1      21.991  53.181 -14.561  1.00  0.00     0.368 A 
ATOM      4  C   UNL     1      22.732  51.997 -14.627  1.00  0.00     0.162 A 
ATOM      5  C   UNL     1      22.490  50.961 -13.715  1.00  0.00     0.128 A 
ATOM      6  C   UNL     1      21.505  51.112 -12.734  1.00  0.00     0.093 A 
ATOM      7  C   UNL     1      20.753  52.293 -12.655  1.00  0.00     0.136 A 
ATOM      8  C   UNL     1      20.996  53.334 -13.572  1.00  0.00     0.125 A 
ATOM      9  C   UNL     1      20.272  54.531 -13.545  1.00  0.00     0.078 A 
ATOM     10  C   UNL     1      20.547  55.530 -14.483  1.00  0.00     0.223 A 
ENDROOT
BRANCH   1  11
ATOM     11  C   UNL     1      21.936  56.331 -16.440  1.00  0.00     0.091 A 
ATOM     12  C   UNL     1      23.105  57.101 -16.317  1.00  0.00     0.068 A 
ATOM     13  C   UNL     1      23.443  58.042 -17.299  1.00  0.00     0.162 A 
ATOM     14  C   UNL     1      21.128  56.493 -17.576  1.00  0.00     0.068 A 
ATOM     15  C   UNL     1      22.620  58.213 -18.419  1.00  0.00     0.200 A 
ATOM     16  C   UNL     1      21.460  57.434 -18.560  1.00  0.00     0.162 A 
BRANCH  13  17
ATOM     17  O   UNL     1      24.601  58.808 -17.171  1.00  0.00    -0.504 OA
ATOM     18  H   UNL     1      24.699  59.703 -17.635  1.00  0.00     0.293 HD
ENDBRANCH  13  17
BRANCH  15  19
ATOM     19  O   UNL     1      22.970  59.159 -19.384  1.00  0.00    -0.502 OA
ATOM     20  H   UNL     1      23.009  60.150 -19.177  1.00  0.00     0.293 HD
ENDBRANCH  15  19
BRANCH  16  21
ATOM     21  O   UNL     1      20.642  57.596 -19.678  1.00  0.00    -0.504 OA
ATOM     22  H   UNL     1      21.028  57.801 -20.592  1.00  0.00     0.293 HD
ENDBRANCH  16  21
ENDBRANCH   1  11
BRANCH  10  23
ATOM     23  O   UNL     1      19.796  56.706 -14.494  1.00  0.00    -0.500 OA
ATOM     24  H   UNL     1      20.236  57.618 -14.456  1.00  0.00     0.294 HD
ENDBRANCH  10  23
BRANCH   5  25
ATOM     25  O   UNL     1      23.224  49.778 -13.775  1.00  0.00    -0.507 OA
ATOM     26  H   UNL     1      23.672  49.391 -12.953  1.00  0.00     0.293 HD
ENDBRANCH   5  25
BRANCH   7  27
ATOM     27  O   UNL     1      19.772  52.430 -11.673  1.00  0.00    -0.507 OA
ATOM     28  H   UNL     1      19.422  53.340 -11.394  1.00  0.00     0.293 HD
ENDBRANCH   7  27
TORSDOF 7
ENDMDL
MODEL 6
REMARK VINA RESULT:    -7.350      2.657      4.180
REMARK INTER + INTRA:          -9.110
REMARK INTER:                  -8.890
REMARK INTRA:                  -0.219
REMARK UNBOUND:                -0.041
REMARK SMILES Oc1cc(O)c2cc(O)c(-c3cc(O)c(O)c(O)c3)[o+]c2c1
REMARK SMILES IDX 10 1 20 2 21 3 22 4 2 5 3 6 4 7 6 8 7 9 8 10 11 11 12 12
REMARK SMILES IDX 13 13 19 14 15 15 17 16 14 17 16 19 18 21 9 23 1 25 5 27
REMARK H PARENT 14 18 16 20 18 22 9 24 1 26 5 28
REMARK Flexibility Score: inf
ROOT
ATOM      1  C   UNL     1      22.567  51.369 -16.706  1.00  0.00     0.402 A 
ATOM      2  O   UNL     1      21.905  52.457 -17.096  1.00  0.00    -0.202 OA
ATOM      3  C   UNL     1      22.136  53.667 -16.598  1.00  0.00     0.368 A 
ATOM      4  C   UNL     1      21.392  54.759 -17.057  1.00  0.00     0.162 A 
ATOM      5  C   UNL     1      21.624  56.039 -16.538  1.00  0.00     0.128 A 
ATOM      6  C   UNL     1      22.602  56.226 -15.555  1.00  0.00     0.093 A 
ATOM      7  C   UNL     1      23.356  55.142 -15.084  1.00  0.00     0.136 A 
ATOM      8  C   UNL     1      23.123  53.855 -15.607  1.00  0.00     0.125 A 
ATOM      9  C   UNL     1      23.850  52.738 -15.181  1.00  0.00     0.078 A 
ATOM     10  C   UNL     1      23.585  51.483 -15.737  1.00  0.00     0.223 A 
ENDROOT
BRANCH   1  11
ATOM     11  C   UNL     1      22.214  50.073 -17.328  1.00  0.00     0.091 A 
ATOM     12  C   UNL     1      20.942  49.502 -17.158  1.00  0.00     0.068 A 
ATOM     13  C   UNL     1      20.620  48.285 -17.773  1.00  0.00     0.162 A 
ATOM     14  C   UNL     1      23.149  49.425 -18.151  1.00  0.00     0.068 A 
ATOM     15  C   UNL     1      21.566  47.633 -18.575  1.00  0.00     0.200 A 
ATOM     16  C   UNL     1      22.834  48.207 -18.768  1.00  0.00     0.162 A 
BRANCH  13  17
ATOM     17  O   UNL     1      19.359  47.719 -17.598  1.00  0.00    -0.504 OA
ATOM     18  H   UNL     1      19.212  46.718 -17.662  1.00  0.00     0.293 HD
ENDBRANCH  13  17
BRANCH  15  19
ATOM     19  O   UNL     1      21.229  46.419 -19.176  1.00  0.00    -0.502 OA
ATOM     20  H   UNL     1      21.676  45.548 -18.918  1.00  0.00     0.293 HD
ENDBRANCH  15  19
BRANCH  16  21
ATOM     21  O   UNL     1      23.775  47.565 -19.572  1.00  0.00    -0.504 OA
ATOM     22  H   UNL     1      23.605  46.643 -19.955  1.00  0.00     0.293 HD
ENDBRANCH  16  21
ENDBRANCH   1  11
BRANCH  10  23
ATOM     23  O   UNL     1      24.340  50.374 -15.353  1.00  0.00    -0.500 OA
ATOM     24  H   UNL     1      25.318  50.458 -15.104  1.00  0.00     0.294 HD
ENDBRANCH  10  23
BRANCH   5  25
ATOM     25  O   UNL     1      20.887  57.132 -16.991  1.00  0.00    -0.507 OA
ATOM     26  H   UNL     1      20.620  57.885 -16.368  1.00  0.00     0.293 HD
ENDBRANCH   5  25
BRANCH   7  27
ATOM     27  O   UNL     1      24.329  55.342 -14.106  1.00  0.00    -0.507 OA
ATOM     28  H   UNL     1      25.082  54.679 -13.961  1.00  0.00     0.293 HD
ENDBRANCH   7  27
TORSDOF 7
ENDMDL
MODEL 7
REMARK VINA RESULT:    -7.334      1.439      7.271
REMARK INTER + INTRA:          -9.090
REMARK INTER:                  -8.706
REMARK INTRA:                  -0.383
REMARK UNBOUND:                -0.041
REMARK SMILES Oc1cc(O)c2cc(O)c(-c3cc(O)c(O)c(O)c3)[o+]c2c1
REMARK SMILES IDX 10 1 20 2 21 3 22 4 2 5 3 6 4 7 6 8 7 9 8 10 11 11 12 12
REMARK SMILES IDX 13 13 19 14 15 15 17 16 14 17 16 19 18 21 9 23 1 25 5 27
REMARK H PARENT 14 18 16 20 18 22 9 24 1 26 5 28
REMARK Flexibility Score: inf
ROOT
ATOM      1  C   UNL     1      21.966  55.305 -15.982  1.00  0.00     0.402 A 
ATOM      2  O   UNL     1      22.474  54.152 -16.417  1.00  0.00    -0.202 OA
ATOM      3  C   UNL     1      21.891  52.977 -16.208  1.00  0.00     0.368 A 
ATOM      4  C   UNL     1      22.492  51.810 -16.693  1.00  0.00     0.162 A 
ATOM      5  C   UNL     1      21.889  50.564 -16.478  1.00  0.00     0.128 A 
ATOM      6  C   UNL     1      20.683  50.486 -15.774  1.00  0.00     0.093 A 
ATOM      7  C   UNL     1      20.068  51.646 -15.281  1.00  0.00     0.136 A 
ATOM      8  C   UNL     1      20.674  52.899 -15.499  1.00  0.00     0.125 A 
ATOM      9  C   UNL     1      20.102  54.090 -15.037  1.00  0.00     0.078 A 
ATOM     10  C   UNL     1      20.740  55.308 -15.286  1.00  0.00     0.223 A 
ENDROOT
BRANCH   1  11
ATOM     11  C   UNL     1      22.713  56.551 -16.268  1.00  0.00     0.091 A 
ATOM     12  C   UNL     1      23.623  57.089 -15.342  1.00  0.00     0.068 A 
ATOM     13  C   UNL     1      24.336  58.257 -15.641  1.00  0.00     0.162 A 
ATOM     14  C   UNL     1      22.551  57.182 -17.512  1.00  0.00     0.068 A 
ATOM     15  C   UNL     1      24.153  58.893 -16.876  1.00  0.00     0.200 A 
ATOM     16  C   UNL     1      23.261  58.352 -17.817  1.00  0.00     0.162 A 
BRANCH  13  17
ATOM     17  O   UNL     1      25.233  58.790 -14.718  1.00  0.00    -0.504 OA
ATOM     18  H   UNL     1      24.920  59.361 -13.942  1.00  0.00     0.293 HD
ENDBRANCH  13  17
BRANCH  15  19
ATOM     19  O   UNL     1      24.868  60.059 -17.154  1.00  0.00    -0.502 OA
ATOM     20  H   UNL     1      25.568  60.101 -17.886  1.00  0.00     0.293 HD
ENDBRANCH  15  19
BRANCH  16  21
ATOM     21  O   UNL     1      23.082  58.978 -19.050  1.00  0.00    -0.504 OA
ATOM     22  H   UNL     1      22.915  59.975 -19.119  1.00  0.00     0.293 HD
ENDBRANCH  16  21
ENDBRANCH   1  11
BRANCH  10  23
ATOM     23  O   UNL     1      20.151  56.504 -14.873  1.00  0.00    -0.500 OA
ATOM     24  H   UNL     1      20.525  57.040 -14.098  1.00  0.00     0.294 HD
ENDBRANCH  10  23
BRANCH   5  25
ATOM     25  O   UNL     1      22.481  49.398 -16.958  1.00  0.00    -0.507 OA
ATOM     26  H   UNL     1      22.438  48.530 -16.438  1.00  0.00     0.293 HD
ENDBRANCH   5  25
BRANCH   7  27
ATOM     27  O   UNL     1      18.864  51.554 -14.583  1.00  0.00    -0.507 OA
ATOM     28  H   UNL     1      18.689  50.806 -13.922  1.00  0.00     0.293 HD
ENDBRANCH   7  27
TORSDOF 7
ENDMDL
MODEL 8
REMARK VINA RESULT:    -7.294      3.281      6.427
REMARK INTER + INTRA:          -9.041
REMARK INTER:                  -8.992
REMARK INTRA:                  -0.049
REMARK UNBOUND:                -0.041
REMARK SMILES Oc1cc(O)c2cc(O)c(-c3cc(O)c(O)c(O)c3)[o+]c2c1
REMARK SMILES IDX 10 1 20 2 21 3 22 4 2 5 3 6 4 7 6 8 7 9 8 10 11 11 12 12
REMARK SMILES IDX 13 13 19 14 15 15 17 16 14 17 16 19 18 21 9 23 1 25 5 27
REMARK H PARENT 14 18 16 20 18 22 9 24 1 26 5 28
REMARK Flexibility Score: inf
ROOT
ATOM      1  C   UNL     1      23.650  56.516 -14.801  1.00  0.00     0.402 A 
ATOM      2  O   UNL     1      22.821  56.107 -13.842  1.00  0.00    -0.202 OA
ATOM      3  C   UNL     1      23.173  56.023 -12.564  1.00  0.00     0.368 A 
ATOM      4  C   UNL     1      22.244  55.579 -11.617  1.00  0.00     0.162 A 
ATOM      5  C   UNL     1      22.603  55.483 -10.266  1.00  0.00     0.128 A 
ATOM      6  C   UNL     1      23.897  55.832  -9.863  1.00  0.00     0.093 A 
ATOM      7  C   UNL     1      24.839  56.280 -10.800  1.00  0.00     0.136 A 
ATOM      8  C   UNL     1      24.478  56.376 -12.158  1.00  0.00     0.125 A 
ATOM      9  C   UNL     1      25.374  56.823 -13.135  1.00  0.00     0.078 A 
ATOM     10  C   UNL     1      24.963  56.907 -14.468  1.00  0.00     0.223 A 
ENDROOT
BRANCH   1  11
ATOM     11  C   UNL     1      23.146  56.558 -16.193  1.00  0.00     0.091 A 
ATOM     12  C   UNL     1      22.496  55.454 -16.770  1.00  0.00     0.068 A 
ATOM     13  C   UNL     1      22.006  55.522 -18.081  1.00  0.00     0.162 A 
ATOM     14  C   UNL     1      23.268  57.744 -16.935  1.00  0.00     0.068 A 
ATOM     15  C   UNL     1      22.151  56.701 -18.823  1.00  0.00     0.200 A 
ATOM     16  C   UNL     1      22.781  57.818 -18.247  1.00  0.00     0.162 A 
BRANCH  13  17
ATOM     17  O   UNL     1      21.368  54.423 -18.652  1.00  0.00    -0.504 OA
ATOM     18  H   UNL     1      20.385  54.236 -18.489  1.00  0.00     0.293 HD
ENDBRANCH  13  17
BRANCH  15  19
ATOM     19  O   UNL     1      21.661  56.749 -20.130  1.00  0.00    -0.502 OA
ATOM     20  H   UNL     1      21.668  55.939 -20.738  1.00  0.00     0.293 HD
ENDBRANCH  15  19
BRANCH  16  21
ATOM     21  O   UNL     1      22.920  58.996 -18.980  1.00  0.00    -0.504 OA
ATOM     22  H   UNL     1      23.171  59.871 -18.534  1.00  0.00     0.293 HD
ENDBRANCH  16  21
ENDBRANCH   1  11
BRANCH  10  23
ATOM     23  O   UNL     1      25.835  57.400 -15.440  1.00  0.00    -0.500 OA
ATOM     24  H   UNL     1      26.153  56.822 -16.209  1.00  0.00     0.294 HD
ENDBRANCH  10  23
BRANCH   5  25
ATOM     25  O   UNL     1      21.684  55.042  -9.318  1.00  0.00    -0.507 OA
ATOM     26  H   UNL     1      20.947  55.646  -8.974  1.00  0.00     0.293 HD
ENDBRANCH   5  25
BRANCH   7  27
ATOM     27  O   UNL     1      26.125  56.626 -10.384  1.00  0.00    -0.507 OA
ATOM     28  H   UNL     1      26.618  57.417 -10.783  1.00  0.00     0.293 HD
ENDBRANCH   7  27
TORSDOF 7
ENDMDL
