MODEL 1
REMARK VINA RESULT:    -2.469      0.000      0.000
REMARK INTER + INTRA:          -2.469
REMARK INTER:                  -2.469
REMARK INTRA:                   0.000
REMARK UNBOUND:                 0.000
REMARK SMILES CC(=O)[O-]
REMARK SMILES IDX 1 1 2 2 3 3 4 4
REMARK H PARENT
REMARK Flexibility Score: inf
ROOT
ATOM      1  C   UNL     1      62.201 147.879 -20.984  1.00  0.00     0.063 C 
ATOM      2  C   UNL     1      62.217 149.228 -21.621  1.00  0.00     0.038 C 
ATOM      3  O   UNL     1      61.160 149.710 -22.104  1.00  0.00    -0.550 OA
ATOM      4  O   UNL     1      63.386 149.976 -21.636  1.00  0.00    -0.550 OA
ENDROOT
TORSDOF 0
ENDMDL
MODEL 2
REMARK VINA RESULT:    -2.448      5.150      5.811
REMARK INTER + INTRA:          -2.448
REMARK INTER:                  -2.448
REMARK INTRA:                   0.000
REMARK UNBOUND:                 0.000
REMARK SMILES CC(=O)[O-]
REMARK SMILES IDX 1 1 2 2 3 3 4 4
REMARK H PARENT
REMARK Flexibility Score: inf
ROOT
ATOM      1  C   UNL     1      60.427 155.313 -22.864  1.00  0.00     0.063 C 
ATOM      2  C   UNL     1      60.419 154.119 -21.970  1.00  0.00     0.038 C 
ATOM      3  O   UNL     1      61.364 153.932 -21.160  1.00  0.00    -0.550 OA
ATOM      4  O   UNL     1      59.346 153.240 -21.993  1.00  0.00    -0.550 OA
ENDROOT
TORSDOF 0
ENDMDL
MODEL 3
REMARK VINA RESULT:    -2.380     15.269     15.710
REMARK INTER + INTRA:          -2.380
REMARK INTER:                  -2.380
REMARK INTRA:                   0.000
REMARK UNBOUND:                 0.000
REMARK SMILES CC(=O)[O-]
REMARK SMILES IDX 1 1 2 2 3 3 4 4
REMARK H PARENT
REMARK Flexibility Score: inf
ROOT
ATOM      1  C   UNL     1      54.446 153.707 -32.839  1.00  0.00     0.063 C 
ATOM      2  C   UNL     1      53.431 154.624 -33.434  1.00  0.00     0.038 C 
ATOM      3  O   UNL     1      52.410 154.154 -34.000  1.00  0.00    -0.550 OA
ATOM      4  O   UNL     1      53.583 155.999 -33.319  1.00  0.00    -0.550 OA
ENDROOT
TORSDOF 0
ENDMDL
MODEL 4
REMARK VINA RESULT:    -2.369     12.178     12.857
REMARK INTER + INTRA:          -2.369
REMARK INTER:                  -2.369
REMARK INTRA:                   0.000
REMARK UNBOUND:                 0.000
REMARK SMILES CC(=O)[O-]
REMARK SMILES IDX 1 1 2 2 3 3 4 4
REMARK H PARENT
REMARK Flexibility Score: inf
ROOT
ATOM      1  C   UNL     1      50.660 153.063 -21.993  1.00  0.00     0.063 C 
ATOM      2  C   UNL     1      50.109 152.541 -23.277  1.00  0.00     0.038 C 
ATOM      3  O   UNL     1      50.741 151.668 -23.926  1.00  0.00    -0.550 OA
ATOM      4  O   UNL     1      48.872 152.978 -23.732  1.00  0.00    -0.550 OA
ENDROOT
TORSDOF 0
ENDMDL
MODEL 5
REMARK VINA RESULT:    -2.364      1.977      2.707
REMARK INTER + INTRA:          -2.364
REMARK INTER:                  -2.364
REMARK INTRA:                   0.000
REMARK UNBOUND:                 0.000
REMARK SMILES CC(=O)[O-]
REMARK SMILES IDX 1 1 2 2 3 3 4 4
REMARK H PARENT
REMARK Flexibility Score: inf
ROOT
ATOM      1  C   UNL     1      60.416 149.235 -23.919  1.00  0.00     0.063 C 
ATOM      2  C   UNL     1      60.962 149.990 -22.754  1.00  0.00     0.038 C 
ATOM      3  O   UNL     1      62.090 149.693 -22.283  1.00  0.00    -0.550 OA
ATOM      4  O   UNL     1      60.250 151.055 -22.220  1.00  0.00    -0.550 OA
ENDROOT
TORSDOF 0
ENDMDL
MODEL 6
REMARK VINA RESULT:    -2.353     11.179     11.590
REMARK INTER + INTRA:          -2.353
REMARK INTER:                  -2.353
REMARK INTRA:                   0.000
REMARK UNBOUND:                 0.000
REMARK SMILES CC(=O)[O-]
REMARK SMILES IDX 1 1 2 2 3 3 4 4
REMARK H PARENT
REMARK Flexibility Score: inf
ROOT
ATOM      1  C   UNL     1      52.453 154.259 -25.625  1.00  0.00     0.063 C 
ATOM      2  C   UNL     1      52.243 152.783 -25.628  1.00  0.00     0.038 C 
ATOM      3  O   UNL     1      52.943 152.047 -26.372  1.00  0.00    -0.550 OA
ATOM      4  O   UNL     1      51.310 152.210 -24.774  1.00  0.00    -0.550 OA
ENDROOT
TORSDOF 0
ENDMDL
MODEL 7
REMARK VINA RESULT:    -2.338      8.991      9.280
REMARK INTER + INTRA:          -2.338
REMARK INTER:                  -2.338
REMARK INTRA:                   0.000
REMARK UNBOUND:                 0.000
REMARK SMILES CC(=O)[O-]
REMARK SMILES IDX 1 1 2 2 3 3 4 4
REMARK H PARENT
REMARK Flexibility Score: inf
ROOT
ATOM      1  C   UNL     1      55.837 143.417 -23.891  1.00  0.00     0.063 C 
ATOM      2  C   UNL     1      54.879 144.455 -24.368  1.00  0.00     0.038 C 
ATOM      3  O   UNL     1      54.375 145.271 -23.553  1.00  0.00    -0.550 OA
ATOM      4  O   UNL     1      54.580 144.559 -25.720  1.00  0.00    -0.550 OA
ENDROOT
TORSDOF 0
ENDMDL
MODEL 8
REMARK VINA RESULT:    -2.327     12.463     13.016
REMARK INTER + INTRA:          -2.327
REMARK INTER:                  -2.327
REMARK INTRA:                   0.000
REMARK UNBOUND:                 0.000
REMARK SMILES CC(=O)[O-]
REMARK SMILES IDX 1 1 2 2 3 3 4 4
REMARK H PARENT
REMARK Flexibility Score: inf
ROOT
ATOM      1  C   UNL     1      50.071 152.999 -21.784  1.00  0.00     0.063 C 
ATOM      2  C   UNL     1      49.801 152.577 -23.190  1.00  0.00     0.038 C 
ATOM      3  O   UNL     1      48.781 153.001 -23.791  1.00  0.00    -0.550 OA
ATOM      4  O   UNL     1      50.703 151.758 -23.855  1.00  0.00    -0.550 OA
ENDROOT
TORSDOF 0
ENDMDL
MODEL 9
REMARK VINA RESULT:    -2.315     10.275     10.694
REMARK INTER + INTRA:          -2.315
REMARK INTER:                  -2.315
REMARK INTRA:                   0.000
REMARK UNBOUND:                 0.000
REMARK SMILES CC(=O)[O-]
REMARK SMILES IDX 1 1 2 2 3 3 4 4
REMARK H PARENT
REMARK Flexibility Score: inf
ROOT
ATOM      1  C   UNL     1      54.772 142.882 -28.006  1.00  0.00     0.063 C 
ATOM      2  C   UNL     1      55.106 144.264 -27.554  1.00  0.00     0.038 C 
ATOM      3  O   UNL     1      56.081 144.876 -28.063  1.00  0.00    -0.550 OA
ATOM      4  O   UNL     1      54.311 144.898 -26.609  1.00  0.00    -0.550 OA
ENDROOT
TORSDOF 0
ENDMDL
