MODEL 1
REMARK VINA RESULT:     9.049      0.000      0.000
REMARK INTER + INTRA:          13.524
REMARK INTER:                  11.959
REMARK INTRA:                   1.565
REMARK UNBOUND:                 1.565
REMARK SMILES CC[C@H](C=C[C@H](C)[C@@H]1CC[C@H]2[C@@H]3CC=C4C[C@H](O)CC[C@@]4(C)[C@H]3CC[C@]21C)C(C)C
REMARK SMILES IDX 6 1 7 2 5 3 4 4 3 5 2 6 1 7 28 8 29 9 30 10 8 11 9 12 26 13
REMARK SMILES IDX 10 14 11 15 25 16 27 17 12 18 24 19 23 20 13 21 21 22 14 23
REMARK SMILES IDX 15 24 20 25 22 26 16 27 19 28 17 29 18 30
REMARK H PARENT 18 31
REMARK Flexibility Score: inf
ROOT
ATOM      1  C   UNL     1      12.073  -0.384  17.385  1.00  0.00     0.012 C 
ATOM      2  C   UNL     1      10.776  -0.951  16.787  1.00  0.00     0.012 C 
ENDROOT
BRANCH   1   3
ATOM      3  C   UNL     1      11.695   0.574  18.503  1.00  0.00    -0.028 C 
ATOM      4  C   UNL     1      10.590   0.484  19.267  1.00  0.00    -0.027 C 
BRANCH   4   5
ATOM      5  C   UNL     1       9.477  -0.539  19.103  1.00  0.00     0.014 C 
BRANCH   5   6
ATOM      6  C   UNL     1       9.730  -1.699  20.097  1.00  0.00     0.004 C 
ATOM      7  C   UNL     1       8.756  -2.866  19.929  1.00  0.00     0.004 C 
ENDBRANCH   5   6
BRANCH   5   8
ATOM      8  C   UNL     1       8.067   0.118  19.248  1.00  0.00    -0.011 C 
ATOM      9  C   UNL     1       7.081  -0.419  18.197  1.00  0.00     0.008 C 
ATOM     10  C   UNL     1       8.092   1.656  19.195  1.00  0.00     0.008 C 
ENDBRANCH   5   8
ENDBRANCH   4   5
ENDBRANCH   1   3
BRANCH   1  11
ATOM     11  C   UNL     1      13.025  -1.497  17.933  1.00  0.00     0.002 C 
ATOM     12  C   UNL     1      12.232  -2.664  18.520  1.00  0.00     0.005 C 
ATOM     13  C   UNL     1      14.034  -1.122  19.066  1.00  0.00    -0.026 C 
ATOM     14  C   UNL     1      13.227  -3.464  19.332  1.00  0.00     0.005 C 
ATOM     15  C   UNL     1      14.352  -2.495  19.756  1.00  0.00    -0.001 C 
ATOM     16  C   UNL     1      15.318  -0.454  18.484  1.00  0.00     0.007 C 
ATOM     17  C   UNL     1      13.388  -0.179  20.123  1.00  0.00     0.012 C 
ATOM     18  C   UNL     1      15.759  -3.052  19.391  1.00  0.00     0.000 C 
ATOM     19  C   UNL     1      16.515  -0.573  19.432  1.00  0.00     0.005 C 
ATOM     20  C   UNL     1      16.884  -2.049  19.758  1.00  0.00     0.003 C 
ATOM     21  C   UNL     1      16.070  -4.369  20.125  1.00  0.00     0.031 C 
ATOM     22  C   UNL     1      18.283  -2.534  19.205  1.00  0.00    -0.008 C 
ATOM     23  C   UNL     1      17.432  -4.873  19.744  1.00  0.00    -0.027 C 
ATOM     24  C   UNL     1      18.438  -4.064  19.339  1.00  0.00    -0.065 C 
ATOM     25  C   UNL     1      18.464  -2.184  17.691  1.00  0.00     0.014 C 
ATOM     26  C   UNL     1      19.391  -1.847  20.047  1.00  0.00     0.016 C 
ATOM     27  C   UNL     1      19.685  -4.697  18.758  1.00  0.00     0.063 C 
ATOM     28  C   UNL     1      19.731  -2.799  17.060  1.00  0.00     0.033 C 
ATOM     29  C   UNL     1      19.793  -4.324  17.269  1.00  0.00     0.118 C 
BRANCH  29  30
ATOM     30  O   UNL     1      20.968  -4.852  16.708  1.00  0.00    -0.393 OA
ATOM     31  H   UNL     1      21.704  -4.208  16.886  1.00  0.00     0.210 HD
ENDBRANCH  29  30
ENDBRANCH   1  11
TORSDOF 6
ENDMDL
