MODEL 1
REMARK VINA RESULT:    -4.494      0.000      0.000
REMARK INTER + INTRA:          -9.426
REMARK INTER:                  -7.910
REMARK INTRA:                  -1.516
REMARK UNBOUND:                -1.516
REMARK SMILES CCCCCCCCCCCCCCC(=O)[O-]
REMARK SMILES IDX 9 1 10 2 11 3 12 4 13 5 14 6 15 7 16 8 17 9 8 10 7 11 6 12
REMARK SMILES IDX 5 13 4 14 3 15 2 16 1 17
REMARK H PARENT
REMARK Flexibility Score: inf
ROOT
ATOM      1  C   UNL     1     191.693   1.688 100.378  1.00  0.00     0.000 C 
ENDROOT
BRANCH   1   2
ATOM      2  C   UNL     1     192.228   2.237  99.042  1.00  0.00     0.000 C 
BRANCH   2   3
ATOM      3  C   UNL     1     192.324   3.772  99.019  1.00  0.00     0.000 C 
BRANCH   3   4
ATOM      4  C   UNL     1     191.143   4.436  98.287  1.00  0.00     0.000 C 
BRANCH   4   5
ATOM      5  C   UNL     1     190.280   3.487  97.431  1.00  0.00     0.006 C 
BRANCH   5   6
ATOM      6  C   UNL     1     190.333   3.762  95.920  1.00  0.00     0.053 C 
BRANCH   6   7
ATOM      7  C   UNL     1     191.689   3.486  95.348  1.00  0.00     0.041 C 
ATOM      8  O   UNL     1     192.404   4.433  94.927  1.00  0.00    -0.550 OA
ATOM      9  O   UNL     1     192.150   2.180  95.248  1.00  0.00    -0.550 OA
ENDBRANCH   6   7
ENDBRANCH   5   6
ENDBRANCH   4   5
ENDBRANCH   3   4
ENDBRANCH   2   3
ENDBRANCH   1   2
BRANCH   1  10
ATOM     10  C   UNL     1     192.539   0.568 101.013  1.00  0.00     0.000 C 
BRANCH  10  11
ATOM     11  C   UNL     1     193.820   1.088 101.681  1.00  0.00    -0.000 C 
BRANCH  11  12
ATOM     12  C   UNL     1     193.585   2.457 102.329  1.00  0.00    -0.000 C 
BRANCH  12  13
ATOM     13  C   UNL     1     193.659   2.362 103.860  1.00  0.00    -0.000 C 
BRANCH  13  14
ATOM     14  C   UNL     1     192.278   2.441 104.532  1.00  0.00    -0.000 C 
BRANCH  14  15
ATOM     15  C   UNL     1     191.557   1.080 104.628  1.00  0.00    -0.000 C 
BRANCH  15  16
ATOM     16  C   UNL     1     192.510  -0.052 105.038  1.00  0.00    -0.003 C 
ATOM     17  C   UNL     1     192.257  -1.311 104.212  1.00  0.00     0.004 C 
ENDBRANCH  15  16
ENDBRANCH  14  15
ENDBRANCH  13  14
ENDBRANCH  12  13
ENDBRANCH  11  12
ENDBRANCH  10  11
ENDBRANCH   1  10
TORSDOF 13
ENDMDL
MODEL 2
REMARK VINA RESULT:    -4.317      1.397      2.033
REMARK INTER + INTRA:          -9.115
REMARK INTER:                  -8.289
REMARK INTRA:                  -0.826
REMARK UNBOUND:                -1.516
REMARK SMILES CCCCCCCCCCCCCCC(=O)[O-]
REMARK SMILES IDX 9 1 10 2 11 3 12 4 13 5 14 6 15 7 16 8 17 9 8 10 7 11 6 12
REMARK SMILES IDX 5 13 4 14 3 15 2 16 1 17
REMARK H PARENT
REMARK Flexibility Score: inf
ROOT
ATOM      1  C   UNL     1     192.717   3.437  99.441  1.00  0.00     0.000 C 
ENDROOT
BRANCH   1   2
ATOM      2  C   UNL     1     191.905   4.396  98.552  1.00  0.00     0.000 C 
BRANCH   2   3
ATOM      3  C   UNL     1     190.490   3.878  98.245  1.00  0.00     0.000 C 
BRANCH   3   4
ATOM      4  C   UNL     1     189.892   4.491  96.965  1.00  0.00     0.000 C 
BRANCH   4   5
ATOM      5  C   UNL     1     189.923   3.580  95.721  1.00  0.00     0.006 C 
BRANCH   5   6
ATOM      6  C   UNL     1     191.249   3.603  94.945  1.00  0.00     0.053 C 
BRANCH   6   7
ATOM      7  C   UNL     1     191.754   2.222  94.657  1.00  0.00     0.041 C 
ATOM      8  O   UNL     1     191.524   1.682  93.543  1.00  0.00    -0.550 OA
ATOM      9  O   UNL     1     192.450   1.519  95.632  1.00  0.00    -0.550 OA
ENDBRANCH   6   7
ENDBRANCH   5   6
ENDBRANCH   4   5
ENDBRANCH   3   4
ENDBRANCH   2   3
ENDBRANCH   1   2
BRANCH   1  10
ATOM     10  C   UNL     1     192.254   1.968  99.417  1.00  0.00     0.000 C 
BRANCH  10  11
ATOM     11  C   UNL     1     192.376   1.276 100.782  1.00  0.00    -0.000 C 
BRANCH  11  12
ATOM     12  C   UNL     1     193.392   1.998 101.675  1.00  0.00    -0.000 C 
BRANCH  12  13
ATOM     13  C   UNL     1     192.849   2.168 103.102  1.00  0.00    -0.000 C 
BRANCH  13  14
ATOM     14  C   UNL     1     193.959   2.407 104.139  1.00  0.00    -0.000 C 
BRANCH  14  15
ATOM     15  C   UNL     1     193.446   2.449 105.595  1.00  0.00    -0.000 C 
BRANCH  15  16
ATOM     16  C   UNL     1     192.705   1.163 105.985  1.00  0.00    -0.003 C 
ATOM     17  C   UNL     1     191.297   1.470 106.490  1.00  0.00     0.004 C 
ENDBRANCH  15  16
ENDBRANCH  14  15
ENDBRANCH  13  14
ENDBRANCH  12  13
ENDBRANCH  11  12
ENDBRANCH  10  11
ENDBRANCH   1  10
TORSDOF 13
ENDMDL
MODEL 3
REMARK VINA RESULT:    -4.240      1.732      2.704
REMARK INTER + INTRA:          -8.978
REMARK INTER:                  -7.558
REMARK INTRA:                  -1.420
REMARK UNBOUND:                -1.516
REMARK SMILES CCCCCCCCCCCCCCC(=O)[O-]
REMARK SMILES IDX 9 1 10 2 11 3 12 4 13 5 14 6 15 7 16 8 17 9 8 10 7 11 6 12
REMARK SMILES IDX 5 13 4 14 3 15 2 16 1 17
REMARK H PARENT
REMARK Flexibility Score: inf
ROOT
ATOM      1  C   UNL     1     191.725   0.986 100.898  1.00  0.00     0.000 C 
ENDROOT
BRANCH   1   2
ATOM      2  C   UNL     1     192.880   1.997 101.026  1.00  0.00     0.000 C 
BRANCH   2   3
ATOM      3  C   UNL     1     192.990   2.939  99.816  1.00  0.00     0.000 C 
BRANCH   3   4
ATOM      4  C   UNL     1     191.942   2.642  98.727  1.00  0.00     0.000 C 
BRANCH   4   5
ATOM      5  C   UNL     1     191.185   3.872  98.187  1.00  0.00     0.006 C 
BRANCH   5   6
ATOM      6  C   UNL     1     189.656   3.786  98.308  1.00  0.00     0.053 C 
BRANCH   6   7
ATOM      7  C   UNL     1     189.004   3.497  96.990  1.00  0.00     0.041 C 
ATOM      8  O   UNL     1     189.663   3.599  95.922  1.00  0.00    -0.550 OA
ATOM      9  O   UNL     1     187.661   3.148  96.940  1.00  0.00    -0.550 OA
ENDBRANCH   6   7
ENDBRANCH   5   6
ENDBRANCH   4   5
ENDBRANCH   3   4
ENDBRANCH   2   3
ENDBRANCH   1   2
BRANCH   1  10
ATOM     10  C   UNL     1     192.071  -0.460 101.300  1.00  0.00     0.000 C 
BRANCH  10  11
ATOM     11  C   UNL     1     193.060  -0.538 102.473  1.00  0.00    -0.000 C 
BRANCH  11  12
ATOM     12  C   UNL     1     192.391  -1.140 103.715  1.00  0.00    -0.000 C 
BRANCH  12  13
ATOM     13  C   UNL     1     193.167  -0.777 104.989  1.00  0.00    -0.000 C 
BRANCH  13  14
ATOM     14  C   UNL     1     192.537   0.396 105.758  1.00  0.00    -0.000 C 
BRANCH  14  15
ATOM     15  C   UNL     1     193.059   1.779 105.314  1.00  0.00    -0.000 C 
BRANCH  15  16
ATOM     16  C   UNL     1     192.015   2.557 104.499  1.00  0.00    -0.003 C 
ATOM     17  C   UNL     1     190.629   1.934 104.642  1.00  0.00     0.004 C 
ENDBRANCH  15  16
ENDBRANCH  14  15
ENDBRANCH  13  14
ENDBRANCH  12  13
ENDBRANCH  11  12
ENDBRANCH  10  11
ENDBRANCH   1  10
TORSDOF 13
ENDMDL
MODEL 4
REMARK VINA RESULT:    -4.200      2.004      2.592
REMARK INTER + INTRA:          -8.908
REMARK INTER:                  -7.807
REMARK INTRA:                  -1.101
REMARK UNBOUND:                -1.516
REMARK SMILES CCCCCCCCCCCCCCC(=O)[O-]
REMARK SMILES IDX 9 1 10 2 11 3 12 4 13 5 14 6 15 7 16 8 17 9 8 10 7 11 6 12
REMARK SMILES IDX 5 13 4 14 3 15 2 16 1 17
REMARK H PARENT
REMARK Flexibility Score: inf
ROOT
ATOM      1  C   UNL     1     191.770   1.561 100.539  1.00  0.00     0.000 C 
ENDROOT
BRANCH   1   2
ATOM      2  C   UNL     1     192.196   2.064  99.147  1.00  0.00     0.000 C 
BRANCH   2   3
ATOM      3  C   UNL     1     192.550   3.560  99.131  1.00  0.00     0.000 C 
BRANCH   3   4
ATOM      4  C   UNL     1     191.553   4.403  98.313  1.00  0.00     0.000 C 
BRANCH   4   5
ATOM      5  C   UNL     1     190.552   3.597  97.461  1.00  0.00     0.006 C 
BRANCH   5   6
ATOM      6  C   UNL     1     189.082   3.752  97.883  1.00  0.00     0.053 C 
BRANCH   6   7
ATOM      7  C   UNL     1     188.511   5.068  97.453  1.00  0.00     0.041 C 
ATOM      8  O   UNL     1     188.185   5.255  96.251  1.00  0.00    -0.550 OA
ATOM      9  O   UNL     1     188.371   6.100  98.372  1.00  0.00    -0.550 OA
ENDBRANCH   6   7
ENDBRANCH   5   6
ENDBRANCH   4   5
ENDBRANCH   3   4
ENDBRANCH   2   3
ENDBRANCH   1   2
BRANCH   1  10
ATOM     10  C   UNL     1     192.655   0.450 101.135  1.00  0.00     0.000 C 
BRANCH  10  11
ATOM     11  C   UNL     1     193.868   0.995 101.903  1.00  0.00    -0.000 C 
BRANCH  11  12
ATOM     12  C   UNL     1     193.575   2.386 102.479  1.00  0.00    -0.000 C 
BRANCH  12  13
ATOM     13  C   UNL     1     193.569   2.357 104.014  1.00  0.00    -0.000 C 
BRANCH  13  14
ATOM     14  C   UNL     1     193.251   0.965 104.585  1.00  0.00    -0.000 C 
BRANCH  14  15
ATOM     15  C   UNL     1     191.823   0.843 105.160  1.00  0.00    -0.000 C 
BRANCH  15  16
ATOM     16  C   UNL     1     190.927   2.015 104.736  1.00  0.00    -0.003 C 
ATOM     17  C   UNL     1     189.821   2.262 105.759  1.00  0.00     0.004 C 
ENDBRANCH  15  16
ENDBRANCH  14  15
ENDBRANCH  13  14
ENDBRANCH  12  13
ENDBRANCH  11  12
ENDBRANCH  10  11
ENDBRANCH   1  10
TORSDOF 13
ENDMDL
MODEL 5
REMARK VINA RESULT:    -4.174      1.256      1.839
REMARK INTER + INTRA:          -8.863
REMARK INTER:                  -8.071
REMARK INTRA:                  -0.793
REMARK UNBOUND:                -1.516
REMARK SMILES CCCCCCCCCCCCCCC(=O)[O-]
REMARK SMILES IDX 9 1 10 2 11 3 12 4 13 5 14 6 15 7 16 8 17 9 8 10 7 11 6 12
REMARK SMILES IDX 5 13 4 14 3 15 2 16 1 17
REMARK H PARENT
REMARK Flexibility Score: inf
ROOT
ATOM      1  C   UNL     1     192.029   1.614 100.318  1.00  0.00     0.000 C 
ENDROOT
BRANCH   1   2
ATOM      2  C   UNL     1     192.051   2.233  98.909  1.00  0.00     0.000 C 
BRANCH   2   3
ATOM      3  C   UNL     1     192.189   3.765  98.928  1.00  0.00     0.000 C 
BRANCH   3   4
ATOM      4  C   UNL     1     190.988   4.483  98.284  1.00  0.00     0.000 C 
BRANCH   4   5
ATOM      5  C   UNL     1     190.053   3.584  97.450  1.00  0.00     0.006 C 
BRANCH   5   6
ATOM      6  C   UNL     1     190.000   3.930  95.953  1.00  0.00     0.053 C 
BRANCH   6   7
ATOM      7  C   UNL     1     191.315   3.691  95.277  1.00  0.00     0.041 C 
ATOM      8  O   UNL     1     191.858   2.556  95.329  1.00  0.00    -0.550 OA
ATOM      9  O   UNL     1     191.956   4.731  94.616  1.00  0.00    -0.550 OA
ENDBRANCH   6   7
ENDBRANCH   5   6
ENDBRANCH   4   5
ENDBRANCH   3   4
ENDBRANCH   2   3
ENDBRANCH   1   2
BRANCH   1  10
ATOM     10  C   UNL     1     193.193   2.030 101.237  1.00  0.00     0.000 C 
BRANCH  10  11
ATOM     11  C   UNL     1     192.917   1.749 102.722  1.00  0.00    -0.000 C 
BRANCH  11  12
ATOM     12  C   UNL     1     193.864   2.555 103.618  1.00  0.00    -0.000 C 
BRANCH  12  13
ATOM     13  C   UNL     1     193.567   2.301 105.103  1.00  0.00    -0.000 C 
BRANCH  13  14
ATOM     14  C   UNL     1     192.101   1.917 105.363  1.00  0.00    -0.000 C 
BRANCH  14  15
ATOM     15  C   UNL     1     191.932   0.779 106.391  1.00  0.00    -0.000 C 
BRANCH  15  16
ATOM     16  C   UNL     1     190.880   1.114 107.458  1.00  0.00    -0.003 C 
ATOM     17  C   UNL     1     189.685   1.840 106.845  1.00  0.00     0.004 C 
ENDBRANCH  15  16
ENDBRANCH  14  15
ENDBRANCH  13  14
ENDBRANCH  12  13
ENDBRANCH  11  12
ENDBRANCH  10  11
ENDBRANCH   1  10
TORSDOF 13
ENDMDL
MODEL 6
REMARK VINA RESULT:    -4.153      4.288      8.455
REMARK INTER + INTRA:          -8.826
REMARK INTER:                  -8.030
REMARK INTRA:                  -0.795
REMARK UNBOUND:                -1.516
REMARK SMILES CCCCCCCCCCCCCCC(=O)[O-]
REMARK SMILES IDX 9 1 10 2 11 3 12 4 13 5 14 6 15 7 16 8 17 9 8 10 7 11 6 12
REMARK SMILES IDX 5 13 4 14 3 15 2 16 1 17
REMARK H PARENT
REMARK Flexibility Score: inf
ROOT
ATOM      1  C   UNL     1     192.614   0.991 100.573  1.00  0.00     0.000 C 
ENDROOT
BRANCH   1   2
ATOM      2  C   UNL     1     192.011   1.388 101.934  1.00  0.00     0.000 C 
BRANCH   2   3
ATOM      3  C   UNL     1     193.027   1.310 103.086  1.00  0.00     0.000 C 
BRANCH   3   4
ATOM      4  C   UNL     1     192.845   2.435 104.123  1.00  0.00     0.000 C 
BRANCH   4   5
ATOM      5  C   UNL     1     193.177   2.049 105.579  1.00  0.00     0.006 C 
BRANCH   5   6
ATOM      6  C   UNL     1     192.235   1.002 106.193  1.00  0.00     0.053 C 
BRANCH   6   7
ATOM      7  C   UNL     1     191.042   1.633 106.843  1.00  0.00     0.041 C 
ATOM      8  O   UNL     1     191.047   1.876 108.078  1.00  0.00    -0.550 OA
ATOM      9  O   UNL     1     189.912   1.923 106.089  1.00  0.00    -0.550 OA
ENDBRANCH   6   7
ENDBRANCH   5   6
ENDBRANCH   4   5
ENDBRANCH   3   4
ENDBRANCH   2   3
ENDBRANCH   1   2
BRANCH   1  10
ATOM     10  C   UNL     1     192.156   1.846  99.378  1.00  0.00     0.000 C 
BRANCH  10  11
ATOM     11  C   UNL     1     192.744   3.265  99.393  1.00  0.00    -0.000 C 
BRANCH  11  12
ATOM     12  C   UNL     1     191.856   4.236  98.607  1.00  0.00    -0.000 C 
BRANCH  12  13
ATOM     13  C   UNL     1     190.600   3.528  98.077  1.00  0.00    -0.000 C 
BRANCH  13  14
ATOM     14  C   UNL     1     190.507   3.546  96.542  1.00  0.00    -0.000 C 
BRANCH  14  15
ATOM     15  C   UNL     1     191.841   3.885  95.844  1.00  0.00    -0.000 C 
BRANCH  15  16
ATOM     16  C   UNL     1     191.627   4.556  94.480  1.00  0.00    -0.003 C 
ATOM     17  C   UNL     1     190.330   4.081  93.829  1.00  0.00     0.004 C 
ENDBRANCH  15  16
ENDBRANCH  14  15
ENDBRANCH  13  14
ENDBRANCH  12  13
ENDBRANCH  11  12
ENDBRANCH  10  11
ENDBRANCH   1  10
TORSDOF 13
ENDMDL
MODEL 7
REMARK VINA RESULT:    -4.147      1.558      2.923
REMARK INTER + INTRA:          -8.815
REMARK INTER:                  -7.533
REMARK INTRA:                  -1.282
REMARK UNBOUND:                -1.516
REMARK SMILES CCCCCCCCCCCCCCC(=O)[O-]
REMARK SMILES IDX 9 1 10 2 11 3 12 4 13 5 14 6 15 7 16 8 17 9 8 10 7 11 6 12
REMARK SMILES IDX 5 13 4 14 3 15 2 16 1 17
REMARK H PARENT
REMARK Flexibility Score: inf
ROOT
ATOM      1  C   UNL     1     193.534   2.789 101.956  1.00  0.00     0.000 C 
ENDROOT
BRANCH   1   2
ATOM      2  C   UNL     1     193.100   1.581 101.105  1.00  0.00     0.000 C 
BRANCH   2   3
ATOM      3  C   UNL     1     192.267   1.980  99.876  1.00  0.00     0.000 C 
BRANCH   3   4
ATOM      4  C   UNL     1     192.596   3.395  99.362  1.00  0.00     0.000 C 
BRANCH   4   5
ATOM      5  C   UNL     1     191.757   3.870  98.159  1.00  0.00     0.006 C 
BRANCH   5   6
ATOM      6  C   UNL     1     190.260   3.533  98.249  1.00  0.00     0.053 C 
BRANCH   6   7
ATOM      7  C   UNL     1     189.556   3.756  96.946  1.00  0.00     0.041 C 
ATOM      8  O   UNL     1     188.470   3.167  96.703  1.00  0.00    -0.550 OA
ATOM      9  O   UNL     1     190.117   4.588  95.986  1.00  0.00    -0.550 OA
ENDBRANCH   6   7
ENDBRANCH   5   6
ENDBRANCH   4   5
ENDBRANCH   3   4
ENDBRANCH   2   3
ENDBRANCH   1   2
BRANCH   1  10
ATOM     10  C   UNL     1     193.859   2.472 103.428  1.00  0.00     0.000 C 
BRANCH  10  11
ATOM     11  C   UNL     1     192.638   2.590 104.352  1.00  0.00    -0.000 C 
BRANCH  11  12
ATOM     12  C   UNL     1     192.769   1.652 105.558  1.00  0.00    -0.000 C 
BRANCH  12  13
ATOM     13  C   UNL     1     192.237   0.251 105.227  1.00  0.00    -0.000 C 
BRANCH  13  14
ATOM     14  C   UNL     1     193.358  -0.772 104.982  1.00  0.00    -0.000 C 
BRANCH  14  15
ATOM     15  C   UNL     1     193.291  -1.445 103.595  1.00  0.00    -0.000 C 
BRANCH  15  16
ATOM     16  C   UNL     1     191.883  -1.378 102.986  1.00  0.00    -0.003 C 
ATOM     17  C   UNL     1     191.878  -1.892 101.549  1.00  0.00     0.004 C 
ENDBRANCH  15  16
ENDBRANCH  14  15
ENDBRANCH  13  14
ENDBRANCH  12  13
ENDBRANCH  11  12
ENDBRANCH  10  11
ENDBRANCH   1  10
TORSDOF 13
ENDMDL
MODEL 8
REMARK VINA RESULT:    -4.136      4.187      8.146
REMARK INTER + INTRA:          -8.795
REMARK INTER:                  -7.779
REMARK INTRA:                  -1.016
REMARK UNBOUND:                -1.516
REMARK SMILES CCCCCCCCCCCCCCC(=O)[O-]
REMARK SMILES IDX 9 1 10 2 11 3 12 4 13 5 14 6 15 7 16 8 17 9 8 10 7 11 6 12
REMARK SMILES IDX 5 13 4 14 3 15 2 16 1 17
REMARK H PARENT
REMARK Flexibility Score: inf
ROOT
ATOM      1  C   UNL     1     192.676   2.438  99.716  1.00  0.00     0.000 C 
ENDROOT
BRANCH   1   2
ATOM      2  C   UNL     1     192.347   1.048 100.292  1.00  0.00     0.000 C 
BRANCH   2   3
ATOM      3  C   UNL     1     192.142   1.063 101.816  1.00  0.00     0.000 C 
BRANCH   3   4
ATOM      4  C   UNL     1     193.320   0.437 102.586  1.00  0.00     0.000 C 
BRANCH   4   5
ATOM      5  C   UNL     1     193.580   1.028 103.987  1.00  0.00     0.006 C 
BRANCH   5   6
ATOM      6  C   UNL     1     192.529   2.045 104.457  1.00  0.00     0.053 C 
BRANCH   6   7
ATOM      7  C   UNL     1     192.322   1.992 105.940  1.00  0.00     0.041 C 
ATOM      8  O   UNL     1     193.199   2.448 106.719  1.00  0.00    -0.550 OA
ATOM      9  O   UNL     1     191.174   1.409 106.461  1.00  0.00    -0.550 OA
ENDBRANCH   6   7
ENDBRANCH   5   6
ENDBRANCH   4   5
ENDBRANCH   3   4
ENDBRANCH   2   3
ENDBRANCH   1   2
BRANCH   1  10
ATOM     10  C   UNL     1     191.709   2.943  98.628  1.00  0.00     0.000 C 
BRANCH  10  11
ATOM     11  C   UNL     1     191.634   4.475  98.555  1.00  0.00    -0.000 C 
BRANCH  11  12
ATOM     12  C   UNL     1     190.230   4.937  98.144  1.00  0.00    -0.000 C 
BRANCH  12  13
ATOM     13  C   UNL     1     189.271   3.744  98.025  1.00  0.00    -0.000 C 
BRANCH  13  14
ATOM     14  C   UNL     1     188.782   3.511  96.586  1.00  0.00    -0.000 C 
BRANCH  14  15
ATOM     15  C   UNL     1     189.513   4.374  95.536  1.00  0.00    -0.000 C 
BRANCH  15  16
ATOM     16  C   UNL     1     190.586   3.577  94.779  1.00  0.00    -0.003 C 
ATOM     17  C   UNL     1     191.951   4.251  94.886  1.00  0.00     0.004 C 
ENDBRANCH  15  16
ENDBRANCH  14  15
ENDBRANCH  13  14
ENDBRANCH  12  13
ENDBRANCH  11  12
ENDBRANCH  10  11
ENDBRANCH   1  10
TORSDOF 13
ENDMDL
MODEL 9
REMARK VINA RESULT:    -4.028      3.958      7.906
REMARK INTER + INTRA:          -8.606
REMARK INTER:                  -7.528
REMARK INTRA:                  -1.079
REMARK UNBOUND:                -1.516
REMARK SMILES CCCCCCCCCCCCCCC(=O)[O-]
REMARK SMILES IDX 9 1 10 2 11 3 12 4 13 5 14 6 15 7 16 8 17 9 8 10 7 11 6 12
REMARK SMILES IDX 5 13 4 14 3 15 2 16 1 17
REMARK H PARENT
REMARK Flexibility Score: inf
ROOT
ATOM      1  C   UNL     1     192.336   2.168  99.352  1.00  0.00     0.000 C 
ENDROOT
BRANCH   1   2
ATOM      2  C   UNL     1     193.197   2.744 100.492  1.00  0.00     0.000 C 
BRANCH   2   3
ATOM      3  C   UNL     1     193.296   1.804 101.704  1.00  0.00     0.000 C 
BRANCH   3   4
ATOM      4  C   UNL     1     191.951   1.144 102.062  1.00  0.00     0.000 C 
BRANCH   4   5
ATOM      5  C   UNL     1     191.572   1.190 103.557  1.00  0.00     0.006 C 
BRANCH   5   6
ATOM      6  C   UNL     1     192.671   0.700 104.512  1.00  0.00     0.053 C 
BRANCH   6   7
ATOM      7  C   UNL     1     193.102   1.770 105.468  1.00  0.00     0.041 C 
ATOM      8  O   UNL     1     192.463   1.960 106.536  1.00  0.00    -0.550 OA
ATOM      9  O   UNL     1     194.188   2.579 105.162  1.00  0.00    -0.550 OA
ENDBRANCH   6   7
ENDBRANCH   5   6
ENDBRANCH   4   5
ENDBRANCH   3   4
ENDBRANCH   2   3
ENDBRANCH   1   2
BRANCH   1  10
ATOM     10  C   UNL     1     191.242   3.109  98.816  1.00  0.00     0.000 C 
BRANCH  10  11
ATOM     11  C   UNL     1     191.664   3.860  97.544  1.00  0.00    -0.000 C 
BRANCH  11  12
ATOM     12  C   UNL     1     191.381   3.020  96.292  1.00  0.00    -0.000 C 
BRANCH  12  13
ATOM     13  C   UNL     1     190.598   3.831  95.250  1.00  0.00    -0.000 C 
BRANCH  13  14
ATOM     14  C   UNL     1     189.402   4.585  95.855  1.00  0.00    -0.000 C 
BRANCH  14  15
ATOM     15  C   UNL     1     188.287   3.657  96.382  1.00  0.00    -0.000 C 
BRANCH  15  16
ATOM     16  C   UNL     1     187.821   4.054  97.791  1.00  0.00    -0.003 C 
ATOM     17  C   UNL     1     188.123   5.522  98.078  1.00  0.00     0.004 C 
ENDBRANCH  15  16
ENDBRANCH  14  15
ENDBRANCH  13  14
ENDBRANCH  12  13
ENDBRANCH  11  12
ENDBRANCH  10  11
ENDBRANCH   1  10
TORSDOF 13
ENDMDL
