MODEL 1
REMARK VINA RESULT:     9.211      0.000      0.000
REMARK INTER + INTRA:          19.061
REMARK INTER:                  21.866
REMARK INTRA:                  -2.805
REMARK UNBOUND:                -2.805
REMARK SMILES O=C(OC[C@H]1O[C@H](OC(=O)c2cc(O)c(O)c(O)c2)[C@H](OC(=O)c2cc(O)c(O)c(O)c2)[C@@H](OC(=O)c2cc(O)c(O)c(O)c2)[C@H]1OC(=O)c1cc(O)c(O)c(O)c1)c1cc(O)c(O)c(O)c1
REMARK SMILES IDX 5 1 46 2 33 3 20 4 7 5 6 6 4 7 3 8 2 9 1 10 59 11 60 12
REMARK SMILES IDX 61 13 67 14 63 15 65 16 62 17 64 19 66 21 47 23 48 24 49 25
REMARK SMILES IDX 50 26 58 27 51 28 56 29 52 30 54 31 57 32 53 34 55 36 34 38
REMARK SMILES IDX 35 39 36 40 37 41 45 42 38 43 43 44 39 45 41 46 44 47 40 49
REMARK SMILES IDX 42 51 8 53 9 54 10 55 11 56 19 57 12 58 17 59 13 60 15 61
REMARK SMILES IDX 18 62 14 64 16 66 21 68 22 69 23 70 24 71 32 72 25 73 30 74
REMARK SMILES IDX 26 75 28 76 31 77 27 79 29 81
REMARK H PARENT 62 18 64 20 66 22 57 33 53 35 55 37 44 48 40 50 42 52 18 63
REMARK H PARENT 14 65 16 67 31 78 27 80 29 82
REMARK Flexibility Score: inf
ROOT
ATOM      1  C   UNL     1      -4.996 -23.440  35.718  1.00  0.00     0.205 C 
ATOM      2  C   UNL     1      -4.422 -22.014  35.806  1.00  0.00     0.254 C 
ATOM      3  C   UNL     1      -5.606 -21.046  35.899  1.00  0.00     0.267 C 
ATOM      4  C   UNL     1      -6.479 -21.411  37.113  1.00  0.00     0.290 C 
ATOM      5  C   UNL     1      -6.859 -22.909  37.048  1.00  0.00     0.357 C 
ATOM      6  O   UNL     1      -5.721 -23.748  36.901  1.00  0.00    -0.329 OA
ENDROOT
BRANCH   1   7
ATOM      7  C   UNL     1      -3.900 -24.500  35.505  1.00  0.00     0.269 C 
BRANCH   7   8
ATOM      8  O   UNL     1      -3.949 -24.970  34.162  1.00  0.00    -0.459 OA
BRANCH   8   9
ATOM      9  C   UNL     1      -4.654 -24.295  33.156  1.00  0.00     0.338 C 
ATOM     10  O   UNL     1      -4.231 -23.182  32.729  1.00  0.00    -0.246 OA
BRANCH   9  11
ATOM     11  C   UNL     1      -5.906 -24.868  32.620  1.00  0.00     0.067 A 
ATOM     12  C   UNL     1      -6.689 -24.135  31.718  1.00  0.00     0.066 A 
ATOM     13  C   UNL     1      -7.901 -24.642  31.243  1.00  0.00     0.162 A 
ATOM     14  C   UNL     1      -6.348 -26.138  33.043  1.00  0.00     0.066 A 
ATOM     15  C   UNL     1      -8.362 -25.900  31.698  1.00  0.00     0.200 A 
ATOM     16  C   UNL     1      -7.573 -26.644  32.594  1.00  0.00     0.162 A 
BRANCH  13  17
ATOM     17  O   UNL     1      -8.606 -23.871  30.318  1.00  0.00    -0.504 OA
ATOM     18  H   UNL     1      -9.602 -23.736  30.348  1.00  0.00     0.293 HD
ENDBRANCH  13  17
BRANCH  15  19
ATOM     19  O   UNL     1      -9.588 -26.433  31.287  1.00  0.00    -0.502 OA
ATOM     20  H   UNL     1      -9.866 -26.551  30.325  1.00  0.00     0.293 HD
ENDBRANCH  15  19
BRANCH  16  21
ATOM     21  O   UNL     1      -7.990 -27.892  33.057  1.00  0.00    -0.504 OA
ATOM     22  H   UNL     1      -7.553 -28.752  32.750  1.00  0.00     0.293 HD
ENDBRANCH  16  21
ENDBRANCH   9  11
ENDBRANCH   8   9
ENDBRANCH   7   8
ENDBRANCH   1   7
BRANCH   2  23
ATOM     23  O   UNL     1      -3.617 -21.876  36.978  1.00  0.00    -0.452 OA
BRANCH  23  24
ATOM     24  C   UNL     1      -2.231 -22.080  37.011  1.00  0.00     0.338 C 
ATOM     25  O   UNL     1      -1.771 -23.249  37.068  1.00  0.00    -0.246 OA
BRANCH  24  26
ATOM     26  C   UNL     1      -1.322 -20.913  36.958  1.00  0.00     0.067 A 
ATOM     27  C   UNL     1       0.074 -21.084  37.016  1.00  0.00     0.066 A 
ATOM     28  C   UNL     1      -1.849 -19.613  36.904  1.00  0.00     0.066 A 
ATOM     29  C   UNL     1       0.929 -19.969  37.035  1.00  0.00     0.162 A 
ATOM     30  C   UNL     1      -1.000 -18.501  36.912  1.00  0.00     0.162 A 
ATOM     31  C   UNL     1       0.390 -18.673  36.980  1.00  0.00     0.200 A 
BRANCH  29  32
ATOM     32  O   UNL     1       2.308 -20.145  37.114  1.00  0.00    -0.504 OA
ATOM     33  H   UNL     1       2.721 -21.069  37.181  1.00  0.00     0.293 HD
ENDBRANCH  29  32
BRANCH  30  34
ATOM     34  O   UNL     1      -1.562 -17.227  36.860  1.00  0.00    -0.504 OA
ATOM     35  H   UNL     1      -2.403 -16.986  37.375  1.00  0.00     0.293 HD
ENDBRANCH  30  34
BRANCH  31  36
ATOM     36  O   UNL     1       1.216 -17.551  36.998  1.00  0.00    -0.502 OA
ATOM     37  H   UNL     1       1.241 -16.910  37.781  1.00  0.00     0.293 HD
ENDBRANCH  31  36
ENDBRANCH  24  26
ENDBRANCH  23  24
ENDBRANCH   2  23
BRANCH   3  38
ATOM     38  O   UNL     1      -5.143 -19.699  35.981  1.00  0.00    -0.450 OA
BRANCH  38  39
ATOM     39  C   UNL     1      -5.017 -18.874  34.854  1.00  0.00     0.338 C 
ATOM     40  O   UNL     1      -5.934 -18.058  34.564  1.00  0.00    -0.246 OA
BRANCH  39  41
ATOM     41  C   UNL     1      -3.800 -18.941  34.016  1.00  0.00     0.067 A 
ATOM     42  C   UNL     1      -3.569 -20.053  33.187  1.00  0.00     0.066 A 
ATOM     43  C   UNL     1      -2.865 -17.894  34.035  1.00  0.00     0.066 A 
ATOM     44  C   UNL     1      -2.420 -20.122  32.394  1.00  0.00     0.162 A 
ATOM     45  C   UNL     1      -1.709 -17.953  33.249  1.00  0.00     0.162 A 
ATOM     46  C   UNL     1      -1.476 -19.084  32.425  1.00  0.00     0.200 A 
BRANCH  44  47
ATOM     47  O   UNL     1      -2.215 -21.229  31.568  1.00  0.00    -0.504 OA
ATOM     48  H   UNL     1      -2.278 -22.180  31.924  1.00  0.00     0.293 HD
ENDBRANCH  44  47
BRANCH  45  49
ATOM     49  O   UNL     1      -0.825 -16.876  33.321  1.00  0.00    -0.504 OA
ATOM     50  H   UNL     1      -0.418 -16.534  34.179  1.00  0.00     0.293 HD
ENDBRANCH  45  49
BRANCH  46  51
ATOM     51  O   UNL     1      -0.333 -19.220  31.632  1.00  0.00    -0.502 OA
ATOM     52  H   UNL     1       0.548 -19.588  31.974  1.00  0.00     0.293 HD
ENDBRANCH  46  51
ENDBRANCH  39  41
ENDBRANCH  38  39
ENDBRANCH   3  38
BRANCH   5  53
ATOM     53  O   UNL     1      -7.801 -23.138  36.001  1.00  0.00    -0.428 OA
BRANCH  53  54
ATOM     54  C   UNL     1      -8.945 -23.929  36.155  1.00  0.00     0.340 C 
ATOM     55  O   UNL     1     -10.075 -23.400  36.307  1.00  0.00    -0.246 OA
BRANCH  54  56
ATOM     56  C   UNL     1      -8.816 -25.395  36.131  1.00  0.00     0.067 A 
ATOM     57  C   UNL     1      -7.652 -26.021  36.593  1.00  0.00     0.066 A 
ATOM     58  C   UNL     1      -9.873 -26.180  35.656  1.00  0.00     0.066 A 
ATOM     59  C   UNL     1      -7.544 -27.417  36.615  1.00  0.00     0.162 A 
ATOM     60  C   UNL     1      -9.777 -27.572  35.642  1.00  0.00     0.162 A 
ATOM     61  C   UNL     1      -8.619 -28.209  36.136  1.00  0.00     0.200 A 
BRANCH  59  62
ATOM     62  O   UNL     1      -6.362 -27.965  37.124  1.00  0.00    -0.504 OA
ATOM     63  H   UNL     1      -5.850 -27.579  37.909  1.00  0.00     0.293 HD
ENDBRANCH  59  62
BRANCH  60  64
ATOM     64  O   UNL     1     -10.843 -28.307  35.124  1.00  0.00    -0.504 OA
ATOM     65  H   UNL     1     -11.635 -27.860  34.673  1.00  0.00     0.293 HD
ENDBRANCH  60  64
BRANCH  61  66
ATOM     66  O   UNL     1      -8.574 -29.611  36.141  1.00  0.00    -0.502 OA
ATOM     67  H   UNL     1      -9.347 -30.202  36.413  1.00  0.00     0.293 HD
ENDBRANCH  61  66
ENDBRANCH  54  56
ENDBRANCH  53  54
ENDBRANCH   5  53
BRANCH   4  68
ATOM     68  O   UNL     1      -7.683 -20.646  37.102  1.00  0.00    -0.448 OA
BRANCH  68  69
ATOM     69  C   UNL     1      -8.079 -19.820  36.046  1.00  0.00     0.339 C 
ATOM     70  O   UNL     1      -7.880 -18.574  36.104  1.00  0.00    -0.246 OA
BRANCH  69  71
ATOM     71  C   UNL     1      -8.747 -20.413  34.869  1.00  0.00     0.067 A 
ATOM     72  C   UNL     1     -10.098 -20.778  34.915  1.00  0.00     0.066 A 
ATOM     73  C   UNL     1      -8.031 -20.610  33.677  1.00  0.00     0.066 A 
ATOM     74  C   UNL     1     -10.734 -21.320  33.788  1.00  0.00     0.162 A 
ATOM     75  C   UNL     1      -8.655 -21.146  32.547  1.00  0.00     0.162 A 
ATOM     76  C   UNL     1     -10.011 -21.503  32.597  1.00  0.00     0.200 A 
BRANCH  74  77
ATOM     77  O   UNL     1     -12.084 -21.668  33.843  1.00  0.00    -0.504 OA
ATOM     78  H   UNL     1     -12.813 -20.962  33.870  1.00  0.00     0.293 HD
ENDBRANCH  74  77
BRANCH  75  79
ATOM     79  O   UNL     1      -7.912 -21.315  31.378  1.00  0.00    -0.504 OA
ATOM     80  H   UNL     1      -6.908 -21.198  31.354  1.00  0.00     0.293 HD
ENDBRANCH  75  79
BRANCH  76  81
ATOM     81  O   UNL     1     -10.628 -22.037  31.464  1.00  0.00    -0.502 OA
ATOM     82  H   UNL     1     -10.153 -22.665  30.833  1.00  0.00     0.293 HD
ENDBRANCH  76  81
ENDBRANCH  69  71
ENDBRANCH  68  69
ENDBRANCH   4  68
TORSDOF 31
ENDMDL
