MODEL 1
REMARK VINA RESULT:    -3.160      0.000      0.000
REMARK INTER + INTRA:          -3.536
REMARK INTER:                  -3.530
REMARK INTRA:                  -0.006
REMARK UNBOUND:                -0.006
REMARK SMILES CCCC(=O)[O-]
REMARK SMILES IDX 3 1 4 2 5 3 6 4 2 5 1 6
REMARK H PARENT
REMARK Flexibility Score: inf
ROOT
ATOM      1  C   UNL     1      13.434  50.008  97.378  1.00  0.00     0.052 C 
ENDROOT
BRANCH   1   2
ATOM      2  C   UNL     1      14.318  50.161  96.179  1.00  0.00     0.041 C 
ATOM      3  O   UNL     1      14.222  51.182  95.447  1.00  0.00    -0.550 OA
ATOM      4  O   UNL     1      15.271  49.193  95.887  1.00  0.00    -0.550 OA
ENDBRANCH   1   2
BRANCH   1   5
ATOM      5  C   UNL     1      12.242  49.087  97.092  1.00  0.00     0.003 C 
ATOM      6  C   UNL     1      11.061  49.358  98.023  1.00  0.00     0.004 C 
ENDBRANCH   1   5
TORSDOF 2
ENDMDL
MODEL 2
REMARK VINA RESULT:    -3.139      2.123      3.412
REMARK INTER + INTRA:          -3.512
REMARK INTER:                  -3.478
REMARK INTRA:                  -0.034
REMARK UNBOUND:                -0.006
REMARK SMILES CCCC(=O)[O-]
REMARK SMILES IDX 3 1 4 2 5 3 6 4 2 5 1 6
REMARK H PARENT
REMARK Flexibility Score: inf
ROOT
ATOM      1  C   UNL     1      14.012  50.485  96.957  1.00  0.00     0.052 C 
ENDROOT
BRANCH   1   2
ATOM      2  C   UNL     1      12.810  49.593  96.897  1.00  0.00     0.041 C 
ATOM      3  O   UNL     1      12.641  48.823  95.915  1.00  0.00    -0.550 OA
ATOM      4  O   UNL     1      11.893  49.588  97.940  1.00  0.00    -0.550 OA
ENDBRANCH   1   2
BRANCH   1   5
ATOM      5  C   UNL     1      14.338  51.094  95.588  1.00  0.00     0.003 C 
ATOM      6  C   UNL     1      15.606  50.503  94.974  1.00  0.00     0.004 C 
ENDBRANCH   1   5
TORSDOF 2
ENDMDL
MODEL 3
REMARK VINA RESULT:    -3.030      2.091      3.405
REMARK INTER + INTRA:          -3.390
REMARK INTER:                  -3.334
REMARK INTRA:                  -0.056
REMARK UNBOUND:                -0.006
REMARK SMILES CCCC(=O)[O-]
REMARK SMILES IDX 3 1 4 2 5 3 6 4 2 5 1 6
REMARK H PARENT
REMARK Flexibility Score: inf
ROOT
ATOM      1  C   UNL     1      14.144  50.594  95.188  1.00  0.00     0.052 C 
ENDROOT
BRANCH   1   2
ATOM      2  C   UNL     1      13.913  50.299  96.638  1.00  0.00     0.041 C 
ATOM      3  O   UNL     1      14.273  51.124  97.519  1.00  0.00    -0.550 OA
ATOM      4  O   UNL     1      13.269  49.127  97.016  1.00  0.00    -0.550 OA
ENDBRANCH   1   2
BRANCH   1   5
ATOM      5  C   UNL     1      15.611  50.382  94.792  1.00  0.00     0.003 C 
ATOM      6  C   UNL     1      15.969  48.902  94.657  1.00  0.00     0.004 C 
ENDBRANCH   1   5
TORSDOF 2
ENDMDL
MODEL 4
REMARK VINA RESULT:    -3.023      1.608      2.310
REMARK INTER + INTRA:          -3.383
REMARK INTER:                  -3.315
REMARK INTRA:                  -0.068
REMARK UNBOUND:                -0.006
REMARK SMILES CCCC(=O)[O-]
REMARK SMILES IDX 3 1 4 2 5 3 6 4 2 5 1 6
REMARK H PARENT
REMARK Flexibility Score: inf
ROOT
ATOM      1  C   UNL     1      14.328  50.969  95.472  1.00  0.00     0.052 C 
ENDROOT
BRANCH   1   2
ATOM      2  C   UNL     1      14.725  49.688  94.807  1.00  0.00     0.041 C 
ATOM      3  O   UNL     1      15.855  49.180  95.032  1.00  0.00    -0.550 OA
ATOM      4  O   UNL     1      13.834  49.035  93.964  1.00  0.00    -0.550 OA
ENDBRANCH   1   2
BRANCH   1   5
ATOM      5  C   UNL     1      14.185  50.802  96.990  1.00  0.00     0.003 C 
ATOM      6  C   UNL     1      13.171  49.721  97.364  1.00  0.00     0.004 C 
ENDBRANCH   1   5
TORSDOF 2
ENDMDL
MODEL 5
REMARK VINA RESULT:    -2.960      3.129      4.043
REMARK INTER + INTRA:          -3.312
REMARK INTER:                  -3.300
REMARK INTRA:                  -0.012
REMARK UNBOUND:                -0.006
REMARK SMILES CCCC(=O)[O-]
REMARK SMILES IDX 3 1 4 2 5 3 6 4 2 5 1 6
REMARK H PARENT
REMARK Flexibility Score: inf
ROOT
ATOM      1  C   UNL     1      12.020  48.963  96.826  1.00  0.00     0.052 C 
ENDROOT
BRANCH   1   2
ATOM      2  C   UNL     1      10.818  48.776  97.698  1.00  0.00     0.041 C 
ATOM      3  O   UNL     1      10.151  47.708  97.639  1.00  0.00    -0.550 OA
ATOM      4  O   UNL     1      10.451  49.765  98.601  1.00  0.00    -0.550 OA
ENDBRANCH   1   2
BRANCH   1   5
ATOM      5  C   UNL     1      13.114  49.775  97.531  1.00  0.00     0.003 C 
ATOM      6  C   UNL     1      14.068  50.447  96.544  1.00  0.00     0.004 C 
ENDBRANCH   1   5
TORSDOF 2
ENDMDL
MODEL 6
REMARK VINA RESULT:    -2.922     11.180     11.798
REMARK INTER + INTRA:          -3.269
REMARK INTER:                  -3.200
REMARK INTRA:                  -0.069
REMARK UNBOUND:                -0.006
REMARK SMILES CCCC(=O)[O-]
REMARK SMILES IDX 3 1 4 2 5 3 6 4 2 5 1 6
REMARK H PARENT
REMARK Flexibility Score: inf
ROOT
ATOM      1  C   UNL     1      16.583  38.059  95.112  1.00  0.00     0.052 C 
ENDROOT
BRANCH   1   2
ATOM      2  C   UNL     1      16.622  39.507  94.730  1.00  0.00     0.041 C 
ATOM      3  O   UNL     1      17.500  39.928  93.931  1.00  0.00    -0.550 OA
ATOM      4  O   UNL     1      15.669  40.385  95.231  1.00  0.00    -0.550 OA
ENDBRANCH   1   2
BRANCH   1   5
ATOM      5  C   UNL     1      17.898  37.605  95.758  1.00  0.00     0.003 C 
ATOM      6  C   UNL     1      18.200  38.356  97.054  1.00  0.00     0.004 C 
ENDBRANCH   1   5
TORSDOF 2
ENDMDL
MODEL 7
REMARK VINA RESULT:    -2.882     11.284     11.943
REMARK INTER + INTRA:          -3.225
REMARK INTER:                  -3.186
REMARK INTRA:                  -0.039
REMARK UNBOUND:                -0.006
REMARK SMILES CCCC(=O)[O-]
REMARK SMILES IDX 3 1 4 2 5 3 6 4 2 5 1 6
REMARK H PARENT
REMARK Flexibility Score: inf
ROOT
ATOM      1  C   UNL     1      16.825  38.342  95.180  1.00  0.00     0.052 C 
ENDROOT
BRANCH   1   2
ATOM      2  C   UNL     1      18.050  38.387  96.039  1.00  0.00     0.041 C 
ATOM      3  O   UNL     1      18.991  39.177  95.761  1.00  0.00    -0.550 OA
ATOM      4  O   UNL     1      18.140  37.581  97.167  1.00  0.00    -0.550 OA
ENDBRANCH   1   2
BRANCH   1   5
ATOM      5  C   UNL     1      16.217  39.737  94.982  1.00  0.00     0.003 C 
ATOM      6  C   UNL     1      16.337  40.224  93.539  1.00  0.00     0.004 C 
ENDBRANCH   1   5
TORSDOF 2
ENDMDL
MODEL 8
REMARK VINA RESULT:    -2.831      3.926      4.826
REMARK INTER + INTRA:          -3.168
REMARK INTER:                  -3.161
REMARK INTRA:                  -0.006
REMARK UNBOUND:                -0.006
REMARK SMILES CCCC(=O)[O-]
REMARK SMILES IDX 3 1 4 2 5 3 6 4 2 5 1 6
REMARK H PARENT
REMARK Flexibility Score: inf
ROOT
ATOM      1  C   UNL     1      10.613  49.536  98.369  1.00  0.00     0.052 C 
ENDROOT
BRANCH   1   2
ATOM      2  C   UNL     1       9.182  49.556  97.930  1.00  0.00     0.041 C 
ATOM      3  O   UNL     1       8.646  48.514  97.467  1.00  0.00    -0.550 OA
ATOM      4  O   UNL     1       8.428  50.715  98.065  1.00  0.00    -0.550 OA
ENDBRANCH   1   2
BRANCH   1   5
ATOM      5  C   UNL     1      11.531  48.953  97.286  1.00  0.00     0.003 C 
ATOM      6  C   UNL     1      12.937  49.549  97.333  1.00  0.00     0.004 C 
ENDBRANCH   1   5
TORSDOF 2
ENDMDL
MODEL 9
REMARK VINA RESULT:    -2.737      1.629      2.156
REMARK INTER + INTRA:          -3.063
REMARK INTER:                  -3.047
REMARK INTRA:                  -0.016
REMARK UNBOUND:                -0.006
REMARK SMILES CCCC(=O)[O-]
REMARK SMILES IDX 3 1 4 2 5 3 6 4 2 5 1 6
REMARK H PARENT
REMARK Flexibility Score: inf
ROOT
ATOM      1  C   UNL     1      11.333  48.841  96.925  1.00  0.00     0.052 C 
ENDROOT
BRANCH   1   2
ATOM      2  C   UNL     1      12.738  49.316  96.718  1.00  0.00     0.041 C 
ATOM      3  O   UNL     1      13.382  49.825  97.673  1.00  0.00    -0.550 OA
ATOM      4  O   UNL     1      13.348  49.166  95.479  1.00  0.00    -0.550 OA
ENDBRANCH   1   2
BRANCH   1   5
ATOM      5  C   UNL     1      10.731  49.393  98.224  1.00  0.00     0.003 C 
ATOM      6  C   UNL     1       9.293  49.874  98.042  1.00  0.00     0.004 C 
ENDBRANCH   1   5
TORSDOF 2
ENDMDL
