MODEL 1
REMARK VINA RESULT:    -0.413      0.000      0.000
REMARK INTER + INTRA:          -0.891
REMARK INTER:                  -0.727
REMARK INTRA:                  -0.164
REMARK UNBOUND:                -0.164
REMARK SMILES CCCCCCCCCCCCCCC(=O)[O-]
REMARK SMILES IDX 9 1 10 2 11 3 12 4 13 5 14 6 15 7 16 8 17 9 8 10 7 11 6 12
REMARK SMILES IDX 5 13 4 14 3 15 2 16 1 17
REMARK H PARENT
REMARK Flexibility Score: inf
ROOT
ATOM      1  C   UNL     1      66.726  56.442   9.199  1.00  0.00     0.000 C 
ENDROOT
BRANCH   1   2
ATOM      2  C   UNL     1      65.457  57.265   8.917  1.00  0.00     0.000 C 
BRANCH   2   3
ATOM      3  C   UNL     1      65.336  58.493   9.834  1.00  0.00     0.000 C 
BRANCH   3   4
ATOM      4  C   UNL     1      64.536  58.201  11.115  1.00  0.00     0.000 C 
BRANCH   4   5
ATOM      5  C   UNL     1      63.634  56.959  10.991  1.00  0.00     0.006 C 
BRANCH   5   6
ATOM      6  C   UNL     1      62.148  57.286  10.761  1.00  0.00     0.053 C 
BRANCH   6   7
ATOM      7  C   UNL     1      61.949  58.513   9.925  1.00  0.00     0.041 C 
ATOM      8  O   UNL     1      61.875  59.647  10.466  1.00  0.00    -0.550 OA
ATOM      9  O   UNL     1      61.877  58.407   8.541  1.00  0.00    -0.550 OA
ENDBRANCH   6   7
ENDBRANCH   5   6
ENDBRANCH   4   5
ENDBRANCH   3   4
ENDBRANCH   2   3
ENDBRANCH   1   2
BRANCH   1  10
ATOM     10  C   UNL     1      66.588  55.555  10.448  1.00  0.00     0.000 C 
BRANCH  10  11
ATOM     11  C   UNL     1      67.265  54.184  10.275  1.00  0.00    -0.000 C 
BRANCH  11  12
ATOM     12  C   UNL     1      66.259  53.049  10.012  1.00  0.00    -0.000 C 
BRANCH  12  13
ATOM     13  C   UNL     1      66.180  51.979  11.116  1.00  0.00    -0.000 C 
BRANCH  13  14
ATOM     14  C   UNL     1      65.095  50.921  10.850  1.00  0.00    -0.000 C 
BRANCH  14  15
ATOM     15  C   UNL     1      65.628  49.484  11.024  1.00  0.00    -0.000 C 
BRANCH  15  16
ATOM     16  C   UNL     1      64.548  48.403  10.856  1.00  0.00    -0.003 C 
ATOM     17  C   UNL     1      63.129  48.945  11.020  1.00  0.00     0.004 C 
ENDBRANCH  15  16
ENDBRANCH  14  15
ENDBRANCH  13  14
ENDBRANCH  12  13
ENDBRANCH  11  12
ENDBRANCH  10  11
ENDBRANCH   1  10
TORSDOF 13
ENDMDL
MODEL 2
REMARK VINA RESULT:     0.936      2.888      5.277
REMARK INTER + INTRA:           1.484
REMARK INTER:                   1.297
REMARK INTRA:                   0.188
REMARK UNBOUND:                -0.164
REMARK SMILES CCCCCCCCCCCCCCC(=O)[O-]
REMARK SMILES IDX 9 1 10 2 11 3 12 4 13 5 14 6 15 7 16 8 17 9 8 10 7 11 6 12
REMARK SMILES IDX 5 13 4 14 3 15 2 16 1 17
REMARK H PARENT
REMARK Flexibility Score: inf
ROOT
ATOM      1  C   UNL     1      66.808  56.460   9.137  1.00  0.00     0.000 C 
ENDROOT
BRANCH   1   2
ATOM      2  C   UNL     1      65.684  57.478   8.879  1.00  0.00     0.000 C 
BRANCH   2   3
ATOM      3  C   UNL     1      65.364  58.327  10.119  1.00  0.00     0.000 C 
BRANCH   3   4
ATOM      4  C   UNL     1      64.376  57.636  11.074  1.00  0.00     0.000 C 
BRANCH   4   5
ATOM      5  C   UNL     1      63.437  56.649  10.357  1.00  0.00     0.006 C 
BRANCH   5   6
ATOM      6  C   UNL     1      62.007  57.181  10.155  1.00  0.00     0.053 C 
BRANCH   6   7
ATOM      7  C   UNL     1      61.956  58.675  10.048  1.00  0.00     0.041 C 
ATOM      8  O   UNL     1      62.015  59.389  11.083  1.00  0.00    -0.550 OA
ATOM      9  O   UNL     1      61.875  59.280   8.800  1.00  0.00    -0.550 OA
ENDBRANCH   6   7
ENDBRANCH   5   6
ENDBRANCH   4   5
ENDBRANCH   3   4
ENDBRANCH   2   3
ENDBRANCH   1   2
BRANCH   1  10
ATOM     10  C   UNL     1      66.376  55.332  10.090  1.00  0.00     0.000 C 
BRANCH  10  11
ATOM     11  C   UNL     1      67.358  54.148  10.085  1.00  0.00    -0.000 C 
BRANCH  11  12
ATOM     12  C   UNL     1      68.603  54.399  10.955  1.00  0.00    -0.000 C 
BRANCH  12  13
ATOM     13  C   UNL     1      69.888  54.731  10.174  1.00  0.00    -0.000 C 
BRANCH  13  14
ATOM     14  C   UNL     1      71.053  55.151  11.087  1.00  0.00    -0.000 C 
BRANCH  14  15
ATOM     15  C   UNL     1      71.330  56.668  11.018  1.00  0.00    -0.000 C 
BRANCH  15  16
ATOM     16  C   UNL     1      72.821  57.026  11.125  1.00  0.00    -0.003 C 
ATOM     17  C   UNL     1      73.732  55.800  11.125  1.00  0.00     0.004 C 
ENDBRANCH  15  16
ENDBRANCH  14  15
ENDBRANCH  13  14
ENDBRANCH  12  13
ENDBRANCH  11  12
ENDBRANCH  10  11
ENDBRANCH   1  10
TORSDOF 13
ENDMDL
