MODEL 1
REMARK VINA RESULT:    -5.023      0.000      0.000
REMARK INTER + INTRA:          -6.260
REMARK INTER:                  -6.051
REMARK INTRA:                  -0.209
REMARK UNBOUND:                -0.209
REMARK SMILES C=CCc1ccc(O)c(OC)c1
REMARK SMILES IDX 9 1 7 2 6 3 5 4 4 5 12 6 10 7 11 8 8 9 3 11 2 12 1 13
REMARK H PARENT 8 10
REMARK Flexibility Score: inf
ROOT
ATOM      1  C   UNL     1     124.478 117.430 104.254  1.00  0.00     0.160 A 
ATOM      2  C   UNL     1     125.746 117.267 104.829  1.00  0.00     0.157 A 
ATOM      3  C   UNL     1     126.898 117.512 104.071  1.00  0.00     0.050 A 
ATOM      4  C   UNL     1     126.792 117.920 102.740  1.00  0.00     0.008 A 
ATOM      5  C   UNL     1     125.530 118.098 102.153  1.00  0.00    -0.040 A 
ATOM      6  C   UNL     1     124.375 117.843 102.911  1.00  0.00     0.054 A 
ENDROOT
BRANCH   1   7
ATOM      7  O   UNL     1     123.347 117.169 105.045  1.00  0.00    -0.493 OA
ATOM      8  C   UNL     1     122.317 118.115 105.315  1.00  0.00     0.278 C 
ENDBRANCH   1   7
BRANCH   2   9
ATOM      9  O   UNL     1     125.854 116.860 106.158  1.00  0.00    -0.504 OA
ATOM     10  H   UNL     1     126.543 116.176 106.449  1.00  0.00     0.293 HD
ENDBRANCH   2   9
BRANCH   5  11
ATOM     11  C   UNL     1     125.419 118.509 100.710  1.00  0.00     0.062 C 
BRANCH  11  12
ATOM     12  C   UNL     1     124.339 117.727 100.014  1.00  0.00    -0.030 C 
ATOM     13  C   UNL     1     123.393 118.329  99.288  1.00  0.00     0.004 C 
ENDBRANCH  11  12
ENDBRANCH   5  11
TORSDOF 4
ENDMDL
MODEL 2
REMARK VINA RESULT:    -4.968      1.671      2.104
REMARK INTER + INTRA:          -6.193
REMARK INTER:                  -5.934
REMARK INTRA:                  -0.259
REMARK UNBOUND:                -0.209
REMARK SMILES C=CCc1ccc(O)c(OC)c1
REMARK SMILES IDX 9 1 7 2 6 3 5 4 4 5 12 6 10 7 11 8 8 9 3 11 2 12 1 13
REMARK H PARENT 8 10
REMARK Flexibility Score: inf
ROOT
ATOM      1  C   UNL     1     123.861 117.563 104.832  1.00  0.00     0.160 A 
ATOM      2  C   UNL     1     124.792 117.607 105.880  1.00  0.00     0.157 A 
ATOM      3  C   UNL     1     126.163 117.665 105.601  1.00  0.00     0.050 A 
ATOM      4  C   UNL     1     126.613 117.683 104.280  1.00  0.00     0.008 A 
ATOM      5  C   UNL     1     125.694 117.652 103.219  1.00  0.00    -0.040 A 
ATOM      6  C   UNL     1     124.320 117.582 103.499  1.00  0.00     0.054 A 
ENDROOT
BRANCH   1   7
ATOM      7  O   UNL     1     122.496 117.498 105.152  1.00  0.00    -0.493 OA
ATOM      8  C   UNL     1     121.573 118.567 104.968  1.00  0.00     0.278 C 
ENDBRANCH   1   7
BRANCH   2   9
ATOM      9  O   UNL     1     124.344 117.589 107.200  1.00  0.00    -0.504 OA
ATOM     10  H   UNL     1     124.975 117.750 107.977  1.00  0.00     0.293 HD
ENDBRANCH   2   9
BRANCH   5  11
ATOM     11  C   UNL     1     126.184 117.641 101.796  1.00  0.00     0.062 C 
BRANCH  11  12
ATOM     12  C   UNL     1     126.207 116.239 101.251  1.00  0.00    -0.030 C 
ATOM     13  C   UNL     1     127.277 115.450 101.384  1.00  0.00     0.004 C 
ENDBRANCH  11  12
ENDBRANCH   5  11
TORSDOF 4
ENDMDL
MODEL 3
REMARK VINA RESULT:    -4.778      2.026      3.485
REMARK INTER + INTRA:          -5.964
REMARK INTER:                  -5.716
REMARK INTRA:                  -0.248
REMARK UNBOUND:                -0.209
REMARK SMILES C=CCc1ccc(O)c(OC)c1
REMARK SMILES IDX 9 1 7 2 6 3 5 4 4 5 12 6 10 7 11 8 8 9 3 11 2 12 1 13
REMARK H PARENT 8 10
REMARK Flexibility Score: inf
ROOT
ATOM      1  C   UNL     1     123.471 117.815 105.359  1.00  0.00     0.160 A 
ATOM      2  C   UNL     1     122.768 117.945 104.152  1.00  0.00     0.157 A 
ATOM      3  C   UNL     1     123.435 117.786 102.931  1.00  0.00     0.050 A 
ATOM      4  C   UNL     1     124.800 117.495 102.906  1.00  0.00     0.008 A 
ATOM      5  C   UNL     1     125.514 117.349 104.105  1.00  0.00    -0.040 A 
ATOM      6  C   UNL     1     124.848 117.519 105.329  1.00  0.00     0.054 A 
ENDROOT
BRANCH   1   7
ATOM      7  O   UNL     1     122.769 117.987 106.563  1.00  0.00    -0.493 OA
ATOM      8  C   UNL     1     122.288 116.921 107.376  1.00  0.00     0.278 C 
ENDBRANCH   1   7
BRANCH   2   9
ATOM      9  O   UNL     1     121.405 118.237 104.175  1.00  0.00    -0.504 OA
ATOM     10  H   UNL     1     121.068 119.190 104.228  1.00  0.00     0.293 HD
ENDBRANCH   2   9
BRANCH   5  11
ATOM     11  C   UNL     1     126.992 117.064 104.074  1.00  0.00     0.062 C 
BRANCH  11  12
ATOM     12  C   UNL     1     127.478 116.928 102.657  1.00  0.00    -0.030 C 
ATOM     13  C   UNL     1     128.152 115.850 102.246  1.00  0.00     0.004 C 
ENDBRANCH  11  12
ENDBRANCH   5  11
TORSDOF 4
ENDMDL
MODEL 4
REMARK VINA RESULT:    -4.659      2.317      5.103
REMARK INTER + INTRA:          -5.821
REMARK INTER:                  -5.598
REMARK INTRA:                  -0.224
REMARK UNBOUND:                -0.209
REMARK SMILES C=CCc1ccc(O)c(OC)c1
REMARK SMILES IDX 9 1 7 2 6 3 5 4 4 5 12 6 10 7 11 8 8 9 3 11 2 12 1 13
REMARK H PARENT 8 10
REMARK Flexibility Score: inf
ROOT
ATOM      1  C   UNL     1     126.139 117.687 103.478  1.00  0.00     0.160 A 
ATOM      2  C   UNL     1     125.113 118.033 102.586  1.00  0.00     0.157 A 
ATOM      3  C   UNL     1     123.785 118.083 103.028  1.00  0.00     0.050 A 
ATOM      4  C   UNL     1     123.473 117.789 104.356  1.00  0.00     0.008 A 
ATOM      5  C   UNL     1     124.489 117.452 105.263  1.00  0.00    -0.040 A 
ATOM      6  C   UNL     1     125.819 117.393 104.818  1.00  0.00     0.054 A 
ENDROOT
BRANCH   1   7
ATOM      7  O   UNL     1     127.457 117.643 102.996  1.00  0.00    -0.493 OA
ATOM      8  C   UNL     1     128.117 116.458 102.560  1.00  0.00     0.278 C 
ENDBRANCH   1   7
BRANCH   2   9
ATOM      9  O   UNL     1     125.423 118.327 101.259  1.00  0.00    -0.504 OA
ATOM     10  H   UNL     1     124.904 119.020 100.733  1.00  0.00     0.293 HD
ENDBRANCH   2   9
BRANCH   5  11
ATOM     11  C   UNL     1     124.145 117.107 106.688  1.00  0.00     0.062 C 
BRANCH  11  12
ATOM     12  C   UNL     1     122.661 116.929 106.849  1.00  0.00    -0.030 C 
ATOM     13  C   UNL     1     122.064 117.044 108.039  1.00  0.00     0.004 C 
ENDBRANCH  11  12
ENDBRANCH   5  11
TORSDOF 4
ENDMDL
MODEL 5
REMARK VINA RESULT:    -4.653      2.368      3.683
REMARK INTER + INTRA:          -5.814
REMARK INTER:                  -5.649
REMARK INTRA:                  -0.164
REMARK UNBOUND:                -0.209
REMARK SMILES C=CCc1ccc(O)c(OC)c1
REMARK SMILES IDX 9 1 7 2 6 3 5 4 4 5 12 6 10 7 11 8 8 9 3 11 2 12 1 13
REMARK H PARENT 8 10
REMARK Flexibility Score: inf
ROOT
ATOM      1  C   UNL     1     125.772 117.552 104.107  1.00  0.00     0.160 A 
ATOM      2  C   UNL     1     124.820 117.762 103.099  1.00  0.00     0.157 A 
ATOM      3  C   UNL     1     125.074 117.330 101.791  1.00  0.00     0.050 A 
ATOM      4  C   UNL     1     126.273 116.687 101.482  1.00  0.00     0.008 A 
ATOM      5  C   UNL     1     127.231 116.459 102.481  1.00  0.00    -0.040 A 
ATOM      6  C   UNL     1     126.981 116.901 103.790  1.00  0.00     0.054 A 
ENDROOT
BRANCH   1   7
ATOM      7  O   UNL     1     125.484 118.005 105.404  1.00  0.00    -0.493 OA
ATOM      8  C   UNL     1     124.736 117.269 106.367  1.00  0.00     0.278 C 
ENDBRANCH   1   7
BRANCH   2   9
ATOM      9  O   UNL     1     123.621 118.405 103.406  1.00  0.00    -0.504 OA
ATOM     10  H   UNL     1     122.733 118.066 103.056  1.00  0.00     0.293 HD
ENDBRANCH   2   9
BRANCH   5  11
ATOM     11  C   UNL     1     128.536 115.792 102.137  1.00  0.00     0.062 C 
BRANCH  11  12
ATOM     12  C   UNL     1     128.321 114.679 101.149  1.00  0.00    -0.030 C 
ATOM     13  C   UNL     1     129.310 113.854 100.793  1.00  0.00     0.004 C 
ENDBRANCH  11  12
ENDBRANCH   5  11
TORSDOF 4
ENDMDL
MODEL 6
REMARK VINA RESULT:    -4.594      2.043      4.572
REMARK INTER + INTRA:          -5.742
REMARK INTER:                  -5.537
REMARK INTRA:                  -0.206
REMARK UNBOUND:                -0.209
REMARK SMILES C=CCc1ccc(O)c(OC)c1
REMARK SMILES IDX 9 1 7 2 6 3 5 4 4 5 12 6 10 7 11 8 8 9 3 11 2 12 1 13
REMARK H PARENT 8 10
REMARK Flexibility Score: inf
ROOT
ATOM      1  C   UNL     1     125.289 117.741 102.888  1.00  0.00     0.160 A 
ATOM      2  C   UNL     1     126.492 117.689 103.606  1.00  0.00     0.157 A 
ATOM      3  C   UNL     1     126.473 117.628 105.005  1.00  0.00     0.050 A 
ATOM      4  C   UNL     1     125.259 117.616 105.693  1.00  0.00     0.008 A 
ATOM      5  C   UNL     1     124.046 117.656 104.989  1.00  0.00    -0.040 A 
ATOM      6  C   UNL     1     124.065 117.728 103.587  1.00  0.00     0.054 A 
ENDROOT
BRANCH   1   7
ATOM      7  O   UNL     1     125.348 117.808 101.486  1.00  0.00    -0.493 OA
ATOM      8  C   UNL     1     124.222 118.016 100.641  1.00  0.00     0.278 C 
ENDBRANCH   1   7
BRANCH   2   9
ATOM      9  O   UNL     1     127.706 117.701 102.920  1.00  0.00    -0.504 OA
ATOM     10  H   UNL     1     128.079 116.865 102.487  1.00  0.00     0.293 HD
ENDBRANCH   2   9
BRANCH   5  11
ATOM     11  C   UNL     1     122.740 117.673 105.736  1.00  0.00     0.062 C 
BRANCH  11  12
ATOM     12  C   UNL     1     122.916 117.136 107.130  1.00  0.00    -0.030 C 
ATOM     13  C   UNL     1     121.885 117.013 107.971  1.00  0.00     0.004 C 
ENDBRANCH  11  12
ENDBRANCH   5  11
TORSDOF 4
ENDMDL
MODEL 7
REMARK VINA RESULT:    -4.536      3.153      4.327
REMARK INTER + INTRA:          -5.673
REMARK INTER:                  -5.465
REMARK INTRA:                  -0.208
REMARK UNBOUND:                -0.209
REMARK SMILES C=CCc1ccc(O)c(OC)c1
REMARK SMILES IDX 9 1 7 2 6 3 5 4 4 5 12 6 10 7 11 8 8 9 3 11 2 12 1 13
REMARK H PARENT 8 10
REMARK Flexibility Score: inf
ROOT
ATOM      1  C   UNL     1     126.838 117.515 103.173  1.00  0.00     0.160 A 
ATOM      2  C   UNL     1     125.752 117.715 102.308  1.00  0.00     0.157 A 
ATOM      3  C   UNL     1     125.616 116.928 101.157  1.00  0.00     0.050 A 
ATOM      4  C   UNL     1     126.557 115.940 100.864  1.00  0.00     0.008 A 
ATOM      5  C   UNL     1     127.642 115.719 101.725  1.00  0.00    -0.040 A 
ATOM      6  C   UNL     1     127.785 116.515 102.873  1.00  0.00     0.054 A 
ENDROOT
BRANCH   1   7
ATOM      7  O   UNL     1     126.944 118.327 104.313  1.00  0.00    -0.493 OA
ATOM      8  C   UNL     1     126.441 117.980 105.599  1.00  0.00     0.278 C 
ENDBRANCH   1   7
BRANCH   2   9
ATOM      9  O   UNL     1     124.812 118.702 102.599  1.00  0.00    -0.504 OA
ATOM     10  H   UNL     1     123.844 118.614 102.313  1.00  0.00     0.293 HD
ENDBRANCH   2   9
BRANCH   5  11
ATOM     11  C   UNL     1     128.671 114.672 101.390  1.00  0.00     0.062 C 
BRANCH  11  12
ATOM     12  C   UNL     1     128.017 113.451 100.804  1.00  0.00    -0.030 C 
ATOM     13  C   UNL     1     128.713 112.543 100.115  1.00  0.00     0.004 C 
ENDBRANCH  11  12
ENDBRANCH   5  11
TORSDOF 4
ENDMDL
MODEL 8
REMARK VINA RESULT:    -4.534      1.427      1.614
REMARK INTER + INTRA:          -5.670
REMARK INTER:                  -5.401
REMARK INTRA:                  -0.269
REMARK UNBOUND:                -0.209
REMARK SMILES C=CCc1ccc(O)c(OC)c1
REMARK SMILES IDX 9 1 7 2 6 3 5 4 4 5 12 6 10 7 11 8 8 9 3 11 2 12 1 13
REMARK H PARENT 8 10
REMARK Flexibility Score: inf
ROOT
ATOM      1  C   UNL     1     124.901 117.627 103.995  1.00  0.00     0.160 A 
ATOM      2  C   UNL     1     126.099 117.241 104.613  1.00  0.00     0.157 A 
ATOM      3  C   UNL     1     127.189 116.827 103.836  1.00  0.00     0.050 A 
ATOM      4  C   UNL     1     127.091 116.797 102.444  1.00  0.00     0.008 A 
ATOM      5  C   UNL     1     125.903 117.191 101.810  1.00  0.00    -0.040 A 
ATOM      6  C   UNL     1     124.807 117.597 102.590  1.00  0.00     0.054 A 
ENDROOT
BRANCH   1   7
ATOM      7  O   UNL     1     123.829 118.030 104.808  1.00  0.00    -0.493 OA
ATOM      8  C   UNL     1     122.496 118.225 104.346  1.00  0.00     0.278 C 
ENDBRANCH   1   7
BRANCH   2   9
ATOM      9  O   UNL     1     126.199 117.270 106.003  1.00  0.00    -0.504 OA
ATOM     10  H   UNL     1     126.813 116.639 106.504  1.00  0.00     0.293 HD
ENDBRANCH   2   9
BRANCH   5  11
ATOM     11  C   UNL     1     125.791 117.130 100.310  1.00  0.00     0.062 C 
BRANCH  11  12
ATOM     12  C   UNL     1     125.956 115.717  99.821  1.00  0.00    -0.030 C 
ATOM     13  C   UNL     1     125.059 114.767 100.101  1.00  0.00     0.004 C 
ENDBRANCH  11  12
ENDBRANCH   5  11
TORSDOF 4
ENDMDL
MODEL 9
REMARK VINA RESULT:    -4.415      3.239      4.436
REMARK INTER + INTRA:          -5.527
REMARK INTER:                  -5.264
REMARK INTRA:                  -0.263
REMARK UNBOUND:                -0.209
REMARK SMILES C=CCc1ccc(O)c(OC)c1
REMARK SMILES IDX 9 1 7 2 6 3 5 4 4 5 12 6 10 7 11 8 8 9 3 11 2 12 1 13
REMARK H PARENT 8 10
REMARK Flexibility Score: inf
ROOT
ATOM      1  C   UNL     1     125.559 117.055 101.486  1.00  0.00     0.160 A 
ATOM      2  C   UNL     1     126.174 117.707 102.565  1.00  0.00     0.157 A 
ATOM      3  C   UNL     1     127.390 117.231 103.073  1.00  0.00     0.050 A 
ATOM      4  C   UNL     1     127.997 116.108 102.509  1.00  0.00     0.008 A 
ATOM      5  C   UNL     1     127.401 115.451 101.422  1.00  0.00    -0.040 A 
ATOM      6  C   UNL     1     126.177 115.923 100.919  1.00  0.00     0.054 A 
ENDROOT
BRANCH   1   7
ATOM      7  O   UNL     1     124.338 117.558 101.009  1.00  0.00    -0.493 OA
ATOM      8  C   UNL     1     124.197 118.350  99.834  1.00  0.00     0.278 C 
ENDBRANCH   1   7
BRANCH   2   9
ATOM      9  O   UNL     1     125.569 118.828 103.130  1.00  0.00    -0.504 OA
ATOM     10  H   UNL     1     124.566 118.967 103.089  1.00  0.00     0.293 HD
ENDBRANCH   2   9
BRANCH   5  11
ATOM     11  C   UNL     1     128.044 114.223 100.836  1.00  0.00     0.062 C 
BRANCH  11  12
ATOM     12  C   UNL     1     129.530 114.239 101.066  1.00  0.00    -0.030 C 
ATOM     13  C   UNL     1     130.390 114.538 100.089  1.00  0.00     0.004 C 
ENDBRANCH  11  12
ENDBRANCH   5  11
TORSDOF 4
ENDMDL
