MODEL 1
REMARK VINA RESULT:    -3.621      0.000      0.000
REMARK INTER + INTRA:          -5.586
REMARK INTER:                  -5.315
REMARK INTRA:                  -0.271
REMARK UNBOUND:                -0.271
REMARK SMILES O=C([O-])CCCCCCCC(=O)[O-]
REMARK SMILES IDX 7 1 6 2 5 3 4 4 2 5 1 6 3 7 8 8 9 9 10 10 11 11 12 12 13 13
REMARK H PARENT
REMARK Flexibility Score: inf
ROOT
ATOM      1  C   UNL     1     -19.365  22.119  45.295  1.00  0.00     0.000 C 
ENDROOT
BRANCH   1   2
ATOM      2  C   UNL     1     -20.663  22.227  46.109  1.00  0.00     0.000 C 
BRANCH   2   3
ATOM      3  C   UNL     1     -21.569  23.372  45.628  1.00  0.00     0.006 C 
BRANCH   3   4
ATOM      4  C   UNL     1     -23.057  23.092  45.879  1.00  0.00     0.053 C 
BRANCH   4   5
ATOM      5  C   UNL     1     -23.902  23.862  44.913  1.00  0.00     0.041 C 
ATOM      6  O   UNL     1     -25.153  23.713  44.907  1.00  0.00    -0.550 OA
ATOM      7  O   UNL     1     -23.305  24.707  43.987  1.00  0.00    -0.550 OA
ENDBRANCH   4   5
ENDBRANCH   3   4
ENDBRANCH   2   3
ENDBRANCH   1   2
BRANCH   1   8
ATOM      8  C   UNL     1     -18.823  20.684  45.313  1.00  0.00     0.000 C 
BRANCH   8   9
ATOM      9  C   UNL     1     -17.687  20.511  44.295  1.00  0.00     0.006 C 
BRANCH   9  10
ATOM     10  C   UNL     1     -17.581  21.702  43.333  1.00  0.00     0.053 C 
BRANCH  10  11
ATOM     11  C   UNL     1     -16.184  22.242  43.269  1.00  0.00     0.041 C 
ATOM     12  O   UNL     1     -15.985  23.447  42.965  1.00  0.00    -0.550 OA
ATOM     13  O   UNL     1     -15.106  21.423  43.580  1.00  0.00    -0.550 OA
ENDBRANCH  10  11
ENDBRANCH   9  10
ENDBRANCH   8   9
ENDBRANCH   1   8
TORSDOF 8
ENDMDL
MODEL 2
REMARK VINA RESULT:    -3.589      2.681      5.456
REMARK INTER + INTRA:          -5.539
REMARK INTER:                  -4.885
REMARK INTRA:                  -0.654
REMARK UNBOUND:                -0.271
REMARK SMILES O=C([O-])CCCCCCCC(=O)[O-]
REMARK SMILES IDX 7 1 6 2 5 3 4 4 2 5 1 6 3 7 8 8 9 9 10 10 11 11 12 12 13 13
REMARK H PARENT
REMARK Flexibility Score: inf
ROOT
ATOM      1  C   UNL     1     -19.227  22.200  45.917  1.00  0.00     0.000 C 
ENDROOT
BRANCH   1   2
ATOM      2  C   UNL     1     -19.441  20.684  45.787  1.00  0.00     0.000 C 
BRANCH   2   3
ATOM      3  C   UNL     1     -18.244  19.970  45.138  1.00  0.00     0.006 C 
BRANCH   3   4
ATOM      4  C   UNL     1     -17.594  20.803  44.025  1.00  0.00     0.053 C 
BRANCH   4   5
ATOM      5  C   UNL     1     -16.129  20.965  44.285  1.00  0.00     0.041 C 
ATOM      6  O   UNL     1     -15.606  20.451  45.309  1.00  0.00    -0.550 OA
ATOM      7  O   UNL     1     -15.349  21.725  43.422  1.00  0.00    -0.550 OA
ENDBRANCH   4   5
ENDBRANCH   3   4
ENDBRANCH   2   3
ENDBRANCH   1   2
BRANCH   1   8
ATOM      8  C   UNL     1     -20.491  22.969  45.515  1.00  0.00     0.000 C 
BRANCH   8   9
ATOM      9  C   UNL     1     -20.135  24.258  44.760  1.00  0.00     0.006 C 
BRANCH   9  10
ATOM     10  C   UNL     1     -18.684  24.258  44.261  1.00  0.00     0.053 C 
BRANCH  10  11
ATOM     11  C   UNL     1     -18.607  24.447  42.776  1.00  0.00     0.041 C 
ATOM     12  O   UNL     1     -19.343  25.293  42.206  1.00  0.00    -0.550 OA
ATOM     13  O   UNL     1     -17.696  23.711  42.027  1.00  0.00    -0.550 OA
ENDBRANCH  10  11
ENDBRANCH   9  10
ENDBRANCH   8   9
ENDBRANCH   1   8
TORSDOF 8
ENDMDL
MODEL 3
REMARK VINA RESULT:    -3.585      0.217      6.774
REMARK INTER + INTRA:          -5.532
REMARK INTER:                  -5.261
REMARK INTRA:                  -0.271
REMARK UNBOUND:                -0.271
REMARK SMILES O=C([O-])CCCCCCCC(=O)[O-]
REMARK SMILES IDX 7 1 6 2 5 3 4 4 2 5 1 6 3 7 8 8 9 9 10 10 11 11 12 12 13 13
REMARK H PARENT
REMARK Flexibility Score: inf
ROOT
ATOM      1  C   UNL     1     -19.394  22.159  45.194  1.00  0.00     0.000 C 
ENDROOT
BRANCH   1   2
ATOM      2  C   UNL     1     -18.797  20.744  45.244  1.00  0.00     0.000 C 
BRANCH   2   3
ATOM      3  C   UNL     1     -17.615  20.565  44.279  1.00  0.00     0.006 C 
BRANCH   3   4
ATOM      4  C   UNL     1     -17.534  21.684  43.232  1.00  0.00     0.053 C 
BRANCH   4   5
ATOM      5  C   UNL     1     -16.201  22.363  43.297  1.00  0.00     0.041 C 
ATOM      6  O   UNL     1     -15.142  21.681  43.292  1.00  0.00    -0.550 OA
ATOM      7  O   UNL     1     -16.129  23.745  43.413  1.00  0.00    -0.550 OA
ENDBRANCH   4   5
ENDBRANCH   3   4
ENDBRANCH   2   3
ENDBRANCH   1   2
BRANCH   1   8
ATOM      8  C   UNL     1     -20.611  22.274  46.120  1.00  0.00     0.000 C 
BRANCH   8   9
ATOM      9  C   UNL     1     -21.535  23.416  45.674  1.00  0.00     0.006 C 
BRANCH   9  10
ATOM     10  C   UNL     1     -23.017  23.088  45.903  1.00  0.00     0.053 C 
BRANCH  10  11
ATOM     11  C   UNL     1     -23.900  23.787  44.915  1.00  0.00     0.041 C 
ATOM     12  O   UNL     1     -23.400  24.546  44.044  1.00  0.00    -0.550 OA
ATOM     13  O   UNL     1     -25.273  23.573  44.934  1.00  0.00    -0.550 OA
ENDBRANCH  10  11
ENDBRANCH   9  10
ENDBRANCH   8   9
ENDBRANCH   1   8
TORSDOF 8
ENDMDL
MODEL 4
REMARK VINA RESULT:    -3.582      2.103      2.799
REMARK INTER + INTRA:          -5.527
REMARK INTER:                  -4.887
REMARK INTRA:                  -0.640
REMARK UNBOUND:                -0.271
REMARK SMILES O=C([O-])CCCCCCCC(=O)[O-]
REMARK SMILES IDX 7 1 6 2 5 3 4 4 2 5 1 6 3 7 8 8 9 9 10 10 11 11 12 12 13 13
REMARK H PARENT
REMARK Flexibility Score: inf
ROOT
ATOM      1  C   UNL     1     -18.999  22.120  45.737  1.00  0.00     0.000 C 
ENDROOT
BRANCH   1   2
ATOM      2  C   UNL     1     -20.462  22.588  45.738  1.00  0.00     0.000 C 
BRANCH   2   3
ATOM      3  C   UNL     1     -20.626  24.020  45.204  1.00  0.00     0.006 C 
BRANCH   3   4
ATOM      4  C   UNL     1     -19.375  24.523  44.471  1.00  0.00     0.053 C 
BRANCH   4   5
ATOM      5  C   UNL     1     -19.761  25.268  43.232  1.00  0.00     0.041 C 
ATOM      6  O   UNL     1     -20.714  26.090  43.259  1.00  0.00    -0.550 OA
ATOM      7  O   UNL     1     -19.100  25.018  42.036  1.00  0.00    -0.550 OA
ENDBRANCH   4   5
ENDBRANCH   3   4
ENDBRANCH   2   3
ENDBRANCH   1   2
BRANCH   1   8
ATOM      8  C   UNL     1     -18.879  20.695  45.184  1.00  0.00     0.000 C 
BRANCH   8   9
ATOM      9  C   UNL     1     -17.612  20.539  44.332  1.00  0.00     0.006 C 
BRANCH   9  10
ATOM     10  C   UNL     1     -17.507  21.615  43.243  1.00  0.00     0.053 C 
BRANCH  10  11
ATOM     11  C   UNL     1     -16.177  22.305  43.269  1.00  0.00     0.041 C 
ATOM     12  O   UNL     1     -15.115  21.632  43.310  1.00  0.00    -0.550 OA
ATOM     13  O   UNL     1     -16.111  23.693  43.213  1.00  0.00    -0.550 OA
ENDBRANCH  10  11
ENDBRANCH   9  10
ENDBRANCH   8   9
ENDBRANCH   1   8
TORSDOF 8
ENDMDL
MODEL 5
REMARK VINA RESULT:    -3.545      2.293      5.702
REMARK INTER + INTRA:          -5.474
REMARK INTER:                  -4.764
REMARK INTRA:                  -0.709
REMARK UNBOUND:                -0.271
REMARK SMILES O=C([O-])CCCCCCCC(=O)[O-]
REMARK SMILES IDX 7 1 6 2 5 3 4 4 2 5 1 6 3 7 8 8 9 9 10 10 11 11 12 12 13 13
REMARK H PARENT
REMARK Flexibility Score: inf
ROOT
ATOM      1  C   UNL     1     -19.017  22.248  45.755  1.00  0.00     0.000 C 
ENDROOT
BRANCH   1   2
ATOM      2  C   UNL     1     -18.914  20.799  45.255  1.00  0.00     0.000 C 
BRANCH   2   3
ATOM      3  C   UNL     1     -17.671  20.560  44.384  1.00  0.00     0.006 C 
BRANCH   3   4
ATOM      4  C   UNL     1     -17.520  21.606  43.271  1.00  0.00     0.053 C 
BRANCH   4   5
ATOM      5  C   UNL     1     -16.176  22.259  43.350  1.00  0.00     0.041 C 
ATOM      6  O   UNL     1     -16.076  23.513  43.278  1.00  0.00    -0.550 OA
ATOM      7  O   UNL     1     -15.030  21.482  43.453  1.00  0.00    -0.550 OA
ENDBRANCH   4   5
ENDBRANCH   3   4
ENDBRANCH   2   3
ENDBRANCH   1   2
BRANCH   1   8
ATOM      8  C   UNL     1     -20.479  22.709  45.804  1.00  0.00     0.000 C 
BRANCH   8   9
ATOM      9  C   UNL     1     -20.694  23.954  44.931  1.00  0.00     0.006 C 
BRANCH   9  10
ATOM     10  C   UNL     1     -19.370  24.555  44.439  1.00  0.00     0.053 C 
BRANCH  10  11
ATOM     11  C   UNL     1     -19.514  25.184  43.086  1.00  0.00     0.041 C 
ATOM     12  O   UNL     1     -19.030  24.620  42.070  1.00  0.00    -0.550 OA
ATOM     13  O   UNL     1     -20.213  26.377  42.943  1.00  0.00    -0.550 OA
ENDBRANCH  10  11
ENDBRANCH   9  10
ENDBRANCH   8   9
ENDBRANCH   1   8
TORSDOF 8
ENDMDL
MODEL 6
REMARK VINA RESULT:    -3.532      0.938      1.597
REMARK INTER + INTRA:          -5.454
REMARK INTER:                  -5.041
REMARK INTRA:                  -0.414
REMARK UNBOUND:                -0.271
REMARK SMILES O=C([O-])CCCCCCCC(=O)[O-]
REMARK SMILES IDX 7 1 6 2 5 3 4 4 2 5 1 6 3 7 8 8 9 9 10 10 11 11 12 12 13 13
REMARK H PARENT
REMARK Flexibility Score: inf
ROOT
ATOM      1  C   UNL     1     -20.300  21.799  46.371  1.00  0.00     0.000 C 
ENDROOT
BRANCH   1   2
ATOM      2  C   UNL     1     -20.297  23.008  45.422  1.00  0.00     0.000 C 
BRANCH   2   3
ATOM      3  C   UNL     1     -21.499  23.938  45.644  1.00  0.00     0.006 C 
BRANCH   3   4
ATOM      4  C   UNL     1     -22.821  23.172  45.785  1.00  0.00     0.053 C 
BRANCH   4   5
ATOM      5  C   UNL     1     -23.859  23.752  44.877  1.00  0.00     0.041 C 
ATOM      6  O   UNL     1     -23.539  24.619  44.021  1.00  0.00    -0.550 OA
ATOM      7  O   UNL     1     -25.189  23.372  45.008  1.00  0.00    -0.550 OA
ENDBRANCH   4   5
ENDBRANCH   3   4
ENDBRANCH   2   3
ENDBRANCH   1   2
BRANCH   1   8
ATOM      8  C   UNL     1     -19.474  20.644  45.792  1.00  0.00     0.000 C 
BRANCH   8   9
ATOM      9  C   UNL     1     -18.062  21.113  45.412  1.00  0.00     0.006 C 
BRANCH   9  10
ATOM     10  C   UNL     1     -17.674  20.695  43.988  1.00  0.00     0.053 C 
BRANCH  10  11
ATOM     11  C   UNL     1     -17.251  21.870  43.159  1.00  0.00     0.041 C 
ATOM     12  O   UNL     1     -16.046  22.232  43.141  1.00  0.00    -0.550 OA
ATOM     13  O   UNL     1     -18.184  22.544  42.380  1.00  0.00    -0.550 OA
ENDBRANCH  10  11
ENDBRANCH   9  10
ENDBRANCH   8   9
ENDBRANCH   1   8
TORSDOF 8
ENDMDL
MODEL 7
REMARK VINA RESULT:    -3.497      1.304      1.895
REMARK INTER + INTRA:          -5.404
REMARK INTER:                  -5.046
REMARK INTRA:                  -0.357
REMARK UNBOUND:                -0.271
REMARK SMILES O=C([O-])CCCCCCCC(=O)[O-]
REMARK SMILES IDX 7 1 6 2 5 3 4 4 2 5 1 6 3 7 8 8 9 9 10 10 11 11 12 12 13 13
REMARK H PARENT
REMARK Flexibility Score: inf
ROOT
ATOM      1  C   UNL     1     -19.596  21.514  45.842  1.00  0.00     0.000 C 
ENDROOT
BRANCH   1   2
ATOM      2  C   UNL     1     -20.934  22.015  46.408  1.00  0.00     0.000 C 
BRANCH   2   3
ATOM      3  C   UNL     1     -21.468  23.247  45.661  1.00  0.00     0.006 C 
BRANCH   3   4
ATOM      4  C   UNL     1     -22.865  23.667  46.138  1.00  0.00     0.053 C 
BRANCH   4   5
ATOM      5  C   UNL     1     -23.758  23.930  44.966  1.00  0.00     0.041 C 
ATOM      6  O   UNL     1     -23.374  24.687  44.035  1.00  0.00    -0.550 OA
ATOM      7  O   UNL     1     -25.032  23.379  44.925  1.00  0.00    -0.550 OA
ENDBRANCH   4   5
ENDBRANCH   3   4
ENDBRANCH   2   3
ENDBRANCH   1   2
BRANCH   1   8
ATOM      8  C   UNL     1     -19.008  22.522  44.847  1.00  0.00     0.000 C 
BRANCH   8   9
ATOM      9  C   UNL     1     -17.991  21.848  43.916  1.00  0.00     0.006 C 
BRANCH   9  10
ATOM     10  C   UNL     1     -18.098  22.357  42.472  1.00  0.00     0.053 C 
BRANCH  10  11
ATOM     11  C   UNL     1     -17.851  23.832  42.382  1.00  0.00     0.041 C 
ATOM     12  O   UNL     1     -18.785  24.613  42.064  1.00  0.00    -0.550 OA
ATOM     13  O   UNL     1     -16.596  24.348  42.683  1.00  0.00    -0.550 OA
ENDBRANCH  10  11
ENDBRANCH   9  10
ENDBRANCH   8   9
ENDBRANCH   1   8
TORSDOF 8
ENDMDL
MODEL 8
REMARK VINA RESULT:    -3.479      2.554      4.981
REMARK INTER + INTRA:          -5.377
REMARK INTER:                  -4.494
REMARK INTRA:                  -0.883
REMARK UNBOUND:                -0.271
REMARK SMILES O=C([O-])CCCCCCCC(=O)[O-]
REMARK SMILES IDX 7 1 6 2 5 3 4 4 2 5 1 6 3 7 8 8 9 9 10 10 11 11 12 12 13 13
REMARK H PARENT
REMARK Flexibility Score: inf
ROOT
ATOM      1  C   UNL     1     -17.979  20.698  45.603  1.00  0.00     0.000 C 
ENDROOT
BRANCH   1   2
ATOM      2  C   UNL     1     -17.657  20.578  44.106  1.00  0.00     0.000 C 
BRANCH   2   3
ATOM      3  C   UNL     1     -17.113  21.886  43.511  1.00  0.00     0.006 C 
BRANCH   3   4
ATOM      4  C   UNL     1     -18.037  22.474  42.436  1.00  0.00     0.053 C 
BRANCH   4   5
ATOM      5  C   UNL     1     -17.905  23.965  42.395  1.00  0.00     0.041 C 
ATOM      6  O   UNL     1     -16.806  24.511  42.677  1.00  0.00    -0.550 OA
ATOM      7  O   UNL     1     -19.009  24.752  42.093  1.00  0.00    -0.550 OA
ENDBRANCH   4   5
ENDBRANCH   3   4
ENDBRANCH   2   3
ENDBRANCH   1   2
BRANCH   1   8
ATOM      8  C   UNL     1     -19.488  20.587  45.851  1.00  0.00     0.000 C 
BRANCH   8   9
ATOM      9  C   UNL     1     -20.047  21.887  46.446  1.00  0.00     0.006 C 
BRANCH   9  10
ATOM     10  C   UNL     1     -20.277  22.964  45.377  1.00  0.00     0.053 C 
BRANCH  10  11
ATOM     11  C   UNL     1     -19.552  24.235  45.704  1.00  0.00     0.041 C 
ATOM     12  O   UNL     1     -20.176  25.328  45.744  1.00  0.00    -0.550 OA
ATOM     13  O   UNL     1     -18.194  24.207  45.997  1.00  0.00    -0.550 OA
ENDBRANCH  10  11
ENDBRANCH   9  10
ENDBRANCH   8   9
ENDBRANCH   1   8
TORSDOF 8
ENDMDL
MODEL 9
REMARK VINA RESULT:    -3.444      3.873      5.274
REMARK INTER + INTRA:          -5.325
REMARK INTER:                  -4.818
REMARK INTRA:                  -0.507
REMARK UNBOUND:                -0.271
REMARK SMILES O=C([O-])CCCCCCCC(=O)[O-]
REMARK SMILES IDX 7 1 6 2 5 3 4 4 2 5 1 6 3 7 8 8 9 9 10 10 11 11 12 12 13 13
REMARK H PARENT
REMARK Flexibility Score: inf
ROOT
ATOM      1  C   UNL     1     -15.505  21.865  44.530  1.00  0.00     0.000 C 
ENDROOT
BRANCH   1   2
ATOM      2  C   UNL     1     -16.779  21.047  44.270  1.00  0.00     0.000 C 
BRANCH   2   3
ATOM      3  C   UNL     1     -17.986  21.928  43.914  1.00  0.00     0.006 C 
BRANCH   3   4
ATOM      4  C   UNL     1     -17.965  22.395  42.452  1.00  0.00     0.053 C 
BRANCH   4   5
ATOM      5  C   UNL     1     -17.873  23.888  42.383  1.00  0.00     0.041 C 
ATOM      6  O   UNL     1     -16.767  24.463  42.560  1.00  0.00    -0.550 OA
ATOM      7  O   UNL     1     -19.018  24.645  42.172  1.00  0.00    -0.550 OA
ENDBRANCH   4   5
ENDBRANCH   3   4
ENDBRANCH   2   3
ENDBRANCH   1   2
BRANCH   1   8
ATOM      8  C   UNL     1     -14.335  21.342  43.688  1.00  0.00     0.000 C 
BRANCH   8   9
ATOM      9  C   UNL     1     -13.282  22.437  43.468  1.00  0.00     0.006 C 
BRANCH   9  10
ATOM     10  C   UNL     1     -13.471  23.165  42.130  1.00  0.00     0.053 C 
BRANCH  10  11
ATOM     11  C   UNL     1     -12.831  24.520  42.138  1.00  0.00     0.041 C 
ATOM     12  O   UNL     1     -11.836  24.746  42.876  1.00  0.00    -0.550 OA
ATOM     13  O   UNL     1     -13.312  25.523  41.306  1.00  0.00    -0.550 OA
ENDBRANCH  10  11
ENDBRANCH   9  10
ENDBRANCH   8   9
ENDBRANCH   1   8
TORSDOF 8
ENDMDL
