MODEL 1
REMARK VINA RESULT:    -0.080      0.000      0.000
REMARK INTER + INTRA:          -0.850
REMARK INTER:                  -0.146
REMARK INTRA:                  -0.704
REMARK UNBOUND:                -0.704
REMARK SMILES CCCCCCCCCCCCCC[C@H](C)C(=O)[O-]
REMARK SMILES IDX 9 1 10 2 11 3 12 4 13 5 14 6 15 7 16 8 17 9 18 10 19 11 8 12
REMARK SMILES IDX 7 13 6 14 5 15 4 16 3 17 2 18 1 19
REMARK H PARENT
REMARK Flexibility Score: inf
ROOT
ATOM      1  C   UNL     1      47.870 147.181   0.486  1.00  0.00     0.000 C 
ENDROOT
BRANCH   1   2
ATOM      2  C   UNL     1      47.020 147.572  -0.735  1.00  0.00     0.000 C 
BRANCH   2   3
ATOM      3  C   UNL     1      47.869 148.124  -1.894  1.00  0.00     0.000 C 
BRANCH   3   4
ATOM      4  C   UNL     1      47.797 147.237  -3.150  1.00  0.00     0.000 C 
BRANCH   4   5
ATOM      5  C   UNL     1      48.291 147.964  -4.413  1.00  0.00     0.001 C 
BRANCH   5   6
ATOM      6  C   UNL     1      48.585 147.011  -5.587  1.00  0.00     0.009 C 
BRANCH   6   7
ATOM      7  C   UNL     1      49.161 147.712  -6.841  1.00  0.00     0.032 C 
ATOM      8  C   UNL     1      48.719 146.985  -8.118  1.00  0.00     0.014 C 
BRANCH   7   9
ATOM      9  C   UNL     1      50.663 147.786  -6.810  1.00  0.00     0.044 C 
ATOM     10  O   UNL     1      51.269 148.115  -5.755  1.00  0.00    -0.550 OA
ATOM     11  O   UNL     1      51.396 147.456  -7.944  1.00  0.00    -0.550 OA
ENDBRANCH   7   9
ENDBRANCH   6   7
ENDBRANCH   5   6
ENDBRANCH   4   5
ENDBRANCH   3   4
ENDBRANCH   2   3
ENDBRANCH   1   2
BRANCH   1  12
ATOM     12  C   UNL     1      49.234 147.892   0.507  1.00  0.00     0.000 C 
BRANCH  12  13
ATOM     13  C   UNL     1      50.052 147.565   1.768  1.00  0.00    -0.000 C 
BRANCH  13  14
ATOM     14  C   UNL     1      51.482 148.123   1.709  1.00  0.00    -0.000 C 
BRANCH  14  15
ATOM     15  C   UNL     1      52.062 147.995   0.295  1.00  0.00    -0.000 C 
BRANCH  15  16
ATOM     16  C   UNL     1      53.577 147.748   0.339  1.00  0.00    -0.000 C 
BRANCH  16  17
ATOM     17  C   UNL     1      54.099 147.083  -0.952  1.00  0.00    -0.000 C 
BRANCH  17  18
ATOM     18  C   UNL     1      54.849 148.050  -1.883  1.00  0.00    -0.003 C 
ATOM     19  C   UNL     1      54.407 147.942  -3.341  1.00  0.00     0.004 C 
ENDBRANCH  17  18
ENDBRANCH  16  17
ENDBRANCH  15  16
ENDBRANCH  14  15
ENDBRANCH  13  14
ENDBRANCH  12  13
ENDBRANCH   1  12
TORSDOF 14
ENDMDL
MODEL 2
REMARK VINA RESULT:     0.180      2.170      5.716
REMARK INTER + INTRA:          -0.377
REMARK INTER:                   0.549
REMARK INTRA:                  -0.927
REMARK UNBOUND:                -0.704
REMARK SMILES CCCCCCCCCCCCCC[C@H](C)C(=O)[O-]
REMARK SMILES IDX 9 1 10 2 11 3 12 4 13 5 14 6 15 7 16 8 17 9 18 10 19 11 8 12
REMARK SMILES IDX 7 13 6 14 5 15 4 16 3 17 2 18 1 19
REMARK H PARENT
REMARK Flexibility Score: inf
ROOT
ATOM      1  C   UNL     1      53.292 146.387  -0.712  1.00  0.00     0.000 C 
ENDROOT
BRANCH   1   2
ATOM      2  C   UNL     1      52.404 147.640  -0.623  1.00  0.00     0.000 C 
BRANCH   2   3
ATOM      3  C   UNL     1      51.994 147.972   0.823  1.00  0.00     0.000 C 
BRANCH   3   4
ATOM      4  C   UNL     1      50.666 147.307   1.225  1.00  0.00     0.000 C 
BRANCH   4   5
ATOM      5  C   UNL     1      49.441 148.124   0.777  1.00  0.00     0.001 C 
BRANCH   5   6
ATOM      6  C   UNL     1      49.175 148.037  -0.739  1.00  0.00     0.009 C 
BRANCH   6   7
ATOM      7  C   UNL     1      47.693 147.782  -1.106  1.00  0.00     0.032 C 
ATOM      8  C   UNL     1      46.965 147.074   0.044  1.00  0.00     0.014 C 
BRANCH   7   9
ATOM      9  C   UNL     1      47.552 146.963  -2.359  1.00  0.00     0.044 C 
ATOM     10  O   UNL     1      47.216 145.749  -2.299  1.00  0.00    -0.550 OA
ATOM     11  O   UNL     1      47.759 147.554  -3.600  1.00  0.00    -0.550 OA
ENDBRANCH   7   9
ENDBRANCH   6   7
ENDBRANCH   5   6
ENDBRANCH   4   5
ENDBRANCH   3   4
ENDBRANCH   2   3
ENDBRANCH   1   2
BRANCH   1  12
ATOM     12  C   UNL     1      54.698 146.697  -1.252  1.00  0.00     0.000 C 
BRANCH  12  13
ATOM     13  C   UNL     1      54.737 147.979  -2.100  1.00  0.00    -0.000 C 
BRANCH  13  14
ATOM     14  C   UNL     1      55.320 147.747  -3.502  1.00  0.00    -0.000 C 
BRANCH  14  15
ATOM     15  C   UNL     1      54.304 148.125  -4.587  1.00  0.00    -0.000 C 
BRANCH  15  16
ATOM     16  C   UNL     1      53.030 147.273  -4.471  1.00  0.00    -0.000 C 
BRANCH  16  17
ATOM     17  C   UNL     1      51.925 147.740  -5.443  1.00  0.00    -0.000 C 
BRANCH  17  18
ATOM     18  C   UNL     1      52.326 147.642  -6.923  1.00  0.00    -0.003 C 
ATOM     19  C   UNL     1      51.168 147.926  -7.877  1.00  0.00     0.004 C 
ENDBRANCH  17  18
ENDBRANCH  16  17
ENDBRANCH  15  16
ENDBRANCH  14  15
ENDBRANCH  13  14
ENDBRANCH  12  13
ENDBRANCH   1  12
TORSDOF 14
ENDMDL
MODEL 3
REMARK VINA RESULT:     0.736      2.480      7.375
REMARK INTER + INTRA:           0.634
REMARK INTER:                   1.422
REMARK INTRA:                  -0.788
REMARK UNBOUND:                -0.704
REMARK SMILES CCCCCCCCCCCCCC[C@H](C)C(=O)[O-]
REMARK SMILES IDX 9 1 10 2 11 3 12 4 13 5 14 6 15 7 16 8 17 9 18 10 19 11 8 12
REMARK SMILES IDX 7 13 6 14 5 15 4 16 3 17 2 18 1 19
REMARK H PARENT
REMARK Flexibility Score: inf
ROOT
ATOM      1  C   UNL     1      55.394 147.028  -1.843  1.00  0.00     0.000 C 
ENDROOT
BRANCH   1   2
ATOM      2  C   UNL     1      54.312 147.860  -1.133  1.00  0.00     0.000 C 
BRANCH   2   3
ATOM      3  C   UNL     1      54.012 147.349   0.288  1.00  0.00     0.000 C 
BRANCH   3   4
ATOM      4  C   UNL     1      52.784 146.424   0.333  1.00  0.00     0.000 C 
BRANCH   4   5
ATOM      5  C   UNL     1      51.702 146.929   1.305  1.00  0.00     0.001 C 
BRANCH   5   6
ATOM      6  C   UNL     1      50.875 148.099   0.738  1.00  0.00     0.009 C 
BRANCH   6   7
ATOM      7  C   UNL     1      49.404 148.124   1.220  1.00  0.00     0.032 C 
ATOM      8  C   UNL     1      49.206 147.167   2.401  1.00  0.00     0.014 C 
BRANCH   7   9
ATOM      9  C   UNL     1      48.442 147.761   0.123  1.00  0.00     0.044 C 
ATOM     10  O   UNL     1      47.289 147.330   0.395  1.00  0.00    -0.550 OA
ATOM     11  O   UNL     1      48.810 147.934  -1.206  1.00  0.00    -0.550 OA
ENDBRANCH   7   9
ENDBRANCH   6   7
ENDBRANCH   5   6
ENDBRANCH   4   5
ENDBRANCH   3   4
ENDBRANCH   2   3
ENDBRANCH   1   2
BRANCH   1  12
ATOM     12  C   UNL     1      55.309 147.134  -3.375  1.00  0.00     0.000 C 
BRANCH  12  13
ATOM     13  C   UNL     1      54.161 148.043  -3.843  1.00  0.00    -0.000 C 
BRANCH  13  14
ATOM     14  C   UNL     1      53.829 147.862  -5.332  1.00  0.00    -0.000 C 
BRANCH  14  15
ATOM     15  C   UNL     1      52.498 147.121  -5.509  1.00  0.00    -0.000 C 
BRANCH  15  16
ATOM     16  C   UNL     1      52.090 147.066  -6.989  1.00  0.00    -0.000 C 
BRANCH  16  17
ATOM     17  C   UNL     1      51.020 148.122  -7.339  1.00  0.00    -0.000 C 
BRANCH  17  18
ATOM     18  C   UNL     1      49.727 147.522  -7.915  1.00  0.00    -0.003 C 
ATOM     19  C   UNL     1      48.523 147.695  -6.991  1.00  0.00     0.004 C 
ENDBRANCH  17  18
ENDBRANCH  16  17
ENDBRANCH  15  16
ENDBRANCH  14  15
ENDBRANCH  13  14
ENDBRANCH  12  13
ENDBRANCH   1  12
TORSDOF 14
ENDMDL
