MODEL 1
REMARK VINA RESULT:    -3.714      0.000      0.000
REMARK INTER + INTRA:          -4.040
REMARK INTER:                  -4.040
REMARK INTRA:                   0.000
REMARK UNBOUND:                 0.000
REMARK SMILES Oc1cccc(O)c1O
REMARK SMILES IDX 4 1 5 2 6 3 8 4 2 5 3 6 7 7 1 9 9 11
REMARK H PARENT 7 8 1 10 9 12
REMARK Flexibility Score: inf
ROOT
ATOM      1  C   UNL     1     -11.221  -1.853   7.928  1.00  0.00     0.008 A 
ATOM      2  C   UNL     1      -9.958  -1.927   8.515  1.00  0.00     0.050 A 
ATOM      3  C   UNL     1      -8.817  -1.597   7.777  1.00  0.00     0.161 A 
ATOM      4  C   UNL     1      -8.937  -1.186   6.434  1.00  0.00     0.200 A 
ATOM      5  C   UNL     1     -10.223  -1.113   5.842  1.00  0.00     0.161 A 
ATOM      6  C   UNL     1     -11.352  -1.448   6.600  1.00  0.00     0.050 A 
ENDROOT
BRANCH   3   7
ATOM      7  O   UNL     1      -7.570  -1.683   8.396  1.00  0.00    -0.504 OA
ATOM      8  H   UNL     1      -7.164  -0.907   8.904  1.00  0.00     0.293 HD
ENDBRANCH   3   7
BRANCH   5   9
ATOM      9  O   UNL     1     -10.424  -0.715   4.519  1.00  0.00    -0.504 OA
ATOM     10  H   UNL     1     -11.283  -0.311   4.174  1.00  0.00     0.293 HD
ENDBRANCH   5   9
BRANCH   4  11
ATOM     11  O   UNL     1      -7.773  -0.865   5.731  1.00  0.00    -0.502 OA
ATOM     12  H   UNL     1      -7.178  -1.544   5.279  1.00  0.00     0.293 HD
ENDBRANCH   4  11
TORSDOF 3
ENDMDL
MODEL 2
REMARK VINA RESULT:    -3.711      0.060      2.825
REMARK INTER + INTRA:          -4.036
REMARK INTER:                  -4.036
REMARK INTRA:                   0.000
REMARK UNBOUND:                 0.000
REMARK SMILES Oc1cccc(O)c1O
REMARK SMILES IDX 4 1 5 2 6 3 8 4 2 5 3 6 7 7 1 9 9 11
REMARK H PARENT 7 8 1 10 9 12
REMARK Flexibility Score: inf
ROOT
ATOM      1  C   UNL     1     -11.195  -1.900   7.923  1.00  0.00     0.008 A 
ATOM      2  C   UNL     1     -11.326  -1.512   6.589  1.00  0.00     0.050 A 
ATOM      3  C   UNL     1     -10.198  -1.166   5.841  1.00  0.00     0.161 A 
ATOM      4  C   UNL     1      -8.918  -1.205   6.430  1.00  0.00     0.200 A 
ATOM      5  C   UNL     1      -8.789  -1.599   7.786  1.00  0.00     0.161 A 
ATOM      6  C   UNL     1      -9.933  -1.943   8.516  1.00  0.00     0.050 A 
ENDROOT
BRANCH   3   7
ATOM      7  O   UNL     1     -10.367  -0.783   4.510  1.00  0.00    -0.504 OA
ATOM      8  H   UNL     1      -9.804  -1.166   3.761  1.00  0.00     0.293 HD
ENDBRANCH   3   7
BRANCH   5   9
ATOM      9  O   UNL     1      -7.558  -1.665   8.440  1.00  0.00    -0.504 OA
ATOM     10  H   UNL     1      -7.147  -0.897   8.953  1.00  0.00     0.293 HD
ENDBRANCH   5   9
BRANCH   4  11
ATOM     11  O   UNL     1      -7.815  -0.851   5.649  1.00  0.00    -0.502 OA
ATOM     12  H   UNL     1      -6.901  -0.639   6.022  1.00  0.00     0.293 HD
ENDBRANCH   4  11
TORSDOF 3
ENDMDL
MODEL 3
REMARK VINA RESULT:    -3.681      1.963      3.653
REMARK INTER + INTRA:          -4.003
REMARK INTER:                  -4.003
REMARK INTRA:                   0.000
REMARK UNBOUND:                 0.000
REMARK SMILES Oc1cccc(O)c1O
REMARK SMILES IDX 4 1 5 2 6 3 8 4 2 5 3 6 7 7 1 9 9 11
REMARK H PARENT 7 8 1 10 9 12
REMARK Flexibility Score: inf
ROOT
ATOM      1  C   UNL     1      -6.669  -1.078   9.067  1.00  0.00     0.008 A 
ATOM      2  C   UNL     1      -6.716  -0.867   7.690  1.00  0.00     0.050 A 
ATOM      3  C   UNL     1      -7.892  -1.121   6.977  1.00  0.00     0.161 A 
ATOM      4  C   UNL     1      -9.038  -1.594   7.648  1.00  0.00     0.200 A 
ATOM      5  C   UNL     1      -8.985  -1.808   9.048  1.00  0.00     0.161 A 
ATOM      6  C   UNL     1      -7.797  -1.546   9.741  1.00  0.00     0.050 A 
ENDROOT
BRANCH   3   7
ATOM      7  O   UNL     1      -7.902  -0.898   5.600  1.00  0.00    -0.504 OA
ATOM      8  H   UNL     1      -7.351  -1.454   4.958  1.00  0.00     0.293 HD
ENDBRANCH   3   7
BRANCH   5   9
ATOM      9  O   UNL     1     -10.077  -2.273   9.783  1.00  0.00    -0.504 OA
ATOM     10  H   UNL     1     -10.023  -2.576  10.745  1.00  0.00     0.293 HD
ENDBRANCH   5   9
BRANCH   4  11
ATOM     11  O   UNL     1     -10.193  -1.835   6.900  1.00  0.00    -0.502 OA
ATOM     12  H   UNL     1     -10.232  -1.802   5.891  1.00  0.00     0.293 HD
ENDBRANCH   4  11
TORSDOF 3
ENDMDL
MODEL 4
REMARK VINA RESULT:    -3.667      2.232      3.253
REMARK INTER + INTRA:          -3.989
REMARK INTER:                  -3.989
REMARK INTRA:                   0.000
REMARK UNBOUND:                 0.000
REMARK SMILES Oc1cccc(O)c1O
REMARK SMILES IDX 4 1 5 2 6 3 8 4 2 5 3 6 7 7 1 9 9 11
REMARK H PARENT 7 8 1 10 9 12
REMARK Flexibility Score: inf
ROOT
ATOM      1  C   UNL     1      -6.675  -1.187   9.143  1.00  0.00     0.008 A 
ATOM      2  C   UNL     1      -7.770  -0.688   9.847  1.00  0.00     0.050 A 
ATOM      3  C   UNL     1      -8.911  -0.257   9.163  1.00  0.00     0.161 A 
ATOM      4  C   UNL     1      -8.960  -0.323   7.756  1.00  0.00     0.200 A 
ATOM      5  C   UNL     1      -7.844  -0.831   7.045  1.00  0.00     0.161 A 
ATOM      6  C   UNL     1      -6.713  -1.258   7.750  1.00  0.00     0.050 A 
ENDROOT
BRANCH   3   7
ATOM      7  O   UNL     1      -9.988   0.237   9.900  1.00  0.00    -0.504 OA
ATOM      8  H   UNL     1     -10.860   0.512   9.465  1.00  0.00     0.293 HD
ENDBRANCH   3   7
BRANCH   5   9
ATOM      9  O   UNL     1      -7.816  -0.930   5.652  1.00  0.00    -0.504 OA
ATOM     10  H   UNL     1      -8.407  -1.550   5.117  1.00  0.00     0.293 HD
ENDBRANCH   5   9
BRANCH   4  11
ATOM     11  O   UNL     1     -10.118   0.117   7.110  1.00  0.00    -0.502 OA
ATOM     12  H   UNL     1     -10.246   0.109   6.108  1.00  0.00     0.293 HD
ENDBRANCH   4  11
TORSDOF 3
ENDMDL
MODEL 5
REMARK VINA RESULT:    -3.634      1.725      2.737
REMARK INTER + INTRA:          -3.953
REMARK INTER:                  -3.953
REMARK INTRA:                   0.000
REMARK UNBOUND:                 0.000
REMARK SMILES Oc1cccc(O)c1O
REMARK SMILES IDX 4 1 5 2 6 3 8 4 2 5 3 6 7 7 1 9 9 11
REMARK H PARENT 7 8 1 10 9 12
REMARK Flexibility Score: inf
ROOT
ATOM      1  C   UNL     1      -8.627  -0.537   8.947  1.00  0.00     0.008 A 
ATOM      2  C   UNL     1      -8.011  -0.830   7.730  1.00  0.00     0.050 A 
ATOM      3  C   UNL     1      -8.758  -0.851   6.548  1.00  0.00     0.161 A 
ATOM      4  C   UNL     1     -10.140  -0.575   6.579  1.00  0.00     0.200 A 
ATOM      5  C   UNL     1     -10.761  -0.278   7.818  1.00  0.00     0.161 A 
ATOM      6  C   UNL     1      -9.994  -0.263   8.989  1.00  0.00     0.050 A 
ENDROOT
BRANCH   3   7
ATOM      7  O   UNL     1      -8.108  -1.148   5.350  1.00  0.00    -0.504 OA
ATOM      8  H   UNL     1      -8.562  -1.051   4.451  1.00  0.00     0.293 HD
ENDBRANCH   3   7
BRANCH   5   9
ATOM      9  O   UNL     1     -12.124   0.006   7.931  1.00  0.00    -0.504 OA
ATOM     10  H   UNL     1     -12.527   0.918   7.772  1.00  0.00     0.293 HD
ENDBRANCH   5   9
BRANCH   4  11
ATOM     11  O   UNL     1     -10.850  -0.606   5.377  1.00  0.00    -0.502 OA
ATOM     12  H   UNL     1     -11.543  -1.303   5.145  1.00  0.00     0.293 HD
ENDBRANCH   4  11
TORSDOF 3
ENDMDL
MODEL 6
REMARK VINA RESULT:    -3.495      0.931      1.892
REMARK INTER + INTRA:          -3.802
REMARK INTER:                  -3.802
REMARK INTRA:                   0.000
REMARK UNBOUND:                 0.000
REMARK SMILES Oc1cccc(O)c1O
REMARK SMILES IDX 4 1 5 2 6 3 8 4 2 5 3 6 7 7 1 9 9 11
REMARK H PARENT 7 8 1 10 9 12
REMARK Flexibility Score: inf
ROOT
ATOM      1  C   UNL     1     -11.298  -1.659   6.726  1.00  0.00     0.008 A 
ATOM      2  C   UNL     1     -11.078  -1.956   8.071  1.00  0.00     0.050 A 
ATOM      3  C   UNL     1      -9.785  -1.914   8.601  1.00  0.00     0.161 A 
ATOM      4  C   UNL     1      -8.694  -1.571   7.778  1.00  0.00     0.200 A 
ATOM      5  C   UNL     1      -8.922  -1.270   6.411  1.00  0.00     0.161 A 
ATOM      6  C   UNL     1     -10.225  -1.318   5.902  1.00  0.00     0.050 A 
ENDROOT
BRANCH   3   7
ATOM      7  O   UNL     1      -9.604  -2.217   9.950  1.00  0.00    -0.504 OA
ATOM      8  H   UNL     1      -9.777  -1.542  10.684  1.00  0.00     0.293 HD
ENDBRANCH   3   7
BRANCH   5   9
ATOM      9  O   UNL     1      -7.894  -0.921   5.533  1.00  0.00    -0.504 OA
ATOM     10  H   UNL     1      -8.011  -0.305   4.741  1.00  0.00     0.293 HD
ENDBRANCH   5   9
BRANCH   4  11
ATOM     11  O   UNL     1      -7.418  -1.539   8.345  1.00  0.00    -0.502 OA
ATOM     12  H   UNL     1      -7.239  -1.419   9.331  1.00  0.00     0.293 HD
ENDBRANCH   4  11
TORSDOF 3
ENDMDL
MODEL 7
REMARK VINA RESULT:    -3.436     18.025     18.509
REMARK INTER + INTRA:          -3.738
REMARK INTER:                  -3.738
REMARK INTRA:                   0.000
REMARK UNBOUND:                 0.000
REMARK SMILES Oc1cccc(O)c1O
REMARK SMILES IDX 4 1 5 2 6 3 8 4 2 5 3 6 7 7 1 9 9 11
REMARK H PARENT 7 8 1 10 9 12
REMARK Flexibility Score: inf
ROOT
ATOM      1  C   UNL     1       0.826  -5.423  -8.450  1.00  0.00     0.008 A 
ATOM      2  C   UNL     1      -0.394  -6.098  -8.465  1.00  0.00     0.050 A 
ATOM      3  C   UNL     1      -1.574  -5.417  -8.779  1.00  0.00     0.161 A 
ATOM      4  C   UNL     1      -1.537  -4.041  -9.083  1.00  0.00     0.200 A 
ATOM      5  C   UNL     1      -0.296  -3.359  -9.065  1.00  0.00     0.161 A 
ATOM      6  C   UNL     1       0.874  -4.061  -8.748  1.00  0.00     0.050 A 
ENDROOT
BRANCH   3   7
ATOM      7  O   UNL     1      -2.776  -6.125  -8.785  1.00  0.00    -0.504 OA
ATOM      8  H   UNL     1      -3.616  -5.767  -8.348  1.00  0.00     0.293 HD
ENDBRANCH   3   7
BRANCH   5   9
ATOM      9  O   UNL     1      -0.176  -1.998  -9.355  1.00  0.00    -0.504 OA
ATOM     10  H   UNL     1       0.532  -1.607  -9.959  1.00  0.00     0.293 HD
ENDBRANCH   5   9
BRANCH   4  11
ATOM     11  O   UNL     1      -2.738  -3.396  -9.392  1.00  0.00    -0.502 OA
ATOM     12  H   UNL     1      -3.302  -3.607 -10.202  1.00  0.00     0.293 HD
ENDBRANCH   4  11
TORSDOF 3
ENDMDL
MODEL 8
REMARK VINA RESULT:    -3.426     17.940     18.419
REMARK INTER + INTRA:          -3.727
REMARK INTER:                  -3.727
REMARK INTRA:                   0.000
REMARK UNBOUND:                 0.000
REMARK SMILES Oc1cccc(O)c1O
REMARK SMILES IDX 4 1 5 2 6 3 8 4 2 5 3 6 7 7 1 9 9 11
REMARK H PARENT 7 8 1 10 9 12
REMARK Flexibility Score: inf
ROOT
ATOM      1  C   UNL     1       0.764  -5.350  -8.349  1.00  0.00     0.008 A 
ATOM      2  C   UNL     1       0.805  -3.999  -8.691  1.00  0.00     0.050 A 
ATOM      3  C   UNL     1      -0.369  -3.323  -9.040  1.00  0.00     0.161 A 
ATOM      4  C   UNL     1      -1.602  -4.006  -9.049  1.00  0.00     0.200 A 
ATOM      5  C   UNL     1      -1.638  -5.380  -8.702  1.00  0.00     0.161 A 
ATOM      6  C   UNL     1      -0.451  -6.036  -8.355  1.00  0.00     0.050 A 
ENDROOT
BRANCH   3   7
ATOM      7  O   UNL     1      -0.290  -1.972  -9.376  1.00  0.00    -0.504 OA
ATOM      8  H   UNL     1      -0.545  -1.238  -8.727  1.00  0.00     0.293 HD
ENDBRANCH   3   7
BRANCH   5   9
ATOM      9  O   UNL     1      -2.819  -6.125  -8.686  1.00  0.00    -0.504 OA
ATOM     10  H   UNL     1      -3.742  -5.721  -8.620  1.00  0.00     0.293 HD
ENDBRANCH   5   9
BRANCH   4  11
ATOM     11  O   UNL     1      -2.752  -3.296  -9.404  1.00  0.00    -0.502 OA
ATOM     12  H   UNL     1      -2.744  -2.375  -9.815  1.00  0.00     0.293 HD
ENDBRANCH   4  11
TORSDOF 3
ENDMDL
MODEL 9
REMARK VINA RESULT:    -3.206      2.188      3.687
REMARK INTER + INTRA:          -3.487
REMARK INTER:                  -3.487
REMARK INTRA:                   0.000
REMARK UNBOUND:                 0.000
REMARK SMILES Oc1cccc(O)c1O
REMARK SMILES IDX 4 1 5 2 6 3 8 4 2 5 3 6 7 7 1 9 9 11
REMARK H PARENT 7 8 1 10 9 12
REMARK Flexibility Score: inf
ROOT
ATOM      1  C   UNL     1      -8.493  -1.610   7.834  1.00  0.00     0.008 A 
ATOM      2  C   UNL     1      -9.262  -1.539   6.673  1.00  0.00     0.050 A 
ATOM      3  C   UNL     1     -10.291  -0.598   6.565  1.00  0.00     0.161 A 
ATOM      4  C   UNL     1     -10.558   0.284   7.631  1.00  0.00     0.200 A 
ATOM      5  C   UNL     1      -9.774   0.208   8.809  1.00  0.00     0.161 A 
ATOM      6  C   UNL     1      -8.748  -0.741   8.895  1.00  0.00     0.050 A 
ENDROOT
BRANCH   3   7
ATOM      7  O   UNL     1     -11.040  -0.556   5.389  1.00  0.00    -0.504 OA
ATOM      8  H   UNL     1     -10.679  -0.155   4.532  1.00  0.00     0.293 HD
ENDBRANCH   3   7
BRANCH   5   9
ATOM      9  O   UNL     1      -9.975   1.047   9.907  1.00  0.00    -0.504 OA
ATOM     10  H   UNL     1     -10.881   1.258  10.300  1.00  0.00     0.293 HD
ENDBRANCH   5   9
BRANCH   4  11
ATOM     11  O   UNL     1     -11.594   1.210   7.484  1.00  0.00    -0.502 OA
ATOM     12  H   UNL     1     -12.281   1.179   6.745  1.00  0.00     0.293 HD
ENDBRANCH   4  11
TORSDOF 3
ENDMDL
