MODEL 1
REMARK VINA RESULT:    -4.914      0.000      0.000
REMARK INTER + INTRA:         -16.266
REMARK INTER:                 -12.383
REMARK INTRA:                  -3.883
REMARK UNBOUND:                -3.883
REMARK SMILES CCCCCCCCCCCCCCCCCCCCCCCCCCCC(=O)[O-]
REMARK SMILES IDX 15 1 16 2 17 3 18 4 19 5 20 6 21 7 22 8 23 9 24 10 25 11
REMARK SMILES IDX 26 12 27 13 28 14 29 15 30 16 14 17 13 18 12 19 11 20 10 21
REMARK SMILES IDX 9 22 8 23 7 24 6 25 5 26 4 27 3 28 2 29 1 30
REMARK H PARENT
REMARK Flexibility Score: inf
ROOT
ATOM      1  C   UNL     1     -47.597  27.978 -13.285  1.00  0.00     0.000 C 
ENDROOT
BRANCH   1   2
ATOM      2  C   UNL     1     -47.869  28.758 -14.581  1.00  0.00     0.000 C 
BRANCH   2   3
ATOM      3  C   UNL     1     -49.353  29.124 -14.748  1.00  0.00     0.000 C 
BRANCH   3   4
ATOM      4  C   UNL     1     -50.277  27.895 -14.758  1.00  0.00     0.000 C 
BRANCH   4   5
ATOM      5  C   UNL     1     -51.057  27.654 -16.067  1.00  0.00     0.000 C 
BRANCH   5   6
ATOM      6  C   UNL     1     -52.213  26.640 -15.944  1.00  0.00     0.000 C 
BRANCH   6   7
ATOM      7  C   UNL     1     -52.158  25.820 -14.641  1.00  0.00     0.000 C 
BRANCH   7   8
ATOM      8  C   UNL     1     -52.159  24.301 -14.888  1.00  0.00     0.000 C 
BRANCH   8   9
ATOM      9  C   UNL     1     -52.551  23.462 -13.652  1.00  0.00     0.000 C 
BRANCH   9  10
ATOM     10  C   UNL     1     -53.824  23.940 -12.921  1.00  0.00     0.000 C 
BRANCH  10  11
ATOM     11  C   UNL     1     -54.021  23.389 -11.493  1.00  0.00     0.000 C 
BRANCH  11  12
ATOM     12  C   UNL     1     -55.236  23.996 -10.768  1.00  0.00     0.006 C 
BRANCH  12  13
ATOM     13  C   UNL     1     -55.526  25.433 -11.225  1.00  0.00     0.053 C 
BRANCH  13  14
ATOM     14  C   UNL     1     -56.984  25.647 -11.493  1.00  0.00     0.041 C 
ATOM     15  O   UNL     1     -57.659  24.758 -12.078  1.00  0.00    -0.550 OA
ATOM     16  O   UNL     1     -57.606  26.817 -11.072  1.00  0.00    -0.550 OA
ENDBRANCH  13  14
ENDBRANCH  12  13
ENDBRANCH  11  12
ENDBRANCH  10  11
ENDBRANCH   9  10
ENDBRANCH   8   9
ENDBRANCH   7   8
ENDBRANCH   6   7
ENDBRANCH   5   6
ENDBRANCH   4   5
ENDBRANCH   3   4
ENDBRANCH   2   3
ENDBRANCH   1   2
BRANCH   1  17
ATOM     17  C   UNL     1     -46.227  27.265 -13.271  1.00  0.00     0.000 C 
BRANCH  17  18
ATOM     18  C   UNL     1     -45.985  26.442 -14.547  1.00  0.00     0.000 C 
BRANCH  18  19
ATOM     19  C   UNL     1     -44.660  26.820 -15.247  1.00  0.00     0.000 C 
BRANCH  19  20
ATOM     20  C   UNL     1     -44.356  28.331 -15.232  1.00  0.00     0.000 C 
BRANCH  20  21
ATOM     21  C   UNL     1     -44.475  29.032 -16.595  1.00  0.00     0.000 C 
BRANCH  21  22
ATOM     22  C   UNL     1     -43.170  28.975 -17.409  1.00  0.00    -0.000 C 
BRANCH  22  23
ATOM     23  C   UNL     1     -43.380  28.431 -18.832  1.00  0.00    -0.000 C 
BRANCH  23  24
ATOM     24  C   UNL     1     -43.554  26.903 -18.926  1.00  0.00    -0.000 C 
BRANCH  24  25
ATOM     25  C   UNL     1     -44.877  26.466 -19.591  1.00  0.00    -0.000 C 
BRANCH  25  26
ATOM     26  C   UNL     1     -45.886  25.907 -18.574  1.00  0.00    -0.000 C 
BRANCH  26  27
ATOM     27  C   UNL     1     -46.998  26.910 -18.216  1.00  0.00    -0.000 C 
BRANCH  27  28
ATOM     28  C   UNL     1     -48.165  26.324 -17.400  1.00  0.00    -0.000 C 
BRANCH  28  29
ATOM     29  C   UNL     1     -48.049  24.806 -17.194  1.00  0.00    -0.003 C 
ATOM     30  C   UNL     1     -48.744  24.372 -15.906  1.00  0.00     0.004 C 
ENDBRANCH  28  29
ENDBRANCH  27  28
ENDBRANCH  26  27
ENDBRANCH  25  26
ENDBRANCH  24  25
ENDBRANCH  23  24
ENDBRANCH  22  23
ENDBRANCH  21  22
ENDBRANCH  20  21
ENDBRANCH  19  20
ENDBRANCH  18  19
ENDBRANCH  17  18
ENDBRANCH   1  17
TORSDOF 26
ENDMDL
MODEL 2
REMARK VINA RESULT:    -4.716      2.201      8.262
REMARK INTER + INTRA:         -15.768
REMARK INTER:                 -12.067
REMARK INTRA:                  -3.700
REMARK UNBOUND:                -3.883
REMARK SMILES CCCCCCCCCCCCCCCCCCCCCCCCCCCC(=O)[O-]
REMARK SMILES IDX 15 1 16 2 17 3 18 4 19 5 20 6 21 7 22 8 23 9 24 10 25 11
REMARK SMILES IDX 26 12 27 13 28 14 29 15 30 16 14 17 13 18 12 19 11 20 10 21
REMARK SMILES IDX 9 22 8 23 7 24 6 25 5 26 4 27 3 28 2 29 1 30
REMARK H PARENT
REMARK Flexibility Score: inf
ROOT
ATOM      1  C   UNL     1     -45.452  26.460 -14.090  1.00  0.00     0.000 C 
ENDROOT
BRANCH   1   2
ATOM      2  C   UNL     1     -45.902  27.907 -13.829  1.00  0.00     0.000 C 
BRANCH   2   3
ATOM      3  C   UNL     1     -45.389  28.885 -14.900  1.00  0.00     0.000 C 
BRANCH   3   4
ATOM      4  C   UNL     1     -44.272  28.289 -15.772  1.00  0.00     0.000 C 
BRANCH   4   5
ATOM      5  C   UNL     1     -44.506  28.353 -17.295  1.00  0.00     0.000 C 
BRANCH   5   6
ATOM      6  C   UNL     1     -44.437  26.987 -18.009  1.00  0.00     0.000 C 
BRANCH   6   7
ATOM      7  C   UNL     1     -45.781  26.564 -18.630  1.00  0.00     0.000 C 
BRANCH   7   8
ATOM      8  C   UNL     1     -46.777  26.019 -17.591  1.00  0.00     0.000 C 
BRANCH   8   9
ATOM      9  C   UNL     1     -48.258  26.145 -18.012  1.00  0.00     0.000 C 
BRANCH   9  10
ATOM     10  C   UNL     1     -48.788  27.592 -18.098  1.00  0.00     0.000 C 
BRANCH  10  11
ATOM     11  C   UNL     1     -48.339  28.536 -16.963  1.00  0.00     0.000 C 
BRANCH  11  12
ATOM     12  C   UNL     1     -49.275  28.508 -15.741  1.00  0.00     0.006 C 
BRANCH  12  13
ATOM     13  C   UNL     1     -50.736  28.248 -16.134  1.00  0.00     0.053 C 
BRANCH  13  14
ATOM     14  C   UNL     1     -51.626  28.156 -14.933  1.00  0.00     0.041 C 
ATOM     15  O   UNL     1     -51.431  28.907 -13.940  1.00  0.00    -0.550 OA
ATOM     16  O   UNL     1     -52.690  27.261 -14.921  1.00  0.00    -0.550 OA
ENDBRANCH  13  14
ENDBRANCH  12  13
ENDBRANCH  11  12
ENDBRANCH  10  11
ENDBRANCH   9  10
ENDBRANCH   8   9
ENDBRANCH   7   8
ENDBRANCH   6   7
ENDBRANCH   5   6
ENDBRANCH   4   5
ENDBRANCH   3   4
ENDBRANCH   2   3
ENDBRANCH   1   2
BRANCH   1  17
ATOM     17  C   UNL     1     -46.488  25.404 -13.645  1.00  0.00     0.000 C 
BRANCH  17  18
ATOM     18  C   UNL     1     -47.911  25.747 -14.119  1.00  0.00     0.000 C 
BRANCH  18  19
ATOM     19  C   UNL     1     -48.592  24.560 -14.835  1.00  0.00     0.000 C 
BRANCH  19  20
ATOM     20  C   UNL     1     -50.102  24.759 -15.073  1.00  0.00     0.000 C 
BRANCH  20  21
ATOM     21  C   UNL     1     -50.944  23.473 -15.016  1.00  0.00     0.000 C 
BRANCH  21  22
ATOM     22  C   UNL     1     -52.264  23.661 -14.246  1.00  0.00    -0.000 C 
BRANCH  22  23
ATOM     23  C   UNL     1     -52.192  23.126 -12.806  1.00  0.00    -0.000 C 
BRANCH  23  24
ATOM     24  C   UNL     1     -53.511  23.208 -12.014  1.00  0.00    -0.000 C 
BRANCH  24  25
ATOM     25  C   UNL     1     -54.472  24.307 -12.516  1.00  0.00    -0.000 C 
BRANCH  25  26
ATOM     26  C   UNL     1     -55.479  24.741 -11.437  1.00  0.00    -0.000 C 
BRANCH  26  27
ATOM     27  C   UNL     1     -56.787  25.303 -12.025  1.00  0.00    -0.000 C 
BRANCH  27  28
ATOM     28  C   UNL     1     -57.050  26.789 -11.721  1.00  0.00    -0.000 C 
BRANCH  28  29
ATOM     29  C   UNL     1     -55.993  27.722 -12.328  1.00  0.00    -0.003 C 
ATOM     30  C   UNL     1     -56.628  28.722 -13.290  1.00  0.00     0.004 C 
ENDBRANCH  28  29
ENDBRANCH  27  28
ENDBRANCH  26  27
ENDBRANCH  25  26
ENDBRANCH  24  25
ENDBRANCH  23  24
ENDBRANCH  22  23
ENDBRANCH  21  22
ENDBRANCH  20  21
ENDBRANCH  19  20
ENDBRANCH  18  19
ENDBRANCH  17  18
ENDBRANCH   1  17
TORSDOF 26
ENDMDL
MODEL 3
REMARK VINA RESULT:    -4.682      2.544      4.561
REMARK INTER + INTRA:         -15.681
REMARK INTER:                 -12.268
REMARK INTRA:                  -3.413
REMARK UNBOUND:                -3.883
REMARK SMILES CCCCCCCCCCCCCCCCCCCCCCCCCCCC(=O)[O-]
REMARK SMILES IDX 15 1 16 2 17 3 18 4 19 5 20 6 21 7 22 8 23 9 24 10 25 11
REMARK SMILES IDX 26 12 27 13 28 14 29 15 30 16 14 17 13 18 12 19 11 20 10 21
REMARK SMILES IDX 9 22 8 23 7 24 6 25 5 26 4 27 3 28 2 29 1 30
REMARK H PARENT
REMARK Flexibility Score: inf
ROOT
ATOM      1  C   UNL     1     -50.386  28.044 -14.426  1.00  0.00     0.000 C 
ENDROOT
BRANCH   1   2
ATOM      2  C   UNL     1     -51.563  29.002 -14.672  1.00  0.00     0.000 C 
BRANCH   2   3
ATOM      3  C   UNL     1     -52.906  28.264 -14.797  1.00  0.00     0.000 C 
BRANCH   3   4
ATOM      4  C   UNL     1     -54.097  29.093 -14.287  1.00  0.00     0.000 C 
BRANCH   4   5
ATOM      5  C   UNL     1     -54.741  28.602 -12.975  1.00  0.00     0.000 C 
BRANCH   5   6
ATOM      6  C   UNL     1     -56.204  28.132 -13.119  1.00  0.00     0.000 C 
BRANCH   6   7
ATOM      7  C   UNL     1     -56.680  27.274 -11.932  1.00  0.00     0.000 C 
BRANCH   7   8
ATOM      8  C   UNL     1     -55.602  26.298 -11.427  1.00  0.00     0.000 C 
BRANCH   8   9
ATOM      9  C   UNL     1     -55.400  25.060 -12.327  1.00  0.00     0.000 C 
BRANCH   9  10
ATOM     10  C   UNL     1     -54.528  23.946 -11.712  1.00  0.00     0.000 C 
BRANCH  10  11
ATOM     11  C   UNL     1     -53.391  23.414 -12.609  1.00  0.00     0.000 C 
BRANCH  11  12
ATOM     12  C   UNL     1     -53.377  24.045 -14.013  1.00  0.00     0.006 C 
BRANCH  12  13
ATOM     13  C   UNL     1     -52.027  24.700 -14.342  1.00  0.00     0.053 C 
BRANCH  13  14
ATOM     14  C   UNL     1     -51.063  23.716 -14.932  1.00  0.00     0.041 C 
ATOM     15  O   UNL     1     -51.438  22.545 -15.203  1.00  0.00    -0.550 OA
ATOM     16  O   UNL     1     -49.756  24.103 -15.209  1.00  0.00    -0.550 OA
ENDBRANCH  13  14
ENDBRANCH  12  13
ENDBRANCH  11  12
ENDBRANCH  10  11
ENDBRANCH   9  10
ENDBRANCH   8   9
ENDBRANCH   7   8
ENDBRANCH   6   7
ENDBRANCH   5   6
ENDBRANCH   4   5
ENDBRANCH   3   4
ENDBRANCH   2   3
ENDBRANCH   1   2
BRANCH   1  17
ATOM     17  C   UNL     1     -49.133  28.382 -15.263  1.00  0.00     0.000 C 
BRANCH  17  18
ATOM     18  C   UNL     1     -49.490  28.846 -16.686  1.00  0.00     0.000 C 
BRANCH  18  19
ATOM     19  C   UNL     1     -48.774  28.012 -17.771  1.00  0.00     0.000 C 
BRANCH  19  20
ATOM     20  C   UNL     1     -48.736  26.500 -17.473  1.00  0.00     0.000 C 
BRANCH  20  21
ATOM     21  C   UNL     1     -47.347  25.850 -17.579  1.00  0.00     0.000 C 
BRANCH  21  22
ATOM     22  C   UNL     1     -46.407  26.610 -18.532  1.00  0.00    -0.000 C 
BRANCH  22  23
ATOM     23  C   UNL     1     -44.992  26.007 -18.576  1.00  0.00    -0.000 C 
BRANCH  23  24
ATOM     24  C   UNL     1     -43.856  26.983 -18.218  1.00  0.00    -0.000 C 
BRANCH  24  25
ATOM     25  C   UNL     1     -44.349  28.336 -17.660  1.00  0.00    -0.000 C 
BRANCH  25  26
ATOM     26  C   UNL     1     -43.996  28.519 -16.174  1.00  0.00    -0.000 C 
BRANCH  26  27
ATOM     27  C   UNL     1     -45.126  28.074 -15.228  1.00  0.00    -0.000 C 
BRANCH  27  28
ATOM     28  C   UNL     1     -45.028  26.616 -14.740  1.00  0.00    -0.000 C 
BRANCH  28  29
ATOM     29  C   UNL     1     -46.351  26.085 -14.170  1.00  0.00    -0.003 C 
ATOM     30  C   UNL     1     -46.807  26.914 -12.973  1.00  0.00     0.004 C 
ENDBRANCH  28  29
ENDBRANCH  27  28
ENDBRANCH  26  27
ENDBRANCH  25  26
ENDBRANCH  24  25
ENDBRANCH  23  24
ENDBRANCH  22  23
ENDBRANCH  21  22
ENDBRANCH  20  21
ENDBRANCH  19  20
ENDBRANCH  18  19
ENDBRANCH  17  18
ENDBRANCH   1  17
TORSDOF 26
ENDMDL
MODEL 4
REMARK VINA RESULT:    -4.642      2.704      9.290
REMARK INTER + INTRA:         -15.580
REMARK INTER:                 -12.195
REMARK INTRA:                  -3.385
REMARK UNBOUND:                -3.883
REMARK SMILES CCCCCCCCCCCCCCCCCCCCCCCCCCCC(=O)[O-]
REMARK SMILES IDX 15 1 16 2 17 3 18 4 19 5 20 6 21 7 22 8 23 9 24 10 25 11
REMARK SMILES IDX 26 12 27 13 28 14 29 15 30 16 14 17 13 18 12 19 11 20 10 21
REMARK SMILES IDX 9 22 8 23 7 24 6 25 5 26 4 27 3 28 2 29 1 30
REMARK H PARENT
REMARK Flexibility Score: inf
ROOT
ATOM      1  C   UNL     1     -47.895  24.952 -14.806  1.00  0.00     0.000 C 
ENDROOT
BRANCH   1   2
ATOM      2  C   UNL     1     -47.630  26.289 -14.095  1.00  0.00     0.000 C 
BRANCH   2   3
ATOM      3  C   UNL     1     -46.179  26.415 -13.600  1.00  0.00     0.000 C 
BRANCH   3   4
ATOM      4  C   UNL     1     -45.180  26.693 -14.736  1.00  0.00     0.000 C 
BRANCH   4   5
ATOM      5  C   UNL     1     -44.674  28.146 -14.840  1.00  0.00     0.000 C 
BRANCH   5   6
ATOM      6  C   UNL     1     -44.929  28.814 -16.208  1.00  0.00     0.000 C 
BRANCH   6   7
ATOM      7  C   UNL     1     -43.918  28.381 -17.286  1.00  0.00     0.000 C 
BRANCH   7   8
ATOM      8  C   UNL     1     -44.589  27.751 -18.520  1.00  0.00     0.000 C 
BRANCH   8   9
ATOM      9  C   UNL     1     -45.033  26.286 -18.317  1.00  0.00     0.000 C 
BRANCH   9  10
ATOM     10  C   UNL     1     -46.545  26.094 -18.072  1.00  0.00     0.000 C 
BRANCH  10  11
ATOM     11  C   UNL     1     -47.443  27.283 -18.474  1.00  0.00     0.000 C 
BRANCH  11  12
ATOM     12  C   UNL     1     -48.230  27.879 -17.293  1.00  0.00     0.006 C 
BRANCH  12  13
ATOM     13  C   UNL     1     -49.748  27.794 -17.505  1.00  0.00     0.053 C 
BRANCH  13  14
ATOM     14  C   UNL     1     -50.502  28.432 -16.378  1.00  0.00     0.041 C 
ATOM     15  O   UNL     1     -50.007  28.462 -15.220  1.00  0.00    -0.550 OA
ATOM     16  O   UNL     1     -51.740  29.021 -16.614  1.00  0.00    -0.550 OA
ENDBRANCH  13  14
ENDBRANCH  12  13
ENDBRANCH  11  12
ENDBRANCH  10  11
ENDBRANCH   9  10
ENDBRANCH   8   9
ENDBRANCH   7   8
ENDBRANCH   6   7
ENDBRANCH   5   6
ENDBRANCH   4   5
ENDBRANCH   3   4
ENDBRANCH   2   3
ENDBRANCH   1   2
BRANCH   1  17
ATOM     17  C   UNL     1     -49.268  24.893 -15.512  1.00  0.00     0.000 C 
BRANCH  17  18
ATOM     18  C   UNL     1     -50.370  24.330 -14.597  1.00  0.00     0.000 C 
BRANCH  18  19
ATOM     19  C   UNL     1     -51.744  24.982 -14.866  1.00  0.00     0.000 C 
BRANCH  19  20
ATOM     20  C   UNL     1     -52.892  24.388 -14.026  1.00  0.00     0.000 C 
BRANCH  20  21
ATOM     21  C   UNL     1     -52.462  23.338 -12.988  1.00  0.00     0.000 C 
BRANCH  21  22
ATOM     22  C   UNL     1     -53.643  22.806 -12.157  1.00  0.00    -0.000 C 
BRANCH  22  23
ATOM     23  C   UNL     1     -54.240  23.872 -11.222  1.00  0.00    -0.000 C 
BRANCH  23  24
ATOM     24  C   UNL     1     -55.776  23.971 -11.243  1.00  0.00    -0.000 C 
BRANCH  24  25
ATOM     25  C   UNL     1     -56.316  25.112 -12.132  1.00  0.00    -0.000 C 
BRANCH  25  26
ATOM     26  C   UNL     1     -55.844  26.497 -11.656  1.00  0.00    -0.000 C 
BRANCH  26  27
ATOM     27  C   UNL     1     -56.811  27.629 -12.048  1.00  0.00    -0.000 C 
BRANCH  27  28
ATOM     28  C   UNL     1     -56.317  28.542 -13.186  1.00  0.00    -0.000 C 
BRANCH  28  29
ATOM     29  C   UNL     1     -54.858  28.989 -13.006  1.00  0.00    -0.003 C 
ATOM     30  C   UNL     1     -53.945  28.309 -14.021  1.00  0.00     0.004 C 
ENDBRANCH  28  29
ENDBRANCH  27  28
ENDBRANCH  26  27
ENDBRANCH  25  26
ENDBRANCH  24  25
ENDBRANCH  23  24
ENDBRANCH  22  23
ENDBRANCH  21  22
ENDBRANCH  20  21
ENDBRANCH  19  20
ENDBRANCH  18  19
ENDBRANCH  17  18
ENDBRANCH   1  17
TORSDOF 26
ENDMDL
MODEL 5
REMARK VINA RESULT:    -4.637      4.049     10.020
REMARK INTER + INTRA:         -15.569
REMARK INTER:                 -11.607
REMARK INTRA:                  -3.962
REMARK UNBOUND:                -3.883
REMARK SMILES CCCCCCCCCCCCCCCCCCCCCCCCCCCC(=O)[O-]
REMARK SMILES IDX 15 1 16 2 17 3 18 4 19 5 20 6 21 7 22 8 23 9 24 10 25 11
REMARK SMILES IDX 26 12 27 13 28 14 29 15 30 16 14 17 13 18 12 19 11 20 10 21
REMARK SMILES IDX 9 22 8 23 7 24 6 25 5 26 4 27 3 28 2 29 1 30
REMARK H PARENT
REMARK Flexibility Score: inf
ROOT
ATOM      1  C   UNL     1     -51.710  24.998 -15.123  1.00  0.00     0.000 C 
ENDROOT
BRANCH   1   2
ATOM      2  C   UNL     1     -50.364  24.256 -15.124  1.00  0.00     0.000 C 
BRANCH   2   3
ATOM      3  C   UNL     1     -49.163  25.214 -15.063  1.00  0.00     0.000 C 
BRANCH   3   4
ATOM      4  C   UNL     1     -48.430  25.345 -16.408  1.00  0.00     0.000 C 
BRANCH   4   5
ATOM      5  C   UNL     1     -48.941  26.459 -17.343  1.00  0.00     0.000 C 
BRANCH   5   6
ATOM      6  C   UNL     1     -48.215  27.811 -17.181  1.00  0.00     0.000 C 
BRANCH   6   7
ATOM      7  C   UNL     1     -48.716  28.621 -15.971  1.00  0.00     0.000 C 
BRANCH   7   8
ATOM      8  C   UNL     1     -47.576  29.094 -15.052  1.00  0.00     0.000 C 
BRANCH   8   9
ATOM      9  C   UNL     1     -47.231  28.106 -13.916  1.00  0.00     0.000 C 
BRANCH   9  10
ATOM     10  C   UNL     1     -45.946  27.281 -14.143  1.00  0.00     0.000 C 
BRANCH  10  11
ATOM     11  C   UNL     1     -45.110  27.671 -15.380  1.00  0.00     0.000 C 
BRANCH  11  12
ATOM     12  C   UNL     1     -44.875  26.500 -16.350  1.00  0.00     0.006 C 
BRANCH  12  13
ATOM     13  C   UNL     1     -44.274  26.963 -17.685  1.00  0.00     0.053 C 
BRANCH  13  14
ATOM     14  C   UNL     1     -44.970  26.336 -18.854  1.00  0.00     0.041 C 
ATOM     15  O   UNL     1     -45.780  25.388 -18.676  1.00  0.00    -0.550 OA
ATOM     16  O   UNL     1     -44.745  26.818 -20.139  1.00  0.00    -0.550 OA
ENDBRANCH  13  14
ENDBRANCH  12  13
ENDBRANCH  11  12
ENDBRANCH  10  11
ENDBRANCH   9  10
ENDBRANCH   8   9
ENDBRANCH   7   8
ENDBRANCH   6   7
ENDBRANCH   5   6
ENDBRANCH   4   5
ENDBRANCH   3   4
ENDBRANCH   2   3
ENDBRANCH   1   2
BRANCH   1  17
ATOM     17  C   UNL     1     -51.585  26.499 -14.776  1.00  0.00     0.000 C 
BRANCH  17  18
ATOM     18  C   UNL     1     -52.151  27.403 -15.885  1.00  0.00     0.000 C 
BRANCH  18  19
ATOM     19  C   UNL     1     -52.570  28.791 -15.352  1.00  0.00     0.000 C 
BRANCH  19  20
ATOM     20  C   UNL     1     -54.032  28.858 -14.870  1.00  0.00     0.000 C 
BRANCH  20  21
ATOM     21  C   UNL     1     -54.217  28.805 -13.344  1.00  0.00     0.000 C 
BRANCH  21  22
ATOM     22  C   UNL     1     -55.127  27.648 -12.896  1.00  0.00    -0.000 C 
BRANCH  22  23
ATOM     23  C   UNL     1     -56.184  28.087 -11.867  1.00  0.00    -0.000 C 
BRANCH  23  24
ATOM     24  C   UNL     1     -57.385  27.135 -11.719  1.00  0.00    -0.000 C 
BRANCH  24  25
ATOM     25  C   UNL     1     -56.989  25.648 -11.582  1.00  0.00    -0.000 C 
BRANCH  25  26
ATOM     26  C   UNL     1     -56.216  25.367 -10.282  1.00  0.00    -0.000 C 
BRANCH  26  27
ATOM     27  C   UNL     1     -54.900  24.603 -10.517  1.00  0.00    -0.000 C 
BRANCH  27  28
ATOM     28  C   UNL     1     -54.998  23.431 -11.511  1.00  0.00    -0.000 C 
BRANCH  28  29
ATOM     29  C   UNL     1     -53.937  23.494 -12.620  1.00  0.00    -0.003 C 
ATOM     30  C   UNL     1     -52.569  23.064 -12.098  1.00  0.00     0.004 C 
ENDBRANCH  28  29
ENDBRANCH  27  28
ENDBRANCH  26  27
ENDBRANCH  25  26
ENDBRANCH  24  25
ENDBRANCH  23  24
ENDBRANCH  22  23
ENDBRANCH  21  22
ENDBRANCH  20  21
ENDBRANCH  19  20
ENDBRANCH  18  19
ENDBRANCH  17  18
ENDBRANCH   1  17
TORSDOF 26
ENDMDL
MODEL 6
REMARK VINA RESULT:    -4.620      1.770      5.015
REMARK INTER + INTRA:         -15.524
REMARK INTER:                 -11.683
REMARK INTRA:                  -3.841
REMARK UNBOUND:                -3.883
REMARK SMILES CCCCCCCCCCCCCCCCCCCCCCCCCCCC(=O)[O-]
REMARK SMILES IDX 15 1 16 2 17 3 18 4 19 5 20 6 21 7 22 8 23 9 24 10 25 11
REMARK SMILES IDX 26 12 27 13 28 14 29 15 30 16 14 17 13 18 12 19 11 20 10 21
REMARK SMILES IDX 9 22 8 23 7 24 6 25 5 26 4 27 3 28 2 29 1 30
REMARK H PARENT
REMARK Flexibility Score: inf
ROOT
ATOM      1  C   UNL     1     -52.230  27.266 -15.408  1.00  0.00     0.000 C 
ENDROOT
BRANCH   1   2
ATOM      2  C   UNL     1     -52.249  26.017 -14.512  1.00  0.00     0.000 C 
BRANCH   2   3
ATOM      3  C   UNL     1     -51.435  24.855 -15.103  1.00  0.00     0.000 C 
BRANCH   3   4
ATOM      4  C   UNL     1     -51.715  23.511 -14.409  1.00  0.00     0.000 C 
BRANCH   4   5
ATOM      5  C   UNL     1     -53.025  23.436 -13.599  1.00  0.00     0.000 C 
BRANCH   5   6
ATOM      6  C   UNL     1     -52.831  23.128 -12.099  1.00  0.00     0.000 C 
BRANCH   6   7
ATOM      7  C   UNL     1     -54.028  23.564 -11.235  1.00  0.00     0.000 C 
BRANCH   7   8
ATOM      8  C   UNL     1     -54.918  24.612 -11.928  1.00  0.00     0.000 C 
BRANCH   8   9
ATOM      9  C   UNL     1     -56.102  25.103 -11.066  1.00  0.00     0.000 C 
BRANCH   9  10
ATOM     10  C   UNL     1     -57.299  25.659 -11.865  1.00  0.00     0.000 C 
BRANCH  10  11
ATOM     11  C   UNL     1     -58.101  26.781 -11.174  1.00  0.00     0.000 C 
BRANCH  11  12
ATOM     12  C   UNL     1     -57.580  28.193 -11.500  1.00  0.00     0.006 C 
BRANCH  12  13
ATOM     13  C   UNL     1     -57.055  28.299 -12.940  1.00  0.00     0.053 C 
BRANCH  13  14
ATOM     14  C   UNL     1     -55.588  28.602 -12.974  1.00  0.00     0.041 C 
ATOM     15  O   UNL     1     -55.033  28.928 -14.057  1.00  0.00    -0.550 OA
ATOM     16  O   UNL     1     -54.838  28.551 -11.804  1.00  0.00    -0.550 OA
ENDBRANCH  13  14
ENDBRANCH  12  13
ENDBRANCH  11  12
ENDBRANCH  10  11
ENDBRANCH   9  10
ENDBRANCH   8   9
ENDBRANCH   7   8
ENDBRANCH   6   7
ENDBRANCH   5   6
ENDBRANCH   4   5
ENDBRANCH   3   4
ENDBRANCH   2   3
ENDBRANCH   1   2
BRANCH   1  17
ATOM     17  C   UNL     1     -51.770  26.977 -16.855  1.00  0.00     0.000 C 
BRANCH  17  18
ATOM     18  C   UNL     1     -50.754  28.016 -17.361  1.00  0.00     0.000 C 
BRANCH  18  19
ATOM     19  C   UNL     1     -49.990  28.700 -16.205  1.00  0.00     0.000 C 
BRANCH  19  20
ATOM     20  C   UNL     1     -48.496  28.326 -16.137  1.00  0.00     0.000 C 
BRANCH  20  21
ATOM     21  C   UNL     1     -48.095  27.096 -16.969  1.00  0.00     0.000 C 
BRANCH  21  22
ATOM     22  C   UNL     1     -48.134  25.790 -16.155  1.00  0.00    -0.000 C 
BRANCH  22  23
ATOM     23  C   UNL     1     -48.012  26.030 -14.641  1.00  0.00    -0.000 C 
BRANCH  23  24
ATOM     24  C   UNL     1     -46.594  25.855 -14.066  1.00  0.00    -0.000 C 
BRANCH  24  25
ATOM     25  C   UNL     1     -46.107  27.058 -13.229  1.00  0.00    -0.000 C 
BRANCH  25  26
ATOM     26  C   UNL     1     -45.441  28.141 -14.095  1.00  0.00    -0.000 C 
BRANCH  26  27
ATOM     27  C   UNL     1     -44.621  27.559 -15.261  1.00  0.00    -0.000 C 
BRANCH  27  28
ATOM     28  C   UNL     1     -44.328  28.547 -16.406  1.00  0.00    -0.000 C 
BRANCH  28  29
ATOM     29  C   UNL     1     -44.667  27.977 -17.791  1.00  0.00    -0.003 C 
ATOM     30  C   UNL     1     -44.617  26.452 -17.786  1.00  0.00     0.004 C 
ENDBRANCH  28  29
ENDBRANCH  27  28
ENDBRANCH  26  27
ENDBRANCH  25  26
ENDBRANCH  24  25
ENDBRANCH  23  24
ENDBRANCH  22  23
ENDBRANCH  21  22
ENDBRANCH  20  21
ENDBRANCH  19  20
ENDBRANCH  18  19
ENDBRANCH  17  18
ENDBRANCH   1  17
TORSDOF 26
ENDMDL
MODEL 7
REMARK VINA RESULT:    -4.610      2.006      4.134
REMARK INTER + INTRA:         -15.500
REMARK INTER:                 -11.836
REMARK INTRA:                  -3.664
REMARK UNBOUND:                -3.883
REMARK SMILES CCCCCCCCCCCCCCCCCCCCCCCCCCCC(=O)[O-]
REMARK SMILES IDX 15 1 16 2 17 3 18 4 19 5 20 6 21 7 22 8 23 9 24 10 25 11
REMARK SMILES IDX 26 12 27 13 28 14 29 15 30 16 14 17 13 18 12 19 11 20 10 21
REMARK SMILES IDX 9 22 8 23 7 24 6 25 5 26 4 27 3 28 2 29 1 30
REMARK H PARENT
REMARK Flexibility Score: inf
ROOT
ATOM      1  C   UNL     1     -50.429  24.390 -14.903  1.00  0.00     0.000 C 
ENDROOT
BRANCH   1   2
ATOM      2  C   UNL     1     -51.757  25.134 -15.116  1.00  0.00     0.000 C 
BRANCH   2   3
ATOM      3  C   UNL     1     -51.689  26.601 -14.660  1.00  0.00     0.000 C 
BRANCH   3   4
ATOM      4  C   UNL     1     -52.386  27.566 -15.634  1.00  0.00     0.000 C 
BRANCH   4   5
ATOM      5  C   UNL     1     -52.906  28.880 -15.016  1.00  0.00     0.000 C 
BRANCH   5   6
ATOM      6  C   UNL     1     -54.404  28.861 -14.643  1.00  0.00     0.000 C 
BRANCH   6   7
ATOM      7  C   UNL     1     -54.644  28.784 -13.124  1.00  0.00     0.000 C 
BRANCH   7   8
ATOM      8  C   UNL     1     -55.303  27.463 -12.687  1.00  0.00     0.000 C 
BRANCH   8   9
ATOM      9  C   UNL     1     -55.770  27.448 -11.215  1.00  0.00     0.000 C 
BRANCH   9  10
ATOM     10  C   UNL     1     -55.532  26.116 -10.473  1.00  0.00     0.000 C 
BRANCH  10  11
ATOM     11  C   UNL     1     -56.312  24.900 -11.016  1.00  0.00     0.000 C 
BRANCH  11  12
ATOM     12  C   UNL     1     -55.582  23.562 -10.800  1.00  0.00     0.006 C 
BRANCH  12  13
ATOM     13  C   UNL     1     -54.057  23.734 -10.747  1.00  0.00     0.053 C 
BRANCH  13  14
ATOM     14  C   UNL     1     -53.417  23.424 -12.065  1.00  0.00     0.041 C 
ATOM     15  O   UNL     1     -52.333  22.783 -12.110  1.00  0.00    -0.550 OA
ATOM     16  O   UNL     1     -54.033  23.818 -13.248  1.00  0.00    -0.550 OA
ENDBRANCH  13  14
ENDBRANCH  12  13
ENDBRANCH  11  12
ENDBRANCH  10  11
ENDBRANCH   9  10
ENDBRANCH   8   9
ENDBRANCH   7   8
ENDBRANCH   6   7
ENDBRANCH   5   6
ENDBRANCH   4   5
ENDBRANCH   3   4
ENDBRANCH   2   3
ENDBRANCH   1   2
BRANCH   1  17
ATOM     17  C   UNL     1     -49.206  25.134 -15.484  1.00  0.00     0.000 C 
BRANCH  17  18
ATOM     18  C   UNL     1     -48.007  25.125 -14.521  1.00  0.00     0.000 C 
BRANCH  18  19
ATOM     19  C   UNL     1     -47.414  26.536 -14.310  1.00  0.00     0.000 C 
BRANCH  19  20
ATOM     20  C   UNL     1     -48.446  27.582 -13.842  1.00  0.00     0.000 C 
BRANCH  20  21
ATOM     21  C   UNL     1     -48.608  28.796 -14.772  1.00  0.00     0.000 C 
BRANCH  21  22
ATOM     22  C   UNL     1     -47.845  28.635 -16.099  1.00  0.00    -0.000 C 
BRANCH  22  23
ATOM     23  C   UNL     1     -48.760  28.224 -17.265  1.00  0.00    -0.000 C 
BRANCH  23  24
ATOM     24  C   UNL     1     -48.059  27.466 -18.407  1.00  0.00    -0.000 C 
BRANCH  24  25
ATOM     25  C   UNL     1     -46.995  26.456 -17.925  1.00  0.00    -0.000 C 
BRANCH  25  26
ATOM     26  C   UNL     1     -45.700  26.532 -18.752  1.00  0.00    -0.000 C 
BRANCH  26  27
ATOM     27  C   UNL     1     -44.460  26.857 -17.899  1.00  0.00    -0.000 C 
BRANCH  27  28
ATOM     28  C   UNL     1     -44.084  28.349 -17.842  1.00  0.00    -0.000 C 
BRANCH  28  29
ATOM     29  C   UNL     1     -44.078  28.912 -16.414  1.00  0.00    -0.003 C 
ATOM     30  C   UNL     1     -44.384  27.822 -15.391  1.00  0.00     0.004 C 
ENDBRANCH  28  29
ENDBRANCH  27  28
ENDBRANCH  26  27
ENDBRANCH  25  26
ENDBRANCH  24  25
ENDBRANCH  23  24
ENDBRANCH  22  23
ENDBRANCH  21  22
ENDBRANCH  20  21
ENDBRANCH  19  20
ENDBRANCH  18  19
ENDBRANCH  17  18
ENDBRANCH   1  17
TORSDOF 26
ENDMDL
MODEL 8
REMARK VINA RESULT:    -4.574      3.160      9.499
REMARK INTER + INTRA:         -15.408
REMARK INTER:                 -12.059
REMARK INTRA:                  -3.349
REMARK UNBOUND:                -3.883
REMARK SMILES CCCCCCCCCCCCCCCCCCCCCCCCCCCC(=O)[O-]
REMARK SMILES IDX 15 1 16 2 17 3 18 4 19 5 20 6 21 7 22 8 23 9 24 10 25 11
REMARK SMILES IDX 26 12 27 13 28 14 29 15 30 16 14 17 13 18 12 19 11 20 10 21
REMARK SMILES IDX 9 22 8 23 7 24 6 25 5 26 4 27 3 28 2 29 1 30
REMARK H PARENT
REMARK Flexibility Score: inf
ROOT
ATOM      1  C   UNL     1     -50.061  26.844 -14.865  1.00  0.00     0.000 C 
ENDROOT
BRANCH   1   2
ATOM      2  C   UNL     1     -50.380  28.151 -15.607  1.00  0.00     0.000 C 
BRANCH   2   3
ATOM      3  C   UNL     1     -49.126  29.002 -15.867  1.00  0.00     0.000 C 
BRANCH   3   4
ATOM      4  C   UNL     1     -48.268  28.469 -17.027  1.00  0.00     0.000 C 
BRANCH   4   5
ATOM      5  C   UNL     1     -48.996  27.555 -18.032  1.00  0.00     0.000 C 
BRANCH   5   6
ATOM      6  C   UNL     1     -48.423  26.125 -18.125  1.00  0.00     0.000 C 
BRANCH   6   7
ATOM      7  C   UNL     1     -47.051  25.981 -17.442  1.00  0.00     0.000 C 
BRANCH   7   8
ATOM      8  C   UNL     1     -45.898  25.791 -18.444  1.00  0.00     0.000 C 
BRANCH   8   9
ATOM      9  C   UNL     1     -44.594  26.521 -18.051  1.00  0.00     0.000 C 
BRANCH   9  10
ATOM     10  C   UNL     1     -44.796  27.923 -17.438  1.00  0.00     0.000 C 
BRANCH  10  11
ATOM     11  C   UNL     1     -44.250  28.111 -16.007  1.00  0.00     0.000 C 
BRANCH  11  12
ATOM     12  C   UNL     1     -45.322  27.929 -14.917  1.00  0.00     0.006 C 
BRANCH  12  13
ATOM     13  C   UNL     1     -45.362  26.493 -14.376  1.00  0.00     0.053 C 
BRANCH  13  14
ATOM     14  C   UNL     1     -46.626  26.220 -13.619  1.00  0.00     0.041 C 
ATOM     15  O   UNL     1     -47.139  25.069 -13.634  1.00  0.00    -0.550 OA
ATOM     16  O   UNL     1     -47.222  27.231 -12.872  1.00  0.00    -0.550 OA
ENDBRANCH  13  14
ENDBRANCH  12  13
ENDBRANCH  11  12
ENDBRANCH  10  11
ENDBRANCH   9  10
ENDBRANCH   8   9
ENDBRANCH   7   8
ENDBRANCH   6   7
ENDBRANCH   5   6
ENDBRANCH   4   5
ENDBRANCH   3   4
ENDBRANCH   2   3
ENDBRANCH   1   2
BRANCH   1  17
ATOM     17  C   UNL     1     -51.023  25.686 -15.214  1.00  0.00     0.000 C 
BRANCH  17  18
ATOM     18  C   UNL     1     -50.356  24.309 -15.066  1.00  0.00     0.000 C 
BRANCH  18  19
ATOM     19  C   UNL     1     -51.379  23.192 -14.757  1.00  0.00     0.000 C 
BRANCH  19  20
ATOM     20  C   UNL     1     -52.613  23.677 -13.971  1.00  0.00     0.000 C 
BRANCH  20  21
ATOM     21  C   UNL     1     -52.732  23.123 -12.541  1.00  0.00     0.000 C 
BRANCH  21  22
ATOM     22  C   UNL     1     -54.132  23.332 -11.938  1.00  0.00    -0.000 C 
BRANCH  22  23
ATOM     23  C   UNL     1     -54.750  24.686 -12.327  1.00  0.00    -0.000 C 
BRANCH  23  24
ATOM     24  C   UNL     1     -55.744  25.267 -11.304  1.00  0.00    -0.000 C 
BRANCH  24  25
ATOM     25  C   UNL     1     -57.115  25.640 -11.908  1.00  0.00    -0.000 C 
BRANCH  25  26
ATOM     26  C   UNL     1     -57.554  27.064 -11.527  1.00  0.00    -0.000 C 
BRANCH  26  27
ATOM     27  C   UNL     1     -56.411  28.091 -11.620  1.00  0.00    -0.000 C 
BRANCH  27  28
ATOM     28  C   UNL     1     -55.962  28.436 -13.052  1.00  0.00    -0.000 C 
BRANCH  28  29
ATOM     29  C   UNL     1     -54.452  28.693 -13.161  1.00  0.00    -0.003 C 
ATOM     30  C   UNL     1     -53.982  28.610 -14.611  1.00  0.00     0.004 C 
ENDBRANCH  28  29
ENDBRANCH  27  28
ENDBRANCH  26  27
ENDBRANCH  25  26
ENDBRANCH  24  25
ENDBRANCH  23  24
ENDBRANCH  22  23
ENDBRANCH  21  22
ENDBRANCH  20  21
ENDBRANCH  19  20
ENDBRANCH  18  19
ENDBRANCH  17  18
ENDBRANCH   1  17
TORSDOF 26
ENDMDL
MODEL 9
REMARK VINA RESULT:    -4.506      3.583      9.888
REMARK INTER + INTRA:         -15.239
REMARK INTER:                 -12.029
REMARK INTRA:                  -3.209
REMARK UNBOUND:                -3.883
REMARK SMILES CCCCCCCCCCCCCCCCCCCCCCCCCCCC(=O)[O-]
REMARK SMILES IDX 15 1 16 2 17 3 18 4 19 5 20 6 21 7 22 8 23 9 24 10 25 11
REMARK SMILES IDX 26 12 27 13 28 14 29 15 30 16 14 17 13 18 12 19 11 20 10 21
REMARK SMILES IDX 9 22 8 23 7 24 6 25 5 26 4 27 3 28 2 29 1 30
REMARK H PARENT
REMARK Flexibility Score: inf
ROOT
ATOM      1  C   UNL     1     -51.866  26.570 -14.733  1.00  0.00     0.000 C 
ENDROOT
BRANCH   1   2
ATOM      2  C   UNL     1     -52.493  27.669 -15.606  1.00  0.00     0.000 C 
BRANCH   2   3
ATOM      3  C   UNL     1     -51.489  28.773 -15.975  1.00  0.00     0.000 C 
BRANCH   3   4
ATOM      4  C   UNL     1     -50.144  28.219 -16.476  1.00  0.00     0.000 C 
BRANCH   4   5
ATOM      5  C   UNL     1     -48.915  28.563 -15.610  1.00  0.00     0.000 C 
BRANCH   5   6
ATOM      6  C   UNL     1     -48.753  27.680 -14.355  1.00  0.00     0.000 C 
BRANCH   6   7
ATOM      7  C   UNL     1     -48.167  26.291 -14.667  1.00  0.00     0.000 C 
BRANCH   7   8
ATOM      8  C   UNL     1     -46.909  25.970 -13.840  1.00  0.00     0.000 C 
BRANCH   8   9
ATOM      9  C   UNL     1     -46.236  27.209 -13.210  1.00  0.00     0.000 C 
BRANCH   9  10
ATOM     10  C   UNL     1     -45.220  27.928 -14.122  1.00  0.00     0.000 C 
BRANCH  10  11
ATOM     11  C   UNL     1     -44.596  27.066 -15.239  1.00  0.00     0.000 C 
BRANCH  11  12
ATOM     12  C   UNL     1     -44.898  27.590 -16.654  1.00  0.00     0.006 C 
BRANCH  12  13
ATOM     13  C   UNL     1     -45.163  26.452 -17.650  1.00  0.00     0.053 C 
BRANCH  13  14
ATOM     14  C   UNL     1     -46.607  26.385 -18.046  1.00  0.00     0.041 C 
ATOM     15  O   UNL     1     -47.222  27.432 -18.381  1.00  0.00    -0.550 OA
ATOM     16  O   UNL     1     -47.265  25.161 -18.072  1.00  0.00    -0.550 OA
ENDBRANCH  13  14
ENDBRANCH  12  13
ENDBRANCH  11  12
ENDBRANCH  10  11
ENDBRANCH   9  10
ENDBRANCH   8   9
ENDBRANCH   7   8
ENDBRANCH   6   7
ENDBRANCH   5   6
ENDBRANCH   4   5
ENDBRANCH   3   4
ENDBRANCH   2   3
ENDBRANCH   1   2
BRANCH   1  17
ATOM     17  C   UNL     1     -52.229  25.139 -15.190  1.00  0.00     0.000 C 
BRANCH  17  18
ATOM     18  C   UNL     1     -51.226  24.092 -14.677  1.00  0.00     0.000 C 
BRANCH  18  19
ATOM     19  C   UNL     1     -51.813  23.226 -13.539  1.00  0.00     0.000 C 
BRANCH  19  20
ATOM     20  C   UNL     1     -53.264  23.589 -13.165  1.00  0.00     0.000 C 
BRANCH  20  21
ATOM     21  C   UNL     1     -53.818  22.861 -11.928  1.00  0.00     0.000 C 
BRANCH  21  22
ATOM     22  C   UNL     1     -53.699  23.698 -10.643  1.00  0.00    -0.000 C 
BRANCH  22  23
ATOM     23  C   UNL     1     -55.056  24.231 -10.153  1.00  0.00    -0.000 C 
BRANCH  23  24
ATOM     24  C   UNL     1     -55.409  25.652 -10.630  1.00  0.00    -0.000 C 
BRANCH  24  25
ATOM     25  C   UNL     1     -56.320  25.684 -11.876  1.00  0.00    -0.000 C 
BRANCH  25  26
ATOM     26  C   UNL     1     -57.396  26.781 -11.786  1.00  0.00    -0.000 C 
BRANCH  26  27
ATOM     27  C   UNL     1     -56.817  28.202 -11.904  1.00  0.00    -0.000 C 
BRANCH  27  28
ATOM     28  C   UNL     1     -56.848  28.802 -13.322  1.00  0.00    -0.000 C 
BRANCH  28  29
ATOM     29  C   UNL     1     -55.449  29.123 -13.868  1.00  0.00    -0.003 C 
ATOM     30  C   UNL     1     -54.403  29.086 -12.757  1.00  0.00     0.004 C 
ENDBRANCH  28  29
ENDBRANCH  27  28
ENDBRANCH  26  27
ENDBRANCH  25  26
ENDBRANCH  24  25
ENDBRANCH  23  24
ENDBRANCH  22  23
ENDBRANCH  21  22
ENDBRANCH  20  21
ENDBRANCH  19  20
ENDBRANCH  18  19
ENDBRANCH  17  18
ENDBRANCH   1  17
TORSDOF 26
ENDMDL
