MODEL 1
REMARK VINA RESULT:    -4.425      0.000      0.000
REMARK INTER + INTRA:          -4.878
REMARK INTER:                  -4.813
REMARK INTRA:                  -0.065
REMARK UNBOUND:                -0.065
REMARK SMILES CCc1cccc(O)c1
REMARK SMILES IDX 3 1 9 2 7 3 6 4 5 5 4 6 2 7 1 8 8 9
REMARK H PARENT 8 10
REMARK Flexibility Score: inf
ROOT
ATOM      1  C   UNL     1     -28.071 -51.192  51.486  1.00  0.00    -0.045 A 
ATOM      2  C   UNL     1     -27.303 -50.973  52.641  1.00  0.00     0.049 A 
ATOM      3  C   UNL     1     -26.592 -52.026  53.228  1.00  0.00     0.115 A 
ATOM      4  C   UNL     1     -26.652 -53.307  52.664  1.00  0.00     0.046 A 
ATOM      5  C   UNL     1     -27.424 -53.534  51.521  1.00  0.00     0.004 A 
ATOM      6  C   UNL     1     -28.136 -52.483  50.936  1.00  0.00     0.004 A 
ENDROOT
BRANCH   1   7
ATOM      7  C   UNL     1     -28.863 -50.066  50.875  1.00  0.00     0.032 C 
ATOM      8  C   UNL     1     -30.353 -50.390  50.878  1.00  0.00     0.009 C 
ENDBRANCH   1   7
BRANCH   3   9
ATOM      9  O   UNL     1     -25.831 -51.788  54.371  1.00  0.00    -0.508 OA
ATOM     10  H   UNL     1     -25.083 -51.105  54.376  1.00  0.00     0.293 HD
ENDBRANCH   3   9
TORSDOF 2
ENDMDL
MODEL 2
REMARK VINA RESULT:    -4.275      1.971      3.090
REMARK INTER + INTRA:          -4.715
REMARK INTER:                  -4.664
REMARK INTRA:                  -0.051
REMARK UNBOUND:                -0.065
REMARK SMILES CCc1cccc(O)c1
REMARK SMILES IDX 3 1 9 2 7 3 6 4 5 5 4 6 2 7 1 8 8 9
REMARK H PARENT 8 10
REMARK Flexibility Score: inf
ROOT
ATOM      1  C   UNL     1     -26.940 -52.599  53.545  1.00  0.00    -0.045 A 
ATOM      2  C   UNL     1     -26.226 -51.480  54.001  1.00  0.00     0.049 A 
ATOM      3  C   UNL     1     -25.847 -51.380  55.345  1.00  0.00     0.115 A 
ATOM      4  C   UNL     1     -26.191 -52.401  56.242  1.00  0.00     0.046 A 
ATOM      5  C   UNL     1     -26.913 -53.512  55.796  1.00  0.00     0.004 A 
ATOM      6  C   UNL     1     -27.292 -53.610  54.455  1.00  0.00     0.004 A 
ENDROOT
BRANCH   1   7
ATOM      7  C   UNL     1     -27.376 -52.688  52.106  1.00  0.00     0.032 C 
ATOM      8  C   UNL     1     -27.872 -51.335  51.607  1.00  0.00     0.009 C 
ENDBRANCH   1   7
BRANCH   3   9
ATOM      9  O   UNL     1     -25.134 -50.266  55.778  1.00  0.00    -0.508 OA
ATOM     10  H   UNL     1     -24.173 -50.341  56.090  1.00  0.00     0.293 HD
ENDBRANCH   3   9
TORSDOF 2
ENDMDL
MODEL 3
REMARK VINA RESULT:    -4.199      2.189      3.527
REMARK INTER + INTRA:          -4.632
REMARK INTER:                  -4.565
REMARK INTRA:                  -0.066
REMARK UNBOUND:                -0.065
REMARK SMILES CCc1cccc(O)c1
REMARK SMILES IDX 3 1 9 2 7 3 6 4 5 5 4 6 2 7 1 8 8 9
REMARK H PARENT 8 10
REMARK Flexibility Score: inf
ROOT
ATOM      1  C   UNL     1     -26.829 -52.629  53.587  1.00  0.00    -0.045 A 
ATOM      2  C   UNL     1     -27.170 -53.435  54.685  1.00  0.00     0.049 A 
ATOM      3  C   UNL     1     -26.761 -53.084  55.976  1.00  0.00     0.115 A 
ATOM      4  C   UNL     1     -25.998 -51.925  56.174  1.00  0.00     0.046 A 
ATOM      5  C   UNL     1     -25.644 -51.125  55.084  1.00  0.00     0.004 A 
ATOM      6  C   UNL     1     -26.051 -51.476  53.794  1.00  0.00     0.004 A 
ENDROOT
BRANCH   1   7
ATOM      7  C   UNL     1     -27.241 -53.026  52.194  1.00  0.00     0.032 C 
ATOM      8  C   UNL     1     -27.841 -51.840  51.449  1.00  0.00     0.009 C 
ENDBRANCH   1   7
BRANCH   3   9
ATOM      9  O   UNL     1     -27.115 -53.893  57.053  1.00  0.00    -0.508 OA
ATOM     10  H   UNL     1     -27.388 -53.497  57.946  1.00  0.00     0.293 HD
ENDBRANCH   3   9
TORSDOF 2
ENDMDL
MODEL 4
REMARK VINA RESULT:    -4.066      2.409      4.154
REMARK INTER + INTRA:          -4.488
REMARK INTER:                  -4.418
REMARK INTRA:                  -0.070
REMARK UNBOUND:                -0.065
REMARK SMILES CCc1cccc(O)c1
REMARK SMILES IDX 3 1 9 2 7 3 6 4 5 5 4 6 2 7 1 8 8 9
REMARK H PARENT 8 10
REMARK Flexibility Score: inf
ROOT
ATOM      1  C   UNL     1     -28.163 -52.118  51.857  1.00  0.00    -0.045 A 
ATOM      2  C   UNL     1     -29.456 -52.663  51.872  1.00  0.00     0.049 A 
ATOM      3  C   UNL     1     -30.541 -51.927  51.382  1.00  0.00     0.115 A 
ATOM      4  C   UNL     1     -30.335 -50.634  50.881  1.00  0.00     0.046 A 
ATOM      5  C   UNL     1     -29.051 -50.081  50.875  1.00  0.00     0.004 A 
ATOM      6  C   UNL     1     -27.969 -50.816  51.366  1.00  0.00     0.004 A 
ENDROOT
BRANCH   1   7
ATOM      7  C   UNL     1     -27.003 -52.899  52.417  1.00  0.00     0.032 C 
ATOM      8  C   UNL     1     -26.146 -52.020  53.321  1.00  0.00     0.009 C 
ENDBRANCH   1   7
BRANCH   3   9
ATOM      9  O   UNL     1     -31.816 -52.486  51.399  1.00  0.00    -0.508 OA
ATOM     10  H   UNL     1     -32.536 -52.145  52.026  1.00  0.00     0.293 HD
ENDBRANCH   3   9
TORSDOF 2
ENDMDL
MODEL 5
REMARK VINA RESULT:    -4.060      2.716      4.304
REMARK INTER + INTRA:          -4.481
REMARK INTER:                  -4.406
REMARK INTRA:                  -0.075
REMARK UNBOUND:                -0.065
REMARK SMILES CCc1cccc(O)c1
REMARK SMILES IDX 3 1 9 2 7 3 6 4 5 5 4 6 2 7 1 8 8 9
REMARK H PARENT 8 10
REMARK Flexibility Score: inf
ROOT
ATOM      1  C   UNL     1     -26.523 -52.444  55.076  1.00  0.00    -0.045 A 
ATOM      2  C   UNL     1     -27.417 -53.518  55.205  1.00  0.00     0.049 A 
ATOM      3  C   UNL     1     -28.059 -54.045  54.078  1.00  0.00     0.115 A 
ATOM      4  C   UNL     1     -27.812 -53.491  52.814  1.00  0.00     0.046 A 
ATOM      5  C   UNL     1     -26.932 -52.413  52.681  1.00  0.00     0.004 A 
ATOM      6  C   UNL     1     -26.293 -51.886  53.807  1.00  0.00     0.004 A 
ENDROOT
BRANCH   1   7
ATOM      7  C   UNL     1     -25.860 -51.856  56.294  1.00  0.00     0.032 C 
ATOM      8  C   UNL     1     -25.362 -50.444  56.010  1.00  0.00     0.009 C 
ENDBRANCH   1   7
BRANCH   3   9
ATOM      9  O   UNL     1     -28.938 -55.115  54.225  1.00  0.00    -0.508 OA
ATOM     10  H   UNL     1     -29.683 -55.098  54.912  1.00  0.00     0.293 HD
ENDBRANCH   3   9
TORSDOF 2
ENDMDL
MODEL 6
REMARK VINA RESULT:    -4.015      2.631      3.478
REMARK INTER + INTRA:          -4.431
REMARK INTER:                  -4.381
REMARK INTRA:                  -0.050
REMARK UNBOUND:                -0.065
REMARK SMILES CCc1cccc(O)c1
REMARK SMILES IDX 3 1 9 2 7 3 6 4 5 5 4 6 2 7 1 8 8 9
REMARK H PARENT 8 10
REMARK Flexibility Score: inf
ROOT
ATOM      1  C   UNL     1     -27.675 -53.343  53.757  1.00  0.00    -0.045 A 
ATOM      2  C   UNL     1     -26.634 -53.009  54.639  1.00  0.00     0.049 A 
ATOM      3  C   UNL     1     -26.691 -53.399  55.982  1.00  0.00     0.115 A 
ATOM      4  C   UNL     1     -27.797 -54.120  56.451  1.00  0.00     0.046 A 
ATOM      5  C   UNL     1     -28.842 -54.445  55.581  1.00  0.00     0.004 A 
ATOM      6  C   UNL     1     -28.786 -54.055  54.241  1.00  0.00     0.004 A 
ENDROOT
BRANCH   1   7
ATOM      7  C   UNL     1     -27.628 -52.893  52.321  1.00  0.00     0.032 C 
ATOM      8  C   UNL     1     -27.324 -51.402  52.231  1.00  0.00     0.009 C 
ENDBRANCH   1   7
BRANCH   3   9
ATOM      9  O   UNL     1     -25.647 -53.063  56.840  1.00  0.00    -0.508 OA
ATOM     10  H   UNL     1     -25.049 -53.772  57.249  1.00  0.00     0.293 HD
ENDBRANCH   3   9
TORSDOF 2
ENDMDL
MODEL 7
REMARK VINA RESULT:    -3.931      1.213      3.501
REMARK INTER + INTRA:          -4.340
REMARK INTER:                  -4.289
REMARK INTRA:                  -0.052
REMARK UNBOUND:                -0.065
REMARK SMILES CCc1cccc(O)c1
REMARK SMILES IDX 3 1 9 2 7 3 6 4 5 5 4 6 2 7 1 8 8 9
REMARK H PARENT 8 10
REMARK Flexibility Score: inf
ROOT
ATOM      1  C   UNL     1     -27.200 -53.892  51.978  1.00  0.00    -0.045 A 
ATOM      2  C   UNL     1     -26.495 -53.211  52.984  1.00  0.00     0.049 A 
ATOM      3  C   UNL     1     -26.580 -51.818  53.090  1.00  0.00     0.115 A 
ATOM      4  C   UNL     1     -27.367 -51.098  52.180  1.00  0.00     0.046 A 
ATOM      5  C   UNL     1     -28.061 -51.768  51.169  1.00  0.00     0.004 A 
ATOM      6  C   UNL     1     -27.975 -53.159  51.063  1.00  0.00     0.004 A 
ENDROOT
BRANCH   1   7
ATOM      7  C   UNL     1     -27.081 -55.387  51.845  1.00  0.00     0.032 C 
ATOM      8  C   UNL     1     -25.859 -55.901  52.598  1.00  0.00     0.009 C 
ENDBRANCH   1   7
BRANCH   3   9
ATOM      9  O   UNL     1     -25.878 -51.161  54.098  1.00  0.00    -0.508 OA
ATOM     10  H   UNL     1     -25.454 -50.254  53.943  1.00  0.00     0.293 HD
ENDBRANCH   3   9
TORSDOF 2
ENDMDL
MODEL 8
REMARK VINA RESULT:    -3.784     15.773     16.787
REMARK INTER + INTRA:          -4.180
REMARK INTER:                  -4.110
REMARK INTRA:                  -0.070
REMARK UNBOUND:                -0.065
REMARK SMILES CCc1cccc(O)c1
REMARK SMILES IDX 3 1 9 2 7 3 6 4 5 5 4 6 2 7 1 8 8 9
REMARK H PARENT 8 10
REMARK Flexibility Score: inf
ROOT
ATOM      1  C   UNL     1     -31.661 -52.404  67.678  1.00  0.00    -0.045 A 
ATOM      2  C   UNL     1     -31.371 -51.825  68.923  1.00  0.00     0.049 A 
ATOM      3  C   UNL     1     -31.862 -50.555  69.247  1.00  0.00     0.115 A 
ATOM      4  C   UNL     1     -32.642 -49.853  68.317  1.00  0.00     0.046 A 
ATOM      5  C   UNL     1     -32.924 -50.419  67.070  1.00  0.00     0.004 A 
ATOM      6  C   UNL     1     -32.433 -51.686  66.747  1.00  0.00     0.004 A 
ENDROOT
BRANCH   1   7
ATOM      7  C   UNL     1     -31.104 -53.756  67.319  1.00  0.00     0.032 C 
ATOM      8  C   UNL     1     -32.078 -54.525  66.434  1.00  0.00     0.009 C 
ENDBRANCH   1   7
BRANCH   3   9
ATOM      9  O   UNL     1     -31.569 -50.000  70.490  1.00  0.00    -0.508 OA
ATOM     10  H   UNL     1     -31.113 -50.540  71.216  1.00  0.00     0.293 HD
ENDBRANCH   3   9
TORSDOF 2
ENDMDL
