MODEL 1
REMARK VINA RESULT:    11.347      0.000      0.000
REMARK INTER + INTRA:          19.589
REMARK INTER:                  18.644
REMARK INTRA:                   0.945
REMARK UNBOUND:                 0.945
REMARK SMILES COc1ccc([C@H]2CC(=O)c3c(O)cc(O[C@H]4O[C@H](CO[C@@H]5O[C@H](C)[C@H](O)[C@@H](O)[C@@H]5O)[C@@H](O)[C@@H](O)[C@@H]4O)cc3O2)cc1O
REMARK SMILES IDX 19 1 32 2 34 3 36 4 17 5 18 6 20 7 21 8 22 9 25 10 24 11
REMARK SMILES IDX 26 12 23 13 28 14 30 15 27 16 29 18 31 20 33 22 35 24 16 26
REMARK SMILES IDX 15 27 14 28 38 29 12 30 39 31 11 32 40 33 9 34 7 35 10 36
REMARK SMILES IDX 8 37 13 38 6 40 41 41 5 42 42 43 4 44 3 45 43 46 2 48 1 49
REMARK SMILES IDX 37 50
REMARK H PARENT 27 17 29 19 31 21 33 23 35 25 13 39 43 47 37 51
REMARK Flexibility Score: inf
ROOT
ATOM      1  C   UNL     1     -16.175  46.773  -9.438  1.00  0.00     0.180 C 
ATOM      2  C   UNL     1     -15.411  48.137  -9.577  1.00  0.00     0.177 C 
ATOM      3  C   UNL     1     -15.094  48.820  -8.226  1.00  0.00     0.180 C 
ATOM      4  C   UNL     1     -14.892  47.788  -7.093  1.00  0.00     0.214 C 
ATOM      5  C   UNL     1     -14.607  46.388  -7.671  1.00  0.00     0.339 C 
ATOM      6  O   UNL     1     -15.728  45.902  -8.393  1.00  0.00    -0.332 OA
ENDROOT
BRANCH   1   7
ATOM      7  C   UNL     1     -16.104  45.976 -10.754  1.00  0.00     0.198 C 
BRANCH   7   8
ATOM      8  O   UNL     1     -17.365  45.424 -11.081  1.00  0.00    -0.347 OA
BRANCH   8   9
ATOM      9  C   UNL     1     -18.057  44.990  -9.914  1.00  0.00     0.281 C 
ATOM     10  C   UNL     1     -16.385  42.644 -11.110  1.00  0.00     0.041 C 
ATOM     11  C   UNL     1     -17.337  42.704  -9.896  1.00  0.00     0.150 C 
ATOM     12  C   UNL     1     -18.770  42.197 -10.193  1.00  0.00     0.174 C 
ATOM     13  O   UNL     1     -17.316  43.973  -9.250  1.00  0.00    -0.344 OA
ATOM     14  C   UNL     1     -19.561  43.244 -10.993  1.00  0.00     0.179 C 
ATOM     15  C   UNL     1     -19.509  44.567 -10.227  1.00  0.00     0.202 C 
BRANCH  12  16
ATOM     16  O   UNL     1     -18.739  40.977 -10.897  1.00  0.00    -0.388 OA
ATOM     17  H   UNL     1     -17.778  40.773 -11.057  1.00  0.00     0.211 HD
ENDBRANCH  12  16
BRANCH  14  18
ATOM     18  O   UNL     1     -20.910  42.860 -11.121  1.00  0.00    -0.387 OA
ATOM     19  H   UNL     1     -21.350  43.492 -11.753  1.00  0.00     0.211 HD
ENDBRANCH  14  18
BRANCH  15  20
ATOM     20  O   UNL     1     -20.204  45.588 -10.899  1.00  0.00    -0.385 OA
ATOM     21  H   UNL     1     -19.629  46.397 -10.914  1.00  0.00     0.211 HD
ENDBRANCH  15  20
ENDBRANCH   8   9
ENDBRANCH   7   8
ENDBRANCH   1   7
BRANCH   2  22
ATOM     22  O   UNL     1     -16.092  49.025 -10.432  1.00  0.00    -0.387 OA
ATOM     23  H   UNL     1     -16.945  48.593 -10.701  1.00  0.00     0.211 HD
ENDBRANCH   2  22
BRANCH   3  24
ATOM     24  O   UNL     1     -16.117  49.722  -7.868  1.00  0.00    -0.387 OA
ATOM     25  H   UNL     1     -16.357  49.518  -6.927  1.00  0.00     0.211 HD
ENDBRANCH   3  24
BRANCH   5  26
ATOM     26  O   UNL     1     -14.242  45.458  -6.645  1.00  0.00    -0.462 OA
BRANCH  26  27
ATOM     27  C   UNL     1     -15.143  44.816  -5.784  1.00  0.00     0.130 A 
ATOM     28  C   UNL     1     -14.833  44.742  -4.428  1.00  0.00     0.093 A 
ATOM     29  C   UNL     1     -16.349  44.271  -6.247  1.00  0.00     0.094 A 
ATOM     30  C   UNL     1     -15.686  44.094  -3.525  1.00  0.00     0.133 A 
ATOM     31  C   UNL     1     -17.199  43.595  -5.370  1.00  0.00     0.138 A 
ATOM     32  C   UNL     1     -16.865  43.471  -4.009  1.00  0.00     0.102 A 
ATOM     33  O   UNL     1     -18.375  43.028  -5.878  1.00  0.00    -0.484 OA
ATOM     34  C   UNL     1     -17.766  42.648  -3.176  1.00  0.00     0.174 C 
ATOM     35  C   UNL     1     -19.194  42.107  -5.147  1.00  0.00     0.211 C 
ATOM     36  O   UNL     1     -17.365  42.099  -2.117  1.00  0.00    -0.294 OA
ATOM     37  C   UNL     1     -19.170  42.407  -3.641  1.00  0.00     0.131 C 
BRANCH  30  38
ATOM     38  O   UNL     1     -15.343  44.122  -2.169  1.00  0.00    -0.507 OA
ATOM     39  H   UNL     1     -14.782  44.851  -1.744  1.00  0.00     0.293 HD
ENDBRANCH  30  38
BRANCH  35  40
ATOM     40  C   UNL     1     -18.800  40.674  -5.450  1.00  0.00    -0.003 A 
ATOM     41  C   UNL     1     -19.756  39.642  -5.538  1.00  0.00     0.057 A 
ATOM     42  C   UNL     1     -17.446  40.366  -5.665  1.00  0.00     0.011 A 
ATOM     43  C   UNL     1     -19.362  38.324  -5.799  1.00  0.00     0.158 A 
ATOM     44  C   UNL     1     -17.049  39.047  -5.922  1.00  0.00     0.051 A 
ATOM     45  C   UNL     1     -18.004  38.015  -5.990  1.00  0.00     0.160 A 
BRANCH  43  46
ATOM     46  O   UNL     1     -20.337  37.326  -5.854  1.00  0.00    -0.504 OA
ATOM     47  H   UNL     1     -20.786  36.961  -5.024  1.00  0.00     0.293 HD
ENDBRANCH  43  46
BRANCH  45  48
ATOM     48  O   UNL     1     -17.643  36.682  -6.232  1.00  0.00    -0.493 OA
ATOM     49  C   UNL     1     -18.564  35.629  -6.487  1.00  0.00     0.278 C 
ENDBRANCH  45  48
ENDBRANCH  35  40
ENDBRANCH  26  27
ENDBRANCH   5  26
BRANCH   4  50
ATOM     50  O   UNL     1     -13.875  48.196  -6.212  1.00  0.00    -0.384 OA
ATOM     51  H   UNL     1     -14.149  49.067  -5.819  1.00  0.00     0.211 HD
ENDBRANCH   4  50
TORSDOF 15
ENDMDL
MODEL 2
REMARK VINA RESULT:    13.873      2.339      8.775
REMARK INTER + INTRA:          23.739
REMARK INTER:                  23.061
REMARK INTRA:                   0.678
REMARK UNBOUND:                 0.945
REMARK SMILES COc1ccc([C@H]2CC(=O)c3c(O)cc(O[C@H]4O[C@H](CO[C@@H]5O[C@H](C)[C@H](O)[C@@H](O)[C@@H]5O)[C@@H](O)[C@@H](O)[C@@H]4O)cc3O2)cc1O
REMARK SMILES IDX 19 1 32 2 34 3 36 4 17 5 18 6 20 7 21 8 22 9 25 10 24 11
REMARK SMILES IDX 26 12 23 13 28 14 30 15 27 16 29 18 31 20 33 22 35 24 16 26
REMARK SMILES IDX 15 27 14 28 38 29 12 30 39 31 11 32 40 33 9 34 7 35 10 36
REMARK SMILES IDX 8 37 13 38 6 40 41 41 5 42 42 43 4 44 3 45 43 46 2 48 1 49
REMARK SMILES IDX 37 50
REMARK H PARENT 27 17 29 19 31 21 33 23 35 25 13 39 43 47 37 51
REMARK Flexibility Score: inf
ROOT
ATOM      1  C   UNL     1     -18.932  41.304  -4.494  1.00  0.00     0.180 C 
ATOM      2  C   UNL     1     -19.368  41.828  -3.079  1.00  0.00     0.177 C 
ATOM      3  C   UNL     1     -18.843  43.244  -2.745  1.00  0.00     0.180 C 
ATOM      4  C   UNL     1     -18.679  44.112  -4.014  1.00  0.00     0.214 C 
ATOM      5  C   UNL     1     -19.490  43.526  -5.186  1.00  0.00     0.339 C 
ATOM      6  O   UNL     1     -18.986  42.255  -5.564  1.00  0.00    -0.332 OA
ENDROOT
BRANCH   1   7
ATOM      7  C   UNL     1     -19.793  40.099  -4.914  1.00  0.00     0.198 C 
BRANCH   7   8
ATOM      8  O   UNL     1     -19.123  39.308  -5.877  1.00  0.00    -0.347 OA
BRANCH   8   9
ATOM      9  C   UNL     1     -19.048  37.947  -5.464  1.00  0.00     0.281 C 
ATOM     10  C   UNL     1     -17.744  38.294  -8.277  1.00  0.00     0.041 C 
ATOM     11  C   UNL     1     -17.965  37.041  -7.403  1.00  0.00     0.150 C 
ATOM     12  C   UNL     1     -19.223  36.221  -7.783  1.00  0.00     0.174 C 
ATOM     13  O   UNL     1     -17.887  37.328  -6.010  1.00  0.00    -0.344 OA
ATOM     14  C   UNL     1     -20.498  36.918  -7.285  1.00  0.00     0.179 C 
ATOM     15  C   UNL     1     -20.345  37.173  -5.784  1.00  0.00     0.202 C 
BRANCH  12  16
ATOM     16  O   UNL     1     -19.296  36.025  -9.177  1.00  0.00    -0.388 OA
ATOM     17  H   UNL     1     -20.051  35.393  -9.329  1.00  0.00     0.211 HD
ENDBRANCH  12  16
BRANCH  14  18
ATOM     18  O   UNL     1     -21.626  36.098  -7.482  1.00  0.00    -0.387 OA
ATOM     19  H   UNL     1     -21.605  35.769  -8.422  1.00  0.00     0.211 HD
ENDBRANCH  14  18
BRANCH  15  20
ATOM     20  O   UNL     1     -21.471  37.821  -5.246  1.00  0.00    -0.385 OA
ATOM     21  H   UNL     1     -21.641  38.641  -5.779  1.00  0.00     0.211 HD
ENDBRANCH  15  20
ENDBRANCH   8   9
ENDBRANCH   7   8
ENDBRANCH   1   7
BRANCH   2  22
ATOM     22  O   UNL     1     -19.019  40.919  -2.062  1.00  0.00    -0.387 OA
ATOM     23  H   UNL     1     -19.761  40.265  -1.972  1.00  0.00     0.211 HD
ENDBRANCH   2  22
BRANCH   3  24
ATOM     24  O   UNL     1     -17.613  43.173  -2.057  1.00  0.00    -0.387 OA
ATOM     25  H   UNL     1     -17.783  42.655  -1.228  1.00  0.00     0.211 HD
ENDBRANCH   3  24
BRANCH   5  26
ATOM     26  O   UNL     1     -19.495  44.407  -6.316  1.00  0.00    -0.462 OA
BRANCH  26  27
ATOM     27  C   UNL     1     -18.428  44.576  -7.209  1.00  0.00     0.130 A 
ATOM     28  C   UNL     1     -17.287  43.794  -7.040  1.00  0.00     0.093 A 
ATOM     29  C   UNL     1     -18.489  45.488  -8.271  1.00  0.00     0.094 A 
ATOM     30  C   UNL     1     -16.182  43.936  -7.890  1.00  0.00     0.133 A 
ATOM     31  C   UNL     1     -17.389  45.666  -9.111  1.00  0.00     0.138 A 
ATOM     32  C   UNL     1     -16.214  44.918  -8.914  1.00  0.00     0.102 A 
ATOM     33  O   UNL     1     -17.474  46.616 -10.137  1.00  0.00    -0.484 OA
ATOM     34  C   UNL     1     -15.063  45.247  -9.779  1.00  0.00     0.174 C 
ATOM     35  C   UNL     1     -16.346  47.069 -10.897  1.00  0.00     0.211 C 
ATOM     36  O   UNL     1     -13.881  45.000  -9.424  1.00  0.00    -0.294 OA
ATOM     37  C   UNL     1     -15.306  45.952 -11.078  1.00  0.00     0.131 C 
BRANCH  30  38
ATOM     38  O   UNL     1     -15.100  43.067  -7.703  1.00  0.00    -0.507 OA
ATOM     39  H   UNL     1     -15.145  42.224  -7.144  1.00  0.00     0.293 HD
ENDBRANCH  30  38
BRANCH  35  40
ATOM     40  C   UNL     1     -15.743  48.316 -10.281  1.00  0.00    -0.003 A 
ATOM     41  C   UNL     1     -15.582  48.454  -8.887  1.00  0.00     0.057 A 
ATOM     42  C   UNL     1     -15.319  49.360 -11.120  1.00  0.00     0.011 A 
ATOM     43  C   UNL     1     -15.041  49.625  -8.343  1.00  0.00     0.158 A 
ATOM     44  C   UNL     1     -14.780  50.534 -10.578  1.00  0.00     0.051 A 
ATOM     45  C   UNL     1     -14.639  50.677  -9.184  1.00  0.00     0.160 A 
BRANCH  43  46
ATOM     46  O   UNL     1     -14.921  49.733  -6.955  1.00  0.00    -0.504 OA
ATOM     47  H   UNL     1     -14.073  49.484  -6.464  1.00  0.00     0.293 HD
ENDBRANCH  43  46
BRANCH  45  48
ATOM     48  O   UNL     1     -14.117  51.843  -8.605  1.00  0.00    -0.493 OA
ATOM     49  C   UNL     1     -14.566  52.406  -7.379  1.00  0.00     0.278 C 
ENDBRANCH  45  48
ENDBRANCH  35  40
ENDBRANCH  26  27
ENDBRANCH   5  26
BRANCH   4  50
ATOM     50  O   UNL     1     -19.033  45.449  -3.762  1.00  0.00    -0.384 OA
ATOM     51  H   UNL     1     -18.193  45.976  -3.698  1.00  0.00     0.211 HD
ENDBRANCH   4  50
TORSDOF 15
ENDMDL
