MODEL 1
REMARK VINA RESULT:    -2.360      0.000      0.000
REMARK INTER + INTRA:          -3.181
REMARK INTER:                  -2.774
REMARK INTRA:                  -0.406
REMARK UNBOUND:                -0.406
REMARK SMILES [NH3+][C@@H](CO)C(=O)[O-]
REMARK SMILES IDX 3 1 2 2 1 3 5 7 6 8 7 9 4 10
REMARK H PARENT 1 4 1 5 1 6 4 11
REMARK Flexibility Score: inf
ROOT
ATOM      1  C   UNL     1     121.455 126.696 108.177  1.00  0.00     0.227 C 
ENDROOT
BRANCH   1   2
ATOM      2  C   UNL     1     122.289 126.814 106.892  1.00  0.00     0.253 C 
BRANCH   2   3
ATOM      3  N   UNL     1     121.749 125.957 105.829  1.00  0.00    -0.348 N 
ATOM      4  H   UNL     1     120.976 126.456 105.331  1.00  0.00     0.345 HD
ATOM      5  H   UNL     1     122.495 125.705 105.140  1.00  0.00     0.345 HD
ATOM      6  H   UNL     1     121.355 125.080 106.244  1.00  0.00     0.345 HD
ENDBRANCH   2   3
BRANCH   2   7
ATOM      7  C   UNL     1     123.723 126.451 107.174  1.00  0.00     0.102 C 
ATOM      8  O   UNL     1     124.587 127.355 107.320  1.00  0.00    -0.544 OA
ATOM      9  O   UNL     1     124.099 125.118 107.290  1.00  0.00    -0.544 OA
ENDBRANCH   2   7
ENDBRANCH   1   2
BRANCH   1  10
ATOM     10  O   UNL     1     122.290 126.408 109.266  1.00  0.00    -0.390 OA
ATOM     11  H   UNL     1     122.391 125.421 109.283  1.00  0.00     0.210 HD
ENDBRANCH   1  10
TORSDOF 4
ENDMDL
MODEL 2
REMARK VINA RESULT:    -2.329      2.111      2.597
REMARK INTER + INTRA:          -3.143
REMARK INTER:                  -2.748
REMARK INTRA:                  -0.395
REMARK UNBOUND:                -0.406
REMARK SMILES [NH3+][C@@H](CO)C(=O)[O-]
REMARK SMILES IDX 3 1 2 2 1 3 5 7 6 8 7 9 4 10
REMARK H PARENT 1 4 1 5 1 6 4 11
REMARK Flexibility Score: inf
ROOT
ATOM      1  C   UNL     1     123.514 125.844 108.825  1.00  0.00     0.227 C 
ENDROOT
BRANCH   1   2
ATOM      2  C   UNL     1     123.702 126.172 107.337  1.00  0.00     0.253 C 
BRANCH   2   3
ATOM      3  N   UNL     1     124.650 127.279 107.154  1.00  0.00    -0.348 N 
ATOM      4  H   UNL     1     125.074 127.538 108.075  1.00  0.00     0.345 HD
ATOM      5  H   UNL     1     125.412 127.009 106.490  1.00  0.00     0.345 HD
ATOM      6  H   UNL     1     124.150 128.118 106.779  1.00  0.00     0.345 HD
ENDBRANCH   2   3
BRANCH   2   7
ATOM      7  C   UNL     1     122.376 126.515 106.713  1.00  0.00     0.102 C 
ATOM      8  O   UNL     1     121.795 125.686 105.964  1.00  0.00    -0.544 OA
ATOM      9  O   UNL     1     121.776 127.742 106.971  1.00  0.00    -0.544 OA
ENDBRANCH   2   7
ENDBRANCH   1   2
BRANCH   1  10
ATOM     10  O   UNL     1     122.148 125.752 109.126  1.00  0.00    -0.390 OA
ATOM     11  H   UNL     1     121.723 125.309 108.346  1.00  0.00     0.210 HD
ENDBRANCH   1  10
TORSDOF 4
ENDMDL
MODEL 3
REMARK VINA RESULT:    -2.290     13.589     14.230
REMARK INTER + INTRA:          -3.098
REMARK INTER:                  -2.874
REMARK INTRA:                  -0.224
REMARK UNBOUND:                -0.406
REMARK SMILES [NH3+][C@@H](CO)C(=O)[O-]
REMARK SMILES IDX 3 1 2 2 1 3 5 7 6 8 7 9 4 10
REMARK H PARENT 1 4 1 5 1 6 4 11
REMARK Flexibility Score: inf
ROOT
ATOM      1  C   UNL     1     114.827 116.354 111.723  1.00  0.00     0.227 C 
ENDROOT
BRANCH   1   2
ATOM      2  C   UNL     1     114.308 116.677 110.314  1.00  0.00     0.253 C 
BRANCH   2   3
ATOM      3  N   UNL     1     113.813 118.057 110.235  1.00  0.00    -0.348 N 
ATOM      4  H   UNL     1     113.420 118.239 109.282  1.00  0.00     0.345 HD
ATOM      5  H   UNL     1     113.068 118.226 110.951  1.00  0.00     0.345 HD
ATOM      6  H   UNL     1     114.600 118.727 110.396  1.00  0.00     0.345 HD
ENDBRANCH   2   3
BRANCH   2   7
ATOM      7  C   UNL     1     113.217 115.711 109.935  1.00  0.00     0.102 C 
ATOM      8  O   UNL     1     112.670 114.996 110.816  1.00  0.00    -0.544 OA
ATOM      9  O   UNL     1     112.795 115.613 108.614  1.00  0.00    -0.544 OA
ENDBRANCH   2   7
ENDBRANCH   1   2
BRANCH   1  10
ATOM     10  O   UNL     1     113.982 116.920 112.687  1.00  0.00    -0.390 OA
ATOM     11  H   UNL     1     113.075 116.935 112.284  1.00  0.00     0.210 HD
ENDBRANCH   1  10
TORSDOF 4
ENDMDL
MODEL 4
REMARK VINA RESULT:    -2.280     10.658     10.966
REMARK INTER + INTRA:          -3.086
REMARK INTER:                  -2.860
REMARK INTRA:                  -0.227
REMARK UNBOUND:                -0.406
REMARK SMILES [NH3+][C@@H](CO)C(=O)[O-]
REMARK SMILES IDX 3 1 2 2 1 3 5 7 6 8 7 9 4 10
REMARK H PARENT 1 4 1 5 1 6 4 11
REMARK Flexibility Score: inf
ROOT
ATOM      1  C   UNL     1     124.642 116.171 111.396  1.00  0.00     0.227 C 
ENDROOT
BRANCH   1   2
ATOM      2  C   UNL     1     125.473 116.966 110.378  1.00  0.00     0.253 C 
BRANCH   2   3
ATOM      3  N   UNL     1     124.682 117.285 109.183  1.00  0.00    -0.348 N 
ATOM      4  H   UNL     1     123.681 117.027 109.342  1.00  0.00     0.345 HD
ATOM      5  H   UNL     1     124.741 118.307 108.961  1.00  0.00     0.345 HD
ATOM      6  H   UNL     1     125.034 116.736 108.365  1.00  0.00     0.345 HD
ENDBRANCH   2   3
BRANCH   2   7
ATOM      7  C   UNL     1     126.702 116.186 109.995  1.00  0.00     0.102 C 
ATOM      8  O   UNL     1     127.554 115.877 110.870  1.00  0.00    -0.544 OA
ATOM      9  O   UNL     1     126.897 115.787 108.678  1.00  0.00    -0.544 OA
ENDBRANCH   2   7
ENDBRANCH   1   2
BRANCH   1  10
ATOM     10  O   UNL     1     125.253 116.221 112.657  1.00  0.00    -0.390 OA
ATOM     11  H   UNL     1     125.629 115.317 112.817  1.00  0.00     0.210 HD
ENDBRANCH   1  10
TORSDOF 4
ENDMDL
MODEL 5
REMARK VINA RESULT:    -2.263     12.462     12.964
REMARK INTER + INTRA:          -3.066
REMARK INTER:                  -2.656
REMARK INTRA:                  -0.409
REMARK UNBOUND:                -0.406
REMARK SMILES [NH3+][C@@H](CO)C(=O)[O-]
REMARK SMILES IDX 3 1 2 2 1 3 5 7 6 8 7 9 4 10
REMARK H PARENT 1 4 1 5 1 6 4 11
REMARK Flexibility Score: inf
ROOT
ATOM      1  C   UNL     1     112.059 120.005 108.191  1.00  0.00     0.227 C 
ENDROOT
BRANCH   1   2
ATOM      2  C   UNL     1     112.953 118.757 108.249  1.00  0.00     0.253 C 
BRANCH   2   3
ATOM      3  N   UNL     1     114.354 119.120 108.502  1.00  0.00    -0.348 N 
ATOM      4  H   UNL     1     114.460 119.456 109.487  1.00  0.00     0.345 HD
ATOM      5  H   UNL     1     114.983 118.297 108.350  1.00  0.00     0.345 HD
ATOM      6  H   UNL     1     114.642 119.895 107.861  1.00  0.00     0.345 HD
ENDBRANCH   2   3
BRANCH   2   7
ATOM      7  C   UNL     1     112.841 117.984 106.962  1.00  0.00     0.102 C 
ATOM      8  O   UNL     1     112.119 116.954 106.904  1.00  0.00    -0.544 OA
ATOM      9  O   UNL     1     113.521 118.408 105.827  1.00  0.00    -0.544 OA
ENDBRANCH   2   7
ENDBRANCH   1   2
BRANCH   1  10
ATOM     10  O   UNL     1     111.267 119.973 107.036  1.00  0.00    -0.390 OA
ATOM     11  H   UNL     1     110.325 119.959 107.348  1.00  0.00     0.210 HD
ENDBRANCH   1  10
TORSDOF 4
ENDMDL
MODEL 6
REMARK VINA RESULT:    -2.261     13.054     13.753
REMARK INTER + INTRA:          -3.064
REMARK INTER:                  -2.659
REMARK INTRA:                  -0.405
REMARK UNBOUND:                -0.406
REMARK SMILES [NH3+][C@@H](CO)C(=O)[O-]
REMARK SMILES IDX 3 1 2 2 1 3 5 7 6 8 7 9 4 10
REMARK H PARENT 1 4 1 5 1 6 4 11
REMARK Flexibility Score: inf
ROOT
ATOM      1  C   UNL     1     112.855 115.528 110.805  1.00  0.00     0.227 C 
ENDROOT
BRANCH   1   2
ATOM      2  C   UNL     1     114.192 116.048 111.354  1.00  0.00     0.253 C 
BRANCH   2   3
ATOM      3  N   UNL     1     113.987 116.879 112.547  1.00  0.00    -0.348 N 
ATOM      4  H   UNL     1     114.374 116.393 113.389  1.00  0.00     0.345 HD
ATOM      5  H   UNL     1     114.460 117.807 112.438  1.00  0.00     0.345 HD
ATOM      6  H   UNL     1     112.964 117.033 112.703  1.00  0.00     0.345 HD
ENDBRANCH   2   3
BRANCH   2   7
ATOM      7  C   UNL     1     114.914 116.832 110.291  1.00  0.00     0.102 C 
ATOM      8  O   UNL     1     114.682 118.062 110.145  1.00  0.00    -0.544 OA
ATOM      9  O   UNL     1     115.851 116.210 109.475  1.00  0.00    -0.544 OA
ENDBRANCH   2   7
ENDBRANCH   1   2
BRANCH   1  10
ATOM     10  O   UNL     1     112.814 115.686 109.413  1.00  0.00    -0.390 OA
ATOM     11  H   UNL     1     112.446 114.838 109.050  1.00  0.00     0.210 HD
ENDBRANCH   1  10
TORSDOF 4
ENDMDL
MODEL 7
REMARK VINA RESULT:    -2.249      1.999      2.639
REMARK INTER + INTRA:          -3.050
REMARK INTER:                  -2.644
REMARK INTRA:                  -0.407
REMARK UNBOUND:                -0.406
REMARK SMILES [NH3+][C@@H](CO)C(=O)[O-]
REMARK SMILES IDX 3 1 2 2 1 3 5 7 6 8 7 9 4 10
REMARK H PARENT 1 4 1 5 1 6 4 11
REMARK Flexibility Score: inf
ROOT
ATOM      1  C   UNL     1     123.786 126.409 108.383  1.00  0.00     0.227 C 
ENDROOT
BRANCH   1   2
ATOM      2  C   UNL     1     122.256 126.273 108.345  1.00  0.00     0.253 C 
BRANCH   2   3
ATOM      3  N   UNL     1     121.844 124.875 108.531  1.00  0.00    -0.348 N 
ATOM      4  H   UNL     1     121.389 124.522 107.658  1.00  0.00     0.345 HD
ATOM      5  H   UNL     1     122.670 124.272 108.756  1.00  0.00     0.345 HD
ATOM      6  H   UNL     1     121.149 124.809 109.310  1.00  0.00     0.345 HD
ENDBRANCH   2   3
BRANCH   2   7
ATOM      7  C   UNL     1     121.724 126.802 107.040  1.00  0.00     0.102 C 
ATOM      8  O   UNL     1     121.179 127.937 106.993  1.00  0.00    -0.544 OA
ATOM      9  O   UNL     1     121.845 126.051 105.878  1.00  0.00    -0.544 OA
ENDBRANCH   2   7
ENDBRANCH   1   2
BRANCH   1  10
ATOM     10  O   UNL     1     124.222 127.205 107.315  1.00  0.00    -0.390 OA
ATOM     11  H   UNL     1     124.813 126.628 106.765  1.00  0.00     0.210 HD
ENDBRANCH   1  10
TORSDOF 4
ENDMDL
MODEL 8
REMARK VINA RESULT:    -2.249      1.963      2.592
REMARK INTER + INTRA:          -3.050
REMARK INTER:                  -2.642
REMARK INTRA:                  -0.408
REMARK UNBOUND:                -0.406
REMARK SMILES [NH3+][C@@H](CO)C(=O)[O-]
REMARK SMILES IDX 3 1 2 2 1 3 5 7 6 8 7 9 4 10
REMARK H PARENT 1 4 1 5 1 6 4 11
REMARK Flexibility Score: inf
ROOT
ATOM      1  C   UNL     1     123.819 124.793 108.976  1.00  0.00     0.227 C 
ENDROOT
BRANCH   1   2
ATOM      2  C   UNL     1     123.330 126.242 108.836  1.00  0.00     0.253 C 
BRANCH   2   3
ATOM      3  N   UNL     1     121.919 126.365 109.225  1.00  0.00    -0.348 N 
ATOM      4  H   UNL     1     121.724 125.748 110.047  1.00  0.00     0.345 HD
ATOM      5  H   UNL     1     121.690 127.355 109.477  1.00  0.00     0.345 HD
ATOM      6  H   UNL     1     121.304 126.061 108.436  1.00  0.00     0.345 HD
ENDBRANCH   2   3
BRANCH   2   7
ATOM      7  C   UNL     1     123.521 126.714 107.419  1.00  0.00     0.102 C 
ATOM      8  O   UNL     1     122.546 126.737 106.623  1.00  0.00    -0.544 OA
ATOM      9  O   UNL     1     124.770 127.142 106.985  1.00  0.00    -0.544 OA
ENDBRANCH   2   7
ENDBRANCH   1   2
BRANCH   1  10
ATOM     10  O   UNL     1     124.156 124.277 107.717  1.00  0.00    -0.390 OA
ATOM     11  H   UNL     1     123.725 124.872 107.051  1.00  0.00     0.210 HD
ENDBRANCH   1  10
TORSDOF 4
ENDMDL
MODEL 9
REMARK VINA RESULT:    -2.196     10.401     11.000
REMARK INTER + INTRA:          -2.987
REMARK INTER:                  -2.571
REMARK INTRA:                  -0.417
REMARK UNBOUND:                -0.406
REMARK SMILES [NH3+][C@@H](CO)C(=O)[O-]
REMARK SMILES IDX 3 1 2 2 1 3 5 7 6 8 7 9 4 10
REMARK H PARENT 1 4 1 5 1 6 4 11
REMARK Flexibility Score: inf
ROOT
ATOM      1  C   UNL     1     124.286 117.757 110.908  1.00  0.00     0.227 C 
ENDROOT
BRANCH   1   2
ATOM      2  C   UNL     1     124.632 116.314 111.308  1.00  0.00     0.253 C 
BRANCH   2   3
ATOM      3  N   UNL     1     125.258 116.269 112.636  1.00  0.00    -0.348 N 
ATOM      4  H   UNL     1     126.282 116.464 112.551  1.00  0.00     0.345 HD
ATOM      5  H   UNL     1     124.825 116.977 113.274  1.00  0.00     0.345 HD
ATOM      6  H   UNL     1     125.141 115.316 113.052  1.00  0.00     0.345 HD
ENDBRANCH   2   3
BRANCH   2   7
ATOM      7  C   UNL     1     125.546 115.701 110.281  1.00  0.00     0.102 C 
ATOM      8  O   UNL     1     125.067 115.047 109.318  1.00  0.00    -0.544 OA
ATOM      9  O   UNL     1     126.923 115.864 110.381  1.00  0.00    -0.544 OA
ENDBRANCH   2   7
ENDBRANCH   1   2
BRANCH   1  10
ATOM     10  O   UNL     1     124.867 118.063 109.670  1.00  0.00    -0.390 OA
ATOM     11  H   UNL     1     124.254 117.700 108.980  1.00  0.00     0.210 HD
ENDBRANCH   1  10
TORSDOF 4
ENDMDL
