MODEL 1
REMARK VINA RESULT:    -2.785      0.000      0.000
REMARK INTER + INTRA:          -3.386
REMARK INTER:                  -3.273
REMARK INTRA:                  -0.113
REMARK UNBOUND:                -0.113
REMARK SMILES CCCCC(=O)[O-]
REMARK SMILES IDX 4 1 5 2 6 3 7 4 3 5 2 6 1 7
REMARK H PARENT
REMARK Flexibility Score: inf
ROOT
ATOM      1  C   UNL     1      -9.003  -7.083   3.225  1.00  0.00     0.053 C 
ENDROOT
BRANCH   1   2
ATOM      2  C   UNL     1      -7.899  -7.707   2.432  1.00  0.00     0.041 C 
ATOM      3  O   UNL     1      -7.893  -7.617   1.175  1.00  0.00    -0.550 OA
ATOM      4  O   UNL     1      -6.850  -8.345   3.081  1.00  0.00    -0.550 OA
ENDBRANCH   1   2
BRANCH   1   5
ATOM      5  C   UNL     1      -8.658  -5.633   3.577  1.00  0.00     0.006 C 
BRANCH   5   6
ATOM      6  C   UNL     1      -8.000  -5.545   4.959  1.00  0.00    -0.003 C 
ATOM      7  C   UNL     1      -6.550  -5.084   4.850  1.00  0.00     0.004 C 
ENDBRANCH   5   6
ENDBRANCH   1   5
TORSDOF 3
ENDMDL
MODEL 2
REMARK VINA RESULT:    -2.665     14.993     15.940
REMARK INTER + INTRA:          -3.246
REMARK INTER:                  -3.148
REMARK INTRA:                  -0.098
REMARK UNBOUND:                -0.113
REMARK SMILES CCCCC(=O)[O-]
REMARK SMILES IDX 4 1 5 2 6 3 7 4 3 5 2 6 1 7
REMARK H PARENT
REMARK Flexibility Score: inf
ROOT
ATOM      1  C   UNL     1       6.578  -4.484   3.803  1.00  0.00     0.053 C 
ENDROOT
BRANCH   1   2
ATOM      2  C   UNL     1       7.577  -4.653   4.904  1.00  0.00     0.041 C 
ATOM      3  O   UNL     1       8.807  -4.703   4.640  1.00  0.00    -0.550 OA
ATOM      4  O   UNL     1       7.153  -4.708   6.226  1.00  0.00    -0.550 OA
ENDBRANCH   1   2
BRANCH   1   5
ATOM      5  C   UNL     1       7.091  -5.123   2.510  1.00  0.00     0.006 C 
BRANCH   5   6
ATOM      6  C   UNL     1       7.413  -4.055   1.459  1.00  0.00    -0.003 C 
ATOM      7  C   UNL     1       8.915  -3.965   1.205  1.00  0.00     0.004 C 
ENDBRANCH   5   6
ENDBRANCH   1   5
TORSDOF 3
ENDMDL
MODEL 3
REMARK VINA RESULT:    -2.664     11.075     11.860
REMARK INTER + INTRA:          -3.245
REMARK INTER:                  -3.205
REMARK INTRA:                  -0.040
REMARK UNBOUND:                -0.113
REMARK SMILES CCCCC(=O)[O-]
REMARK SMILES IDX 4 1 5 2 6 3 7 4 3 5 2 6 1 7
REMARK H PARENT
REMARK Flexibility Score: inf
ROOT
ATOM      1  C   UNL     1       0.131  -0.685   7.977  1.00  0.00     0.053 C 
ENDROOT
BRANCH   1   2
ATOM      2  C   UNL     1      -0.601   0.619   7.935  1.00  0.00     0.041 C 
ATOM      3  O   UNL     1       0.038   1.701   7.856  1.00  0.00    -0.550 OA
ATOM      4  O   UNL     1      -1.990   0.637   7.934  1.00  0.00    -0.550 OA
ENDBRANCH   1   2
BRANCH   1   5
ATOM      5  C   UNL     1       1.437  -0.542   8.764  1.00  0.00     0.006 C 
BRANCH   5   6
ATOM      6  C   UNL     1       2.012  -1.914   9.130  1.00  0.00    -0.003 C 
ATOM      7  C   UNL     1       1.086  -3.039   8.677  1.00  0.00     0.004 C 
ENDBRANCH   5   6
ENDBRANCH   1   5
TORSDOF 3
ENDMDL
MODEL 4
REMARK VINA RESULT:    -2.605     10.809     11.736
REMARK INTER + INTRA:          -3.175
REMARK INTER:                  -3.112
REMARK INTRA:                  -0.063
REMARK UNBOUND:                -0.113
REMARK SMILES CCCCC(=O)[O-]
REMARK SMILES IDX 4 1 5 2 6 3 7 4 3 5 2 6 1 7
REMARK H PARENT
REMARK Flexibility Score: inf
ROOT
ATOM      1  C   UNL     1      -0.167  -0.025   7.663  1.00  0.00     0.053 C 
ENDROOT
BRANCH   1   2
ATOM      2  C   UNL     1      -1.296   0.777   8.229  1.00  0.00     0.041 C 
ATOM      3  O   UNL     1      -2.465   0.308   8.236  1.00  0.00    -0.550 OA
ATOM      4  O   UNL     1      -1.050   2.022   8.793  1.00  0.00    -0.550 OA
ENDBRANCH   1   2
BRANCH   1   5
ATOM      5  C   UNL     1      -0.036  -1.361   8.399  1.00  0.00     0.006 C 
BRANCH   5   6
ATOM      6  C   UNL     1       1.417  -1.623   8.809  1.00  0.00    -0.003 C 
ATOM      7  C   UNL     1       2.116  -0.330   9.218  1.00  0.00     0.004 C 
ENDBRANCH   5   6
ENDBRANCH   1   5
TORSDOF 3
ENDMDL
MODEL 5
REMARK VINA RESULT:    -2.566     13.126     13.812
REMARK INTER + INTRA:          -3.129
REMARK INTER:                  -3.070
REMARK INTRA:                  -0.059
REMARK UNBOUND:                -0.113
REMARK SMILES CCCCC(=O)[O-]
REMARK SMILES IDX 4 1 5 2 6 3 7 4 3 5 2 6 1 7
REMARK H PARENT
REMARK Flexibility Score: inf
ROOT
ATOM      1  C   UNL     1       3.148  -1.259  -3.741  1.00  0.00     0.053 C 
ENDROOT
BRANCH   1   2
ATOM      2  C   UNL     1       4.496  -1.352  -3.099  1.00  0.00     0.041 C 
ATOM      3  O   UNL     1       5.262  -0.352  -3.086  1.00  0.00    -0.550 OA
ATOM      4  O   UNL     1       4.888  -2.527  -2.470  1.00  0.00    -0.550 OA
ENDBRANCH   1   2
BRANCH   1   5
ATOM      5  C   UNL     1       2.055  -1.126  -2.676  1.00  0.00     0.006 C 
BRANCH   5   6
ATOM      6  C   UNL     1       0.894  -2.086  -2.958  1.00  0.00    -0.003 C 
ATOM      7  C   UNL     1       0.926  -3.283  -2.013  1.00  0.00     0.004 C 
ENDBRANCH   5   6
ENDBRANCH   1   5
TORSDOF 3
ENDMDL
MODEL 6
REMARK VINA RESULT:    -2.554      1.816      2.554
REMARK INTER + INTRA:          -3.115
REMARK INTER:                  -3.046
REMARK INTRA:                  -0.069
REMARK UNBOUND:                -0.113
REMARK SMILES CCCCC(=O)[O-]
REMARK SMILES IDX 4 1 5 2 6 3 7 4 3 5 2 6 1 7
REMARK H PARENT
REMARK Flexibility Score: inf
ROOT
ATOM      1  C   UNL     1      -7.803  -5.029   4.244  1.00  0.00     0.053 C 
ENDROOT
BRANCH   1   2
ATOM      2  C   UNL     1      -8.624  -5.985   3.437  1.00  0.00     0.041 C 
ATOM      3  O   UNL     1      -9.819  -6.219   3.756  1.00  0.00    -0.550 OA
ATOM      4  O   UNL     1      -8.085  -6.580   2.304  1.00  0.00    -0.550 OA
ENDBRANCH   1   2
BRANCH   1   5
ATOM      5  C   UNL     1      -6.650  -5.763   4.934  1.00  0.00     0.006 C 
BRANCH   5   6
ATOM      6  C   UNL     1      -6.580  -5.400   6.422  1.00  0.00    -0.003 C 
ATOM      7  C   UNL     1      -7.975  -5.299   7.031  1.00  0.00     0.004 C 
ENDBRANCH   5   6
ENDBRANCH   1   5
TORSDOF 3
ENDMDL
MODEL 7
REMARK VINA RESULT:    -2.470     11.967     12.765
REMARK INTER + INTRA:          -3.016
REMARK INTER:                  -2.920
REMARK INTRA:                  -0.096
REMARK UNBOUND:                -0.113
REMARK SMILES CCCCC(=O)[O-]
REMARK SMILES IDX 4 1 5 2 6 3 7 4 3 5 2 6 1 7
REMARK H PARENT
REMARK Flexibility Score: inf
ROOT
ATOM      1  C   UNL     1      -0.206   1.147   8.603  1.00  0.00     0.053 C 
ENDROOT
BRANCH   1   2
ATOM      2  C   UNL     1       0.765   2.227   8.243  1.00  0.00     0.041 C 
ATOM      3  O   UNL     1       0.360   3.284   7.689  1.00  0.00    -0.550 OA
ATOM      4  O   UNL     1       2.109   2.090   8.564  1.00  0.00    -0.550 OA
ENDBRANCH   1   2
BRANCH   1   5
ATOM      5  C   UNL     1      -0.127  -0.002   7.593  1.00  0.00     0.006 C 
BRANCH   5   6
ATOM      6  C   UNL     1       0.124  -1.338   8.300  1.00  0.00    -0.003 C 
ATOM      7  C   UNL     1       1.544  -1.412   8.852  1.00  0.00     0.004 C 
ENDBRANCH   5   6
ENDBRANCH   1   5
TORSDOF 3
ENDMDL
MODEL 8
REMARK VINA RESULT:    -2.454     11.182     11.697
REMARK INTER + INTRA:          -2.998
REMARK INTER:                  -2.919
REMARK INTRA:                  -0.078
REMARK UNBOUND:                -0.113
REMARK SMILES CCCCC(=O)[O-]
REMARK SMILES IDX 4 1 5 2 6 3 7 4 3 5 2 6 1 7
REMARK H PARENT
REMARK Flexibility Score: inf
ROOT
ATOM      1  C   UNL     1       0.151  -1.224   8.151  1.00  0.00     0.053 C 
ENDROOT
BRANCH   1   2
ATOM      2  C   UNL     1       1.514  -1.250   8.766  1.00  0.00     0.041 C 
ATOM      3  O   UNL     1       2.082  -0.175   9.094  1.00  0.00    -0.550 OA
ATOM      4  O   UNL     1       2.138  -2.465   9.023  1.00  0.00    -0.550 OA
ENDBRANCH   1   2
BRANCH   1   5
ATOM      5  C   UNL     1      -0.213   0.198   7.715  1.00  0.00     0.006 C 
BRANCH   5   6
ATOM      6  C   UNL     1      -1.640   0.557   8.147  1.00  0.00    -0.003 C 
ATOM      7  C   UNL     1      -2.009  -0.132   9.457  1.00  0.00     0.004 C 
ENDBRANCH   5   6
ENDBRANCH   1   5
TORSDOF 3
ENDMDL
MODEL 9
REMARK VINA RESULT:    -2.418     14.181     14.981
REMARK INTER + INTRA:          -2.956
REMARK INTER:                  -2.914
REMARK INTRA:                  -0.041
REMARK UNBOUND:                -0.113
REMARK SMILES CCCCC(=O)[O-]
REMARK SMILES IDX 4 1 5 2 6 3 7 4 3 5 2 6 1 7
REMARK H PARENT
REMARK Flexibility Score: inf
ROOT
ATOM      1  C   UNL     1       4.397  -0.769  -2.965  1.00  0.00     0.053 C 
ENDROOT
BRANCH   1   2
ATOM      2  C   UNL     1       5.050  -0.316  -4.232  1.00  0.00     0.041 C 
ATOM      3  O   UNL     1       6.155  -0.807  -4.586  1.00  0.00    -0.550 OA
ATOM      4  O   UNL     1       4.417   0.613  -5.048  1.00  0.00    -0.550 OA
ENDBRANCH   1   2
BRANCH   1   5
ATOM      5  C   UNL     1       3.252  -1.739  -3.270  1.00  0.00     0.006 C 
BRANCH   5   6
ATOM      6  C   UNL     1       1.916  -1.194  -2.752  1.00  0.00    -0.003 C 
ATOM      7  C   UNL     1       0.997  -2.324  -2.300  1.00  0.00     0.004 C 
ENDBRANCH   5   6
ENDBRANCH   1   5
TORSDOF 3
ENDMDL
