MODEL 1
REMARK VINA RESULT:    -4.937      0.000      0.000
REMARK INTER + INTRA:          -5.082
REMARK INTER:                  -5.082
REMARK INTRA:                   0.000
REMARK UNBOUND:                 0.000
REMARK SMILES Cc1ccccc1O
REMARK SMILES IDX 1 1 2 2 3 3 4 4 5 5 6 6 7 7 8 8
REMARK H PARENT 8 9
REMARK Flexibility Score: inf
ROOT
ATOM      1  C   UNL     1     -29.348 -10.068   5.491  1.00  0.00     0.048 C 
ATOM      2  C   UNL     1     -29.181 -10.370   4.027  1.00  0.00    -0.009 A 
ATOM      3  C   UNL     1     -30.175  -9.965   3.117  1.00  0.00     0.007 A 
ATOM      4  C   UNL     1     -30.037 -10.237   1.753  1.00  0.00     0.001 A 
ATOM      5  C   UNL     1     -28.912 -10.914   1.283  1.00  0.00     0.004 A 
ATOM      6  C   UNL     1     -27.919 -11.322   2.176  1.00  0.00     0.046 A 
ATOM      7  C   UNL     1     -28.042 -11.057   3.546  1.00  0.00     0.118 A 
ENDROOT
BRANCH   7   8
ATOM      8  O   UNL     1     -27.022 -11.485   4.398  1.00  0.00    -0.508 OA
ATOM      9  H   UNL     1     -27.197 -11.888   5.310  1.00  0.00     0.293 HD
ENDBRANCH   7   8
TORSDOF 1
ENDMDL
MODEL 2
REMARK VINA RESULT:    -4.745      1.829      2.503
REMARK INTER + INTRA:          -4.884
REMARK INTER:                  -4.884
REMARK INTRA:                   0.000
REMARK UNBOUND:                 0.000
REMARK SMILES Cc1ccccc1O
REMARK SMILES IDX 1 1 2 2 3 3 4 4 5 5 6 6 7 7 8 8
REMARK H PARENT 8 9
REMARK Flexibility Score: inf
ROOT
ATOM      1  C   UNL     1     -29.695  -9.904   5.584  1.00  0.00     0.048 C 
ATOM      2  C   UNL     1     -29.392 -10.229   4.148  1.00  0.00    -0.009 A 
ATOM      3  C   UNL     1     -28.195 -10.893   3.824  1.00  0.00     0.007 A 
ATOM      4  C   UNL     1     -27.895 -11.203   2.495  1.00  0.00     0.001 A 
ATOM      5  C   UNL     1     -28.783 -10.855   1.477  1.00  0.00     0.004 A 
ATOM      6  C   UNL     1     -29.975 -10.195   1.785  1.00  0.00     0.046 A 
ATOM      7  C   UNL     1     -30.289  -9.877   3.112  1.00  0.00     0.118 A 
ENDROOT
BRANCH   7   8
ATOM      8  O   UNL     1     -31.492  -9.217   3.368  1.00  0.00    -0.508 OA
ATOM      9  H   UNL     1     -31.712  -8.303   2.991  1.00  0.00     0.293 HD
ENDBRANCH   7   8
TORSDOF 1
ENDMDL
MODEL 3
REMARK VINA RESULT:    -4.716      0.421      0.421
REMARK INTER + INTRA:          -4.854
REMARK INTER:                  -4.854
REMARK INTRA:                   0.000
REMARK UNBOUND:                 0.000
REMARK SMILES Cc1ccccc1O
REMARK SMILES IDX 1 1 2 2 3 3 4 4 5 5 6 6 7 7 8 8
REMARK H PARENT 8 9
REMARK Flexibility Score: inf
ROOT
ATOM      1  C   UNL     1     -29.499  -9.846   5.688  1.00  0.00     0.048 C 
ATOM      2  C   UNL     1     -29.398 -10.114   4.212  1.00  0.00    -0.009 A 
ATOM      3  C   UNL     1     -30.391  -9.618   3.348  1.00  0.00     0.007 A 
ATOM      4  C   UNL     1     -30.315  -9.856   1.973  1.00  0.00     0.001 A 
ATOM      5  C   UNL     1     -29.252 -10.589   1.447  1.00  0.00     0.004 A 
ATOM      6  C   UNL     1     -28.260 -11.088   2.294  1.00  0.00     0.046 A 
ATOM      7  C   UNL     1     -28.322 -10.858   3.674  1.00  0.00     0.118 A 
ENDROOT
BRANCH   7   8
ATOM      8  O   UNL     1     -27.306 -11.377   4.479  1.00  0.00    -0.508 OA
ATOM      9  H   UNL     1     -27.449 -12.150   5.117  1.00  0.00     0.293 HD
ENDBRANCH   7   8
TORSDOF 1
ENDMDL
MODEL 4
REMARK VINA RESULT:    -4.664      1.214      2.285
REMARK INTER + INTRA:          -4.800
REMARK INTER:                  -4.800
REMARK INTRA:                   0.000
REMARK UNBOUND:                 0.000
REMARK SMILES Cc1ccccc1O
REMARK SMILES IDX 1 1 2 2 3 3 4 4 5 5 6 6 7 7 8 8
REMARK H PARENT 8 9
REMARK Flexibility Score: inf
ROOT
ATOM      1  C   UNL     1     -27.120 -11.590   4.022  1.00  0.00     0.048 C 
ATOM      2  C   UNL     1     -28.246 -11.003   3.217  1.00  0.00    -0.009 A 
ATOM      3  C   UNL     1     -28.274 -11.191   1.823  1.00  0.00     0.007 A 
ATOM      4  C   UNL     1     -29.313 -10.654   1.057  1.00  0.00     0.001 A 
ATOM      5  C   UNL     1     -30.330  -9.925   1.672  1.00  0.00     0.004 A 
ATOM      6  C   UNL     1     -30.314  -9.729   3.055  1.00  0.00     0.046 A 
ATOM      7  C   UNL     1     -29.280 -10.262   3.835  1.00  0.00     0.118 A 
ENDROOT
BRANCH   7   8
ATOM      8  O   UNL     1     -29.308 -10.040   5.213  1.00  0.00    -0.508 OA
ATOM      9  H   UNL     1     -29.331  -9.114   5.622  1.00  0.00     0.293 HD
ENDBRANCH   7   8
TORSDOF 1
ENDMDL
MODEL 5
REMARK VINA RESULT:    -4.549      1.206      1.975
REMARK INTER + INTRA:          -4.682
REMARK INTER:                  -4.682
REMARK INTRA:                   0.000
REMARK UNBOUND:                 0.000
REMARK SMILES Cc1ccccc1O
REMARK SMILES IDX 1 1 2 2 3 3 4 4 5 5 6 6 7 7 8 8
REMARK H PARENT 8 9
REMARK Flexibility Score: inf
ROOT
ATOM      1  C   UNL     1     -31.558  -9.373   3.571  1.00  0.00     0.048 C 
ATOM      2  C   UNL     1     -30.260 -10.011   3.162  1.00  0.00    -0.009 A 
ATOM      3  C   UNL     1     -30.019 -10.285   1.803  1.00  0.00     0.007 A 
ATOM      4  C   UNL     1     -28.818 -10.877   1.404  1.00  0.00     0.001 A 
ATOM      5  C   UNL     1     -27.847 -11.202   2.351  1.00  0.00     0.004 A 
ATOM      6  C   UNL     1     -28.075 -10.936   3.704  1.00  0.00     0.046 A 
ATOM      7  C   UNL     1     -29.273 -10.343   4.120  1.00  0.00     0.118 A 
ENDROOT
BRANCH   7   8
ATOM      8  O   UNL     1     -29.452 -10.097   5.482  1.00  0.00    -0.508 OA
ATOM      9  H   UNL     1     -29.711  -9.190   5.850  1.00  0.00     0.293 HD
ENDBRANCH   7   8
TORSDOF 1
ENDMDL
MODEL 6
REMARK VINA RESULT:    -4.542      0.822      2.609
REMARK INTER + INTRA:          -4.675
REMARK INTER:                  -4.675
REMARK INTRA:                   0.000
REMARK UNBOUND:                 0.000
REMARK SMILES Cc1ccccc1O
REMARK SMILES IDX 1 1 2 2 3 3 4 4 5 5 6 6 7 7 8 8
REMARK H PARENT 8 9
REMARK Flexibility Score: inf
ROOT
ATOM      1  C   UNL     1     -28.456 -11.336   1.327  1.00  0.00     0.048 C 
ATOM      2  C   UNL     1     -29.025 -10.863   2.635  1.00  0.00    -0.009 A 
ATOM      3  C   UNL     1     -30.336 -10.354   2.678  1.00  0.00     0.007 A 
ATOM      4  C   UNL     1     -30.883  -9.909   3.885  1.00  0.00     0.001 A 
ATOM      5  C   UNL     1     -30.131  -9.966   5.058  1.00  0.00     0.004 A 
ATOM      6  C   UNL     1     -28.827 -10.468   5.029  1.00  0.00     0.046 A 
ATOM      7  C   UNL     1     -28.266 -10.918   3.827  1.00  0.00     0.118 A 
ENDROOT
BRANCH   7   8
ATOM      8  O   UNL     1     -26.960 -11.411   3.851  1.00  0.00    -0.508 OA
ATOM      9  H   UNL     1     -26.154 -10.851   3.600  1.00  0.00     0.293 HD
ENDBRANCH   7   8
TORSDOF 1
ENDMDL
MODEL 7
REMARK VINA RESULT:    -4.520      2.056      2.813
REMARK INTER + INTRA:          -4.652
REMARK INTER:                  -4.652
REMARK INTRA:                   0.000
REMARK UNBOUND:                 0.000
REMARK SMILES Cc1ccccc1O
REMARK SMILES IDX 1 1 2 2 3 3 4 4 5 5 6 6 7 7 8 8
REMARK H PARENT 8 9
REMARK Flexibility Score: inf
ROOT
ATOM      1  C   UNL     1     -31.583  -9.398   3.708  1.00  0.00     0.048 C 
ATOM      2  C   UNL     1     -30.299 -10.011   3.223  1.00  0.00    -0.009 A 
ATOM      3  C   UNL     1     -29.361 -10.489   4.157  1.00  0.00     0.007 A 
ATOM      4  C   UNL     1     -28.162 -11.063   3.725  1.00  0.00     0.001 A 
ATOM      5  C   UNL     1     -27.885 -11.165   2.362  1.00  0.00     0.004 A 
ATOM      6  C   UNL     1     -28.807 -10.694   1.425  1.00  0.00     0.046 A 
ATOM      7  C   UNL     1     -30.013 -10.117   1.842  1.00  0.00     0.118 A 
ENDROOT
BRANCH   7   8
ATOM      8  O   UNL     1     -30.901  -9.661   0.866  1.00  0.00    -0.508 OA
ATOM      9  H   UNL     1     -31.325 -10.271   0.177  1.00  0.00     0.293 HD
ENDBRANCH   7   8
TORSDOF 1
ENDMDL
MODEL 8
REMARK VINA RESULT:    -4.287      1.513      2.573
REMARK INTER + INTRA:          -4.413
REMARK INTER:                  -4.413
REMARK INTRA:                   0.000
REMARK UNBOUND:                 0.000
REMARK SMILES Cc1ccccc1O
REMARK SMILES IDX 1 1 2 2 3 3 4 4 5 5 6 6 7 7 8 8
REMARK H PARENT 8 9
REMARK Flexibility Score: inf
ROOT
ATOM      1  C   UNL     1     -27.240 -11.481   3.992  1.00  0.00     0.048 C 
ATOM      2  C   UNL     1     -28.575 -10.844   3.724  1.00  0.00    -0.009 A 
ATOM      3  C   UNL     1     -29.326 -10.329   4.796  1.00  0.00     0.007 A 
ATOM      4  C   UNL     1     -30.570  -9.733   4.568  1.00  0.00     0.001 A 
ATOM      5  C   UNL     1     -31.076  -9.645   3.271  1.00  0.00     0.004 A 
ATOM      6  C   UNL     1     -30.341 -10.154   2.197  1.00  0.00     0.046 A 
ATOM      7  C   UNL     1     -29.093 -10.753   2.411  1.00  0.00     0.118 A 
ENDROOT
BRANCH   7   8
ATOM      8  O   UNL     1     -28.398 -11.245   1.306  1.00  0.00    -0.508 OA
ATOM      9  H   UNL     1     -27.522 -10.851   0.984  1.00  0.00     0.293 HD
ENDBRANCH   7   8
TORSDOF 1
ENDMDL
MODEL 9
REMARK VINA RESULT:    -4.286      2.082      3.605
REMARK INTER + INTRA:          -4.412
REMARK INTER:                  -4.412
REMARK INTRA:                   0.000
REMARK UNBOUND:                 0.000
REMARK SMILES Cc1ccccc1O
REMARK SMILES IDX 1 1 2 2 3 3 4 4 5 5 6 6 7 7 8 8
REMARK H PARENT 8 9
REMARK Flexibility Score: inf
ROOT
ATOM      1  C   UNL     1     -28.636 -11.581   1.056  1.00  0.00     0.048 C 
ATOM      2  C   UNL     1     -29.136 -10.851   2.272  1.00  0.00    -0.009 A 
ATOM      3  C   UNL     1     -28.544 -11.101   3.524  1.00  0.00     0.007 A 
ATOM      4  C   UNL     1     -28.994 -10.432   4.665  1.00  0.00     0.001 A 
ATOM      5  C   UNL     1     -30.037  -9.510   4.571  1.00  0.00     0.004 A 
ATOM      6  C   UNL     1     -30.634  -9.254   3.334  1.00  0.00     0.046 A 
ATOM      7  C   UNL     1     -30.194  -9.916   2.182  1.00  0.00     0.118 A 
ENDROOT
BRANCH   7   8
ATOM      8  O   UNL     1     -30.823  -9.625   0.970  1.00  0.00    -0.508 OA
ATOM      9  H   UNL     1     -30.340  -9.642   0.080  1.00  0.00     0.293 HD
ENDBRANCH   7   8
TORSDOF 1
ENDMDL
