MODEL 1
REMARK VINA RESULT:    -6.303      0.000      0.000
REMARK INTER + INTRA:          -7.680
REMARK INTER:                  -7.408
REMARK INTRA:                  -0.271
REMARK UNBOUND:                -0.271
REMARK SMILES O=c1cc(-c2ccc(O)c(O)c2)oc2cc(O)cc(O)c12
REMARK SMILES IDX 4 1 3 2 2 3 1 4 21 5 19 6 18 7 16 8 15 9 14 10 13 11 5 12
REMARK SMILES IDX 6 13 7 14 8 15 12 16 10 17 9 18 11 20 20 22 17 24
REMARK H PARENT 9 19 11 21 20 23 17 25
REMARK Flexibility Score: inf
ROOT
ATOM      1  C   UNL     1     -20.384  39.820  -3.887  1.00  0.00     0.138 A 
ATOM      2  C   UNL     1     -19.861  40.728  -4.818  1.00  0.00     0.100 A 
ATOM      3  C   UNL     1     -19.653  40.321  -6.137  1.00  0.00     0.197 A 
ATOM      4  O   UNL     1     -19.125  41.138  -6.934  1.00  0.00    -0.289 OA
ATOM      5  C   UNL     1     -20.001  39.007  -6.530  1.00  0.00     0.107 A 
ATOM      6  C   UNL     1     -19.871  38.495  -7.856  1.00  0.00     0.134 A 
ATOM      7  C   UNL     1     -20.138  37.142  -8.102  1.00  0.00     0.093 A 
ATOM      8  C   UNL     1     -20.586  36.299  -7.082  1.00  0.00     0.123 A 
ATOM      9  C   UNL     1     -20.768  36.802  -5.797  1.00  0.00     0.094 A 
ATOM     10  C   UNL     1     -20.477  38.139  -5.512  1.00  0.00     0.146 A 
ATOM     11  O   UNL     1     -20.650  38.575  -4.269  1.00  0.00    -0.456 OA
ENDROOT
BRANCH   1  12
ATOM     12  C   UNL     1     -20.626  40.201  -2.472  1.00  0.00     0.021 A 
ATOM     13  C   UNL     1     -21.615  41.153  -2.171  1.00  0.00     0.016 A 
ATOM     14  C   UNL     1     -21.856  41.534  -0.849  1.00  0.00     0.051 A 
ATOM     15  C   UNL     1     -21.109  40.980   0.194  1.00  0.00     0.157 A 
ATOM     16  C   UNL     1     -19.867  39.654  -1.418  1.00  0.00     0.062 A 
ATOM     17  C   UNL     1     -20.107  40.038  -0.090  1.00  0.00     0.158 A 
BRANCH  15  18
ATOM     18  O   UNL     1     -21.374  41.378   1.504  1.00  0.00    -0.504 OA
ATOM     19  H   UNL     1     -21.621  42.332   1.737  1.00  0.00     0.293 HD
ENDBRANCH  15  18
BRANCH  17  20
ATOM     20  O   UNL     1     -19.351  39.491   0.945  1.00  0.00    -0.504 OA
ATOM     21  H   UNL     1     -18.448  39.872   1.202  1.00  0.00     0.293 HD
ENDBRANCH  17  20
ENDBRANCH   1  12
BRANCH   6  22
ATOM     22  O   UNL     1     -19.512  39.271  -8.961  1.00  0.00    -0.507 OA
ATOM     23  H   UNL     1     -18.712  39.099  -9.551  1.00  0.00     0.293 HD
ENDBRANCH   6  22
BRANCH   8  24
ATOM     24  O   UNL     1     -20.864  34.957  -7.340  1.00  0.00    -0.508 OA
ATOM     25  H   UNL     1     -21.816  34.612  -7.383  1.00  0.00     0.293 HD
ENDBRANCH   8  24
TORSDOF 5
ENDMDL
MODEL 2
REMARK VINA RESULT:    -6.081      5.275     10.794
REMARK INTER + INTRA:          -7.419
REMARK INTER:                  -7.154
REMARK INTRA:                  -0.265
REMARK UNBOUND:                -0.271
REMARK SMILES O=c1cc(-c2ccc(O)c(O)c2)oc2cc(O)cc(O)c12
REMARK SMILES IDX 4 1 3 2 2 3 1 4 21 5 19 6 18 7 16 8 15 9 14 10 13 11 5 12
REMARK SMILES IDX 6 13 7 14 8 15 12 16 10 17 9 18 11 20 20 22 17 24
REMARK H PARENT 9 19 11 21 20 23 17 25
REMARK Flexibility Score: inf
ROOT
ATOM      1  C   UNL     1     -18.943  41.045   3.416  1.00  0.00     0.138 A 
ATOM      2  C   UNL     1     -17.622  41.453   3.644  1.00  0.00     0.100 A 
ATOM      3  C   UNL     1     -17.189  41.695   4.949  1.00  0.00     0.197 A 
ATOM      4  O   UNL     1     -16.017  42.120   5.117  1.00  0.00    -0.289 OA
ATOM      5  C   UNL     1     -18.078  41.497   6.032  1.00  0.00     0.107 A 
ATOM      6  C   UNL     1     -17.736  41.673   7.406  1.00  0.00     0.134 A 
ATOM      7  C   UNL     1     -18.731  41.561   8.385  1.00  0.00     0.093 A 
ATOM      8  C   UNL     1     -20.042  41.220   8.044  1.00  0.00     0.123 A 
ATOM      9  C   UNL     1     -20.374  40.993   6.711  1.00  0.00     0.094 A 
ATOM     10  C   UNL     1     -19.412  41.131   5.708  1.00  0.00     0.146 A 
ATOM     11  O   UNL     1     -19.773  40.920   4.447  1.00  0.00    -0.456 OA
ENDROOT
BRANCH   1  12
ATOM     12  C   UNL     1     -19.455  40.773   2.049  1.00  0.00     0.021 A 
ATOM     13  C   UNL     1     -20.467  41.589   1.514  1.00  0.00     0.016 A 
ATOM     14  C   UNL     1     -20.971  41.350   0.234  1.00  0.00     0.051 A 
ATOM     15  C   UNL     1     -20.482  40.288  -0.531  1.00  0.00     0.157 A 
ATOM     16  C   UNL     1     -18.974  39.696   1.279  1.00  0.00     0.062 A 
ATOM     17  C   UNL     1     -19.481  39.453  -0.007  1.00  0.00     0.158 A 
BRANCH  15  18
ATOM     18  O   UNL     1     -21.003  40.075  -1.806  1.00  0.00    -0.504 OA
ATOM     19  H   UNL     1     -20.633  39.366  -2.428  1.00  0.00     0.293 HD
ENDBRANCH  15  18
BRANCH  17  20
ATOM     20  O   UNL     1     -18.998  38.386  -0.760  1.00  0.00    -0.504 OA
ATOM     21  H   UNL     1     -18.529  38.530  -1.647  1.00  0.00     0.293 HD
ENDBRANCH  17  20
ENDBRANCH   1  12
BRANCH   6  22
ATOM     22  O   UNL     1     -16.440  41.932   7.861  1.00  0.00    -0.507 OA
ATOM     23  H   UNL     1     -15.809  42.605   7.454  1.00  0.00     0.293 HD
ENDBRANCH   6  22
BRANCH   8  24
ATOM     24  O   UNL     1     -21.023  41.096   9.027  1.00  0.00    -0.508 OA
ATOM     25  H   UNL     1     -21.922  40.673   8.828  1.00  0.00     0.293 HD
ENDBRANCH   8  24
TORSDOF 5
ENDMDL
MODEL 3
REMARK VINA RESULT:    -6.078      1.688      3.032
REMARK INTER + INTRA:          -7.415
REMARK INTER:                  -7.148
REMARK INTRA:                  -0.268
REMARK UNBOUND:                -0.271
REMARK SMILES O=c1cc(-c2ccc(O)c(O)c2)oc2cc(O)cc(O)c12
REMARK SMILES IDX 4 1 3 2 2 3 1 4 21 5 19 6 18 7 16 8 15 9 14 10 13 11 5 12
REMARK SMILES IDX 6 13 7 14 8 15 12 16 10 17 9 18 11 20 20 22 17 24
REMARK H PARENT 9 19 11 21 20 23 17 25
REMARK Flexibility Score: inf
ROOT
ATOM      1  C   UNL     1     -20.070  39.451  -2.248  1.00  0.00     0.138 A 
ATOM      2  C   UNL     1     -21.149  38.569  -2.392  1.00  0.00     0.100 A 
ATOM      3  C   UNL     1     -21.407  37.989  -3.636  1.00  0.00     0.197 A 
ATOM      4  O   UNL     1     -22.418  37.250  -3.749  1.00  0.00    -0.289 OA
ATOM      5  C   UNL     1     -20.559  38.273  -4.732  1.00  0.00     0.107 A 
ATOM      6  C   UNL     1     -20.701  37.710  -6.036  1.00  0.00     0.134 A 
ATOM      7  C   UNL     1     -19.872  38.154  -7.074  1.00  0.00     0.093 A 
ATOM      8  C   UNL     1     -18.868  39.099  -6.840  1.00  0.00     0.123 A 
ATOM      9  C   UNL     1     -18.687  39.614  -5.560  1.00  0.00     0.094 A 
ATOM     10  C   UNL     1     -19.520  39.216  -4.511  1.00  0.00     0.146 A 
ATOM     11  O   UNL     1     -19.323  39.744  -3.308  1.00  0.00    -0.456 OA
ENDROOT
BRANCH   1  12
ATOM     12  C   UNL     1     -19.751  40.094  -0.949  1.00  0.00     0.021 A 
ATOM     13  C   UNL     1     -19.769  41.496  -0.847  1.00  0.00     0.016 A 
ATOM     14  C   UNL     1     -19.465  42.125   0.362  1.00  0.00     0.051 A 
ATOM     15  C   UNL     1     -19.128  41.369   1.487  1.00  0.00     0.157 A 
ATOM     16  C   UNL     1     -19.398  39.336   0.186  1.00  0.00     0.062 A 
ATOM     17  C   UNL     1     -19.090  39.967   1.400  1.00  0.00     0.158 A 
BRANCH  15  18
ATOM     18  O   UNL     1     -18.831  42.025   2.681  1.00  0.00    -0.504 OA
ATOM     19  H   UNL     1     -18.616  41.521   3.534  1.00  0.00     0.293 HD
ENDBRANCH  15  18
BRANCH  17  20
ATOM     20  O   UNL     1     -18.743  39.208   2.516  1.00  0.00    -0.504 OA
ATOM     21  H   UNL     1     -17.806  38.841   2.639  1.00  0.00     0.293 HD
ENDBRANCH  17  20
ENDBRANCH   1  12
BRANCH   6  22
ATOM     22  O   UNL     1     -21.613  36.701  -6.356  1.00  0.00    -0.507 OA
ATOM     23  H   UNL     1     -21.834  35.914  -5.765  1.00  0.00     0.293 HD
ENDBRANCH   6  22
BRANCH   8  24
ATOM     24  O   UNL     1     -18.038  39.524  -7.876  1.00  0.00    -0.508 OA
ATOM     25  H   UNL     1     -17.688  40.474  -7.919  1.00  0.00     0.293 HD
ENDBRANCH   8  24
TORSDOF 5
ENDMDL
MODEL 4
REMARK VINA RESULT:    -5.926      2.996      5.228
REMARK INTER + INTRA:          -7.236
REMARK INTER:                  -6.967
REMARK INTRA:                  -0.269
REMARK UNBOUND:                -0.271
REMARK SMILES O=c1cc(-c2ccc(O)c(O)c2)oc2cc(O)cc(O)c12
REMARK SMILES IDX 4 1 3 2 2 3 1 4 21 5 19 6 18 7 16 8 15 9 14 10 13 11 5 12
REMARK SMILES IDX 6 13 7 14 8 15 12 16 10 17 9 18 11 20 20 22 17 24
REMARK H PARENT 9 19 11 21 20 23 17 25
REMARK Flexibility Score: inf
ROOT
ATOM      1  C   UNL     1     -20.016  40.524   0.848  1.00  0.00     0.138 A 
ATOM      2  C   UNL     1     -21.160  41.259   0.507  1.00  0.00     0.100 A 
ATOM      3  C   UNL     1     -21.785  41.033  -0.720  1.00  0.00     0.197 A 
ATOM      4  O   UNL     1     -22.773  41.751  -1.025  1.00  0.00    -0.289 OA
ATOM      5  C   UNL     1     -21.278  40.044  -1.596  1.00  0.00     0.107 A 
ATOM      6  C   UNL     1     -21.857  39.700  -2.855  1.00  0.00     0.134 A 
ATOM      7  C   UNL     1     -21.201  38.786  -3.689  1.00  0.00     0.093 A 
ATOM      8  C   UNL     1     -20.019  38.160  -3.283  1.00  0.00     0.123 A 
ATOM      9  C   UNL     1     -19.475  38.449  -2.035  1.00  0.00     0.094 A 
ATOM     10  C   UNL     1     -20.088  39.382  -1.194  1.00  0.00     0.146 A 
ATOM     11  O   UNL     1     -19.528  39.640  -0.017  1.00  0.00    -0.456 OA
ENDROOT
BRANCH   1  12
ATOM     12  C   UNL     1     -19.313  40.723   2.140  1.00  0.00     0.021 A 
ATOM     13  C   UNL     1     -18.606  41.917   2.366  1.00  0.00     0.016 A 
ATOM     14  C   UNL     1     -17.929  42.125   3.570  1.00  0.00     0.051 A 
ATOM     15  C   UNL     1     -17.937  41.144   4.565  1.00  0.00     0.157 A 
ATOM     16  C   UNL     1     -19.308  39.731   3.141  1.00  0.00     0.062 A 
ATOM     17  C   UNL     1     -18.626  39.938   4.350  1.00  0.00     0.158 A 
BRANCH  15  18
ATOM     18  O   UNL     1     -17.255  41.381   5.757  1.00  0.00    -0.504 OA
ATOM     19  H   UNL     1     -17.566  42.073   6.428  1.00  0.00     0.293 HD
ENDBRANCH  15  18
BRANCH  17  20
ATOM     20  O   UNL     1     -18.628  38.951   5.333  1.00  0.00    -0.504 OA
ATOM     21  H   UNL     1     -17.889  38.887   6.024  1.00  0.00     0.293 HD
ENDBRANCH  17  20
ENDBRANCH   1  12
BRANCH   6  22
ATOM     22  O   UNL     1     -23.076  40.202  -3.317  1.00  0.00    -0.507 OA
ATOM     23  H   UNL     1     -23.468  40.018  -4.228  1.00  0.00     0.293 HD
ENDBRANCH   6  22
BRANCH   8  24
ATOM     24  O   UNL     1     -19.381  37.240  -4.114  1.00  0.00    -0.508 OA
ATOM     25  H   UNL     1     -19.436  37.310  -5.124  1.00  0.00     0.293 HD
ENDBRANCH   8  24
TORSDOF 5
ENDMDL
MODEL 5
REMARK VINA RESULT:    -5.347      1.500      7.230
REMARK INTER + INTRA:          -6.556
REMARK INTER:                  -6.286
REMARK INTRA:                  -0.270
REMARK UNBOUND:                -0.271
REMARK SMILES O=c1cc(-c2ccc(O)c(O)c2)oc2cc(O)cc(O)c12
REMARK SMILES IDX 4 1 3 2 2 3 1 4 21 5 19 6 18 7 16 8 15 9 14 10 13 11 5 12
REMARK SMILES IDX 6 13 7 14 8 15 12 16 10 17 9 18 11 20 20 22 17 24
REMARK H PARENT 9 19 11 21 20 23 17 25
REMARK Flexibility Score: inf
ROOT
ATOM      1  C   UNL     1     -20.570  39.585  -2.826  1.00  0.00     0.138 A 
ATOM      2  C   UNL     1     -21.607  40.487  -2.554  1.00  0.00     0.100 A 
ATOM      3  C   UNL     1     -21.757  40.998  -1.264  1.00  0.00     0.197 A 
ATOM      4  O   UNL     1     -22.734  41.758  -1.035  1.00  0.00    -0.289 OA
ATOM      5  C   UNL     1     -20.844  40.624  -0.249  1.00  0.00     0.107 A 
ATOM      6  C   UNL     1     -20.876  41.111   1.092  1.00  0.00     0.134 A 
ATOM      7  C   UNL     1     -19.991  40.581   2.040  1.00  0.00     0.093 A 
ATOM      8  C   UNL     1     -19.038  39.625   1.680  1.00  0.00     0.123 A 
ATOM      9  C   UNL     1     -18.964  39.182   0.363  1.00  0.00     0.094 A 
ATOM     10  C   UNL     1     -19.855  39.666  -0.599  1.00  0.00     0.146 A 
ATOM     11  O   UNL     1     -19.760  39.207  -1.842  1.00  0.00    -0.456 OA
ENDROOT
BRANCH   1  12
ATOM     12  C   UNL     1     -20.364  39.013  -4.180  1.00  0.00     0.021 A 
ATOM     13  C   UNL     1     -19.825  39.820  -5.198  1.00  0.00     0.016 A 
ATOM     14  C   UNL     1     -19.630  39.308  -6.483  1.00  0.00     0.051 A 
ATOM     15  C   UNL     1     -19.976  37.987  -6.778  1.00  0.00     0.157 A 
ATOM     16  C   UNL     1     -20.724  37.685  -4.487  1.00  0.00     0.062 A 
ATOM     17  C   UNL     1     -20.529  37.171  -5.777  1.00  0.00     0.158 A 
BRANCH  15  18
ATOM     18  O   UNL     1     -19.767  37.503  -8.068  1.00  0.00    -0.504 OA
ATOM     19  H   UNL     1     -20.232  36.672  -8.414  1.00  0.00     0.293 HD
ENDBRANCH  15  18
BRANCH  17  20
ATOM     20  O   UNL     1     -20.887  35.856  -6.068  1.00  0.00    -0.504 OA
ATOM     21  H   UNL     1     -20.477  35.353  -6.848  1.00  0.00     0.293 HD
ENDBRANCH  17  20
ENDBRANCH   1  12
BRANCH   6  22
ATOM     22  O   UNL     1     -21.730  42.125   1.535  1.00  0.00    -0.507 OA
ATOM     23  H   UNL     1     -22.099  42.863   0.955  1.00  0.00     0.293 HD
ENDBRANCH   6  22
BRANCH   8  24
ATOM     24  O   UNL     1     -18.152  39.114   2.627  1.00  0.00    -0.508 OA
ATOM     25  H   UNL     1     -17.183  39.410   2.660  1.00  0.00     0.293 HD
ENDBRANCH   8  24
TORSDOF 5
ENDMDL
MODEL 6
REMARK VINA RESULT:    -5.326      2.786      6.649
REMARK INTER + INTRA:          -6.531
REMARK INTER:                  -6.263
REMARK INTRA:                  -0.268
REMARK UNBOUND:                -0.271
REMARK SMILES O=c1cc(-c2ccc(O)c(O)c2)oc2cc(O)cc(O)c12
REMARK SMILES IDX 4 1 3 2 2 3 1 4 21 5 19 6 18 7 16 8 15 9 14 10 13 11 5 12
REMARK SMILES IDX 6 13 7 14 8 15 12 16 10 17 9 18 11 20 20 22 17 24
REMARK H PARENT 9 19 11 21 20 23 17 25
REMARK Flexibility Score: inf
ROOT
ATOM      1  C   UNL     1     -18.799  39.920  -5.469  1.00  0.00     0.138 A 
ATOM      2  C   UNL     1     -19.208  38.585  -5.588  1.00  0.00     0.100 A 
ATOM      3  C   UNL     1     -20.254  38.110  -4.795  1.00  0.00     0.197 A 
ATOM      4  O   UNL     1     -20.558  36.892  -4.880  1.00  0.00    -0.289 OA
ATOM      5  C   UNL     1     -20.911  38.986  -3.900  1.00  0.00     0.107 A 
ATOM      6  C   UNL     1     -22.015  38.623  -3.071  1.00  0.00     0.134 A 
ATOM      7  C   UNL     1     -22.510  39.544  -2.138  1.00  0.00     0.093 A 
ATOM      8  C   UNL     1     -21.979  40.833  -2.047  1.00  0.00     0.123 A 
ATOM      9  C   UNL     1     -20.938  41.215  -2.889  1.00  0.00     0.094 A 
ATOM     10  C   UNL     1     -20.399  40.308  -3.806  1.00  0.00     0.146 A 
ATOM     11  O   UNL     1     -19.396  40.708  -4.580  1.00  0.00    -0.456 OA
ENDROOT
BRANCH   1  12
ATOM     12  C   UNL     1     -17.694  40.478  -6.288  1.00  0.00     0.021 A 
ATOM     13  C   UNL     1     -17.939  41.586  -7.118  1.00  0.00     0.016 A 
ATOM     14  C   UNL     1     -16.918  42.124  -7.905  1.00  0.00     0.051 A 
ATOM     15  C   UNL     1     -15.640  41.561  -7.887  1.00  0.00     0.157 A 
ATOM     16  C   UNL     1     -16.406  39.906  -6.283  1.00  0.00     0.062 A 
ATOM     17  C   UNL     1     -15.381  40.444  -7.075  1.00  0.00     0.158 A 
BRANCH  15  18
ATOM     18  O   UNL     1     -14.640  42.121  -8.681  1.00  0.00    -0.504 OA
ATOM     19  H   UNL     1     -13.660  42.062  -8.435  1.00  0.00     0.293 HD
ENDBRANCH  15  18
BRANCH  17  20
ATOM     20  O   UNL     1     -14.111  39.871  -7.061  1.00  0.00    -0.504 OA
ATOM     21  H   UNL     1     -13.884  39.097  -6.447  1.00  0.00     0.293 HD
ENDBRANCH  17  20
ENDBRANCH   1  12
BRANCH   6  22
ATOM     22  O   UNL     1     -22.672  37.392  -3.140  1.00  0.00    -0.507 OA
ATOM     23  H   UNL     1     -23.661  37.257  -2.998  1.00  0.00     0.293 HD
ENDBRANCH   6  22
BRANCH   8  24
ATOM     24  O   UNL     1     -22.489  41.747  -1.127  1.00  0.00    -0.508 OA
ATOM     25  H   UNL     1     -22.400  42.747  -1.268  1.00  0.00     0.293 HD
ENDBRANCH   8  24
TORSDOF 5
ENDMDL
MODEL 7
REMARK VINA RESULT:    -5.218      3.028      7.158
REMARK INTER + INTRA:          -6.404
REMARK INTER:                  -6.141
REMARK INTRA:                  -0.264
REMARK UNBOUND:                -0.271
REMARK SMILES O=c1cc(-c2ccc(O)c(O)c2)oc2cc(O)cc(O)c12
REMARK SMILES IDX 4 1 3 2 2 3 1 4 21 5 19 6 18 7 16 8 15 9 14 10 13 11 5 12
REMARK SMILES IDX 6 13 7 14 8 15 12 16 10 17 9 18 11 20 20 22 17 24
REMARK H PARENT 9 19 11 21 20 23 17 25
REMARK Flexibility Score: inf
ROOT
ATOM      1  C   UNL     1     -20.201  38.257  -7.028  1.00  0.00     0.138 A 
ATOM      2  C   UNL     1     -20.480  38.477  -5.672  1.00  0.00     0.100 A 
ATOM      3  C   UNL     1     -19.755  39.438  -4.966  1.00  0.00     0.197 A 
ATOM      4  O   UNL     1     -19.985  39.570  -3.736  1.00  0.00    -0.289 OA
ATOM      5  C   UNL     1     -18.768  40.203  -5.631  1.00  0.00     0.107 A 
ATOM      6  C   UNL     1     -17.995  41.238  -5.023  1.00  0.00     0.134 A 
ATOM      7  C   UNL     1     -16.965  41.848  -5.749  1.00  0.00     0.093 A 
ATOM      8  C   UNL     1     -16.719  41.501  -7.081  1.00  0.00     0.123 A 
ATOM      9  C   UNL     1     -17.503  40.531  -7.700  1.00  0.00     0.094 A 
ATOM     10  C   UNL     1     -18.516  39.880  -6.991  1.00  0.00     0.146 A 
ATOM     11  O   UNL     1     -19.230  38.950  -7.615  1.00  0.00    -0.456 OA
ENDROOT
BRANCH   1  12
ATOM     12  C   UNL     1     -20.942  37.248  -7.826  1.00  0.00     0.021 A 
ATOM     13  C   UNL     1     -21.883  37.675  -8.780  1.00  0.00     0.016 A 
ATOM     14  C   UNL     1     -22.599  36.745  -9.538  1.00  0.00     0.051 A 
ATOM     15  C   UNL     1     -22.396  35.375  -9.352  1.00  0.00     0.157 A 
ATOM     16  C   UNL     1     -20.751  35.865  -7.634  1.00  0.00     0.062 A 
ATOM     17  C   UNL     1     -21.471  34.931  -8.393  1.00  0.00     0.158 A 
BRANCH  15  18
ATOM     18  O   UNL     1     -23.124  34.471 -10.125  1.00  0.00    -0.504 OA
ATOM     19  H   UNL     1     -22.700  33.644 -10.527  1.00  0.00     0.293 HD
ENDBRANCH  15  18
BRANCH  17  20
ATOM     20  O   UNL     1     -21.273  33.566  -8.195  1.00  0.00    -0.504 OA
ATOM     21  H   UNL     1     -20.741  33.005  -8.852  1.00  0.00     0.293 HD
ENDBRANCH  17  20
ENDBRANCH   1  12
BRANCH   6  22
ATOM     22  O   UNL     1     -18.214  41.718  -3.728  1.00  0.00    -0.507 OA
ATOM     23  H   UNL     1     -17.491  41.887  -3.046  1.00  0.00     0.293 HD
ENDBRANCH   6  22
BRANCH   8  24
ATOM     24  O   UNL     1     -15.702  42.125  -7.801  1.00  0.00    -0.508 OA
ATOM     25  H   UNL     1     -15.798  42.325  -8.790  1.00  0.00     0.293 HD
ENDBRANCH   8  24
TORSDOF 5
ENDMDL
MODEL 8
REMARK VINA RESULT:    -3.669      6.555     12.341
REMARK INTER + INTRA:          -4.583
REMARK INTER:                  -4.319
REMARK INTRA:                  -0.265
REMARK UNBOUND:                -0.271
REMARK SMILES O=c1cc(-c2ccc(O)c(O)c2)oc2cc(O)cc(O)c12
REMARK SMILES IDX 4 1 3 2 2 3 1 4 21 5 19 6 18 7 16 8 15 9 14 10 13 11 5 12
REMARK SMILES IDX 6 13 7 14 8 15 12 16 10 17 9 18 11 20 20 22 17 24
REMARK H PARENT 9 19 11 21 20 23 17 25
REMARK Flexibility Score: inf
ROOT
ATOM      1  C   UNL     1     -19.268  40.756   5.204  1.00  0.00     0.138 A 
ATOM      2  C   UNL     1     -20.487  40.748   5.897  1.00  0.00     0.100 A 
ATOM      3  C   UNL     1     -20.510  41.057   7.258  1.00  0.00     0.197 A 
ATOM      4  O   UNL     1     -21.609  40.982   7.865  1.00  0.00    -0.289 OA
ATOM      5  C   UNL     1     -19.309  41.405   7.920  1.00  0.00     0.107 A 
ATOM      6  C   UNL     1     -19.217  41.776   9.295  1.00  0.00     0.134 A 
ATOM      7  C   UNL     1     -17.958  41.987   9.870  1.00  0.00     0.093 A 
ATOM      8  C   UNL     1     -16.792  41.897   9.105  1.00  0.00     0.123 A 
ATOM      9  C   UNL     1     -16.874  41.587   7.751  1.00  0.00     0.094 A 
ATOM     10  C   UNL     1     -18.113  41.338   7.155  1.00  0.00     0.146 A 
ATOM     11  O   UNL     1     -18.147  41.031   5.863  1.00  0.00    -0.456 OA
ENDROOT
BRANCH   1  12
ATOM     12  C   UNL     1     -19.187  40.436   3.757  1.00  0.00     0.021 A 
ATOM     13  C   UNL     1     -19.070  39.095   3.350  1.00  0.00     0.016 A 
ATOM     14  C   UNL     1     -18.984  38.769   1.995  1.00  0.00     0.051 A 
ATOM     15  C   UNL     1     -19.003  39.773   1.023  1.00  0.00     0.157 A 
ATOM     16  C   UNL     1     -19.193  41.446   2.774  1.00  0.00     0.062 A 
ATOM     17  C   UNL     1     -19.104  41.119   1.412  1.00  0.00     0.158 A 
BRANCH  15  18
ATOM     18  O   UNL     1     -18.918  39.417  -0.322  1.00  0.00    -0.504 OA
ATOM     19  H   UNL     1     -18.491  40.021  -1.014  1.00  0.00     0.293 HD
ENDBRANCH  15  18
BRANCH  17  20
ATOM     20  O   UNL     1     -19.112  42.125   0.449  1.00  0.00    -0.504 OA
ATOM     21  H   UNL     1     -19.827  42.168  -0.269  1.00  0.00     0.293 HD
ENDBRANCH  17  20
ENDBRANCH   1  12
BRANCH   6  22
ATOM     22  O   UNL     1     -20.324  41.977  10.125  1.00  0.00    -0.507 OA
ATOM     23  H   UNL     1     -21.262  42.156   9.802  1.00  0.00     0.293 HD
ENDBRANCH   6  22
BRANCH   8  24
ATOM     24  O   UNL     1     -15.544  42.123   9.684  1.00  0.00    -0.508 OA
ATOM     25  H   UNL     1     -15.396  42.873  10.350  1.00  0.00     0.293 HD
ENDBRANCH   8  24
TORSDOF 5
ENDMDL
