MODEL 1
REMARK VINA RESULT:    -4.803      0.000      0.000
REMARK INTER + INTRA:          -5.570
REMARK INTER:                  -5.364
REMARK INTRA:                  -0.206
REMARK UNBOUND:                -0.206
REMARK SMILES CC(C)c1ccc(C(=O)[O-])cc1
REMARK SMILES IDX 7 1 6 2 11 3 5 4 12 5 4 6 8 7 9 8 10 9 2 10 1 11 3 12
REMARK H PARENT
REMARK Flexibility Score: inf
ROOT
ATOM      1  C   UNL     1      -7.659  -7.221 -18.792  1.00  0.00    -0.003 A 
ATOM      2  C   UNL     1      -8.868  -7.177 -18.076  1.00  0.00     0.010 A 
ATOM      3  C   UNL     1      -7.684  -7.019 -20.181  1.00  0.00     0.010 A 
ATOM      4  C   UNL     1     -10.077  -6.938 -18.737  1.00  0.00     0.004 A 
ATOM      5  C   UNL     1      -8.893  -6.780 -20.842  1.00  0.00     0.004 A 
ATOM      6  C   UNL     1     -10.103  -6.736 -20.127  1.00  0.00    -0.045 A 
ENDROOT
BRANCH   1   7
ATOM      7  C   UNL     1      -6.378  -7.474 -18.095  1.00  0.00     0.071 C 
ATOM      8  O   UNL     1      -6.010  -6.736 -17.143  1.00  0.00    -0.545 OA
ATOM      9  O   UNL     1      -5.564  -8.533 -18.481  1.00  0.00    -0.545 OA
ENDBRANCH   1   7
BRANCH   6  10
ATOM     10  C   UNL     1     -11.421  -6.477 -20.832  1.00  0.00     0.013 C 
ATOM     11  C   UNL     1     -12.038  -7.783 -21.348  1.00  0.00     0.012 C 
ATOM     12  C   UNL     1     -12.398  -5.728 -19.918  1.00  0.00     0.012 C 
ENDBRANCH   6  10
TORSDOF 2
ENDMDL
MODEL 2
REMARK VINA RESULT:    -4.753      2.012      3.321
REMARK INTER + INTRA:          -5.515
REMARK INTER:                  -5.308
REMARK INTRA:                  -0.206
REMARK UNBOUND:                -0.206
REMARK SMILES CC(C)c1ccc(C(=O)[O-])cc1
REMARK SMILES IDX 7 1 6 2 11 3 5 4 12 5 4 6 8 7 9 8 10 9 2 10 1 11 3 12
REMARK H PARENT
REMARK Flexibility Score: inf
ROOT
ATOM      1  C   UNL     1      -5.973  -8.918 -18.124  1.00  0.00    -0.003 A 
ATOM      2  C   UNL     1      -6.386  -9.345 -19.398  1.00  0.00     0.010 A 
ATOM      3  C   UNL     1      -6.347  -7.638 -17.682  1.00  0.00     0.010 A 
ATOM      4  C   UNL     1      -7.157  -8.510 -20.212  1.00  0.00     0.004 A 
ATOM      5  C   UNL     1      -7.118  -6.803 -18.496  1.00  0.00     0.004 A 
ATOM      6  C   UNL     1      -7.532  -7.230 -19.771  1.00  0.00    -0.045 A 
ENDROOT
BRANCH   1   7
ATOM      7  C   UNL     1      -5.157  -9.799 -17.260  1.00  0.00     0.071 C 
ATOM      8  O   UNL     1      -5.414 -11.029 -17.174  1.00  0.00    -0.545 OA
ATOM      9  O   UNL     1      -4.093  -9.281 -16.531  1.00  0.00    -0.545 OA
ENDBRANCH   1   7
BRANCH   6  10
ATOM     10  C   UNL     1      -8.369  -6.334 -20.664  1.00  0.00     0.013 C 
ATOM     11  C   UNL     1      -7.578  -5.894 -21.902  1.00  0.00     0.012 C 
ATOM     12  C   UNL     1      -9.681  -7.021 -21.062  1.00  0.00     0.012 C 
ENDBRANCH   6  10
TORSDOF 2
ENDMDL
MODEL 3
REMARK VINA RESULT:    -4.750      2.042      2.949
REMARK INTER + INTRA:          -5.511
REMARK INTER:                  -5.303
REMARK INTRA:                  -0.208
REMARK UNBOUND:                -0.206
REMARK SMILES CC(C)c1ccc(C(=O)[O-])cc1
REMARK SMILES IDX 7 1 6 2 11 3 5 4 12 5 4 6 8 7 9 8 10 9 2 10 1 11 3 12
REMARK H PARENT
REMARK Flexibility Score: inf
ROOT
ATOM      1  C   UNL     1      -9.231  -6.761 -20.141  1.00  0.00    -0.003 A 
ATOM      2  C   UNL     1      -9.343  -6.790 -18.740  1.00  0.00     0.010 A 
ATOM      3  C   UNL     1     -10.385  -6.543 -20.910  1.00  0.00     0.010 A 
ATOM      4  C   UNL     1     -10.583  -6.607 -18.122  1.00  0.00     0.004 A 
ATOM      5  C   UNL     1     -11.626  -6.359 -20.292  1.00  0.00     0.004 A 
ATOM      6  C   UNL     1     -11.739  -6.388 -18.891  1.00  0.00    -0.045 A 
ENDROOT
BRANCH   1   7
ATOM      7  C   UNL     1      -7.920  -6.955 -20.798  1.00  0.00     0.071 C 
ATOM      8  O   UNL     1      -7.179  -7.923 -20.478  1.00  0.00    -0.545 OA
ATOM      9  O   UNL     1      -7.487  -6.072 -21.781  1.00  0.00    -0.545 OA
ENDBRANCH   1   7
BRANCH   6  10
ATOM     10  C   UNL     1     -13.078  -6.190 -18.208  1.00  0.00     0.013 C 
ATOM     11  C   UNL     1     -14.113  -5.606 -19.178  1.00  0.00     0.012 C 
ATOM     12  C   UNL     1     -13.581  -7.499 -17.586  1.00  0.00     0.012 C 
ENDBRANCH   6  10
TORSDOF 2
ENDMDL
MODEL 4
REMARK VINA RESULT:    -4.746      2.018      3.124
REMARK INTER + INTRA:          -5.507
REMARK INTER:                  -5.298
REMARK INTRA:                  -0.210
REMARK UNBOUND:                -0.206
REMARK SMILES CC(C)c1ccc(C(=O)[O-])cc1
REMARK SMILES IDX 7 1 6 2 11 3 5 4 12 5 4 6 8 7 9 8 10 9 2 10 1 11 3 12
REMARK H PARENT
REMARK Flexibility Score: inf
ROOT
ATOM      1  C   UNL     1      -9.249  -6.762 -20.118  1.00  0.00    -0.003 A 
ATOM      2  C   UNL     1     -10.393  -6.519 -20.896  1.00  0.00     0.010 A 
ATOM      3  C   UNL     1      -9.372  -6.796 -18.719  1.00  0.00     0.010 A 
ATOM      4  C   UNL     1     -11.635  -6.312 -20.288  1.00  0.00     0.004 A 
ATOM      5  C   UNL     1     -10.614  -6.589 -18.111  1.00  0.00     0.004 A 
ATOM      6  C   UNL     1     -11.760  -6.346 -18.889  1.00  0.00    -0.045 A 
ENDROOT
BRANCH   1   7
ATOM      7  C   UNL     1      -7.933  -6.981 -20.758  1.00  0.00     0.071 C 
ATOM      8  O   UNL     1      -7.200  -7.943 -20.405  1.00  0.00    -0.545 OA
ATOM      9  O   UNL     1      -7.487  -6.127 -21.761  1.00  0.00    -0.545 OA
ENDBRANCH   1   7
BRANCH   6  10
ATOM     10  C   UNL     1     -13.113  -6.121 -18.242  1.00  0.00     0.013 C 
ATOM     11  C   UNL     1     -14.113  -5.526 -19.242  1.00  0.00     0.012 C 
ATOM     12  C   UNL     1     -13.654  -7.417 -17.626  1.00  0.00     0.012 C 
ENDBRANCH   6  10
TORSDOF 2
ENDMDL
MODEL 5
REMARK VINA RESULT:    -4.730      2.046      3.118
REMARK INTER + INTRA:          -5.488
REMARK INTER:                  -5.283
REMARK INTRA:                  -0.206
REMARK UNBOUND:                -0.206
REMARK SMILES CC(C)c1ccc(C(=O)[O-])cc1
REMARK SMILES IDX 7 1 6 2 11 3 5 4 12 5 4 6 8 7 9 8 10 9 2 10 1 11 3 12
REMARK H PARENT
REMARK Flexibility Score: inf
ROOT
ATOM      1  C   UNL     1      -5.882  -8.982 -18.138  1.00  0.00    -0.003 A 
ATOM      2  C   UNL     1      -6.226  -7.678 -17.741  1.00  0.00     0.010 A 
ATOM      3  C   UNL     1      -6.369  -9.470 -19.361  1.00  0.00     0.010 A 
ATOM      4  C   UNL     1      -7.041  -6.881 -18.550  1.00  0.00     0.004 A 
ATOM      5  C   UNL     1      -7.184  -8.673 -20.171  1.00  0.00     0.004 A 
ATOM      6  C   UNL     1      -7.528  -7.369 -19.774  1.00  0.00    -0.045 A 
ENDROOT
BRANCH   1   7
ATOM      7  C   UNL     1      -5.021  -9.828 -17.283  1.00  0.00     0.071 C 
ATOM      8  O   UNL     1      -4.097  -9.316 -16.597  1.00  0.00    -0.545 OA
ATOM      9  O   UNL     1      -5.220 -11.203 -17.225  1.00  0.00    -0.545 OA
ENDBRANCH   1   7
BRANCH   6  10
ATOM     10  C   UNL     1      -8.411  -6.493 -20.643  1.00  0.00     0.013 C 
ATOM     11  C   UNL     1      -7.631  -5.936 -21.840  1.00  0.00     0.012 C 
ATOM     12  C   UNL     1      -9.661  -7.252 -21.104  1.00  0.00     0.012 C 
ENDBRANCH   6  10
TORSDOF 2
ENDMDL
MODEL 6
REMARK VINA RESULT:    -4.700      3.714      5.292
REMARK INTER + INTRA:          -5.455
REMARK INTER:                  -5.238
REMARK INTRA:                  -0.217
REMARK UNBOUND:                -0.206
REMARK SMILES CC(C)c1ccc(C(=O)[O-])cc1
REMARK SMILES IDX 7 1 6 2 11 3 5 4 12 5 4 6 8 7 9 8 10 9 2 10 1 11 3 12
REMARK H PARENT
REMARK Flexibility Score: inf
ROOT
ATOM      1  C   UNL     1     -12.387  -6.249 -19.043  1.00  0.00    -0.003 A 
ATOM      2  C   UNL     1     -11.468  -6.298 -17.980  1.00  0.00     0.010 A 
ATOM      3  C   UNL     1     -11.917  -6.419 -20.356  1.00  0.00     0.010 A 
ATOM      4  C   UNL     1     -10.108  -6.511 -18.225  1.00  0.00     0.004 A 
ATOM      5  C   UNL     1     -10.557  -6.633 -20.601  1.00  0.00     0.004 A 
ATOM      6  C   UNL     1      -9.637  -6.681 -19.538  1.00  0.00    -0.045 A 
ENDROOT
BRANCH   1   7
ATOM      7  C   UNL     1     -13.826  -6.024 -18.787  1.00  0.00     0.071 C 
ATOM      8  O   UNL     1     -14.395  -6.567 -17.804  1.00  0.00    -0.545 OA
ATOM      9  O   UNL     1     -14.571  -5.206 -19.630  1.00  0.00    -0.545 OA
ENDBRANCH   1   7
BRANCH   6  10
ATOM     10  C   UNL     1      -8.159  -6.912 -19.790  1.00  0.00     0.013 C 
ATOM     11  C   UNL     1      -7.725  -6.304 -21.129  1.00  0.00     0.012 C 
ATOM     12  C   UNL     1      -7.310  -6.368 -18.634  1.00  0.00     0.012 C 
ENDBRANCH   6  10
TORSDOF 2
ENDMDL
MODEL 7
REMARK VINA RESULT:    -4.677      2.794      5.688
REMARK INTER + INTRA:          -5.430
REMARK INTER:                  -5.221
REMARK INTRA:                  -0.209
REMARK UNBOUND:                -0.206
REMARK SMILES CC(C)c1ccc(C(=O)[O-])cc1
REMARK SMILES IDX 7 1 6 2 11 3 5 4 12 5 4 6 8 7 9 8 10 9 2 10 1 11 3 12
REMARK H PARENT
REMARK Flexibility Score: inf
ROOT
ATOM      1  C   UNL     1      -7.790  -7.604 -19.075  1.00  0.00    -0.003 A 
ATOM      2  C   UNL     1      -6.935  -7.231 -18.023  1.00  0.00     0.010 A 
ATOM      3  C   UNL     1      -7.400  -8.649 -19.928  1.00  0.00     0.010 A 
ATOM      4  C   UNL     1      -5.716  -7.887 -17.831  1.00  0.00     0.004 A 
ATOM      5  C   UNL     1      -6.181  -9.306 -19.736  1.00  0.00     0.004 A 
ATOM      6  C   UNL     1      -5.325  -8.932 -18.685  1.00  0.00    -0.045 A 
ENDROOT
BRANCH   1   7
ATOM      7  C   UNL     1      -9.081  -6.912 -19.281  1.00  0.00     0.071 C 
ATOM      8  O   UNL     1      -9.509  -6.686 -20.444  1.00  0.00    -0.545 OA
ATOM      9  O   UNL     1      -9.841  -6.500 -18.192  1.00  0.00    -0.545 OA
ENDBRANCH   1   7
BRANCH   6  10
ATOM     10  C   UNL     1      -4.000  -9.637 -18.465  1.00  0.00     0.013 C 
ATOM     11  C   UNL     1      -2.875  -8.957 -19.255  1.00  0.00     0.012 C 
ATOM     12  C   UNL     1      -3.657  -9.715 -16.972  1.00  0.00     0.012 C 
ENDBRANCH   6  10
TORSDOF 2
ENDMDL
MODEL 8
REMARK VINA RESULT:    -4.662      2.808      5.772
REMARK INTER + INTRA:          -5.413
REMARK INTER:                  -5.207
REMARK INTRA:                  -0.206
REMARK UNBOUND:                -0.206
REMARK SMILES CC(C)c1ccc(C(=O)[O-])cc1
REMARK SMILES IDX 7 1 6 2 11 3 5 4 12 5 4 6 8 7 9 8 10 9 2 10 1 11 3 12
REMARK H PARENT
REMARK Flexibility Score: inf
ROOT
ATOM      1  C   UNL     1      -7.673  -7.469 -19.219  1.00  0.00    -0.003 A 
ATOM      2  C   UNL     1      -7.092  -8.545 -19.914  1.00  0.00     0.010 A 
ATOM      3  C   UNL     1      -7.029  -6.974 -18.073  1.00  0.00     0.010 A 
ATOM      4  C   UNL     1      -5.894  -9.113 -19.471  1.00  0.00     0.004 A 
ATOM      5  C   UNL     1      -5.831  -7.542 -17.630  1.00  0.00     0.004 A 
ATOM      6  C   UNL     1      -5.250  -8.617 -18.325  1.00  0.00    -0.045 A 
ENDROOT
BRANCH   1   7
ATOM      7  C   UNL     1      -8.941  -6.866 -19.685  1.00  0.00     0.071 C 
ATOM      8  O   UNL     1      -9.878  -6.636 -18.875  1.00  0.00    -0.545 OA
ATOM      9  O   UNL     1      -9.116  -6.543 -21.026  1.00  0.00    -0.545 OA
ENDBRANCH   1   7
BRANCH   6  10
ATOM     10  C   UNL     1      -3.950  -9.243 -17.855  1.00  0.00     0.013 C 
ATOM     11  C   UNL     1      -4.200 -10.593 -17.172  1.00  0.00     0.012 C 
ATOM     12  C   UNL     1      -2.956  -9.386 -19.014  1.00  0.00     0.012 C 
ENDBRANCH   6  10
TORSDOF 2
ENDMDL
MODEL 9
REMARK VINA RESULT:    -4.611      3.602      5.393
REMARK INTER + INTRA:          -5.355
REMARK INTER:                  -5.148
REMARK INTRA:                  -0.208
REMARK UNBOUND:                -0.206
REMARK SMILES CC(C)c1ccc(C(=O)[O-])cc1
REMARK SMILES IDX 7 1 6 2 11 3 5 4 12 5 4 6 8 7 9 8 10 9 2 10 1 11 3 12
REMARK H PARENT
REMARK Flexibility Score: inf
ROOT
ATOM      1  C   UNL     1     -11.812  -6.537 -19.782  1.00  0.00    -0.003 A 
ATOM      2  C   UNL     1     -11.012  -6.630 -20.935  1.00  0.00     0.010 A 
ATOM      3  C   UNL     1     -11.196  -6.602 -18.521  1.00  0.00     0.010 A 
ATOM      4  C   UNL     1      -9.627  -6.786 -20.828  1.00  0.00     0.004 A 
ATOM      5  C   UNL     1      -9.811  -6.757 -18.415  1.00  0.00     0.004 A 
ATOM      6  C   UNL     1      -9.011  -6.850 -19.567  1.00  0.00    -0.045 A 
ENDROOT
BRANCH   1   7
ATOM      7  C   UNL     1     -13.278  -6.373 -19.892  1.00  0.00     0.071 C 
ATOM      8  O   UNL     1     -13.892  -5.572 -19.138  1.00  0.00    -0.545 OA
ATOM      9  O   UNL     1     -14.000  -7.100 -20.831  1.00  0.00    -0.545 OA
ENDBRANCH   1   7
BRANCH   6  10
ATOM     10  C   UNL     1      -7.507  -7.019 -19.465  1.00  0.00     0.013 C 
ATOM     11  C   UNL     1      -6.979  -6.483 -18.129  1.00  0.00     0.012 C 
ATOM     12  C   UNL     1      -7.099  -8.482 -19.673  1.00  0.00     0.012 C 
ENDBRANCH   6  10
TORSDOF 2
ENDMDL
