MODEL 1
REMARK VINA RESULT:    -3.899      0.000      0.000
REMARK INTER + INTRA:          -9.030
REMARK INTER:                  -6.862
REMARK INTRA:                  -2.168
REMARK UNBOUND:                -2.168
REMARK SMILES CCCCCCCCCCCCCCC(=O)[O-]
REMARK SMILES IDX 9 1 10 2 11 3 12 4 13 5 14 6 15 7 16 8 17 9 8 10 7 11 6 12
REMARK SMILES IDX 5 13 4 14 3 15 2 16 1 17
REMARK H PARENT
REMARK Flexibility Score: inf
ROOT
ATOM      1  C   UNL     1      28.657   3.300   9.540  1.00  0.00     0.000 C 
ENDROOT
BRANCH   1   2
ATOM      2  C   UNL     1      28.621   1.770   9.402  1.00  0.00     0.000 C 
BRANCH   2   3
ATOM      3  C   UNL     1      28.291   1.316   7.969  1.00  0.00     0.000 C 
BRANCH   3   4
ATOM      4  C   UNL     1      28.364   2.468   6.955  1.00  0.00     0.000 C 
BRANCH   4   5
ATOM      5  C   UNL     1      28.101   2.003   5.511  1.00  0.00     0.006 C 
BRANCH   5   6
ATOM      6  C   UNL     1      27.173   0.782   5.456  1.00  0.00     0.053 C 
BRANCH   6   7
ATOM      7  C   UNL     1      26.228   0.855   4.296  1.00  0.00     0.041 C 
ATOM      8  O   UNL     1      25.015   1.138   4.486  1.00  0.00    -0.550 OA
ATOM      9  O   UNL     1      26.677   0.577   3.012  1.00  0.00    -0.550 OA
ENDBRANCH   6   7
ENDBRANCH   5   6
ENDBRANCH   4   5
ENDBRANCH   3   4
ENDBRANCH   2   3
ENDBRANCH   1   2
BRANCH   1  10
ATOM     10  C   UNL     1      27.702   3.816  10.631  1.00  0.00     0.000 C 
BRANCH  10  11
ATOM     11  C   UNL     1      26.871   5.020  10.164  1.00  0.00    -0.000 C 
BRANCH  11  12
ATOM     12  C   UNL     1      27.205   5.446   8.724  1.00  0.00    -0.000 C 
BRANCH  12  13
ATOM     13  C   UNL     1      26.200   6.464   8.162  1.00  0.00    -0.000 C 
BRANCH  13  14
ATOM     14  C   UNL     1      25.077   5.796   7.352  1.00  0.00    -0.000 C 
BRANCH  14  15
ATOM     15  C   UNL     1      25.476   4.414   6.805  1.00  0.00    -0.000 C 
BRANCH  15  16
ATOM     16  C   UNL     1      24.443   3.309   7.108  1.00  0.00    -0.003 C 
ATOM     17  C   UNL     1      24.858   2.430   8.288  1.00  0.00     0.004 C 
ENDBRANCH  15  16
ENDBRANCH  14  15
ENDBRANCH  13  14
ENDBRANCH  12  13
ENDBRANCH  11  12
ENDBRANCH  10  11
ENDBRANCH   1  10
TORSDOF 13
ENDMDL
MODEL 2
REMARK VINA RESULT:    -3.850      2.952      5.267
REMARK INTER + INTRA:          -8.944
REMARK INTER:                  -7.225
REMARK INTRA:                  -1.719
REMARK UNBOUND:                -2.168
REMARK SMILES CCCCCCCCCCCCCCC(=O)[O-]
REMARK SMILES IDX 9 1 10 2 11 3 12 4 13 5 14 6 15 7 16 8 17 9 8 10 7 11 6 12
REMARK SMILES IDX 5 13 4 14 3 15 2 16 1 17
REMARK H PARENT
REMARK Flexibility Score: inf
ROOT
ATOM      1  C   UNL     1      28.812   1.631   9.539  1.00  0.00     0.000 C 
ENDROOT
BRANCH   1   2
ATOM      2  C   UNL     1      29.102   2.553  10.735  1.00  0.00     0.000 C 
BRANCH   2   3
ATOM      3  C   UNL     1      28.240   3.827  10.719  1.00  0.00     0.000 C 
BRANCH   3   4
ATOM      4  C   UNL     1      27.801   4.224   9.301  1.00  0.00     0.000 C 
BRANCH   4   5
ATOM      5  C   UNL     1      26.580   5.160   9.300  1.00  0.00     0.006 C 
BRANCH   5   6
ATOM      6  C   UNL     1      26.276   5.715   7.902  1.00  0.00     0.053 C 
BRANCH   6   7
ATOM      7  C   UNL     1      26.332   7.211   7.874  1.00  0.00     0.041 C 
ATOM      8  O   UNL     1      26.723   7.811   6.838  1.00  0.00    -0.550 OA
ATOM      9  O   UNL     1      25.986   7.943   9.003  1.00  0.00    -0.550 OA
ENDBRANCH   6   7
ENDBRANCH   5   6
ENDBRANCH   4   5
ENDBRANCH   3   4
ENDBRANCH   2   3
ENDBRANCH   1   2
BRANCH   1  10
ATOM     10  C   UNL     1      29.125   0.155   9.843  1.00  0.00     0.000 C 
BRANCH  10  11
ATOM     11  C   UNL     1      28.387  -0.809   8.902  1.00  0.00    -0.000 C 
BRANCH  11  12
ATOM     12  C   UNL     1      28.777  -0.610   7.427  1.00  0.00    -0.000 C 
BRANCH  12  13
ATOM     13  C   UNL     1      27.563  -0.313   6.532  1.00  0.00    -0.000 C 
BRANCH  13  14
ATOM     14  C   UNL     1      27.642   1.075   5.875  1.00  0.00    -0.000 C 
BRANCH  14  15
ATOM     15  C   UNL     1      26.710   2.103   6.539  1.00  0.00    -0.000 C 
BRANCH  15  16
ATOM     16  C   UNL     1      25.734   1.483   7.560  1.00  0.00    -0.003 C 
ATOM     17  C   UNL     1      24.497   2.352   7.788  1.00  0.00     0.004 C 
ENDBRANCH  15  16
ENDBRANCH  14  15
ENDBRANCH  13  14
ENDBRANCH  12  13
ENDBRANCH  11  12
ENDBRANCH  10  11
ENDBRANCH   1  10
TORSDOF 13
ENDMDL
MODEL 3
REMARK VINA RESULT:    -3.831      3.035      5.803
REMARK INTER + INTRA:          -8.910
REMARK INTER:                  -6.629
REMARK INTRA:                  -2.282
REMARK UNBOUND:                -2.168
REMARK SMILES CCCCCCCCCCCCCCC(=O)[O-]
REMARK SMILES IDX 9 1 10 2 11 3 12 4 13 5 14 6 15 7 16 8 17 9 8 10 7 11 6 12
REMARK SMILES IDX 5 13 4 14 3 15 2 16 1 17
REMARK H PARENT
REMARK Flexibility Score: inf
ROOT
ATOM      1  C   UNL     1      25.752   1.099   5.319  1.00  0.00     0.000 C 
ENDROOT
BRANCH   1   2
ATOM      2  C   UNL     1      25.164   0.469   6.592  1.00  0.00     0.000 C 
BRANCH   2   3
ATOM      3  C   UNL     1      24.710   1.525   7.616  1.00  0.00     0.000 C 
BRANCH   3   4
ATOM      4  C   UNL     1      24.705   2.946   7.034  1.00  0.00     0.000 C 
BRANCH   4   5
ATOM      5  C   UNL     1      25.407   3.963   7.951  1.00  0.00     0.006 C 
BRANCH   5   6
ATOM      6  C   UNL     1      26.055   3.294   9.170  1.00  0.00     0.053 C 
BRANCH   6   7
ATOM      7  C   UNL     1      26.960   4.234   9.904  1.00  0.00     0.041 C 
ATOM      8  O   UNL     1      26.889   5.474   9.695  1.00  0.00    -0.550 OA
ATOM      9  O   UNL     1      27.907   3.739  10.793  1.00  0.00    -0.550 OA
ENDBRANCH   6   7
ENDBRANCH   5   6
ENDBRANCH   4   5
ENDBRANCH   3   4
ENDBRANCH   2   3
ENDBRANCH   1   2
BRANCH   1  10
ATOM     10  C   UNL     1      27.285   0.984   5.258  1.00  0.00     0.000 C 
BRANCH  10  11
ATOM     11  C   UNL     1      27.990   2.259   5.747  1.00  0.00    -0.000 C 
BRANCH  11  12
ATOM     12  C   UNL     1      28.691   2.064   7.102  1.00  0.00    -0.000 C 
BRANCH  12  13
ATOM     13  C   UNL     1      28.855   0.581   7.473  1.00  0.00    -0.000 C 
BRANCH  13  14
ATOM     14  C   UNL     1      28.191   0.232   8.814  1.00  0.00    -0.000 C 
BRANCH  14  15
ATOM     15  C   UNL     1      28.250  -1.271   9.137  1.00  0.00    -0.000 C 
BRANCH  15  16
ATOM     16  C   UNL     1      28.414  -2.164   7.890  1.00  0.00    -0.003 C 
ATOM     17  C   UNL     1      27.072  -2.628   7.323  1.00  0.00     0.004 C 
ENDBRANCH  15  16
ENDBRANCH  14  15
ENDBRANCH  13  14
ENDBRANCH  12  13
ENDBRANCH  11  12
ENDBRANCH  10  11
ENDBRANCH   1  10
TORSDOF 13
ENDMDL
MODEL 4
REMARK VINA RESULT:    -3.817      1.379      2.611
REMARK INTER + INTRA:          -8.886
REMARK INTER:                  -6.619
REMARK INTRA:                  -2.267
REMARK UNBOUND:                -2.168
REMARK SMILES CCCCCCCCCCCCCCC(=O)[O-]
REMARK SMILES IDX 9 1 10 2 11 3 12 4 13 5 14 6 15 7 16 8 17 9 8 10 7 11 6 12
REMARK SMILES IDX 5 13 4 14 3 15 2 16 1 17
REMARK H PARENT
REMARK Flexibility Score: inf
ROOT
ATOM      1  C   UNL     1      27.963   3.608  10.034  1.00  0.00     0.000 C 
ENDROOT
BRANCH   1   2
ATOM      2  C   UNL     1      28.547   3.832   8.630  1.00  0.00     0.000 C 
BRANCH   2   3
ATOM      3  C   UNL     1      28.133   2.732   7.637  1.00  0.00     0.000 C 
BRANCH   3   4
ATOM      4  C   UNL     1      27.235   1.665   8.282  1.00  0.00     0.000 C 
BRANCH   4   5
ATOM      5  C   UNL     1      25.843   1.590   7.629  1.00  0.00     0.006 C 
BRANCH   5   6
ATOM      6  C   UNL     1      25.820   2.237   6.238  1.00  0.00     0.053 C 
BRANCH   6   7
ATOM      7  C   UNL     1      25.915   1.214   5.148  1.00  0.00     0.041 C 
ATOM      8  O   UNL     1      24.908   0.523   4.838  1.00  0.00    -0.550 OA
ATOM      9  O   UNL     1      27.124   0.998   4.498  1.00  0.00    -0.550 OA
ENDBRANCH   6   7
ENDBRANCH   5   6
ENDBRANCH   4   5
ENDBRANCH   3   4
ENDBRANCH   2   3
ENDBRANCH   1   2
BRANCH   1  10
ATOM     10  C   UNL     1      26.948   4.694  10.431  1.00  0.00     0.000 C 
BRANCH  10  11
ATOM     11  C   UNL     1      25.512   4.153  10.518  1.00  0.00    -0.000 C 
BRANCH  11  12
ATOM     12  C   UNL     1      24.483   5.106   9.885  1.00  0.00    -0.000 C 
BRANCH  12  13
ATOM     13  C   UNL     1      24.401   4.954   8.358  1.00  0.00    -0.000 C 
BRANCH  13  14
ATOM     14  C   UNL     1      24.656   6.278   7.620  1.00  0.00    -0.000 C 
BRANCH  14  15
ATOM     15  C   UNL     1      26.119   6.440   7.174  1.00  0.00    -0.000 C 
BRANCH  15  16
ATOM     16  C   UNL     1      26.853   7.604   7.872  1.00  0.00    -0.003 C 
ATOM     17  C   UNL     1      25.918   8.447   8.739  1.00  0.00     0.004 C 
ENDBRANCH  15  16
ENDBRANCH  14  15
ENDBRANCH  13  14
ENDBRANCH  12  13
ENDBRANCH  11  12
ENDBRANCH  10  11
ENDBRANCH   1  10
TORSDOF 13
ENDMDL
MODEL 5
REMARK VINA RESULT:    -3.755      3.275      5.939
REMARK INTER + INTRA:          -8.777
REMARK INTER:                  -7.386
REMARK INTRA:                  -1.391
REMARK UNBOUND:                -2.168
REMARK SMILES CCCCCCCCCCCCCCC(=O)[O-]
REMARK SMILES IDX 9 1 10 2 11 3 12 4 13 5 14 6 15 7 16 8 17 9 8 10 7 11 6 12
REMARK SMILES IDX 5 13 4 14 3 15 2 16 1 17
REMARK H PARENT
REMARK Flexibility Score: inf
ROOT
ATOM      1  C   UNL     1      27.801   1.447   8.729  1.00  0.00     0.000 C 
ENDROOT
BRANCH   1   2
ATOM      2  C   UNL     1      28.348   2.635   7.920  1.00  0.00     0.000 C 
BRANCH   2   3
ATOM      3  C   UNL     1      28.616   3.871   8.796  1.00  0.00     0.000 C 
BRANCH   3   4
ATOM      4  C   UNL     1      27.659   3.962   9.995  1.00  0.00     0.000 C 
BRANCH   4   5
ATOM      5  C   UNL     1      26.872   5.284  10.024  1.00  0.00     0.006 C 
BRANCH   5   6
ATOM      6  C   UNL     1      26.917   6.016   8.677  1.00  0.00     0.053 C 
BRANCH   6   7
ATOM      7  C   UNL     1      26.045   7.234   8.677  1.00  0.00     0.041 C 
ATOM      8  O   UNL     1      24.811   7.129   8.904  1.00  0.00    -0.550 OA
ATOM      9  O   UNL     1      26.589   8.480   8.391  1.00  0.00    -0.550 OA
ENDBRANCH   6   7
ENDBRANCH   5   6
ENDBRANCH   4   5
ENDBRANCH   3   4
ENDBRANCH   2   3
ENDBRANCH   1   2
BRANCH   1  10
ATOM     10  C   UNL     1      28.844   0.332   8.918  1.00  0.00     0.000 C 
BRANCH  10  11
ATOM     11  C   UNL     1      29.085  -0.472   7.631  1.00  0.00    -0.000 C 
BRANCH  11  12
ATOM     12  C   UNL     1      28.145  -1.684   7.507  1.00  0.00    -0.000 C 
BRANCH  12  13
ATOM     13  C   UNL     1      27.251  -1.611   6.259  1.00  0.00    -0.000 C 
BRANCH  13  14
ATOM     14  C   UNL     1      25.942  -0.847   6.517  1.00  0.00    -0.000 C 
BRANCH  14  15
ATOM     15  C   UNL     1      25.823   0.434   5.673  1.00  0.00    -0.000 C 
BRANCH  15  16
ATOM     16  C   UNL     1      27.011   0.655   4.714  1.00  0.00    -0.003 C 
ATOM     17  C   UNL     1      26.604   0.543   3.244  1.00  0.00     0.004 C 
ENDBRANCH  15  16
ENDBRANCH  14  15
ENDBRANCH  13  14
ENDBRANCH  12  13
ENDBRANCH  11  12
ENDBRANCH  10  11
ENDBRANCH   1  10
TORSDOF 13
ENDMDL
MODEL 6
REMARK VINA RESULT:    -3.750      1.403      2.346
REMARK INTER + INTRA:          -8.768
REMARK INTER:                  -6.914
REMARK INTRA:                  -1.854
REMARK UNBOUND:                -2.168
REMARK SMILES CCCCCCCCCCCCCCC(=O)[O-]
REMARK SMILES IDX 9 1 10 2 11 3 12 4 13 5 14 6 15 7 16 8 17 9 8 10 7 11 6 12
REMARK SMILES IDX 5 13 4 14 3 15 2 16 1 17
REMARK H PARENT
REMARK Flexibility Score: inf
ROOT
ATOM      1  C   UNL     1      27.727   1.463   8.594  1.00  0.00     0.000 C 
ENDROOT
BRANCH   1   2
ATOM      2  C   UNL     1      28.688   0.290   8.849  1.00  0.00     0.000 C 
BRANCH   2   3
ATOM      3  C   UNL     1      28.996  -0.509   7.569  1.00  0.00     0.000 C 
BRANCH   3   4
ATOM      4  C   UNL     1      27.985  -1.640   7.324  1.00  0.00     0.000 C 
BRANCH   4   5
ATOM      5  C   UNL     1      27.250  -1.494   5.980  1.00  0.00     0.006 C 
BRANCH   5   6
ATOM      6  C   UNL     1      26.076  -0.510   6.065  1.00  0.00     0.053 C 
BRANCH   6   7
ATOM      7  C   UNL     1      26.238   0.632   5.110  1.00  0.00     0.041 C 
ATOM      8  O   UNL     1      25.228   1.146   4.560  1.00  0.00    -0.550 OA
ATOM      9  O   UNL     1      27.507   1.105   4.799  1.00  0.00    -0.550 OA
ENDBRANCH   6   7
ENDBRANCH   5   6
ENDBRANCH   4   5
ENDBRANCH   3   4
ENDBRANCH   2   3
ENDBRANCH   1   2
BRANCH   1  10
ATOM     10  C   UNL     1      28.418   2.650   7.899  1.00  0.00     0.000 C 
BRANCH  10  11
ATOM     11  C   UNL     1      28.620   3.846   8.842  1.00  0.00    -0.000 C 
BRANCH  11  12
ATOM     12  C   UNL     1      27.706   3.786  10.078  1.00  0.00    -0.000 C 
BRANCH  12  13
ATOM     13  C   UNL     1      26.820   5.035  10.216  1.00  0.00    -0.000 C 
BRANCH  13  14
ATOM     14  C   UNL     1      26.839   5.913   8.954  1.00  0.00    -0.000 C 
BRANCH  14  15
ATOM     15  C   UNL     1      25.522   5.848   8.163  1.00  0.00    -0.000 C 
BRANCH  15  16
ATOM     16  C   UNL     1      25.600   4.958   6.905  1.00  0.00    -0.003 C 
ATOM     17  C   UNL     1      24.921   3.603   7.104  1.00  0.00     0.004 C 
ENDBRANCH  15  16
ENDBRANCH  14  15
ENDBRANCH  13  14
ENDBRANCH  12  13
ENDBRANCH  11  12
ENDBRANCH  10  11
ENDBRANCH   1  10
TORSDOF 13
ENDMDL
MODEL 7
REMARK VINA RESULT:    -3.692      2.676      3.351
REMARK INTER + INTRA:          -8.666
REMARK INTER:                  -6.750
REMARK INTRA:                  -1.916
REMARK UNBOUND:                -2.168
REMARK SMILES CCCCCCCCCCCCCCC(=O)[O-]
REMARK SMILES IDX 9 1 10 2 11 3 12 4 13 5 14 6 15 7 16 8 17 9 8 10 7 11 6 12
REMARK SMILES IDX 5 13 4 14 3 15 2 16 1 17
REMARK H PARENT
REMARK Flexibility Score: inf
ROOT
ATOM      1  C   UNL     1      27.433   4.029  10.737  1.00  0.00     0.000 C 
ENDROOT
BRANCH   1   2
ATOM      2  C   UNL     1      28.613   3.367  10.006  1.00  0.00     0.000 C 
BRANCH   2   3
ATOM      3  C   UNL     1      28.504   3.493   8.476  1.00  0.00     0.000 C 
BRANCH   3   4
ATOM      4  C   UNL     1      28.608   2.134   7.766  1.00  0.00     0.000 C 
BRANCH   4   5
ATOM      5  C   UNL     1      28.632   0.952   8.751  1.00  0.00     0.006 C 
BRANCH   5   6
ATOM      6  C   UNL     1      28.223  -0.367   8.083  1.00  0.00     0.053 C 
BRANCH   6   7
ATOM      7  C   UNL     1      28.316  -1.522   9.032  1.00  0.00     0.041 C 
ATOM      8  O   UNL     1      28.303  -2.704   8.595  1.00  0.00    -0.550 OA
ATOM      9  O   UNL     1      28.382  -1.295  10.401  1.00  0.00    -0.550 OA
ENDBRANCH   6   7
ENDBRANCH   5   6
ENDBRANCH   4   5
ENDBRANCH   3   4
ENDBRANCH   2   3
ENDBRANCH   1   2
BRANCH   1  10
ATOM     10  C   UNL     1      26.884   5.252   9.982  1.00  0.00     0.000 C 
BRANCH  10  11
ATOM     11  C   UNL     1      25.403   5.518  10.290  1.00  0.00    -0.000 C 
BRANCH  11  12
ATOM     12  C   UNL     1      24.694   6.290   9.164  1.00  0.00    -0.000 C 
BRANCH  12  13
ATOM     13  C   UNL     1      25.211   5.904   7.769  1.00  0.00    -0.000 C 
BRANCH  13  14
ATOM     14  C   UNL     1      24.402   4.759   7.138  1.00  0.00    -0.000 C 
BRANCH  14  15
ATOM     15  C   UNL     1      25.231   3.477   6.946  1.00  0.00    -0.000 C 
BRANCH  15  16
ATOM     16  C   UNL     1      24.960   2.399   8.016  1.00  0.00    -0.003 C 
ATOM     17  C   UNL     1      24.788   1.006   7.411  1.00  0.00     0.004 C 
ENDBRANCH  15  16
ENDBRANCH  14  15
ENDBRANCH  13  14
ENDBRANCH  12  13
ENDBRANCH  11  12
ENDBRANCH  10  11
ENDBRANCH   1  10
TORSDOF 13
ENDMDL
MODEL 8
REMARK VINA RESULT:    -3.659      2.751      5.277
REMARK INTER + INTRA:          -8.607
REMARK INTER:                  -6.592
REMARK INTRA:                  -2.016
REMARK UNBOUND:                -2.168
REMARK SMILES CCCCCCCCCCCCCCC(=O)[O-]
REMARK SMILES IDX 9 1 10 2 11 3 12 4 13 5 14 6 15 7 16 8 17 9 8 10 7 11 6 12
REMARK SMILES IDX 5 13 4 14 3 15 2 16 1 17
REMARK H PARENT
REMARK Flexibility Score: inf
ROOT
ATOM      1  C   UNL     1      28.384  -0.649   9.597  1.00  0.00     0.000 C 
ENDROOT
BRANCH   1   2
ATOM      2  C   UNL     1      29.123   0.668   9.311  1.00  0.00     0.000 C 
BRANCH   2   3
ATOM      3  C   UNL     1      28.869   1.733  10.393  1.00  0.00     0.000 C 
BRANCH   3   4
ATOM      4  C   UNL     1      28.726   3.146   9.806  1.00  0.00     0.000 C 
BRANCH   4   5
ATOM      5  C   UNL     1      27.633   3.970  10.509  1.00  0.00     0.006 C 
BRANCH   5   6
ATOM      6  C   UNL     1      27.251   5.224   9.712  1.00  0.00     0.053 C 
BRANCH   6   7
ATOM      7  C   UNL     1      25.766   5.421   9.666  1.00  0.00     0.041 C 
ATOM      8  O   UNL     1      25.156   5.377   8.565  1.00  0.00    -0.550 OA
ATOM      9  O   UNL     1      25.062   5.690  10.833  1.00  0.00    -0.550 OA
ENDBRANCH   6   7
ENDBRANCH   5   6
ENDBRANCH   4   5
ENDBRANCH   3   4
ENDBRANCH   2   3
ENDBRANCH   1   2
BRANCH   1  10
ATOM     10  C   UNL     1      28.270  -1.544   8.351  1.00  0.00     0.000 C 
BRANCH  10  11
ATOM     11  C   UNL     1      28.532  -0.774   7.048  1.00  0.00    -0.000 C 
BRANCH  11  12
ATOM     12  C   UNL     1      27.274  -0.656   6.169  1.00  0.00    -0.000 C 
BRANCH  12  13
ATOM     13  C   UNL     1      27.228   0.663   5.381  1.00  0.00    -0.000 C 
BRANCH  13  14
ATOM     14  C   UNL     1      27.710   1.863   6.213  1.00  0.00    -0.000 C 
BRANCH  14  15
ATOM     15  C   UNL     1      26.551   2.673   6.818  1.00  0.00    -0.000 C 
BRANCH  15  16
ATOM     16  C   UNL     1      25.826   1.949   7.971  1.00  0.00    -0.003 C 
ATOM     17  C   UNL     1      24.319   1.843   7.738  1.00  0.00     0.004 C 
ENDBRANCH  15  16
ENDBRANCH  14  15
ENDBRANCH  13  14
ENDBRANCH  12  13
ENDBRANCH  11  12
ENDBRANCH  10  11
ENDBRANCH   1  10
TORSDOF 13
ENDMDL
MODEL 9
REMARK VINA RESULT:    -3.641     10.356     11.552
REMARK INTER + INTRA:          -8.576
REMARK INTER:                  -6.709
REMARK INTRA:                  -1.867
REMARK UNBOUND:                -2.168
REMARK SMILES CCCCCCCCCCCCCCC(=O)[O-]
REMARK SMILES IDX 9 1 10 2 11 3 12 4 13 5 14 6 15 7 16 8 17 9 8 10 7 11 6 12
REMARK SMILES IDX 5 13 4 14 3 15 2 16 1 17
REMARK H PARENT
REMARK Flexibility Score: inf
ROOT
ATOM      1  C   UNL     1      25.368   0.778  18.256  1.00  0.00     0.000 C 
ENDROOT
BRANCH   1   2
ATOM      2  C   UNL     1      24.697  -0.533  17.814  1.00  0.00     0.000 C 
BRANCH   2   3
ATOM      3  C   UNL     1      24.175  -0.469  16.367  1.00  0.00     0.000 C 
BRANCH   3   4
ATOM      4  C   UNL     1      23.941  -1.862  15.764  1.00  0.00     0.000 C 
BRANCH   4   5
ATOM      5  C   UNL     1      24.069  -2.987  16.806  1.00  0.00     0.006 C 
BRANCH   5   6
ATOM      6  C   UNL     1      23.930  -4.379  16.176  1.00  0.00     0.053 C 
BRANCH   6   7
ATOM      7  C   UNL     1      22.501  -4.826  16.125  1.00  0.00     0.041 C 
ATOM      8  O   UNL     1      21.693  -4.467  17.022  1.00  0.00    -0.550 OA
ATOM      9  O   UNL     1      22.070  -5.666  15.106  1.00  0.00    -0.550 OA
ENDBRANCH   6   7
ENDBRANCH   5   6
ENDBRANCH   4   5
ENDBRANCH   3   4
ENDBRANCH   2   3
ENDBRANCH   1   2
BRANCH   1  10
ATOM     10  C   UNL     1      25.393   1.833  17.136  1.00  0.00     0.000 C 
BRANCH  10  11
ATOM     11  C   UNL     1      24.924   3.215  17.619  1.00  0.00    -0.000 C 
BRANCH  11  12
ATOM     12  C   UNL     1      24.256   3.161  19.004  1.00  0.00    -0.000 C 
BRANCH  12  13
ATOM     13  C   UNL     1      22.727   3.303  18.926  1.00  0.00    -0.000 C 
BRANCH  13  14
ATOM     14  C   UNL     1      21.994   2.027  19.369  1.00  0.00    -0.000 C 
BRANCH  14  15
ATOM     15  C   UNL     1      21.483   1.190  18.184  1.00  0.00    -0.000 C 
BRANCH  15  16
ATOM     16  C   UNL     1      21.000  -0.219  18.585  1.00  0.00    -0.003 C 
ATOM     17  C   UNL     1      20.622  -1.074  17.375  1.00  0.00     0.004 C 
ENDBRANCH  15  16
ENDBRANCH  14  15
ENDBRANCH  13  14
ENDBRANCH  12  13
ENDBRANCH  11  12
ENDBRANCH  10  11
ENDBRANCH   1  10
TORSDOF 13
ENDMDL
