MODEL 1
REMARK VINA RESULT:    -3.049      0.000      0.000
REMARK INTER + INTRA:          -6.623
REMARK INTER:                  -5.723
REMARK INTRA:                  -0.900
REMARK UNBOUND:                -0.900
REMARK SMILES CCCCCCCCC=CCCCCCCCC(=O)[O-]
REMARK SMILES IDX 10 1 9 2 11 3 12 4 13 5 14 6 15 7 16 8 17 9 18 10 19 11
REMARK SMILES IDX 20 12 8 13 7 14 6 15 5 16 4 17 3 18 2 19 1 20
REMARK H PARENT
REMARK Flexibility Score: inf
ROOT
ATOM      1  C   UNL     1       1.798 -13.918 -18.493  1.00  0.00    -0.031 C 
ATOM      2  C   UNL     1       2.821 -13.133 -18.120  1.00  0.00    -0.031 C 
ENDROOT
BRANCH   1   3
ATOM      3  C   UNL     1       1.330 -15.064 -17.636  1.00  0.00     0.027 C 
BRANCH   3   4
ATOM      4  C   UNL     1       0.494 -16.082 -18.426  1.00  0.00     0.004 C 
BRANCH   4   5
ATOM      5  C   UNL     1      -1.004 -15.726 -18.422  1.00  0.00     0.000 C 
BRANCH   5   6
ATOM      6  C   UNL     1      -1.897 -16.920 -18.798  1.00  0.00     0.000 C 
BRANCH   6   7
ATOM      7  C   UNL     1      -1.315 -17.753 -19.953  1.00  0.00     0.000 C 
BRANCH   7   8
ATOM      8  C   UNL     1      -1.202 -19.251 -19.609  1.00  0.00     0.006 C 
BRANCH   8   9
ATOM      9  C   UNL     1       0.180 -19.682 -19.093  1.00  0.00     0.053 C 
BRANCH   9  10
ATOM     10  C   UNL     1       0.234 -19.726 -17.596  1.00  0.00     0.041 C 
ATOM     11  O   UNL     1       1.342 -19.670 -17.001  1.00  0.00    -0.550 OA
ATOM     12  O   UNL     1      -0.942 -19.794 -16.860  1.00  0.00    -0.550 OA
ENDBRANCH   9  10
ENDBRANCH   8   9
ENDBRANCH   7   8
ENDBRANCH   6   7
ENDBRANCH   5   6
ENDBRANCH   4   5
ENDBRANCH   3   4
ENDBRANCH   1   3
BRANCH   2  13
ATOM     13  C   UNL     1       3.294 -11.994 -18.981  1.00  0.00     0.027 C 
BRANCH  13  14
ATOM     14  C   UNL     1       2.508 -10.711 -18.684  1.00  0.00     0.004 C 
BRANCH  14  15
ATOM     15  C   UNL     1       3.416  -9.642 -18.063  1.00  0.00     0.000 C 
BRANCH  15  16
ATOM     16  C   UNL     1       2.676  -8.861 -16.966  1.00  0.00     0.000 C 
BRANCH  16  17
ATOM     17  C   UNL     1       3.456  -8.805 -15.640  1.00  0.00    -0.000 C 
BRANCH  17  18
ATOM     18  C   UNL     1       3.358  -7.468 -14.883  1.00  0.00    -0.000 C 
BRANCH  18  19
ATOM     19  C   UNL     1       3.744  -7.588 -13.402  1.00  0.00    -0.003 C 
ATOM     20  C   UNL     1       4.449  -8.913 -13.124  1.00  0.00     0.004 C 
ENDBRANCH  18  19
ENDBRANCH  17  18
ENDBRANCH  16  17
ENDBRANCH  15  16
ENDBRANCH  14  15
ENDBRANCH  13  14
ENDBRANCH   2  13
TORSDOF 15
ENDMDL
MODEL 2
REMARK VINA RESULT:    -3.015      4.024      9.841
REMARK INTER + INTRA:          -6.558
REMARK INTER:                  -5.529
REMARK INTRA:                  -1.029
REMARK UNBOUND:                -0.900
REMARK SMILES CCCCCCCCC=CCCCCCCCC(=O)[O-]
REMARK SMILES IDX 10 1 9 2 11 3 12 4 13 5 14 6 15 7 16 8 17 9 18 10 19 11
REMARK SMILES IDX 20 12 8 13 7 14 6 15 5 16 4 17 3 18 2 19 1 20
REMARK H PARENT
REMARK Flexibility Score: inf
ROOT
ATOM      1  C   UNL     1       1.890 -13.933 -18.543  1.00  0.00    -0.031 C 
ATOM      2  C   UNL     1       1.390 -14.901 -17.761  1.00  0.00    -0.031 C 
ENDROOT
BRANCH   1   3
ATOM      3  C   UNL     1       2.758 -12.837 -17.984  1.00  0.00     0.027 C 
BRANCH   3   4
ATOM      4  C   UNL     1       3.514 -12.072 -19.081  1.00  0.00     0.004 C 
BRANCH   4   5
ATOM      5  C   UNL     1       4.091 -10.741 -18.564  1.00  0.00     0.000 C 
BRANCH   5   6
ATOM      6  C   UNL     1       3.061  -9.600 -18.588  1.00  0.00     0.000 C 
BRANCH   6   7
ATOM      7  C   UNL     1       2.475  -9.304 -17.197  1.00  0.00     0.000 C 
BRANCH   7   8
ATOM      8  C   UNL     1       3.560  -8.984 -16.150  1.00  0.00     0.006 C 
BRANCH   8   9
ATOM      9  C   UNL     1       3.235  -7.788 -15.242  1.00  0.00     0.053 C 
BRANCH   9  10
ATOM     10  C   UNL     1       3.801  -7.956 -13.865  1.00  0.00     0.041 C 
ATOM     11  O   UNL     1       3.629  -7.060 -12.997  1.00  0.00    -0.550 OA
ATOM     12  O   UNL     1       4.487  -9.116 -13.532  1.00  0.00    -0.550 OA
ENDBRANCH   9  10
ENDBRANCH   8   9
ENDBRANCH   7   8
ENDBRANCH   6   7
ENDBRANCH   5   6
ENDBRANCH   4   5
ENDBRANCH   3   4
ENDBRANCH   1   3
BRANCH   2  13
ATOM     13  C   UNL     1       0.515 -15.990 -18.319  1.00  0.00     0.027 C 
BRANCH  13  14
ATOM     14  C   UNL     1      -0.910 -15.483 -18.574  1.00  0.00     0.004 C 
BRANCH  14  15
ATOM     15  C   UNL     1      -1.732 -16.520 -19.347  1.00  0.00     0.000 C 
BRANCH  15  16
ATOM     16  C   UNL     1      -1.015 -17.878 -19.380  1.00  0.00     0.000 C 
BRANCH  16  17
ATOM     17  C   UNL     1      -1.688 -18.933 -18.483  1.00  0.00    -0.000 C 
BRANCH  17  18
ATOM     18  C   UNL     1      -0.737 -19.997 -17.904  1.00  0.00    -0.000 C 
BRANCH  18  19
ATOM     19  C   UNL     1       0.744 -19.616 -18.044  1.00  0.00    -0.003 C 
ATOM     20  C   UNL     1       1.492 -19.827 -16.731  1.00  0.00     0.004 C 
ENDBRANCH  18  19
ENDBRANCH  17  18
ENDBRANCH  16  17
ENDBRANCH  15  16
ENDBRANCH  14  15
ENDBRANCH  13  14
ENDBRANCH   2  13
TORSDOF 15
ENDMDL
MODEL 3
REMARK VINA RESULT:    -2.870      3.705      9.846
REMARK INTER + INTRA:          -6.286
REMARK INTER:                  -5.451
REMARK INTRA:                  -0.835
REMARK UNBOUND:                -0.900
REMARK SMILES CCCCCCCCC=CCCCCCCCC(=O)[O-]
REMARK SMILES IDX 10 1 9 2 11 3 12 4 13 5 14 6 15 7 16 8 17 9 18 10 19 11
REMARK SMILES IDX 20 12 8 13 7 14 6 15 5 16 4 17 3 18 2 19 1 20
REMARK H PARENT
REMARK Flexibility Score: inf
ROOT
ATOM      1  C   UNL     1       2.716 -12.554 -18.206  1.00  0.00    -0.031 C 
ATOM      2  C   UNL     1       2.242 -13.752 -18.582  1.00  0.00    -0.031 C 
ENDROOT
BRANCH   1   3
ATOM      3  C   UNL     1       3.745 -11.820 -19.024  1.00  0.00     0.027 C 
BRANCH   3   4
ATOM      4  C   UNL     1       4.147 -10.479 -18.392  1.00  0.00     0.004 C 
BRANCH   4   5
ATOM      5  C   UNL     1       2.971  -9.487 -18.344  1.00  0.00     0.000 C 
BRANCH   5   6
ATOM      6  C   UNL     1       2.451  -9.255 -16.916  1.00  0.00     0.000 C 
BRANCH   6   7
ATOM      7  C   UNL     1       3.552  -8.766 -15.959  1.00  0.00     0.000 C 
BRANCH   7   8
ATOM      8  C   UNL     1       3.176  -7.458 -15.237  1.00  0.00     0.006 C 
BRANCH   8   9
ATOM      9  C   UNL     1       3.632  -7.387 -13.771  1.00  0.00     0.053 C 
BRANCH   9  10
ATOM     10  C   UNL     1       3.886  -8.746 -13.194  1.00  0.00     0.041 C 
ATOM     11  O   UNL     1       2.930  -9.434 -12.750  1.00  0.00    -0.550 OA
ATOM     12  O   UNL     1       5.174  -9.266 -13.180  1.00  0.00    -0.550 OA
ENDBRANCH   9  10
ENDBRANCH   8   9
ENDBRANCH   7   8
ENDBRANCH   6   7
ENDBRANCH   5   6
ENDBRANCH   4   5
ENDBRANCH   3   4
ENDBRANCH   1   3
BRANCH   2  13
ATOM     13  C   UNL     1       1.220 -14.488 -17.759  1.00  0.00     0.027 C 
BRANCH  13  14
ATOM     14  C   UNL     1       0.812 -15.805 -18.431  1.00  0.00     0.004 C 
BRANCH  14  15
ATOM     15  C   UNL     1      -0.714 -15.925 -18.522  1.00  0.00     0.000 C 
BRANCH  15  16
ATOM     16  C   UNL     1      -1.122 -17.199 -19.277  1.00  0.00     0.000 C 
BRANCH  16  17
ATOM     17  C   UNL     1      -1.879 -18.205 -18.391  1.00  0.00    -0.000 C 
BRANCH  17  18
ATOM     18  C   UNL     1      -1.142 -19.533 -18.137  1.00  0.00    -0.000 C 
BRANCH  18  19
ATOM     19  C   UNL     1       0.316 -19.510 -18.619  1.00  0.00    -0.003 C 
ATOM     20  C   UNL     1       1.280 -19.362 -17.445  1.00  0.00     0.004 C 
ENDBRANCH  18  19
ENDBRANCH  17  18
ENDBRANCH  16  17
ENDBRANCH  15  16
ENDBRANCH  14  15
ENDBRANCH  13  14
ENDBRANCH   2  13
TORSDOF 15
ENDMDL
MODEL 4
REMARK VINA RESULT:    -2.645      3.920      9.348
REMARK INTER + INTRA:          -5.864
REMARK INTER:                  -4.717
REMARK INTRA:                  -1.147
REMARK UNBOUND:                -0.900
REMARK SMILES CCCCCCCCC=CCCCCCCCC(=O)[O-]
REMARK SMILES IDX 10 1 9 2 11 3 12 4 13 5 14 6 15 7 16 8 17 9 18 10 19 11
REMARK SMILES IDX 20 12 8 13 7 14 6 15 5 16 4 17 3 18 2 19 1 20
REMARK H PARENT
REMARK Flexibility Score: inf
ROOT
ATOM      1  C   UNL     1       0.051 -15.674 -18.010  1.00  0.00    -0.031 C 
ATOM      2  C   UNL     1      -0.793 -15.220 -18.949  1.00  0.00    -0.031 C 
ENDROOT
BRANCH   1   3
ATOM      3  C   UNL     1       1.297 -14.916 -17.635  1.00  0.00     0.027 C 
BRANCH   3   4
ATOM      4  C   UNL     1       1.864 -14.105 -18.811  1.00  0.00     0.004 C 
BRANCH   4   5
ATOM      5  C   UNL     1       2.752 -12.941 -18.334  1.00  0.00     0.000 C 
BRANCH   5   6
ATOM      6  C   UNL     1       2.199 -11.567 -18.748  1.00  0.00     0.000 C 
BRANCH   6   7
ATOM      7  C   UNL     1       3.027 -10.403 -18.179  1.00  0.00     0.000 C 
BRANCH   7   8
ATOM      8  C   UNL     1       3.915  -9.729 -19.244  1.00  0.00     0.006 C 
BRANCH   8   9
ATOM      9  C   UNL     1       4.688 -10.710 -20.139  1.00  0.00     0.053 C 
BRANCH   9  10
ATOM     10  C   UNL     1       6.035 -11.046 -19.575  1.00  0.00     0.041 C 
ATOM     11  O   UNL     1       6.128 -11.737 -18.528  1.00  0.00    -0.550 OA
ATOM     12  O   UNL     1       7.187 -10.624 -20.227  1.00  0.00    -0.550 OA
ENDBRANCH   9  10
ENDBRANCH   8   9
ENDBRANCH   7   8
ENDBRANCH   6   7
ENDBRANCH   5   6
ENDBRANCH   4   5
ENDBRANCH   3   4
ENDBRANCH   1   3
BRANCH   2  13
ATOM     13  C   UNL     1      -2.033 -15.983 -19.328  1.00  0.00     0.027 C 
BRANCH  13  14
ATOM     14  C   UNL     1      -1.958 -17.438 -18.847  1.00  0.00     0.004 C 
BRANCH  14  15
ATOM     15  C   UNL     1      -1.461 -18.361 -19.966  1.00  0.00     0.000 C 
BRANCH  15  16
ATOM     16  C   UNL     1      -1.212 -19.782 -19.437  1.00  0.00     0.000 C 
BRANCH  16  17
ATOM     17  C   UNL     1      -1.615 -19.951 -17.960  1.00  0.00    -0.000 C 
BRANCH  17  18
ATOM     18  C   UNL     1      -0.441 -20.125 -16.980  1.00  0.00    -0.000 C 
BRANCH  18  19
ATOM     19  C   UNL     1       0.884 -19.575 -17.531  1.00  0.00    -0.003 C 
ATOM     20  C   UNL     1       2.019 -19.777 -16.531  1.00  0.00     0.004 C 
ENDBRANCH  18  19
ENDBRANCH  17  18
ENDBRANCH  16  17
ENDBRANCH  15  16
ENDBRANCH  14  15
ENDBRANCH  13  14
ENDBRANCH   2  13
TORSDOF 15
ENDMDL
MODEL 5
REMARK VINA RESULT:    -2.564      4.540     10.159
REMARK INTER + INTRA:          -5.712
REMARK INTER:                  -4.747
REMARK INTRA:                  -0.965
REMARK UNBOUND:                -0.900
REMARK SMILES CCCCCCCCC=CCCCCCCCC(=O)[O-]
REMARK SMILES IDX 10 1 9 2 11 3 12 4 13 5 14 6 15 7 16 8 17 9 18 10 19 11
REMARK SMILES IDX 20 12 8 13 7 14 6 15 5 16 4 17 3 18 2 19 1 20
REMARK H PARENT
REMARK Flexibility Score: inf
ROOT
ATOM      1  C   UNL     1       2.908 -12.663 -18.295  1.00  0.00    -0.031 C 
ATOM      2  C   UNL     1       2.109 -13.667 -18.687  1.00  0.00    -0.031 C 
ENDROOT
BRANCH   1   3
ATOM      3  C   UNL     1       3.701 -11.852 -19.285  1.00  0.00     0.027 C 
BRANCH   3   4
ATOM      4  C   UNL     1       3.667 -10.349 -18.972  1.00  0.00     0.004 C 
BRANCH   4   5
ATOM      5  C   UNL     1       3.541 -10.076 -17.462  1.00  0.00     0.000 C 
BRANCH   5   6
ATOM      6  C   UNL     1       2.604  -8.897 -17.150  1.00  0.00     0.000 C 
BRANCH   6   7
ATOM      7  C   UNL     1       3.069  -8.081 -15.932  1.00  0.00     0.000 C 
BRANCH   7   8
ATOM      8  C   UNL     1       3.883  -8.921 -14.928  1.00  0.00     0.006 C 
BRANCH   8   9
ATOM      9  C   UNL     1       3.509  -8.690 -13.456  1.00  0.00     0.053 C 
BRANCH   9  10
ATOM     10  C   UNL     1       3.735  -7.270 -13.033  1.00  0.00     0.041 C 
ATOM     11  O   UNL     1       4.903  -6.850 -12.826  1.00  0.00    -0.550 OA
ATOM     12  O   UNL     1       2.657  -6.404 -12.901  1.00  0.00    -0.550 OA
ENDBRANCH   9  10
ENDBRANCH   8   9
ENDBRANCH   7   8
ENDBRANCH   6   7
ENDBRANCH   5   6
ENDBRANCH   4   5
ENDBRANCH   3   4
ENDBRANCH   1   3
BRANCH   2  13
ATOM     13  C   UNL     1       1.323 -14.481 -17.697  1.00  0.00     0.027 C 
BRANCH  13  14
ATOM     14  C   UNL     1       0.688 -15.707 -18.366  1.00  0.00     0.004 C 
BRANCH  14  15
ATOM     15  C   UNL     1      -0.830 -15.537 -18.496  1.00  0.00     0.000 C 
BRANCH  15  16
ATOM     16  C   UNL     1      -1.423 -16.588 -19.446  1.00  0.00     0.000 C 
BRANCH  16  17
ATOM     17  C   UNL     1      -1.423 -18.006 -18.848  1.00  0.00    -0.000 C 
BRANCH  17  18
ATOM     18  C   UNL     1      -1.007 -19.124 -19.822  1.00  0.00    -0.000 C 
BRANCH  18  19
ATOM     19  C   UNL     1       0.224 -19.907 -19.343  1.00  0.00    -0.003 C 
ATOM     20  C   UNL     1       0.758 -19.342 -18.029  1.00  0.00     0.004 C 
ENDBRANCH  18  19
ENDBRANCH  17  18
ENDBRANCH  16  17
ENDBRANCH  15  16
ENDBRANCH  14  15
ENDBRANCH  13  14
ENDBRANCH   2  13
TORSDOF 15
ENDMDL
MODEL 6
REMARK VINA RESULT:    -2.387      2.330      3.065
REMARK INTER + INTRA:          -5.380
REMARK INTER:                  -4.152
REMARK INTRA:                  -1.228
REMARK UNBOUND:                -0.900
REMARK SMILES CCCCCCCCC=CCCCCCCCC(=O)[O-]
REMARK SMILES IDX 10 1 9 2 11 3 12 4 13 5 14 6 15 7 16 8 17 9 18 10 19 11
REMARK SMILES IDX 20 12 8 13 7 14 6 15 5 16 4 17 3 18 2 19 1 20
REMARK H PARENT
REMARK Flexibility Score: inf
ROOT
ATOM      1  C   UNL     1       0.976 -15.062 -17.811  1.00  0.00    -0.031 C 
ATOM      2  C   UNL     1       1.625 -14.320 -18.722  1.00  0.00    -0.031 C 
ENDROOT
BRANCH   1   3
ATOM      3  C   UNL     1       0.013 -16.146 -18.217  1.00  0.00     0.027 C 
BRANCH   3   4
ATOM      4  C   UNL     1      -1.264 -15.584 -18.860  1.00  0.00     0.004 C 
BRANCH   4   5
ATOM      5  C   UNL     1      -1.937 -16.605 -19.795  1.00  0.00     0.000 C 
BRANCH   5   6
ATOM      6  C   UNL     1      -1.848 -18.044 -19.262  1.00  0.00     0.000 C 
BRANCH   6   7
ATOM      7  C   UNL     1      -0.978 -18.950 -20.150  1.00  0.00     0.000 C 
BRANCH   7   8
ATOM      8  C   UNL     1       0.029 -19.789 -19.338  1.00  0.00     0.006 C 
BRANCH   8   9
ATOM      9  C   UNL     1      -0.394 -20.058 -17.885  1.00  0.00     0.053 C 
BRANCH   9  10
ATOM     10  C   UNL     1       0.717 -19.788 -16.917  1.00  0.00     0.041 C 
ATOM     11  O   UNL     1       1.779 -19.239 -17.309  1.00  0.00    -0.550 OA
ATOM     12  O   UNL     1       0.563 -20.113 -15.575  1.00  0.00    -0.550 OA
ENDBRANCH   9  10
ENDBRANCH   8   9
ENDBRANCH   7   8
ENDBRANCH   6   7
ENDBRANCH   5   6
ENDBRANCH   4   5
ENDBRANCH   3   4
ENDBRANCH   1   3
BRANCH   2  13
ATOM     13  C   UNL     1       2.580 -13.232 -18.315  1.00  0.00     0.027 C 
BRANCH  13  14
ATOM     14  C   UNL     1       2.298 -11.932 -19.080  1.00  0.00     0.004 C 
BRANCH  14  15
ATOM     15  C   UNL     1       2.515 -10.709 -18.181  1.00  0.00     0.000 C 
BRANCH  15  16
ATOM     16  C   UNL     1       3.810  -9.973 -18.556  1.00  0.00     0.000 C 
BRANCH  16  17
ATOM     17  C   UNL     1       4.312 -10.325 -19.968  1.00  0.00    -0.000 C 
BRANCH  17  18
ATOM     18  C   UNL     1       5.675 -11.041 -20.016  1.00  0.00    -0.000 C 
BRANCH  18  19
ATOM     19  C   UNL     1       6.449 -10.942 -18.693  1.00  0.00    -0.003 C 
ATOM     20  C   UNL     1       6.208 -12.173 -17.823  1.00  0.00     0.004 C 
ENDBRANCH  18  19
ENDBRANCH  17  18
ENDBRANCH  16  17
ENDBRANCH  15  16
ENDBRANCH  14  15
ENDBRANCH  13  14
ENDBRANCH   2  13
TORSDOF 15
ENDMDL
MODEL 7
REMARK VINA RESULT:    -2.045      1.098      1.454
REMARK INTER + INTRA:          -4.738
REMARK INTER:                  -4.057
REMARK INTRA:                  -0.681
REMARK UNBOUND:                -0.900
REMARK SMILES CCCCCCCCC=CCCCCCCCC(=O)[O-]
REMARK SMILES IDX 10 1 9 2 11 3 12 4 13 5 14 6 15 7 16 8 17 9 18 10 19 11
REMARK SMILES IDX 20 12 8 13 7 14 6 15 5 16 4 17 3 18 2 19 1 20
REMARK H PARENT
REMARK Flexibility Score: inf
ROOT
ATOM      1  C   UNL     1       2.427 -12.846 -18.740  1.00  0.00    -0.031 C 
ATOM      2  C   UNL     1       3.730 -12.524 -18.760  1.00  0.00    -0.031 C 
ENDROOT
BRANCH   1   3
ATOM      3  C   UNL     1       1.958 -14.215 -18.328  1.00  0.00     0.027 C 
BRANCH   3   4
ATOM      4  C   UNL     1       0.441 -14.389 -18.494  1.00  0.00     0.004 C 
BRANCH   4   5
ATOM      5  C   UNL     1      -0.001 -15.847 -18.277  1.00  0.00     0.000 C 
BRANCH   5   6
ATOM      6  C   UNL     1      -1.514 -16.042 -18.465  1.00  0.00     0.000 C 
BRANCH   6   7
ATOM      7  C   UNL     1      -1.874 -17.465 -18.926  1.00  0.00     0.000 C 
BRANCH   7   8
ATOM      8  C   UNL     1      -2.030 -18.449 -17.751  1.00  0.00     0.006 C 
BRANCH   8   9
ATOM      9  C   UNL     1      -1.434 -19.843 -18.006  1.00  0.00     0.053 C 
BRANCH   9  10
ATOM     10  C   UNL     1       0.043 -19.788 -18.249  1.00  0.00     0.041 C 
ATOM     11  O   UNL     1       0.493 -19.826 -19.424  1.00  0.00    -0.550 OA
ATOM     12  O   UNL     1       0.920 -19.658 -17.180  1.00  0.00    -0.550 OA
ENDBRANCH   9  10
ENDBRANCH   8   9
ENDBRANCH   7   8
ENDBRANCH   6   7
ENDBRANCH   5   6
ENDBRANCH   4   5
ENDBRANCH   3   4
ENDBRANCH   1   3
BRANCH   2  13
ATOM     13  C   UNL     1       4.198 -11.158 -19.180  1.00  0.00     0.027 C 
BRANCH  13  14
ATOM     14  C   UNL     1       3.185 -10.077 -18.783  1.00  0.00     0.004 C 
BRANCH  14  15
ATOM     15  C   UNL     1       3.203  -9.838 -17.268  1.00  0.00     0.000 C 
BRANCH  15  16
ATOM     16  C   UNL     1       2.603  -8.467 -16.921  1.00  0.00     0.000 C 
BRANCH  16  17
ATOM     17  C   UNL     1       3.234  -7.837 -15.666  1.00  0.00    -0.000 C 
BRANCH  17  18
ATOM     18  C   UNL     1       3.979  -8.822 -14.747  1.00  0.00    -0.000 C 
BRANCH  18  19
ATOM     19  C   UNL     1       3.791  -8.509 -13.256  1.00  0.00    -0.003 C 
ATOM     20  C   UNL     1       3.531  -7.021 -13.035  1.00  0.00     0.004 C 
ENDBRANCH  18  19
ENDBRANCH  17  18
ENDBRANCH  16  17
ENDBRANCH  15  16
ENDBRANCH  14  15
ENDBRANCH  13  14
ENDBRANCH   2  13
TORSDOF 15
ENDMDL
MODEL 8
REMARK VINA RESULT:    -1.823      1.038      1.996
REMARK INTER + INTRA:          -4.321
REMARK INTER:                  -3.642
REMARK INTRA:                  -0.679
REMARK UNBOUND:                -0.900
REMARK SMILES CCCCCCCCC=CCCCCCCCC(=O)[O-]
REMARK SMILES IDX 10 1 9 2 11 3 12 4 13 5 14 6 15 7 16 8 17 9 18 10 19 11
REMARK SMILES IDX 20 12 8 13 7 14 6 15 5 16 4 17 3 18 2 19 1 20
REMARK H PARENT
REMARK Flexibility Score: inf
ROOT
ATOM      1  C   UNL     1       2.927 -12.567 -18.671  1.00  0.00    -0.031 C 
ATOM      2  C   UNL     1       2.705 -11.336 -19.155  1.00  0.00    -0.031 C 
ENDROOT
BRANCH   1   3
ATOM      3  C   UNL     1       1.936 -13.683 -18.868  1.00  0.00     0.027 C 
BRANCH   3   4
ATOM      4  C   UNL     1       1.763 -14.542 -17.606  1.00  0.00     0.004 C 
BRANCH   4   5
ATOM      5  C   UNL     1       0.713 -15.650 -17.802  1.00  0.00     0.000 C 
BRANCH   5   6
ATOM      6  C   UNL     1      -0.330 -15.295 -18.874  1.00  0.00     0.000 C 
BRANCH   6   7
ATOM      7  C   UNL     1      -1.756 -15.710 -18.471  1.00  0.00     0.000 C 
BRANCH   7   8
ATOM      8  C   UNL     1      -2.041 -17.200 -18.743  1.00  0.00     0.006 C 
BRANCH   8   9
ATOM      9  C   UNL     1      -0.965 -17.911 -19.578  1.00  0.00     0.053 C 
BRANCH   9  10
ATOM     10  C   UNL     1      -0.541 -19.210 -18.963  1.00  0.00     0.041 C 
ATOM     11  O   UNL     1       0.528 -19.765 -19.328  1.00  0.00    -0.550 OA
ATOM     12  O   UNL     1      -1.310 -19.788 -17.961  1.00  0.00    -0.550 OA
ENDBRANCH   9  10
ENDBRANCH   8   9
ENDBRANCH   7   8
ENDBRANCH   6   7
ENDBRANCH   5   6
ENDBRANCH   4   5
ENDBRANCH   3   4
ENDBRANCH   1   3
BRANCH   2  13
ATOM     13  C   UNL     1       3.692 -10.219 -18.950  1.00  0.00     0.027 C 
BRANCH  13  14
ATOM     14  C   UNL     1       3.877  -9.909 -17.460  1.00  0.00     0.004 C 
BRANCH  14  15
ATOM     15  C   UNL     1       2.736  -9.027 -16.937  1.00  0.00     0.000 C 
BRANCH  15  16
ATOM     16  C   UNL     1       3.220  -8.122 -15.794  1.00  0.00     0.000 C 
BRANCH  16  17
ATOM     17  C   UNL     1       3.875  -8.908 -14.643  1.00  0.00    -0.000 C 
BRANCH  17  18
ATOM     18  C   UNL     1       3.971  -8.147 -13.308  1.00  0.00    -0.000 C 
BRANCH  18  19
ATOM     19  C   UNL     1       3.540  -6.677 -13.423  1.00  0.00    -0.003 C 
ATOM     20  C   UNL     1       2.301  -6.400 -12.577  1.00  0.00     0.004 C 
ENDBRANCH  18  19
ENDBRANCH  17  18
ENDBRANCH  16  17
ENDBRANCH  15  16
ENDBRANCH  14  15
ENDBRANCH  13  14
ENDBRANCH   2  13
TORSDOF 15
ENDMDL
MODEL 9
REMARK VINA RESULT:    -0.229      1.487      3.798
REMARK INTER + INTRA:          -1.330
REMARK INTER:                  -2.193
REMARK INTRA:                   0.863
REMARK UNBOUND:                -0.900
REMARK SMILES CCCCCCCCC=CCCCCCCCC(=O)[O-]
REMARK SMILES IDX 10 1 9 2 11 3 12 4 13 5 14 6 15 7 16 8 17 9 18 10 19 11
REMARK SMILES IDX 20 12 8 13 7 14 6 15 5 16 4 17 3 18 2 19 1 20
REMARK H PARENT
REMARK Flexibility Score: inf
ROOT
ATOM      1  C   UNL     1       3.988 -10.081 -18.451  1.00  0.00    -0.031 C 
ATOM      2  C   UNL     1       2.652 -10.055 -18.333  1.00  0.00    -0.031 C 
ENDROOT
BRANCH   1   3
ATOM      3  C   UNL     1       4.671 -10.926 -19.493  1.00  0.00     0.027 C 
BRANCH   3   4
ATOM      4  C   UNL     1       4.196 -12.386 -19.467  1.00  0.00     0.004 C 
BRANCH   4   5
ATOM      5  C   UNL     1       3.190 -12.646 -18.332  1.00  0.00     0.000 C 
BRANCH   5   6
ATOM      6  C   UNL     1       2.023 -13.546 -18.770  1.00  0.00     0.000 C 
BRANCH   6   7
ATOM      7  C   UNL     1       1.749 -14.685 -17.773  1.00  0.00     0.000 C 
BRANCH   7   8
ATOM      8  C   UNL     1       0.487 -15.495 -18.127  1.00  0.00     0.006 C 
BRANCH   8   9
ATOM      9  C   UNL     1       0.747 -16.982 -18.415  1.00  0.00     0.053 C 
BRANCH   9  10
ATOM     10  C   UNL     1      -0.423 -17.640 -19.081  1.00  0.00     0.041 C 
ATOM     11  O   UNL     1      -0.388 -18.869 -19.353  1.00  0.00    -0.550 OA
ATOM     12  O   UNL     1      -1.565 -16.903 -19.369  1.00  0.00    -0.550 OA
ENDBRANCH   9  10
ENDBRANCH   8   9
ENDBRANCH   7   8
ENDBRANCH   6   7
ENDBRANCH   5   6
ENDBRANCH   4   5
ENDBRANCH   3   4
ENDBRANCH   1   3
BRANCH   2  13
ATOM     13  C   UNL     1       1.970  -9.218 -17.285  1.00  0.00     0.027 C 
BRANCH  13  14
ATOM     14  C   UNL     1       2.841  -8.023 -16.876  1.00  0.00     0.004 C 
BRANCH  14  15
ATOM     15  C   UNL     1       3.305  -8.155 -15.421  1.00  0.00     0.000 C 
BRANCH  15  16
ATOM     16  C   UNL     1       3.134  -6.827 -14.667  1.00  0.00     0.000 C 
BRANCH  16  17
ATOM     17  C   UNL     1       3.484  -6.938 -13.171  1.00  0.00    -0.000 C 
BRANCH  17  18
ATOM     18  C   UNL     1       4.807  -7.662 -12.864  1.00  0.00    -0.000 C 
BRANCH  18  19
ATOM     19  C   UNL     1       4.685  -9.191 -12.938  1.00  0.00    -0.003 C 
ATOM     20  C   UNL     1       3.304  -9.654 -12.481  1.00  0.00     0.004 C 
ENDBRANCH  18  19
ENDBRANCH  17  18
ENDBRANCH  16  17
ENDBRANCH  15  16
ENDBRANCH  14  15
ENDBRANCH  13  14
ENDBRANCH   2  13
TORSDOF 15
ENDMDL
