MODEL 1
REMARK VINA RESULT:    -5.002      0.000      0.000
REMARK INTER + INTRA:          -8.800
REMARK INTER:                  -7.633
REMARK INTRA:                  -1.166
REMARK UNBOUND:                -1.166
REMARK SMILES CCCCCCCCCC=CC(=O)[O-]
REMARK SMILES IDX 7 1 8 2 9 3 10 4 11 5 12 6 13 7 14 8 6 9 5 10 4 11 3 12 2 13
REMARK SMILES IDX 1 14
REMARK H PARENT
REMARK Flexibility Score: inf
ROOT
ATOM      1  C   UNL     1      11.477   6.623  52.796  1.00  0.00     0.000 C 
ENDROOT
BRANCH   1   2
ATOM      2  C   UNL     1      12.489   5.468  52.883  1.00  0.00     0.004 C 
BRANCH   2   3
ATOM      3  C   UNL     1      11.849   4.073  52.974  1.00  0.00     0.027 C 
BRANCH   3   4
ATOM      4  C   UNL     1      11.465   3.728  54.385  1.00  0.00    -0.025 C 
ATOM      5  C   UNL     1      12.366   3.712  55.373  1.00  0.00     0.020 C 
BRANCH   5   6
ATOM      6  C   UNL     1      12.003   3.413  56.768  1.00  0.00     0.064 C 
ATOM      7  O   UNL     1      11.347   4.236  57.460  1.00  0.00    -0.545 OA
ATOM      8  O   UNL     1      12.388   2.203  57.329  1.00  0.00    -0.545 OA
ENDBRANCH   5   6
ENDBRANCH   3   4
ENDBRANCH   2   3
ENDBRANCH   1   2
BRANCH   1   9
ATOM      9  C   UNL     1      11.685   7.680  53.891  1.00  0.00     0.000 C 
BRANCH   9  10
ATOM     10  C   UNL     1      11.014   7.252  55.203  1.00  0.00     0.000 C 
BRANCH  10  11
ATOM     11  C   UNL     1       9.521   6.962  54.989  1.00  0.00    -0.000 C 
BRANCH  11  12
ATOM     12  C   UNL     1       8.627   8.148  55.380  1.00  0.00    -0.000 C 
BRANCH  12  13
ATOM     13  C   UNL     1       7.969   8.819  54.166  1.00  0.00    -0.003 C 
ATOM     14  C   UNL     1       8.095   7.946  52.920  1.00  0.00     0.004 C 
ENDBRANCH  12  13
ENDBRANCH  11  12
ENDBRANCH  10  11
ENDBRANCH   9  10
ENDBRANCH   1   9
TORSDOF 9
ENDMDL
MODEL 2
REMARK VINA RESULT:    -4.980      3.391      6.794
REMARK INTER + INTRA:          -8.767
REMARK INTER:                  -8.233
REMARK INTRA:                  -0.534
REMARK UNBOUND:                -1.166
REMARK SMILES CCCCCCCCCC=CC(=O)[O-]
REMARK SMILES IDX 7 1 8 2 9 3 10 4 11 5 12 6 13 7 14 8 6 9 5 10 4 11 3 12 2 13
REMARK SMILES IDX 1 14
REMARK H PARENT
REMARK Flexibility Score: inf
ROOT
ATOM      1  C   UNL     1      12.495   4.164  54.669  1.00  0.00     0.000 C 
ENDROOT
BRANCH   1   2
ATOM      2  C   UNL     1      11.001   3.895  54.416  1.00  0.00     0.004 C 
BRANCH   2   3
ATOM      3  C   UNL     1      10.090   4.225  55.609  1.00  0.00     0.027 C 
BRANCH   3   4
ATOM      4  C   UNL     1       9.765   5.691  55.672  1.00  0.00    -0.025 C 
ATOM      5  C   UNL     1       9.493   6.397  54.570  1.00  0.00     0.020 C 
BRANCH   5   6
ATOM      6  C   UNL     1       9.134   7.824  54.615  1.00  0.00     0.064 C 
ATOM      7  O   UNL     1       8.364   8.274  55.505  1.00  0.00    -0.545 OA
ATOM      8  O   UNL     1       9.654   8.688  53.662  1.00  0.00    -0.545 OA
ENDBRANCH   5   6
ENDBRANCH   3   4
ENDBRANCH   2   3
ENDBRANCH   1   2
BRANCH   1   9
ATOM      9  C   UNL     1      12.882   4.033  56.150  1.00  0.00     0.000 C 
BRANCH   9  10
ATOM     10  C   UNL     1      14.005   3.006  56.337  1.00  0.00     0.000 C 
BRANCH  10  11
ATOM     11  C   UNL     1      15.259   3.411  55.549  1.00  0.00    -0.000 C 
BRANCH  11  12
ATOM     12  C   UNL     1      16.341   2.321  55.558  1.00  0.00    -0.000 C 
BRANCH  12  13
ATOM     13  C   UNL     1      15.898   1.054  56.303  1.00  0.00    -0.003 C 
ATOM     14  C   UNL     1      17.077   0.391  57.011  1.00  0.00     0.004 C 
ENDBRANCH  12  13
ENDBRANCH  11  12
ENDBRANCH  10  11
ENDBRANCH   9  10
ENDBRANCH   1   9
TORSDOF 9
ENDMDL
MODEL 3
REMARK VINA RESULT:    -4.962      3.072      4.419
REMARK INTER + INTRA:          -8.738
REMARK INTER:                  -8.031
REMARK INTRA:                  -0.707
REMARK UNBOUND:                -1.166
REMARK SMILES CCCCCCCCCC=CC(=O)[O-]
REMARK SMILES IDX 7 1 8 2 9 3 10 4 11 5 12 6 13 7 14 8 6 9 5 10 4 11 3 12 2 13
REMARK SMILES IDX 1 14
REMARK H PARENT
REMARK Flexibility Score: inf
ROOT
ATOM      1  C   UNL     1      12.237   3.515  55.664  1.00  0.00     0.000 C 
ENDROOT
BRANCH   1   2
ATOM      2  C   UNL     1      13.570   3.469  56.433  1.00  0.00     0.004 C 
BRANCH   2   3
ATOM      3  C   UNL     1      14.809   3.741  55.565  1.00  0.00     0.027 C 
BRANCH   3   4
ATOM      4  C   UNL     1      15.756   2.575  55.563  1.00  0.00    -0.025 C 
ATOM      5  C   UNL     1      15.669   1.599  56.474  1.00  0.00     0.020 C 
BRANCH   5   6
ATOM      6  C   UNL     1      16.562   0.430  56.465  1.00  0.00     0.064 C 
ATOM      7  O   UNL     1      16.543  -0.397  55.515  1.00  0.00    -0.545 OA
ATOM      8  O   UNL     1      17.442   0.236  57.522  1.00  0.00    -0.545 OA
ENDBRANCH   5   6
ENDBRANCH   3   4
ENDBRANCH   2   3
ENDBRANCH   1   2
BRANCH   1   9
ATOM      9  C   UNL     1      11.161   4.337  56.389  1.00  0.00     0.000 C 
BRANCH   9  10
ATOM     10  C   UNL     1      10.025   4.719  55.432  1.00  0.00     0.000 C 
BRANCH  10  11
ATOM     11  C   UNL     1       9.931   6.244  55.270  1.00  0.00    -0.000 C 
BRANCH  11  12
ATOM     12  C   UNL     1      11.290   6.890  54.964  1.00  0.00    -0.000 C 
BRANCH  12  13
ATOM     13  C   UNL     1      11.521   7.101  53.461  1.00  0.00    -0.003 C 
ATOM     14  C   UNL     1      12.283   5.927  52.852  1.00  0.00     0.004 C 
ENDBRANCH  12  13
ENDBRANCH  11  12
ENDBRANCH  10  11
ENDBRANCH   9  10
ENDBRANCH   1   9
TORSDOF 9
ENDMDL
MODEL 4
REMARK VINA RESULT:    -4.819      1.891      3.123
REMARK INTER + INTRA:          -8.521
REMARK INTER:                  -7.462
REMARK INTRA:                  -1.060
REMARK UNBOUND:                -1.166
REMARK SMILES CCCCCCCCCC=CC(=O)[O-]
REMARK SMILES IDX 7 1 8 2 9 3 10 4 11 5 12 6 13 7 14 8 6 9 5 10 4 11 3 12 2 13
REMARK SMILES IDX 1 14
REMARK H PARENT
REMARK Flexibility Score: inf
ROOT
ATOM      1  C   UNL     1      11.844   3.808  53.802  1.00  0.00     0.000 C 
ENDROOT
BRANCH   1   2
ATOM      2  C   UNL     1      11.226   3.425  55.159  1.00  0.00     0.004 C 
BRANCH   2   3
ATOM      3  C   UNL     1      11.835   4.165  56.361  1.00  0.00     0.027 C 
BRANCH   3   4
ATOM      4  C   UNL     1      12.945   3.377  56.996  1.00  0.00    -0.025 C 
ATOM      5  C   UNL     1      12.783   2.100  57.355  1.00  0.00     0.020 C 
BRANCH   5   6
ATOM      6  C   UNL     1      13.870   1.301  57.943  1.00  0.00     0.064 C 
ATOM      7  O   UNL     1      14.762   0.784  57.220  1.00  0.00    -0.545 OA
ATOM      8  O   UNL     1      13.913   1.115  59.318  1.00  0.00    -0.545 OA
ENDBRANCH   5   6
ENDBRANCH   3   4
ENDBRANCH   2   3
ENDBRANCH   1   2
BRANCH   1   9
ATOM      9  C   UNL     1      12.519   5.188  53.824  1.00  0.00     0.000 C 
BRANCH   9  10
ATOM     10  C   UNL     1      12.129   6.010  52.589  1.00  0.00     0.000 C 
BRANCH  10  11
ATOM     11  C   UNL     1      11.350   7.271  52.991  1.00  0.00    -0.000 C 
BRANCH  11  12
ATOM     12  C   UNL     1      11.419   7.553  54.499  1.00  0.00    -0.000 C 
BRANCH  12  13
ATOM     13  C   UNL     1      10.049   7.899  55.100  1.00  0.00    -0.003 C 
ATOM     14  C   UNL     1       9.294   6.638  55.511  1.00  0.00     0.004 C 
ENDBRANCH  12  13
ENDBRANCH  11  12
ENDBRANCH  10  11
ENDBRANCH   9  10
ENDBRANCH   1   9
TORSDOF 9
ENDMDL
MODEL 5
REMARK VINA RESULT:    -4.800      3.443      5.939
REMARK INTER + INTRA:          -8.491
REMARK INTER:                  -7.494
REMARK INTRA:                  -0.997
REMARK UNBOUND:                -1.166
REMARK SMILES CCCCCCCCCC=CC(=O)[O-]
REMARK SMILES IDX 7 1 8 2 9 3 10 4 11 5 12 6 13 7 14 8 6 9 5 10 4 11 3 12 2 13
REMARK SMILES IDX 1 14
REMARK H PARENT
REMARK Flexibility Score: inf
ROOT
ATOM      1  C   UNL     1       9.135   5.618  56.019  1.00  0.00     0.000 C 
ENDROOT
BRANCH   1   2
ATOM      2  C   UNL     1       9.856   6.762  55.283  1.00  0.00     0.004 C 
BRANCH   2   3
ATOM      3  C   UNL     1       8.962   7.971  54.967  1.00  0.00     0.027 C 
BRANCH   3   4
ATOM      4  C   UNL     1       9.182   8.477  53.569  1.00  0.00    -0.025 C 
ATOM      5  C   UNL     1       8.872   7.738  52.499  1.00  0.00     0.020 C 
BRANCH   5   6
ATOM      6  C   UNL     1       9.045   8.231  51.123  1.00  0.00     0.064 C 
ATOM      7  O   UNL     1       8.541   9.325  50.755  1.00  0.00    -0.545 OA
ATOM      8  O   UNL     1       9.777   7.478  50.215  1.00  0.00    -0.545 OA
ENDBRANCH   5   6
ENDBRANCH   3   4
ENDBRANCH   2   3
ENDBRANCH   1   2
BRANCH   1   9
ATOM      9  C   UNL     1       9.711   4.236  55.678  1.00  0.00     0.000 C 
BRANCH   9  10
ATOM     10  C   UNL     1      11.038   3.998  56.409  1.00  0.00     0.000 C 
BRANCH  10  11
ATOM     11  C   UNL     1      12.072   3.349  55.476  1.00  0.00    -0.000 C 
BRANCH  11  12
ATOM     12  C   UNL     1      12.773   4.370  54.568  1.00  0.00    -0.000 C 
BRANCH  12  13
ATOM     13  C   UNL     1      12.174   4.415  53.155  1.00  0.00    -0.003 C 
ATOM     14  C   UNL     1      12.169   5.838  52.605  1.00  0.00     0.004 C 
ENDBRANCH  12  13
ENDBRANCH  11  12
ENDBRANCH  10  11
ENDBRANCH   9  10
ENDBRANCH   1   9
TORSDOF 9
ENDMDL
MODEL 6
REMARK VINA RESULT:    -4.744      3.757      6.182
REMARK INTER + INTRA:          -8.406
REMARK INTER:                  -7.395
REMARK INTRA:                  -1.011
REMARK UNBOUND:                -1.166
REMARK SMILES CCCCCCCCCC=CC(=O)[O-]
REMARK SMILES IDX 7 1 8 2 9 3 10 4 11 5 12 6 13 7 14 8 6 9 5 10 4 11 3 12 2 13
REMARK SMILES IDX 1 14
REMARK H PARENT
REMARK Flexibility Score: inf
ROOT
ATOM      1  C   UNL     1       9.512   6.288  55.426  1.00  0.00     0.000 C 
ENDROOT
BRANCH   1   2
ATOM      2  C   UNL     1      10.872   6.987  55.253  1.00  0.00     0.004 C 
BRANCH   2   3
ATOM      3  C   UNL     1      11.297   7.188  53.790  1.00  0.00     0.027 C 
BRANCH   3   4
ATOM      4  C   UNL     1      10.333   8.066  53.045  1.00  0.00    -0.025 C 
ATOM      5  C   UNL     1       9.983   7.808  51.780  1.00  0.00     0.020 C 
BRANCH   5   6
ATOM      6  C   UNL     1       9.011   8.635  51.046  1.00  0.00     0.064 C 
ATOM      7  O   UNL     1       7.798   8.669  51.385  1.00  0.00    -0.545 OA
ATOM      8  O   UNL     1       9.439   9.391  49.964  1.00  0.00    -0.545 OA
ENDBRANCH   5   6
ENDBRANCH   3   4
ENDBRANCH   2   3
ENDBRANCH   1   2
BRANCH   1   9
ATOM      9  C   UNL     1       9.639   4.871  56.003  1.00  0.00     0.000 C 
BRANCH   9  10
ATOM     10  C   UNL     1       9.463   3.813  54.907  1.00  0.00     0.000 C 
BRANCH  10  11
ATOM     11  C   UNL     1      10.815   3.427  54.290  1.00  0.00    -0.000 C 
BRANCH  11  12
ATOM     12  C   UNL     1      11.951   3.401  55.324  1.00  0.00    -0.000 C 
BRANCH  12  13
ATOM     13  C   UNL     1      13.212   4.129  54.837  1.00  0.00    -0.003 C 
ATOM     14  C   UNL     1      14.372   3.929  55.809  1.00  0.00     0.004 C 
ENDBRANCH  12  13
ENDBRANCH  11  12
ENDBRANCH  10  11
ENDBRANCH   9  10
ENDBRANCH   1   9
TORSDOF 9
ENDMDL
MODEL 7
REMARK VINA RESULT:    -4.693      1.954      3.672
REMARK INTER + INTRA:          -8.329
REMARK INTER:                  -7.339
REMARK INTRA:                  -0.990
REMARK UNBOUND:                -1.166
REMARK SMILES CCCCCCCCCC=CC(=O)[O-]
REMARK SMILES IDX 7 1 8 2 9 3 10 4 11 5 12 6 13 7 14 8 6 9 5 10 4 11 3 12 2 13
REMARK SMILES IDX 1 14
REMARK H PARENT
REMARK Flexibility Score: inf
ROOT
ATOM      1  C   UNL     1       9.673   4.535  55.602  1.00  0.00     0.000 C 
ENDROOT
BRANCH   1   2
ATOM      2  C   UNL     1      10.729   3.765  56.416  1.00  0.00     0.004 C 
BRANCH   2   3
ATOM      3  C   UNL     1      12.132   4.389  56.380  1.00  0.00     0.027 C 
BRANCH   3   4
ATOM      4  C   UNL     1      13.173   3.453  56.926  1.00  0.00    -0.025 C 
ATOM      5  C   UNL     1      12.840   2.299  57.514  1.00  0.00     0.020 C 
BRANCH   5   6
ATOM      6  C   UNL     1      13.846   1.352  58.020  1.00  0.00     0.064 C 
ATOM      7  O   UNL     1      14.675   0.806  57.244  1.00  0.00    -0.545 OA
ATOM      8  O   UNL     1      13.883   1.056  59.376  1.00  0.00    -0.545 OA
ENDBRANCH   5   6
ENDBRANCH   3   4
ENDBRANCH   2   3
ENDBRANCH   1   2
BRANCH   1   9
ATOM      9  C   UNL     1       9.912   6.052  55.603  1.00  0.00     0.000 C 
BRANCH   9  10
ATOM     10  C   UNL     1       9.240   6.715  54.394  1.00  0.00     0.000 C 
BRANCH  10  11
ATOM     11  C   UNL     1      10.281   7.384  53.484  1.00  0.00    -0.000 C 
BRANCH  11  12
ATOM     12  C   UNL     1      11.696   6.824  53.692  1.00  0.00    -0.000 C 
BRANCH  12  13
ATOM     13  C   UNL     1      12.162   5.943  52.523  1.00  0.00    -0.003 C 
ATOM     14  C   UNL     1      12.147   4.466  52.908  1.00  0.00     0.004 C 
ENDBRANCH  12  13
ENDBRANCH  11  12
ENDBRANCH  10  11
ENDBRANCH   9  10
ENDBRANCH   1   9
TORSDOF 9
ENDMDL
MODEL 8
REMARK VINA RESULT:    -4.607      3.202      5.080
REMARK INTER + INTRA:          -8.197
REMARK INTER:                  -6.955
REMARK INTRA:                  -1.242
REMARK UNBOUND:                -1.166
REMARK SMILES CCCCCCCCCC=CC(=O)[O-]
REMARK SMILES IDX 7 1 8 2 9 3 10 4 11 5 12 6 13 7 14 8 6 9 5 10 4 11 3 12 2 13
REMARK SMILES IDX 1 14
REMARK H PARENT
REMARK Flexibility Score: inf
ROOT
ATOM      1  C   UNL     1      12.344   4.224  53.440  1.00  0.00     0.000 C 
ENDROOT
BRANCH   1   2
ATOM      2  C   UNL     1      12.037   5.487  52.617  1.00  0.00     0.004 C 
BRANCH   2   3
ATOM      3  C   UNL     1      12.085   6.794  53.424  1.00  0.00     0.027 C 
BRANCH   3   4
ATOM      4  C   UNL     1      10.764   7.508  53.409  1.00  0.00    -0.025 C 
ATOM      5  C   UNL     1       9.985   7.520  52.321  1.00  0.00     0.020 C 
BRANCH   5   6
ATOM      6  C   UNL     1       8.671   8.182  52.299  1.00  0.00     0.064 C 
ATOM      7  O   UNL     1       7.969   8.271  53.342  1.00  0.00    -0.545 OA
ATOM      8  O   UNL     1       8.197   8.717  51.109  1.00  0.00    -0.545 OA
ENDBRANCH   5   6
ENDBRANCH   3   4
ENDBRANCH   2   3
ENDBRANCH   1   2
BRANCH   1   9
ATOM      9  C   UNL     1      12.929   4.544  54.824  1.00  0.00     0.000 C 
BRANCH   9  10
ATOM     10  C   UNL     1      12.655   3.405  55.813  1.00  0.00     0.000 C 
BRANCH  10  11
ATOM     11  C   UNL     1      11.532   3.783  56.791  1.00  0.00    -0.000 C 
BRANCH  11  12
ATOM     12  C   UNL     1      11.051   5.230  56.608  1.00  0.00    -0.000 C 
BRANCH  12  13
ATOM     13  C   UNL     1       9.603   5.314  56.104  1.00  0.00    -0.003 C 
ATOM     14  C   UNL     1       9.231   4.076  55.292  1.00  0.00     0.004 C 
ENDBRANCH  12  13
ENDBRANCH  11  12
ENDBRANCH  10  11
ENDBRANCH   9  10
ENDBRANCH   1   9
TORSDOF 9
ENDMDL
MODEL 9
REMARK VINA RESULT:    -4.468      1.666      3.114
REMARK INTER + INTRA:          -7.985
REMARK INTER:                  -6.885
REMARK INTRA:                  -1.100
REMARK UNBOUND:                -1.166
REMARK SMILES CCCCCCCCCC=CC(=O)[O-]
REMARK SMILES IDX 7 1 8 2 9 3 10 4 11 5 12 6 13 7 14 8 6 9 5 10 4 11 3 12 2 13
REMARK SMILES IDX 1 14
REMARK H PARENT
REMARK Flexibility Score: inf
ROOT
ATOM      1  C   UNL     1      10.113   9.117  55.524  1.00  0.00     0.000 C 
ENDROOT
BRANCH   1   2
ATOM      2  C   UNL     1      11.405   8.322  55.267  1.00  0.00     0.004 C 
BRANCH   2   3
ATOM      3  C   UNL     1      11.432   7.579  53.922  1.00  0.00     0.027 C 
BRANCH   3   4
ATOM      4  C   UNL     1      11.749   6.121  54.096  1.00  0.00    -0.025 C 
ATOM      5  C   UNL     1      10.910   5.291  54.726  1.00  0.00     0.020 C 
BRANCH   5   6
ATOM      6  C   UNL     1      11.186   3.853  54.873  1.00  0.00     0.064 C 
ATOM      7  O   UNL     1      10.758   3.019  54.032  1.00  0.00    -0.545 OA
ATOM      8  O   UNL     1      11.931   3.409  55.957  1.00  0.00    -0.545 OA
ENDBRANCH   5   6
ENDBRANCH   3   4
ENDBRANCH   2   3
ENDBRANCH   1   2
BRANCH   1   9
ATOM      9  C   UNL     1       8.844   8.290  55.267  1.00  0.00     0.000 C 
BRANCH   9  10
ATOM     10  C   UNL     1       7.646   9.199  54.969  1.00  0.00     0.000 C 
BRANCH  10  11
ATOM     11  C   UNL     1       7.125   8.973  53.541  1.00  0.00    -0.000 C 
BRANCH  11  12
ATOM     12  C   UNL     1       8.046   8.065  52.713  1.00  0.00    -0.000 C 
BRANCH  12  13
ATOM     13  C   UNL     1       8.700   8.801  51.535  1.00  0.00    -0.003 C 
ATOM     14  C   UNL     1       9.589   7.862  50.724  1.00  0.00     0.004 C 
ENDBRANCH  12  13
ENDBRANCH  11  12
ENDBRANCH  10  11
ENDBRANCH   9  10
ENDBRANCH   1   9
TORSDOF 9
ENDMDL
