MODEL 1
REMARK VINA RESULT:    -3.351      0.000      0.000
REMARK INTER + INTRA:          -4.215
REMARK INTER:                  -4.134
REMARK INTRA:                  -0.081
REMARK UNBOUND:                -0.081
REMARK SMILES CCCCCC(=O)[O-]
REMARK SMILES IDX 4 1 5 2 6 3 7 4 8 5 3 6 2 7 1 8
REMARK H PARENT
REMARK Flexibility Score: inf
ROOT
ATOM      1  C   UNL     1      12.621 -22.440  39.500  1.00  0.00     0.006 C 
ENDROOT
BRANCH   1   2
ATOM      2  C   UNL     1      13.568 -21.725  38.527  1.00  0.00     0.053 C 
BRANCH   2   3
ATOM      3  C   UNL     1      13.815 -22.539  37.293  1.00  0.00     0.041 C 
ATOM      4  O   UNL     1      13.772 -23.796  37.344  1.00  0.00    -0.550 OA
ATOM      5  O   UNL     1      14.120 -21.908  36.094  1.00  0.00    -0.550 OA
ENDBRANCH   2   3
ENDBRANCH   1   2
BRANCH   1   6
ATOM      6  C   UNL     1      12.352 -21.606  40.765  1.00  0.00     0.000 C 
BRANCH   6   7
ATOM      7  C   UNL     1      11.189 -22.161  41.600  1.00  0.00    -0.003 C 
ATOM      8  C   UNL     1      10.033 -22.672  40.741  1.00  0.00     0.004 C 
ENDBRANCH   6   7
ENDBRANCH   1   6
TORSDOF 4
ENDMDL
MODEL 2
REMARK VINA RESULT:    -3.305     10.885     12.388
REMARK INTER + INTRA:          -4.159
REMARK INTER:                  -4.073
REMARK INTRA:                  -0.086
REMARK UNBOUND:                -0.081
REMARK SMILES CCCCCC(=O)[O-]
REMARK SMILES IDX 4 1 5 2 6 3 7 4 8 5 3 6 2 7 1 8
REMARK H PARENT
REMARK Flexibility Score: inf
ROOT
ATOM      1  C   UNL     1       2.578 -27.935  39.464  1.00  0.00     0.006 C 
ENDROOT
BRANCH   1   2
ATOM      2  C   UNL     1       2.181 -29.417  39.462  1.00  0.00     0.053 C 
BRANCH   2   3
ATOM      3  C   UNL     1       1.535 -29.819  38.171  1.00  0.00     0.041 C 
ATOM      4  O   UNL     1       2.205 -30.413  37.285  1.00  0.00    -0.550 OA
ATOM      5  O   UNL     1       0.201 -29.513  37.936  1.00  0.00    -0.550 OA
ENDBRANCH   2   3
ENDBRANCH   1   2
BRANCH   1   6
ATOM      6  C   UNL     1       2.071 -27.200  40.716  1.00  0.00     0.000 C 
BRANCH   6   7
ATOM      7  C   UNL     1       2.963 -26.011  41.103  1.00  0.00    -0.003 C 
ATOM      8  C   UNL     1       4.166 -26.423  41.950  1.00  0.00     0.004 C 
ENDBRANCH   6   7
ENDBRANCH   1   6
TORSDOF 4
ENDMDL
MODEL 3
REMARK VINA RESULT:    -3.289     10.568     12.114
REMARK INTER + INTRA:          -4.138
REMARK INTER:                  -4.075
REMARK INTRA:                  -0.063
REMARK UNBOUND:                -0.081
REMARK SMILES CCCCCC(=O)[O-]
REMARK SMILES IDX 4 1 5 2 6 3 7 4 8 5 3 6 2 7 1 8
REMARK H PARENT
REMARK Flexibility Score: inf
ROOT
ATOM      1  C   UNL     1       2.902 -27.960  39.497  1.00  0.00     0.006 C 
ENDROOT
BRANCH   1   2
ATOM      2  C   UNL     1       1.962 -28.959  38.810  1.00  0.00     0.053 C 
BRANCH   2   3
ATOM      3  C   UNL     1       2.399 -30.375  39.028  1.00  0.00     0.041 C 
ATOM      4  O   UNL     1       1.605 -31.213  39.532  1.00  0.00    -0.550 OA
ATOM      5  O   UNL     1       3.691 -30.762  38.700  1.00  0.00    -0.550 OA
ENDBRANCH   2   3
ENDBRANCH   1   2
BRANCH   1   6
ATOM      6  C   UNL     1       2.229 -27.255  40.688  1.00  0.00     0.000 C 
BRANCH   6   7
ATOM      7  C   UNL     1       3.006 -26.015  41.154  1.00  0.00    -0.003 C 
ATOM      8  C   UNL     1       4.224 -26.364  42.008  1.00  0.00     0.004 C 
ENDBRANCH   6   7
ENDBRANCH   1   6
TORSDOF 4
ENDMDL
MODEL 4
REMARK VINA RESULT:    -3.182      3.260      4.037
REMARK INTER + INTRA:          -4.007
REMARK INTER:                  -3.892
REMARK INTRA:                  -0.115
REMARK UNBOUND:                -0.081
REMARK SMILES CCCCCC(=O)[O-]
REMARK SMILES IDX 4 1 5 2 6 3 7 4 8 5 3 6 2 7 1 8
REMARK H PARENT
REMARK Flexibility Score: inf
ROOT
ATOM      1  C   UNL     1       9.571 -22.789  40.678  1.00  0.00     0.006 C 
ENDROOT
BRANCH   1   2
ATOM      2  C   UNL     1       9.595 -24.320  40.579  1.00  0.00     0.053 C 
BRANCH   2   3
ATOM      3  C   UNL     1       9.849 -24.783  39.177  1.00  0.00     0.041 C 
ATOM      4  O   UNL     1      11.000 -25.164  38.835  1.00  0.00    -0.550 OA
ATOM      5  O   UNL     1       8.822 -24.769  38.243  1.00  0.00    -0.550 OA
ENDBRANCH   2   3
ENDBRANCH   1   2
BRANCH   1   6
ATOM      6  C   UNL     1      10.931 -22.215  41.112  1.00  0.00     0.000 C 
BRANCH   6   7
ATOM      7  C   UNL     1      11.358 -22.701  42.505  1.00  0.00    -0.003 C 
ATOM      8  C   UNL     1      12.759 -22.229  42.894  1.00  0.00     0.004 C 
ENDBRANCH   6   7
ENDBRANCH   1   6
TORSDOF 4
ENDMDL
MODEL 5
REMARK VINA RESULT:    -3.141      1.142      1.375
REMARK INTER + INTRA:          -3.956
REMARK INTER:                  -3.876
REMARK INTRA:                  -0.080
REMARK UNBOUND:                -0.081
REMARK SMILES CCCCCC(=O)[O-]
REMARK SMILES IDX 4 1 5 2 6 3 7 4 8 5 3 6 2 7 1 8
REMARK H PARENT
REMARK Flexibility Score: inf
ROOT
ATOM      1  C   UNL     1      13.101 -21.770  39.141  1.00  0.00     0.006 C 
ENDROOT
BRANCH   1   2
ATOM      2  C   UNL     1      13.740 -20.894  38.056  1.00  0.00     0.053 C 
BRANCH   2   3
ATOM      3  C   UNL     1      14.435 -21.717  37.014  1.00  0.00     0.041 C 
ATOM      4  O   UNL     1      13.895 -21.906  35.892  1.00  0.00    -0.550 OA
ATOM      5  O   UNL     1      15.665 -22.297  37.293  1.00  0.00    -0.550 OA
ENDBRANCH   2   3
ENDBRANCH   1   2
BRANCH   1   6
ATOM      6  C   UNL     1      12.994 -21.038  40.490  1.00  0.00     0.000 C 
BRANCH   6   7
ATOM      7  C   UNL     1      12.102 -21.781  41.495  1.00  0.00    -0.003 C 
ATOM      8  C   UNL     1      10.839 -22.356  40.855  1.00  0.00     0.004 C 
ENDBRANCH   6   7
ENDBRANCH   1   6
TORSDOF 4
ENDMDL
MODEL 6
REMARK VINA RESULT:    -3.090      3.793      4.875
REMARK INTER + INTRA:          -3.893
REMARK INTER:                  -3.789
REMARK INTRA:                  -0.104
REMARK UNBOUND:                -0.081
REMARK SMILES CCCCCC(=O)[O-]
REMARK SMILES IDX 4 1 5 2 6 3 7 4 8 5 3 6 2 7 1 8
REMARK H PARENT
REMARK Flexibility Score: inf
ROOT
ATOM      1  C   UNL     1      11.091 -22.275  41.166  1.00  0.00     0.006 C 
ENDROOT
BRANCH   1   2
ATOM      2  C   UNL     1      11.378 -22.715  42.607  1.00  0.00     0.053 C 
BRANCH   2   3
ATOM      3  C   UNL     1      12.633 -22.094  43.139  1.00  0.00     0.041 C 
ATOM      4  O   UNL     1      13.376 -21.417  42.381  1.00  0.00    -0.550 OA
ATOM      5  O   UNL     1      12.996 -22.287  44.466  1.00  0.00    -0.550 OA
ENDBRANCH   2   3
ENDBRANCH   1   2
BRANCH   1   6
ATOM      6  C   UNL     1       9.700 -22.726  40.687  1.00  0.00     0.000 C 
BRANCH   6   7
ATOM      7  C   UNL     1       9.737 -24.076  39.956  1.00  0.00    -0.003 C 
ATOM      8  C   UNL     1       9.073 -25.200  40.751  1.00  0.00     0.004 C 
ENDBRANCH   6   7
ENDBRANCH   1   6
TORSDOF 4
ENDMDL
MODEL 7
REMARK VINA RESULT:    -3.070      3.760      5.155
REMARK INTER + INTRA:          -3.869
REMARK INTER:                  -3.618
REMARK INTRA:                  -0.251
REMARK UNBOUND:                -0.081
REMARK SMILES CCCCCC(=O)[O-]
REMARK SMILES IDX 4 1 5 2 6 3 7 4 8 5 3 6 2 7 1 8
REMARK H PARENT
REMARK Flexibility Score: inf
ROOT
ATOM      1  C   UNL     1       9.564 -24.117  39.854  1.00  0.00     0.006 C 
ENDROOT
BRANCH   1   2
ATOM      2  C   UNL     1       9.009 -25.282  40.684  1.00  0.00     0.053 C 
BRANCH   2   3
ATOM      3  C   UNL     1      10.102 -26.161  41.211  1.00  0.00     0.041 C 
ATOM      4  O   UNL     1      11.292 -25.983  40.839  1.00  0.00    -0.550 OA
ATOM      5  O   UNL     1       9.802 -27.193  42.090  1.00  0.00    -0.550 OA
ENDBRANCH   2   3
ENDBRANCH   1   2
BRANCH   1   6
ATOM      6  C   UNL     1       9.565 -22.794  40.640  1.00  0.00     0.000 C 
BRANCH   6   7
ATOM      7  C   UNL     1      10.983 -22.316  40.986  1.00  0.00    -0.003 C 
ATOM      8  C   UNL     1      11.396 -22.671  42.414  1.00  0.00     0.004 C 
ENDBRANCH   6   7
ENDBRANCH   1   6
TORSDOF 4
ENDMDL
MODEL 8
REMARK VINA RESULT:    -3.064      3.272      4.495
REMARK INTER + INTRA:          -3.861
REMARK INTER:                  -3.696
REMARK INTRA:                  -0.165
REMARK UNBOUND:                -0.081
REMARK SMILES CCCCCC(=O)[O-]
REMARK SMILES IDX 4 1 5 2 6 3 7 4 8 5 3 6 2 7 1 8
REMARK H PARENT
REMARK Flexibility Score: inf
ROOT
ATOM      1  C   UNL     1       9.702 -24.280  40.241  1.00  0.00     0.006 C 
ENDROOT
BRANCH   1   2
ATOM      2  C   UNL     1       9.697 -22.797  40.632  1.00  0.00     0.053 C 
BRANCH   2   3
ATOM      3  C   UNL     1      11.086 -22.262  40.804  1.00  0.00     0.041 C 
ATOM      4  O   UNL     1      11.874 -22.215  39.823  1.00  0.00    -0.550 OA
ATOM      5  O   UNL     1      11.518 -21.840  42.055  1.00  0.00    -0.550 OA
ENDBRANCH   2   3
ENDBRANCH   1   2
BRANCH   1   6
ATOM      6  C   UNL     1      10.405 -25.155  41.294  1.00  0.00     0.000 C 
BRANCH   6   7
ATOM      7  C   UNL     1       9.580 -26.393  41.676  1.00  0.00    -0.003 C 
ATOM      8  C   UNL     1       8.121 -26.293  41.233  1.00  0.00     0.004 C 
ENDBRANCH   6   7
ENDBRANCH   1   6
TORSDOF 4
ENDMDL
MODEL 9
REMARK VINA RESULT:    -3.041      3.590      4.458
REMARK INTER + INTRA:          -3.833
REMARK INTER:                  -3.776
REMARK INTRA:                  -0.057
REMARK UNBOUND:                -0.081
REMARK SMILES CCCCCC(=O)[O-]
REMARK SMILES IDX 4 1 5 2 6 3 7 4 8 5 3 6 2 7 1 8
REMARK H PARENT
REMARK Flexibility Score: inf
ROOT
ATOM      1  C   UNL     1      14.345 -18.820  37.522  1.00  0.00     0.006 C 
ENDROOT
BRANCH   1   2
ATOM      2  C   UNL     1      13.974 -20.309  37.524  1.00  0.00     0.053 C 
BRANCH   2   3
ATOM      3  C   UNL     1      14.432 -20.997  36.274  1.00  0.00     0.041 C 
ATOM      4  O   UNL     1      15.590 -21.488  36.209  1.00  0.00    -0.550 OA
ATOM      5  O   UNL     1      13.589 -21.073  35.174  1.00  0.00    -0.550 OA
ENDBRANCH   2   3
ENDBRANCH   1   2
BRANCH   1   6
ATOM      6  C   UNL     1      15.043 -18.395  38.825  1.00  0.00     0.000 C 
BRANCH   6   7
ATOM      7  C   UNL     1      14.266 -17.309  39.583  1.00  0.00    -0.003 C 
ATOM      8  C   UNL     1      15.092 -16.647  40.685  1.00  0.00     0.004 C 
ENDBRANCH   6   7
ENDBRANCH   1   6
TORSDOF 4
ENDMDL
