MODEL 1
REMARK VINA RESULT:    -4.326      0.000      0.000
REMARK INTER + INTRA:          -6.601
REMARK INTER:                  -5.844
REMARK INTRA:                  -0.757
REMARK UNBOUND:                -0.757
REMARK SMILES CC(=O)CCC=C(C)CCC=C(C)C
REMARK SMILES IDX 7 1 6 2 8 3 9 4 10 5 11 6 13 7 12 8 14 9 5 10 4 11 2 12 3 13
REMARK SMILES IDX 1 14
REMARK H PARENT
REMARK Flexibility Score: inf
ROOT
ATOM      1  C   UNL     1      12.318  61.809  23.645  1.00  0.00    -0.077 C 
ATOM      2  C   UNL     1      13.468  62.014  22.961  1.00  0.00    -0.028 C 
ATOM      3  C   UNL     1      11.519  60.536  23.502  1.00  0.00     0.039 C 
ENDROOT
BRANCH   1   4
ATOM      4  C   UNL     1      11.826  62.883  24.595  1.00  0.00     0.034 C 
BRANCH   4   5
ATOM      5  C   UNL     1      12.017  64.292  24.015  1.00  0.00     0.032 C 
BRANCH   5   6
ATOM      6  C   UNL     1      10.695  64.960  23.718  1.00  0.00    -0.028 C 
ATOM      7  C   UNL     1       8.842  66.567  24.048  1.00  0.00     0.039 C 
ATOM      8  C   UNL     1      10.156  65.954  24.461  1.00  0.00    -0.080 C 
ATOM      9  C   UNL     1      10.796  66.443  25.736  1.00  0.00     0.039 C 
ENDBRANCH   5   6
ENDBRANCH   4   5
ENDBRANCH   1   4
BRANCH   2  10
ATOM     10  C   UNL     1      14.052  61.043  21.964  1.00  0.00     0.035 C 
BRANCH  10  11
ATOM     11  C   UNL     1      14.105  61.668  20.566  1.00  0.00     0.079 C 
BRANCH  11  12
ATOM     12  C   UNL     1      12.780  61.519  19.866  1.00  0.00     0.130 C 
ATOM     13  O   UNL     1      12.206  60.441  19.891  1.00  0.00    -0.300 OA
ATOM     14  C   UNL     1      12.140  62.671  19.149  1.00  0.00     0.087 C 
ENDBRANCH  11  12
ENDBRANCH  10  11
ENDBRANCH   2  10
TORSDOF 6
ENDMDL
MODEL 2
REMARK VINA RESULT:    -4.297      2.325      5.531
REMARK INTER + INTRA:          -6.562
REMARK INTER:                  -5.649
REMARK INTRA:                  -0.913
REMARK UNBOUND:                -0.757
REMARK SMILES CC(=O)CCC=C(C)CCC=C(C)C
REMARK SMILES IDX 7 1 6 2 8 3 9 4 10 5 11 6 13 7 12 8 14 9 5 10 4 11 2 12 3 13
REMARK SMILES IDX 1 14
REMARK H PARENT
REMARK Flexibility Score: inf
ROOT
ATOM      1  C   UNL     1      13.459  61.720  23.698  1.00  0.00    -0.077 C 
ATOM      2  C   UNL     1      13.183  63.026  23.917  1.00  0.00    -0.028 C 
ATOM      3  C   UNL     1      12.442  60.634  23.955  1.00  0.00     0.039 C 
ENDROOT
BRANCH   1   4
ATOM      4  C   UNL     1      14.824  61.337  23.159  1.00  0.00     0.034 C 
BRANCH   4   5
ATOM      5  C   UNL     1      14.735  60.741  21.746  1.00  0.00     0.032 C 
BRANCH   5   6
ATOM      6  C   UNL     1      14.074  61.692  20.777  1.00  0.00    -0.028 C 
ATOM      7  C   UNL     1      12.329  62.485  19.212  1.00  0.00     0.039 C 
ATOM      8  C   UNL     1      12.910  61.444  20.134  1.00  0.00    -0.080 C 
ATOM      9  C   UNL     1      12.188  60.126  20.259  1.00  0.00     0.039 C 
ENDBRANCH   5   6
ENDBRANCH   4   5
ENDBRANCH   1   4
BRANCH   2  10
ATOM     10  C   UNL     1      11.880  63.540  24.477  1.00  0.00     0.035 C 
BRANCH  10  11
ATOM     11  C   UNL     1      11.203  64.496  23.489  1.00  0.00     0.079 C 
BRANCH  11  12
ATOM     12  C   UNL     1      11.130  65.888  24.061  1.00  0.00     0.130 C 
ATOM     13  O   UNL     1      10.045  66.345  24.388  1.00  0.00    -0.300 OA
ATOM     14  C   UNL     1      12.361  66.722  24.250  1.00  0.00     0.087 C 
ENDBRANCH  11  12
ENDBRANCH  10  11
ENDBRANCH   2  10
TORSDOF 6
ENDMDL
MODEL 3
REMARK VINA RESULT:    -4.228     15.860     17.291
REMARK INTER + INTRA:          -6.468
REMARK INTER:                  -5.784
REMARK INTRA:                  -0.685
REMARK UNBOUND:                -0.757
REMARK SMILES CC(=O)CCC=C(C)CCC=C(C)C
REMARK SMILES IDX 7 1 6 2 8 3 9 4 10 5 11 6 13 7 12 8 14 9 5 10 4 11 2 12 3 13
REMARK SMILES IDX 1 14
REMARK H PARENT
REMARK Flexibility Score: inf
ROOT
ATOM      1  C   UNL     1      15.535  52.117  34.776  1.00  0.00    -0.077 C 
ATOM      2  C   UNL     1      16.736  52.176  34.156  1.00  0.00    -0.028 C 
ATOM      3  C   UNL     1      15.403  51.715  36.226  1.00  0.00     0.039 C 
ENDROOT
BRANCH   1   4
ATOM      4  C   UNL     1      14.286  52.484  33.999  1.00  0.00     0.034 C 
BRANCH   4   5
ATOM      5  C   UNL     1      13.984  51.466  32.888  1.00  0.00     0.032 C 
BRANCH   5   6
ATOM      6  C   UNL     1      13.397  50.189  33.442  1.00  0.00    -0.028 C 
ATOM      7  C   UNL     1      12.886  47.769  33.505  1.00  0.00     0.039 C 
ATOM      8  C   UNL     1      13.485  48.981  32.839  1.00  0.00    -0.080 C 
ATOM      9  C   UNL     1      14.118  48.805  31.482  1.00  0.00     0.039 C 
ENDBRANCH   5   6
ENDBRANCH   4   5
ENDBRANCH   1   4
BRANCH   2  10
ATOM     10  C   UNL     1      18.049  51.810  34.802  1.00  0.00     0.035 C 
BRANCH  10  11
ATOM     11  C   UNL     1      18.819  53.068  35.218  1.00  0.00     0.079 C 
BRANCH  11  12
ATOM     12  C   UNL     1      19.481  53.704  34.024  1.00  0.00     0.130 C 
ATOM     13  O   UNL     1      19.154  54.832  33.687  1.00  0.00    -0.300 OA
ATOM     14  C   UNL     1      20.544  52.989  33.245  1.00  0.00     0.087 C 
ENDBRANCH  11  12
ENDBRANCH  10  11
ENDBRANCH   2  10
TORSDOF 6
ENDMDL
MODEL 4
REMARK VINA RESULT:    -4.147     10.769     13.278
REMARK INTER + INTRA:          -6.359
REMARK INTER:                  -5.385
REMARK INTRA:                  -0.975
REMARK UNBOUND:                -0.757
REMARK SMILES CC(=O)CCC=C(C)CCC=C(C)C
REMARK SMILES IDX 7 1 6 2 8 3 9 4 10 5 11 6 13 7 12 8 14 9 5 10 4 11 2 12 3 13
REMARK SMILES IDX 1 14
REMARK H PARENT
REMARK Flexibility Score: inf
ROOT
ATOM      1  C   UNL     1      13.595  64.127  36.491  1.00  0.00    -0.077 C 
ATOM      2  C   UNL     1      13.875  65.329  35.936  1.00  0.00    -0.028 C 
ATOM      3  C   UNL     1      12.298  63.403  36.218  1.00  0.00     0.039 C 
ENDROOT
BRANCH   1   4
ATOM      4  C   UNL     1      14.622  63.478  37.399  1.00  0.00     0.034 C 
BRANCH   4   5
ATOM      5  C   UNL     1      15.087  62.118  36.857  1.00  0.00     0.032 C 
BRANCH   5   6
ATOM      6  C   UNL     1      15.748  62.250  35.505  1.00  0.00    -0.028 C 
ATOM      7  C   UNL     1      16.057  61.845  33.083  1.00  0.00     0.039 C 
ATOM      8  C   UNL     1      15.336  61.611  34.386  1.00  0.00    -0.080 C 
ATOM      9  C   UNL     1      14.204  60.614  34.401  1.00  0.00     0.039 C 
ENDBRANCH   5   6
ENDBRANCH   4   5
ENDBRANCH   1   4
BRANCH   2  10
ATOM     10  C   UNL     1      12.932  66.095  35.042  1.00  0.00     0.035 C 
BRANCH  10  11
ATOM     11  C   UNL     1      13.696  67.125  34.203  1.00  0.00     0.079 C 
BRANCH  11  12
ATOM     12  C   UNL     1      14.197  66.504  32.926  1.00  0.00     0.130 C 
ATOM     13  O   UNL     1      15.006  67.111  32.240  1.00  0.00    -0.300 OA
ATOM     14  C   UNL     1      13.735  65.148  32.481  1.00  0.00     0.087 C 
ENDBRANCH  11  12
ENDBRANCH  10  11
ENDBRANCH   2  10
TORSDOF 6
ENDMDL
MODEL 5
REMARK VINA RESULT:    -4.124      2.719      6.442
REMARK INTER + INTRA:          -6.328
REMARK INTER:                  -5.827
REMARK INTRA:                  -0.500
REMARK UNBOUND:                -0.757
REMARK SMILES CC(=O)CCC=C(C)CCC=C(C)C
REMARK SMILES IDX 7 1 6 2 8 3 9 4 10 5 11 6 13 7 12 8 14 9 5 10 4 11 2 12 3 13
REMARK SMILES IDX 1 14
REMARK H PARENT
REMARK Flexibility Score: inf
ROOT
ATOM      1  C   UNL     1      12.233  63.824  24.138  1.00  0.00    -0.077 C 
ATOM      2  C   UNL     1      11.309  64.615  23.545  1.00  0.00    -0.028 C 
ATOM      3  C   UNL     1      13.238  64.370  25.124  1.00  0.00     0.039 C 
ENDROOT
BRANCH   1   4
ATOM      4  C   UNL     1      12.248  62.343  23.817  1.00  0.00     0.034 C 
BRANCH   4   5
ATOM      5  C   UNL     1      13.325  61.993  22.778  1.00  0.00     0.032 C 
BRANCH   5   6
ATOM      6  C   UNL     1      12.777  62.027  21.370  1.00  0.00    -0.028 C 
ATOM      7  C   UNL     1      12.769  61.616  18.930  1.00  0.00     0.039 C 
ATOM      8  C   UNL     1      13.431  61.557  20.283  1.00  0.00    -0.080 C 
ATOM      9  C   UNL     1      14.838  61.021  20.362  1.00  0.00     0.039 C 
ENDBRANCH   5   6
ENDBRANCH   4   5
ENDBRANCH   1   4
BRANCH   2  10
ATOM     10  C   UNL     1      11.203  66.106  23.752  1.00  0.00     0.035 C 
BRANCH  10  11
ATOM     11  C   UNL     1       9.741  66.526  23.934  1.00  0.00     0.079 C 
BRANCH  11  12
ATOM     12  C   UNL     1       9.468  66.896  25.368  1.00  0.00     0.130 C 
ATOM     13  O   UNL     1      10.406  67.053  26.136  1.00  0.00    -0.300 OA
ATOM     14  C   UNL     1       8.070  67.089  25.874  1.00  0.00     0.087 C 
ENDBRANCH  11  12
ENDBRANCH  10  11
ENDBRANCH   2  10
TORSDOF 6
ENDMDL
MODEL 6
REMARK VINA RESULT:    -4.116     14.275     16.206
REMARK INTER + INTRA:          -6.316
REMARK INTER:                  -4.955
REMARK INTRA:                  -1.362
REMARK UNBOUND:                -0.757
REMARK SMILES CC(=O)CCC=C(C)CCC=C(C)C
REMARK SMILES IDX 7 1 6 2 8 3 9 4 10 5 11 6 13 7 12 8 14 9 5 10 4 11 2 12 3 13
REMARK SMILES IDX 1 14
REMARK H PARENT
REMARK Flexibility Score: inf
ROOT
ATOM      1  C   UNL     1      16.777  52.198  34.706  1.00  0.00    -0.077 C 
ATOM      2  C   UNL     1      16.175  52.560  35.863  1.00  0.00    -0.028 C 
ATOM      3  C   UNL     1      16.008  52.066  33.413  1.00  0.00     0.039 C 
ENDROOT
BRANCH   1   4
ATOM      4  C   UNL     1      18.270  51.934  34.704  1.00  0.00     0.034 C 
BRANCH   4   5
ATOM      5  C   UNL     1      19.075  53.201  35.028  1.00  0.00     0.032 C 
BRANCH   5   6
ATOM      6  C   UNL     1      19.222  54.096  33.821  1.00  0.00    -0.028 C 
ATOM      7  C   UNL     1      18.894  56.134  32.455  1.00  0.00     0.039 C 
ATOM      8  C   UNL     1      18.649  55.315  33.697  1.00  0.00    -0.080 C 
ATOM      9  C   UNL     1      17.715  55.873  34.742  1.00  0.00     0.039 C 
ENDBRANCH   5   6
ENDBRANCH   4   5
ENDBRANCH   1   4
BRANCH   2  10
ATOM     10  C   UNL     1      14.696  52.822  36.010  1.00  0.00     0.035 C 
BRANCH  10  11
ATOM     11  C   UNL     1      14.404  54.325  35.966  1.00  0.00     0.079 C 
BRANCH  11  12
ATOM     12  C   UNL     1      13.603  54.675  34.739  1.00  0.00     0.130 C 
ATOM     13  O   UNL     1      12.412  54.403  34.702  1.00  0.00    -0.300 OA
ATOM     14  C   UNL     1      14.231  55.363  33.564  1.00  0.00     0.087 C 
ENDBRANCH  11  12
ENDBRANCH  10  11
ENDBRANCH   2  10
TORSDOF 6
ENDMDL
MODEL 7
REMARK VINA RESULT:    -4.102     12.079     14.328
REMARK INTER + INTRA:          -6.298
REMARK INTER:                  -5.305
REMARK INTRA:                  -0.993
REMARK UNBOUND:                -0.757
REMARK SMILES CC(=O)CCC=C(C)CCC=C(C)C
REMARK SMILES IDX 7 1 6 2 8 3 9 4 10 5 11 6 13 7 12 8 14 9 5 10 4 11 2 12 3 13
REMARK SMILES IDX 1 14
REMARK H PARENT
REMARK Flexibility Score: inf
ROOT
ATOM      1  C   UNL     1      13.342  64.324  36.302  1.00  0.00    -0.077 C 
ATOM      2  C   UNL     1      12.216  63.605  36.517  1.00  0.00    -0.028 C 
ATOM      3  C   UNL     1      13.394  65.443  35.288  1.00  0.00     0.039 C 
ENDROOT
BRANCH   1   4
ATOM      4  C   UNL     1      14.583  64.011  37.115  1.00  0.00     0.034 C 
BRANCH   4   5
ATOM      5  C   UNL     1      15.034  62.555  36.932  1.00  0.00     0.032 C 
BRANCH   5   6
ATOM      6  C   UNL     1      15.720  62.343  35.603  1.00  0.00    -0.028 C 
ATOM      7  C   UNL     1      15.994  61.459  33.308  1.00  0.00     0.039 C 
ATOM      8  C   UNL     1      15.234  61.569  34.606  1.00  0.00    -0.080 C 
ATOM      9  C   UNL     1      13.975  60.754  34.762  1.00  0.00     0.039 C 
ENDBRANCH   5   6
ENDBRANCH   4   5
ENDBRANCH   1   4
BRANCH   2  10
ATOM     10  C   UNL     1      10.926  63.793  35.758  1.00  0.00     0.035 C 
BRANCH  10  11
ATOM     11  C   UNL     1       9.816  64.292  36.688  1.00  0.00     0.079 C 
BRANCH  11  12
ATOM     12  C   UNL     1       9.222  65.574  36.167  1.00  0.00     0.130 C 
ATOM     13  O   UNL     1       9.931  66.358  35.553  1.00  0.00    -0.300 OA
ATOM     14  C   UNL     1       7.775  65.907  36.374  1.00  0.00     0.087 C 
ENDBRANCH  11  12
ENDBRANCH  10  11
ENDBRANCH   2  10
TORSDOF 6
ENDMDL
MODEL 8
REMARK VINA RESULT:    -4.093     12.421     14.552
REMARK INTER + INTRA:          -6.286
REMARK INTER:                  -4.964
REMARK INTRA:                  -1.322
REMARK UNBOUND:                -0.757
REMARK SMILES CC(=O)CCC=C(C)CCC=C(C)C
REMARK SMILES IDX 7 1 6 2 8 3 9 4 10 5 11 6 13 7 12 8 14 9 5 10 4 11 2 12 3 13
REMARK SMILES IDX 1 14
REMARK H PARENT
REMARK Flexibility Score: inf
ROOT
ATOM      1  C   UNL     1      14.881  63.031  36.810  1.00  0.00    -0.077 C 
ATOM      2  C   UNL     1      14.227  64.215  36.811  1.00  0.00    -0.028 C 
ATOM      3  C   UNL     1      15.423  62.418  35.541  1.00  0.00     0.039 C 
ENDROOT
BRANCH   1   4
ATOM      4  C   UNL     1      15.093  62.306  38.125  1.00  0.00     0.034 C 
BRANCH   4   5
ATOM      5  C   UNL     1      14.504  60.887  38.098  1.00  0.00     0.032 C 
BRANCH   5   6
ATOM      6  C   UNL     1      12.994  60.907  38.124  1.00  0.00    -0.028 C 
ATOM      7  C   UNL     1      10.706  60.508  37.271  1.00  0.00     0.039 C 
ATOM      8  C   UNL     1      12.205  60.468  37.118  1.00  0.00    -0.080 C 
ATOM      9  C   UNL     1      12.771  59.986  35.805  1.00  0.00     0.039 C 
ENDBRANCH   5   6
ENDBRANCH   4   5
ENDBRANCH   1   4
BRANCH   2  10
ATOM     10  C   UNL     1      13.922  65.022  35.573  1.00  0.00     0.035 C 
BRANCH  10  11
ATOM     11  C   UNL     1      12.430  65.362  35.501  1.00  0.00     0.079 C 
BRANCH  11  12
ATOM     12  C   UNL     1      11.594  64.114  35.609  1.00  0.00     0.130 C 
ATOM     13  O   UNL     1      10.947  63.912  36.626  1.00  0.00    -0.300 OA
ATOM     14  C   UNL     1      11.528  63.117  34.491  1.00  0.00     0.087 C 
ENDBRANCH  11  12
ENDBRANCH  10  11
ENDBRANCH   2  10
TORSDOF 6
ENDMDL
MODEL 9
REMARK VINA RESULT:    -4.084     16.107     17.149
REMARK INTER + INTRA:          -6.274
REMARK INTER:                  -5.530
REMARK INTRA:                  -0.744
REMARK UNBOUND:                -0.757
REMARK SMILES CC(=O)CCC=C(C)CCC=C(C)C
REMARK SMILES IDX 7 1 6 2 8 3 9 4 10 5 11 6 13 7 12 8 14 9 5 10 4 11 2 12 3 13
REMARK SMILES IDX 1 14
REMARK H PARENT
REMARK Flexibility Score: inf
ROOT
ATOM      1  C   UNL     1      16.276  52.620  35.429  1.00  0.00    -0.077 C 
ATOM      2  C   UNL     1      15.847  52.219  34.210  1.00  0.00    -0.028 C 
ATOM      3  C   UNL     1      15.489  52.334  36.686  1.00  0.00     0.039 C 
ENDROOT
BRANCH   1   4
ATOM      4  C   UNL     1      17.593  53.362  35.539  1.00  0.00     0.034 C 
BRANCH   4   5
ATOM      5  C   UNL     1      18.791  52.449  35.238  1.00  0.00     0.032 C 
BRANCH   5   6
ATOM      6  C   UNL     1      19.703  53.047  34.193  1.00  0.00    -0.028 C 
ATOM      7  C   UNL     1      20.694  53.332  31.943  1.00  0.00     0.039 C 
ATOM      8  C   UNL     1      19.765  52.636  32.905  1.00  0.00    -0.080 C 
ATOM      9  C   UNL     1      18.974  51.456  32.400  1.00  0.00     0.039 C 
ENDBRANCH   5   6
ENDBRANCH   4   5
ENDBRANCH   1   4
BRANCH   2  10
ATOM     10  C   UNL     1      14.545  51.502  33.956  1.00  0.00     0.035 C 
BRANCH  10  11
ATOM     11  C   UNL     1      14.537  50.866  32.562  1.00  0.00     0.079 C 
BRANCH  11  12
ATOM     12  C   UNL     1      13.553  49.727  32.502  1.00  0.00     0.130 C 
ATOM     13  O   UNL     1      13.331  49.182  31.432  1.00  0.00    -0.300 OA
ATOM     14  C   UNL     1      12.848  49.237  33.732  1.00  0.00     0.087 C 
ENDBRANCH  11  12
ENDBRANCH  10  11
ENDBRANCH   2  10
TORSDOF 6
ENDMDL
