MODEL 1
REMARK VINA RESULT:    -6.781      0.000      0.000
REMARK INTER + INTRA:          -6.935
REMARK INTER:                  -7.376
REMARK INTRA:                   0.441
REMARK UNBOUND:                 0.441
REMARK SMILES CC1(C)CC[C@@]2(C(=O)[O-])CC[C@@]3(C)C(=CC[C@H]4[C@@]5(C)CC[C@@H](O)C(C)(C)[C@H]5CC[C@]43C)[C@@H]2C1
REMARK SMILES IDX 6 1 5 2 10 3 32 4 4 5 11 6 14 7 33 8 2 9 12 10 15 11 1 12
REMARK SMILES IDX 3 13 13 14 30 15 16 16 17 17 29 18 31 19 18 20 28 21 27 22
REMARK SMILES IDX 20 23 19 24 24 25 21 26 22 27 25 28 26 29 7 30 8 31 9 32
REMARK SMILES IDX 23 33
REMARK H PARENT 23 34
REMARK Flexibility Score: inf
ROOT
ATOM      1  C   UNL     1     132.589  -2.629  80.026  1.00  0.00     0.017 C 
ATOM      2  C   UNL     1     132.239  -4.106  80.367  1.00  0.00     0.014 C 
ATOM      3  C   UNL     1     133.715  -2.577  78.932  1.00  0.00     0.014 C 
ATOM      4  C   UNL     1     131.282  -1.968  79.497  1.00  0.00     0.028 C 
ATOM      5  C   UNL     1     131.102  -4.217  81.407  1.00  0.00     0.007 C 
ATOM      6  C   UNL     1     133.288  -2.004  77.557  1.00  0.00     0.013 C 
ATOM      7  C   UNL     1     131.614  -0.621  78.863  1.00  0.00    -0.064 C 
ATOM      8  C   UNL     1     130.142  -2.005  80.544  1.00  0.00     0.015 C 
ATOM      9  C   UNL     1     129.806  -3.456  81.001  1.00  0.00    -0.035 C 
ATOM     10  C   UNL     1     132.436  -0.662  77.574  1.00  0.00    -0.006 C 
ATOM     11  C   UNL     1     131.204   0.540  79.400  1.00  0.00    -0.027 C 
ATOM     12  C   UNL     1     128.875  -3.378  82.231  1.00  0.00     0.011 C 
ATOM     13  C   UNL     1     129.052  -4.229  79.892  1.00  0.00     0.011 C 
ATOM     14  C   UNL     1     131.381  -0.784  76.428  1.00  0.00     0.017 C 
ATOM     15  C   UNL     1     133.334   0.664  77.378  1.00  0.00    -0.020 C 
ATOM     16  C   UNL     1     131.817   1.862  79.065  1.00  0.00     0.032 C 
ATOM     17  C   UNL     1     132.484   1.969  77.661  1.00  0.00     0.006 C 
ATOM     18  C   UNL     1     134.539   0.665  78.365  1.00  0.00     0.008 C 
ATOM     19  C   UNL     1     133.883   0.664  75.914  1.00  0.00     0.012 C 
ATOM     20  C   UNL     1     133.284   3.357  77.424  1.00  0.00    -0.025 C 
ATOM     21  C   UNL     1     135.113   2.047  78.768  1.00  0.00     0.005 C 
ATOM     22  C   UNL     1     134.830   3.231  77.798  1.00  0.00     0.003 C 
ATOM     23  C   UNL     1     132.614   4.565  78.186  1.00  0.00     0.010 C 
ATOM     24  C   UNL     1     133.151   3.730  75.904  1.00  0.00     0.012 C 
ATOM     25  C   UNL     1     135.505   4.585  78.296  1.00  0.00    -0.006 C 
ATOM     26  C   UNL     1     133.224   4.877  79.557  1.00  0.00     0.033 C 
ATOM     27  C   UNL     1     134.727   5.226  79.507  1.00  0.00     0.120 C 
ATOM     28  C   UNL     1     136.999   4.352  78.684  1.00  0.00     0.014 C 
ATOM     29  C   UNL     1     135.572   5.616  77.129  1.00  0.00     0.014 C 
ENDROOT
BRANCH   1  30
ATOM     30  C   UNL     1     133.133  -1.945  81.280  1.00  0.00     0.048 C 
ATOM     31  O   UNL     1     132.366  -1.556  82.199  1.00  0.00    -0.550 OA
ATOM     32  O   UNL     1     134.487  -1.640  81.372  1.00  0.00    -0.550 OA
ENDBRANCH   1  30
BRANCH  27  33
ATOM     33  O   UNL     1     135.302   4.849  80.737  1.00  0.00    -0.393 OA
ATOM     34  H   UNL     1     134.651   4.254  81.193  1.00  0.00     0.210 HD
ENDBRANCH  27  33
TORSDOF 2
ENDMDL
MODEL 2
REMARK VINA RESULT:    -6.473     15.478     19.404
REMARK INTER + INTRA:          -6.600
REMARK INTER:                  -7.134
REMARK INTRA:                   0.534
REMARK UNBOUND:                 0.441
REMARK SMILES CC1(C)CC[C@@]2(C(=O)[O-])CC[C@@]3(C)C(=CC[C@H]4[C@@]5(C)CC[C@@H](O)C(C)(C)[C@H]5CC[C@]43C)[C@@H]2C1
REMARK SMILES IDX 6 1 5 2 10 3 32 4 4 5 11 6 14 7 33 8 2 9 12 10 15 11 1 12
REMARK SMILES IDX 3 13 13 14 30 15 16 16 17 17 29 18 31 19 18 20 28 21 27 22
REMARK SMILES IDX 20 23 19 24 24 25 21 26 22 27 25 28 26 29 7 30 8 31 9 32
REMARK SMILES IDX 23 33
REMARK H PARENT 23 34
REMARK Flexibility Score: inf
ROOT
ATOM      1  C   UNL     1     144.492   5.748  87.677  1.00  0.00     0.017 C 
ATOM      2  C   UNL     1     143.837   5.272  86.349  1.00  0.00     0.014 C 
ATOM      3  C   UNL     1     144.141   4.754  88.842  1.00  0.00     0.014 C 
ATOM      4  C   UNL     1     146.029   5.783  87.434  1.00  0.00     0.028 C 
ATOM      5  C   UNL     1     144.188   6.190  85.158  1.00  0.00     0.007 C 
ATOM      6  C   UNL     1     145.333   3.950  89.420  1.00  0.00     0.013 C 
ATOM      7  C   UNL     1     146.752   5.945  88.767  1.00  0.00    -0.064 C 
ATOM      8  C   UNL     1     146.418   6.747  86.286  1.00  0.00     0.015 C 
ATOM      9  C   UNL     1     145.717   6.381  84.943  1.00  0.00    -0.035 C 
ATOM     10  C   UNL     1     146.661   4.767  89.736  1.00  0.00    -0.006 C 
ATOM     11  C   UNL     1     147.438   7.059  89.075  1.00  0.00    -0.027 C 
ATOM     12  C   UNL     1     145.934   7.541  83.947  1.00  0.00     0.011 C 
ATOM     13  C   UNL     1     146.339   5.108  84.321  1.00  0.00     0.011 C 
ATOM     14  C   UNL     1     147.860   3.840  89.358  1.00  0.00     0.017 C 
ATOM     15  C   UNL     1     146.768   5.232  91.278  1.00  0.00    -0.020 C 
ATOM     16  C   UNL     1     147.814   7.432  90.473  1.00  0.00     0.032 C 
ATOM     17  C   UNL     1     147.964   6.250  91.479  1.00  0.00     0.006 C 
ATOM     18  C   UNL     1     145.461   5.946  91.731  1.00  0.00     0.008 C 
ATOM     19  C   UNL     1     146.975   3.953  92.155  1.00  0.00     0.012 C 
ATOM     20  C   UNL     1     148.194   6.723  93.009  1.00  0.00    -0.025 C 
ATOM     21  C   UNL     1     145.588   6.972  92.885  1.00  0.00     0.005 C 
ATOM     22  C   UNL     1     146.823   6.824  93.821  1.00  0.00     0.003 C 
ATOM     23  C   UNL     1     149.003   8.075  93.098  1.00  0.00     0.010 C 
ATOM     24  C   UNL     1     149.125   5.663  93.701  1.00  0.00     0.012 C 
ATOM     25  C   UNL     1     146.821   7.906  94.990  1.00  0.00    -0.006 C 
ATOM     26  C   UNL     1     148.139   9.334  93.228  1.00  0.00     0.033 C 
ATOM     27  C   UNL     1     147.227   9.338  94.473  1.00  0.00     0.120 C 
ATOM     28  C   UNL     1     145.427   7.965  95.690  1.00  0.00     0.014 C 
ATOM     29  C   UNL     1     147.799   7.476  96.125  1.00  0.00     0.014 C 
ENDROOT
BRANCH   1  30
ATOM     30  C   UNL     1     143.920   7.115  88.051  1.00  0.00     0.048 C 
ATOM     31  O   UNL     1     143.899   8.065  87.225  1.00  0.00    -0.550 OA
ATOM     32  O   UNL     1     143.514   7.363  89.358  1.00  0.00    -0.550 OA
ENDBRANCH   1  30
BRANCH  27  33
ATOM     33  O   UNL     1     146.087  10.111  94.174  1.00  0.00    -0.393 OA
ATOM     34  H   UNL     1     145.787   9.848  93.264  1.00  0.00     0.210 HD
ENDBRANCH  27  33
TORSDOF 2
ENDMDL
MODEL 3
REMARK VINA RESULT:    -6.277     17.073     19.756
REMARK INTER + INTRA:          -6.387
REMARK INTER:                  -6.811
REMARK INTRA:                   0.424
REMARK UNBOUND:                 0.441
REMARK SMILES CC1(C)CC[C@@]2(C(=O)[O-])CC[C@@]3(C)C(=CC[C@H]4[C@@]5(C)CC[C@@H](O)C(C)(C)[C@H]5CC[C@]43C)[C@@H]2C1
REMARK SMILES IDX 6 1 5 2 10 3 32 4 4 5 11 6 14 7 33 8 2 9 12 10 15 11 1 12
REMARK SMILES IDX 3 13 13 14 30 15 16 16 17 17 29 18 31 19 18 20 28 21 27 22
REMARK SMILES IDX 20 23 19 24 24 25 21 26 22 27 25 28 26 29 7 30 8 31 9 32
REMARK SMILES IDX 23 33
REMARK H PARENT 23 34
REMARK Flexibility Score: inf
ROOT
ATOM      1  C   UNL     1     140.971   9.703  92.124  1.00  0.00     0.017 C 
ATOM      2  C   UNL     1     139.683  10.573  92.185  1.00  0.00     0.014 C 
ATOM      3  C   UNL     1     142.020  10.354  91.153  1.00  0.00     0.014 C 
ATOM      4  C   UNL     1     141.536   9.632  93.572  1.00  0.00     0.028 C 
ATOM      5  C   UNL     1     138.633  10.001  93.163  1.00  0.00     0.007 C 
ATOM      6  C   UNL     1     143.314  10.883  91.822  1.00  0.00     0.013 C 
ATOM      7  C   UNL     1     142.948   9.057  93.540  1.00  0.00    -0.064 C 
ATOM      8  C   UNL     1     140.528   9.002  94.565  1.00  0.00     0.015 C 
ATOM      9  C   UNL     1     139.175   9.773  94.603  1.00  0.00    -0.035 C 
ATOM     10  C   UNL     1     144.019   9.922  92.876  1.00  0.00    -0.006 C 
ATOM     11  C   UNL     1     143.242   7.858  94.071  1.00  0.00    -0.027 C 
ATOM     12  C   UNL     1     138.151   8.925  95.389  1.00  0.00     0.011 C 
ATOM     13  C   UNL     1     139.328  11.125  95.343  1.00  0.00     0.011 C 
ATOM     14  C   UNL     1     144.567  10.834  94.019  1.00  0.00     0.017 C 
ATOM     15  C   UNL     1     145.209   9.040  92.234  1.00  0.00    -0.020 C 
ATOM     16  C   UNL     1     144.475   7.086  93.725  1.00  0.00     0.032 C 
ATOM     17  C   UNL     1     145.697   7.928  93.249  1.00  0.00     0.006 C 
ATOM     18  C   UNL     1     144.726   8.319  90.942  1.00  0.00     0.008 C 
ATOM     19  C   UNL     1     146.381  10.008  91.864  1.00  0.00     0.012 C 
ATOM     20  C   UNL     1     146.938   7.033  92.720  1.00  0.00    -0.025 C 
ATOM     21  C   UNL     1     145.454   7.006  90.560  1.00  0.00     0.005 C 
ATOM     22  C   UNL     1     146.884   6.804  91.141  1.00  0.00     0.003 C 
ATOM     23  C   UNL     1     147.048   5.658  93.487  1.00  0.00     0.010 C 
ATOM     24  C   UNL     1     148.263   7.793  93.085  1.00  0.00     0.012 C 
ATOM     25  C   UNL     1     147.544   5.441  90.645  1.00  0.00    -0.006 C 
ATOM     26  C   UNL     1     146.375   4.475  92.784  1.00  0.00     0.033 C 
ATOM     27  C   UNL     1     146.934   4.186  91.375  1.00  0.00     0.120 C 
ATOM     28  C   UNL     1     147.399   5.285  89.099  1.00  0.00     0.014 C 
ATOM     29  C   UNL     1     149.084   5.471  90.881  1.00  0.00     0.014 C 
ENDROOT
BRANCH   1  30
ATOM     30  C   UNL     1     140.614   8.327  91.560  1.00  0.00     0.048 C 
ATOM     31  O   UNL     1     141.441   7.378  91.576  1.00  0.00    -0.550 OA
ATOM     32  O   UNL     1     139.398   8.138  90.912  1.00  0.00    -0.550 OA
ENDBRANCH   1  30
BRANCH  27  33
ATOM     33  O   UNL     1     145.902   3.605  90.609  1.00  0.00    -0.393 OA
ATOM     34  H   UNL     1     146.322   2.916  90.029  1.00  0.00     0.210 HD
ENDBRANCH  27  33
TORSDOF 2
ENDMDL
MODEL 4
REMARK VINA RESULT:    -6.182      2.053      7.580
REMARK INTER + INTRA:          -6.284
REMARK INTER:                  -6.682
REMARK INTRA:                   0.398
REMARK UNBOUND:                 0.441
REMARK SMILES CC1(C)CC[C@@]2(C(=O)[O-])CC[C@@]3(C)C(=CC[C@H]4[C@@]5(C)CC[C@@H](O)C(C)(C)[C@H]5CC[C@]43C)[C@@H]2C1
REMARK SMILES IDX 6 1 5 2 10 3 32 4 4 5 11 6 14 7 33 8 2 9 12 10 15 11 1 12
REMARK SMILES IDX 3 13 13 14 30 15 16 16 17 17 29 18 31 19 18 20 28 21 27 22
REMARK SMILES IDX 20 23 19 24 24 25 21 26 22 27 25 28 26 29 7 30 8 31 9 32
REMARK SMILES IDX 23 33
REMARK H PARENT 23 34
REMARK Flexibility Score: inf
ROOT
ATOM      1  C   UNL     1     131.926   3.427  76.833  1.00  0.00     0.017 C 
ATOM      2  C   UNL     1     132.075   4.735  76.005  1.00  0.00     0.014 C 
ATOM      3  C   UNL     1     131.751   2.195  75.875  1.00  0.00     0.014 C 
ATOM      4  C   UNL     1     133.222   3.280  77.682  1.00  0.00     0.028 C 
ATOM      5  C   UNL     1     132.296   5.976  76.899  1.00  0.00     0.007 C 
ATOM      6  C   UNL     1     132.916   1.172  75.879  1.00  0.00     0.013 C 
ATOM      7  C   UNL     1     133.281   1.880  78.284  1.00  0.00    -0.064 C 
ATOM      8  C   UNL     1     133.436   4.480  78.637  1.00  0.00     0.015 C 
ATOM      9  C   UNL     1     133.500   5.838  77.875  1.00  0.00    -0.035 C 
ATOM     10  C   UNL     1     133.471   0.726  77.300  1.00  0.00    -0.006 C 
ATOM     11  C   UNL     1     133.177   1.668  79.607  1.00  0.00    -0.027 C 
ATOM     12  C   UNL     1     133.429   6.983  78.910  1.00  0.00     0.011 C 
ATOM     13  C   UNL     1     134.837   5.983  77.109  1.00  0.00     0.011 C 
ATOM     14  C   UNL     1     135.019   0.575  77.151  1.00  0.00     0.017 C 
ATOM     15  C   UNL     1     132.816  -0.649  77.835  1.00  0.00    -0.020 C 
ATOM     16  C   UNL     1     132.831   0.341  80.201  1.00  0.00     0.032 C 
ATOM     17  C   UNL     1     133.204  -0.908  79.347  1.00  0.00     0.006 C 
ATOM     18  C   UNL     1     131.263  -0.589  77.751  1.00  0.00     0.008 C 
ATOM     19  C   UNL     1     133.326  -1.813  76.923  1.00  0.00     0.012 C 
ATOM     20  C   UNL     1     132.648  -2.302  79.954  1.00  0.00    -0.025 C 
ATOM     21  C   UNL     1     130.474  -1.478  78.746  1.00  0.00     0.005 C 
ATOM     22  C   UNL     1     131.228  -2.701  79.342  1.00  0.00     0.003 C 
ATOM     23  C   UNL     1     132.597  -2.285  81.531  1.00  0.00     0.010 C 
ATOM     24  C   UNL     1     133.692  -3.423  79.608  1.00  0.00     0.012 C 
ATOM     25  C   UNL     1     130.303  -3.559  80.314  1.00  0.00    -0.006 C 
ATOM     26  C   UNL     1     131.236  -1.909  82.127  1.00  0.00     0.033 C 
ATOM     27  C   UNL     1     130.090  -2.853  81.706  1.00  0.00     0.120 C 
ATOM     28  C   UNL     1     128.923  -3.857  79.648  1.00  0.00     0.014 C 
ATOM     29  C   UNL     1     130.925  -4.969  80.546  1.00  0.00     0.014 C 
ENDROOT
BRANCH   1  30
ATOM     30  C   UNL     1     130.664   3.525  77.691  1.00  0.00     0.048 C 
ATOM     31  O   UNL     1     130.716   3.899  78.892  1.00  0.00    -0.550 OA
ATOM     32  O   UNL     1     129.445   3.089  77.184  1.00  0.00    -0.550 OA
ENDBRANCH   1  30
BRANCH  27  33
ATOM     33  O   UNL     1     128.890  -2.113  81.721  1.00  0.00    -0.393 OA
ATOM     34  H   UNL     1     128.746  -1.810  82.656  1.00  0.00     0.210 HD
ENDBRANCH  27  33
TORSDOF 2
ENDMDL
MODEL 5
REMARK VINA RESULT:    -6.071      2.002      3.355
REMARK INTER + INTRA:          -6.163
REMARK INTER:                  -6.561
REMARK INTRA:                   0.398
REMARK UNBOUND:                 0.441
REMARK SMILES CC1(C)CC[C@@]2(C(=O)[O-])CC[C@@]3(C)C(=CC[C@H]4[C@@]5(C)CC[C@@H](O)C(C)(C)[C@H]5CC[C@]43C)[C@@H]2C1
REMARK SMILES IDX 6 1 5 2 10 3 32 4 4 5 11 6 14 7 33 8 2 9 12 10 15 11 1 12
REMARK SMILES IDX 3 13 13 14 30 15 16 16 17 17 29 18 31 19 18 20 28 21 27 22
REMARK SMILES IDX 20 23 19 24 24 25 21 26 22 27 25 28 26 29 7 30 8 31 9 32
REMARK SMILES IDX 23 33
REMARK H PARENT 23 34
REMARK Flexibility Score: inf
ROOT
ATOM      1  C   UNL     1     131.167  -1.237  81.415  1.00  0.00     0.017 C 
ATOM      2  C   UNL     1     130.688  -2.426  82.296  1.00  0.00     0.014 C 
ATOM      3  C   UNL     1     131.962  -0.201  82.288  1.00  0.00     0.014 C 
ATOM      4  C   UNL     1     132.083  -1.835  80.308  1.00  0.00     0.028 C 
ATOM      5  C   UNL     1     129.938  -3.500  81.476  1.00  0.00     0.007 C 
ATOM      6  C   UNL     1     133.471  -0.068  81.963  1.00  0.00     0.013 C 
ATOM      7  C   UNL     1     132.826  -0.708  79.598  1.00  0.00    -0.064 C 
ATOM      8  C   UNL     1     131.338  -2.868  79.427  1.00  0.00     0.015 C 
ATOM      9  C   UNL     1     130.749  -4.043  80.264  1.00  0.00    -0.035 C 
ATOM     10  C   UNL     1     133.865   0.048  80.427  1.00  0.00    -0.006 C 
ATOM     11  C   UNL     1     132.588  -0.397  78.313  1.00  0.00    -0.027 C 
ATOM     12  C   UNL     1     129.798  -4.858  79.360  1.00  0.00     0.011 C 
ATOM     13  C   UNL     1     131.868  -4.998  80.747  1.00  0.00     0.011 C 
ATOM     14  C   UNL     1     135.191  -0.756  80.240  1.00  0.00     0.017 C 
ATOM     15  C   UNL     1     134.052   1.572  79.932  1.00  0.00    -0.020 C 
ATOM     16  C   UNL     1     132.975   0.911  77.700  1.00  0.00     0.032 C 
ATOM     17  C   UNL     1     134.185   1.643  78.356  1.00  0.00     0.006 C 
ATOM     18  C   UNL     1     132.824   2.439  80.340  1.00  0.00     0.008 C 
ATOM     19  C   UNL     1     135.330   2.151  80.624  1.00  0.00     0.012 C 
ATOM     20  C   UNL     1     134.444   3.128  77.769  1.00  0.00    -0.025 C 
ATOM     21  C   UNL     1     132.522   3.680  79.463  1.00  0.00     0.005 C 
ATOM     22  C   UNL     1     133.704   4.252  78.629  1.00  0.00     0.003 C 
ATOM     23  C   UNL     1     134.058   3.240  76.243  1.00  0.00     0.010 C 
ATOM     24  C   UNL     1     135.992   3.391  77.803  1.00  0.00     0.012 C 
ATOM     25  C   UNL     1     133.282   5.548  77.804  1.00  0.00    -0.006 C 
ATOM     26  C   UNL     1     132.650   3.780  75.974  1.00  0.00     0.033 C 
ATOM     27  C   UNL     1     132.403   5.191  76.547  1.00  0.00     0.120 C 
ATOM     28  C   UNL     1     132.525   6.565  78.715  1.00  0.00     0.014 C 
ATOM     29  C   UNL     1     134.549   6.327  77.337  1.00  0.00     0.014 C 
ENDROOT
BRANCH   1  30
ATOM     30  C   UNL     1     129.944  -0.516  80.847  1.00  0.00     0.048 C 
ATOM     31  O   UNL     1     129.471  -0.817  79.720  1.00  0.00    -0.550 OA
ATOM     32  O   UNL     1     129.400   0.568  81.527  1.00  0.00    -0.550 OA
ENDBRANCH   1  30
BRANCH  27  33
ATOM     33  O   UNL     1     131.029   5.308  76.839  1.00  0.00    -0.393 OA
ATOM     34  H   UNL     1     130.950   5.885  77.644  1.00  0.00     0.210 HD
ENDBRANCH  27  33
TORSDOF 2
ENDMDL
MODEL 6
REMARK VINA RESULT:    -5.753      1.719      2.433
REMARK INTER + INTRA:          -5.817
REMARK INTER:                  -6.208
REMARK INTRA:                   0.391
REMARK UNBOUND:                 0.441
REMARK SMILES CC1(C)CC[C@@]2(C(=O)[O-])CC[C@@]3(C)C(=CC[C@H]4[C@@]5(C)CC[C@@H](O)C(C)(C)[C@H]5CC[C@]43C)[C@@H]2C1
REMARK SMILES IDX 6 1 5 2 10 3 32 4 4 5 11 6 14 7 33 8 2 9 12 10 15 11 1 12
REMARK SMILES IDX 3 13 13 14 30 15 16 16 17 17 29 18 31 19 18 20 28 21 27 22
REMARK SMILES IDX 20 23 19 24 24 25 21 26 22 27 25 28 26 29 7 30 8 31 9 32
REMARK SMILES IDX 23 33
REMARK H PARENT 23 34
REMARK Flexibility Score: inf
ROOT
ATOM      1  C   UNL     1     132.644  -1.589  79.817  1.00  0.00     0.017 C 
ATOM      2  C   UNL     1     132.739  -3.137  79.701  1.00  0.00     0.014 C 
ATOM      3  C   UNL     1     134.004  -0.929  79.390  1.00  0.00     0.014 C 
ATOM      4  C   UNL     1     131.495  -1.135  78.870  1.00  0.00     0.028 C 
ATOM      5  C   UNL     1     131.410  -3.836  80.067  1.00  0.00     0.007 C 
ATOM      6  C   UNL     1     133.960  -0.082  78.093  1.00  0.00     0.013 C 
ATOM      7  C   UNL     1     131.543   0.380  78.701  1.00  0.00    -0.064 C 
ATOM      8  C   UNL     1     130.136  -1.770  79.254  1.00  0.00     0.015 C 
ATOM      9  C   UNL     1     130.188  -3.327  79.250  1.00  0.00    -0.035 C 
ATOM     10  C   UNL     1     132.749   0.940  77.947  1.00  0.00    -0.006 C 
ATOM     11  C   UNL     1     130.578   1.182  79.181  1.00  0.00    -0.027 C 
ATOM     12  C   UNL     1     128.897  -3.862  79.909  1.00  0.00     0.011 C 
ATOM     13  C   UNL     1     130.238  -3.878  77.804  1.00  0.00     0.011 C 
ATOM     14  C   UNL     1     132.327   0.925  76.443  1.00  0.00     0.017 C 
ATOM     15  C   UNL     1     133.123   2.438  78.416  1.00  0.00    -0.020 C 
ATOM     16  C   UNL     1     130.762   2.650  79.396  1.00  0.00     0.032 C 
ATOM     17  C   UNL     1     131.828   3.345  78.496  1.00  0.00     0.006 C 
ATOM     18  C   UNL     1     133.777   2.427  79.829  1.00  0.00     0.008 C 
ATOM     19  C   UNL     1     134.149   3.024  77.390  1.00  0.00     0.012 C 
ATOM     20  C   UNL     1     132.111   4.888  78.894  1.00  0.00    -0.025 C 
ATOM     21  C   UNL     1     133.626   3.713  80.680  1.00  0.00     0.005 C 
ATOM     22  C   UNL     1     133.335   5.033  79.908  1.00  0.00     0.003 C 
ATOM     23  C   UNL     1     130.821   5.601  79.459  1.00  0.00     0.010 C 
ATOM     24  C   UNL     1     132.442   5.668  77.571  1.00  0.00     0.012 C 
ATOM     25  C   UNL     1     133.243   6.288  80.885  1.00  0.00    -0.006 C 
ATOM     26  C   UNL     1     130.711   5.613  80.987  1.00  0.00     0.033 C 
ATOM     27  C   UNL     1     131.891   6.315  81.692  1.00  0.00     0.120 C 
ATOM     28  C   UNL     1     134.455   6.318  81.867  1.00  0.00     0.014 C 
ATOM     29  C   UNL     1     133.380   7.613  80.074  1.00  0.00     0.014 C 
ENDROOT
BRANCH   1  30
ATOM     30  C   UNL     1     132.391  -1.215  81.278  1.00  0.00     0.048 C 
ATOM     31  O   UNL     1     131.224  -1.041  81.716  1.00  0.00    -0.550 OA
ATOM     32  O   UNL     1     133.464  -0.950  82.122  1.00  0.00    -0.550 OA
ENDBRANCH   1  30
BRANCH  27  33
ATOM     33  O   UNL     1     132.049   5.728  82.964  1.00  0.00    -0.393 OA
ATOM     34  H   UNL     1     132.960   5.333  82.992  1.00  0.00     0.210 HD
ENDBRANCH  27  33
TORSDOF 2
ENDMDL
MODEL 7
REMARK VINA RESULT:    -5.666      2.344      3.807
REMARK INTER + INTRA:          -5.722
REMARK INTER:                  -6.120
REMARK INTRA:                   0.398
REMARK UNBOUND:                 0.441
REMARK SMILES CC1(C)CC[C@@]2(C(=O)[O-])CC[C@@]3(C)C(=CC[C@H]4[C@@]5(C)CC[C@@H](O)C(C)(C)[C@H]5CC[C@]43C)[C@@H]2C1
REMARK SMILES IDX 6 1 5 2 10 3 32 4 4 5 11 6 14 7 33 8 2 9 12 10 15 11 1 12
REMARK SMILES IDX 3 13 13 14 30 15 16 16 17 17 29 18 31 19 18 20 28 21 27 22
REMARK SMILES IDX 20 23 19 24 24 25 21 26 22 27 25 28 26 29 7 30 8 31 9 32
REMARK SMILES IDX 23 33
REMARK H PARENT 23 34
REMARK Flexibility Score: inf
ROOT
ATOM      1  C   UNL     1     133.984  -0.224  80.056  1.00  0.00     0.017 C 
ATOM      2  C   UNL     1     134.093  -1.709  79.606  1.00  0.00     0.014 C 
ATOM      3  C   UNL     1     135.216   0.595  79.528  1.00  0.00     0.014 C 
ATOM      4  C   UNL     1     132.660   0.333  79.458  1.00  0.00     0.028 C 
ATOM      5  C   UNL     1     132.881  -2.552  80.061  1.00  0.00     0.007 C 
ATOM      6  C   UNL     1     134.896   1.679  78.468  1.00  0.00     0.013 C 
ATOM      7  C   UNL     1     132.636   1.851  79.601  1.00  0.00    -0.064 C 
ATOM      8  C   UNL     1     131.419  -0.452  79.949  1.00  0.00     0.015 C 
ATOM      9  C   UNL     1     131.509  -1.971  79.612  1.00  0.00    -0.035 C 
ATOM     10  C   UNL     1     133.655   2.628  78.767  1.00  0.00    -0.006 C 
ATOM     11  C   UNL     1     131.764   2.478  80.409  1.00  0.00    -0.027 C 
ATOM     12  C   UNL     1     130.387  -2.708  80.375  1.00  0.00     0.011 C 
ATOM     13  C   UNL     1     131.287  -2.218  78.100  1.00  0.00     0.011 C 
ATOM     14  C   UNL     1     132.946   2.885  77.399  1.00  0.00     0.017 C 
ATOM     15  C   UNL     1     134.076   4.024  79.459  1.00  0.00    -0.020 C 
ATOM     16  C   UNL     1     131.950   3.882  80.887  1.00  0.00     0.032 C 
ATOM     17  C   UNL     1     132.800   4.810  79.967  1.00  0.00     0.006 C 
ATOM     18  C   UNL     1     134.996   3.774  80.690  1.00  0.00     0.008 C 
ATOM     19  C   UNL     1     134.865   4.867  78.403  1.00  0.00     0.012 C 
ATOM     20  C   UNL     1     133.117   6.258  80.616  1.00  0.00    -0.025 C 
ATOM     21  C   UNL     1     134.984   4.853  81.802  1.00  0.00     0.005 C 
ATOM     22  C   UNL     1     134.513   6.278  81.391  1.00  0.00     0.003 C 
ATOM     23  C   UNL     1     131.947   6.759  81.549  1.00  0.00     0.010 C 
ATOM     24  C   UNL     1     133.162   7.306  79.447  1.00  0.00     0.012 C 
ATOM     25  C   UNL     1     134.584   7.305  82.606  1.00  0.00    -0.006 C 
ATOM     26  C   UNL     1     132.139   6.460  83.040  1.00  0.00     0.033 C 
ATOM     27  C   UNL     1     133.417   7.082  83.641  1.00  0.00     0.120 C 
ATOM     28  C   UNL     1     135.965   7.217  83.328  1.00  0.00     0.014 C 
ATOM     29  C   UNL     1     134.525   8.771  82.078  1.00  0.00     0.014 C 
ENDROOT
BRANCH   1  30
ATOM     30  C   UNL     1     134.015  -0.166  81.584  1.00  0.00     0.048 C 
ATOM     31  O   UNL     1     134.135   0.928  82.195  1.00  0.00    -0.550 OA
ATOM     32  O   UNL     1     134.022  -1.344  82.323  1.00  0.00    -0.550 OA
ENDBRANCH   1  30
BRANCH  27  33
ATOM     33  O   UNL     1     133.838   6.266  84.710  1.00  0.00    -0.393 OA
ATOM     34  H   UNL     1     133.802   6.821  85.533  1.00  0.00     0.210 HD
ENDBRANCH  27  33
TORSDOF 2
ENDMDL
MODEL 8
REMARK VINA RESULT:    -5.573      1.963      3.092
REMARK INTER + INTRA:          -5.621
REMARK INTER:                  -6.024
REMARK INTRA:                   0.403
REMARK UNBOUND:                 0.441
REMARK SMILES CC1(C)CC[C@@]2(C(=O)[O-])CC[C@@]3(C)C(=CC[C@H]4[C@@]5(C)CC[C@@H](O)C(C)(C)[C@H]5CC[C@]43C)[C@@H]2C1
REMARK SMILES IDX 6 1 5 2 10 3 32 4 4 5 11 6 14 7 33 8 2 9 12 10 15 11 1 12
REMARK SMILES IDX 3 13 13 14 30 15 16 16 17 17 29 18 31 19 18 20 28 21 27 22
REMARK SMILES IDX 20 23 19 24 24 25 21 26 22 27 25 28 26 29 7 30 8 31 9 32
REMARK SMILES IDX 23 33
REMARK H PARENT 23 34
REMARK Flexibility Score: inf
ROOT
ATOM      1  C   UNL     1     133.486  -0.354  81.136  1.00  0.00     0.017 C 
ATOM      2  C   UNL     1     133.740  -1.718  81.840  1.00  0.00     0.014 C 
ATOM      3  C   UNL     1     134.800   0.507  81.131  1.00  0.00     0.014 C 
ATOM      4  C   UNL     1     133.038  -0.675  79.680  1.00  0.00     0.028 C 
ATOM      5  C   UNL     1     132.490  -2.625  81.832  1.00  0.00     0.007 C 
ATOM      6  C   UNL     1     135.430   0.761  79.739  1.00  0.00     0.013 C 
ATOM      7  C   UNL     1     133.064   0.602  78.846  1.00  0.00    -0.064 C 
ATOM      8  C   UNL     1     131.747  -1.530  79.640  1.00  0.00     0.015 C 
ATOM      9  C   UNL     1     131.904  -2.875  80.412  1.00  0.00    -0.035 C 
ATOM     10  C   UNL     1     134.441   1.207  78.576  1.00  0.00    -0.006 C 
ATOM     11  C   UNL     1     131.941   1.164  78.368  1.00  0.00    -0.027 C 
ATOM     12  C   UNL     1     130.509  -3.520  80.560  1.00  0.00     0.011 C 
ATOM     13  C   UNL     1     132.797  -3.866  79.626  1.00  0.00     0.011 C 
ATOM     14  C   UNL     1     134.939   0.510  77.270  1.00  0.00     0.017 C 
ATOM     15  C   UNL     1     134.378   2.807  78.375  1.00  0.00    -0.020 C 
ATOM     16  C   UNL     1     131.866   2.584  77.906  1.00  0.00     0.032 C 
ATOM     17  C   UNL     1     133.201   3.208  77.396  1.00  0.00     0.006 C 
ATOM     18  C   UNL     1     134.125   3.524  79.734  1.00  0.00     0.008 C 
ATOM     19  C   UNL     1     135.758   3.277  77.807  1.00  0.00     0.012 C 
ATOM     20  C   UNL     1     133.100   4.792  77.079  1.00  0.00    -0.025 C 
ATOM     21  C   UNL     1     133.430   4.908  79.676  1.00  0.00     0.005 C 
ATOM     22  C   UNL     1     133.529   5.685  78.332  1.00  0.00     0.003 C 
ATOM     23  C   UNL     1     131.669   5.203  76.557  1.00  0.00     0.010 C 
ATOM     24  C   UNL     1     134.060   5.099  75.875  1.00  0.00     0.012 C 
ATOM     25  C   UNL     1     132.815   7.107  78.409  1.00  0.00    -0.006 C 
ATOM     26  C   UNL     1     130.718   5.734  77.636  1.00  0.00     0.033 C 
ATOM     27  C   UNL     1     131.245   6.986  78.369  1.00  0.00     0.120 C 
ATOM     28  C   UNL     1     133.260   7.883  79.688  1.00  0.00     0.014 C 
ATOM     29  C   UNL     1     133.288   8.013  77.232  1.00  0.00     0.014 C 
ENDROOT
BRANCH   1  30
ATOM     30  C   UNL     1     132.430   0.422  81.923  1.00  0.00     0.048 C 
ATOM     31  O   UNL     1     132.155   1.619  81.647  1.00  0.00    -0.550 OA
ATOM     32  O   UNL     1     131.834  -0.155  83.039  1.00  0.00    -0.550 OA
ENDBRANCH   1  30
BRANCH  27  33
ATOM     33  O   UNL     1     130.703   6.988  79.670  1.00  0.00    -0.393 OA
ATOM     34  H   UNL     1     131.331   6.480  80.249  1.00  0.00     0.210 HD
ENDBRANCH  27  33
TORSDOF 2
ENDMDL
MODEL 9
REMARK VINA RESULT:    -5.570     15.324     19.158
REMARK INTER + INTRA:          -5.618
REMARK INTER:                  -6.009
REMARK INTRA:                   0.391
REMARK UNBOUND:                 0.441
REMARK SMILES CC1(C)CC[C@@]2(C(=O)[O-])CC[C@@]3(C)C(=CC[C@H]4[C@@]5(C)CC[C@@H](O)C(C)(C)[C@H]5CC[C@]43C)[C@@H]2C1
REMARK SMILES IDX 6 1 5 2 10 3 32 4 4 5 11 6 14 7 33 8 2 9 12 10 15 11 1 12
REMARK SMILES IDX 3 13 13 14 30 15 16 16 17 17 29 18 31 19 18 20 28 21 27 22
REMARK SMILES IDX 20 23 19 24 24 25 21 26 22 27 25 28 26 29 7 30 8 31 9 32
REMARK SMILES IDX 23 33
REMARK H PARENT 23 34
REMARK Flexibility Score: inf
ROOT
ATOM      1  C   UNL     1     147.279   7.129  93.053  1.00  0.00     0.017 C 
ATOM      2  C   UNL     1     147.607   7.241  94.570  1.00  0.00     0.014 C 
ATOM      3  C   UNL     1     147.396   5.636  92.581  1.00  0.00     0.014 C 
ATOM      4  C   UNL     1     145.823   7.649  92.868  1.00  0.00     0.028 C 
ATOM      5  C   UNL     1     147.463   8.686  95.098  1.00  0.00     0.007 C 
ATOM      6  C   UNL     1     146.068   4.963  92.150  1.00  0.00     0.013 C 
ATOM      7  C   UNL     1     145.329   7.290  91.471  1.00  0.00    -0.064 C 
ATOM      8  C   UNL     1     145.663   9.119  93.329  1.00  0.00     0.015 C 
ATOM      9  C   UNL     1     146.069   9.319  94.820  1.00  0.00    -0.035 C 
ATOM     10  C   UNL     1     145.121   5.802  91.186  1.00  0.00    -0.006 C 
ATOM     11  C   UNL     1     145.082   8.226  90.540  1.00  0.00    -0.027 C 
ATOM     12  C   UNL     1     146.149  10.834  95.106  1.00  0.00     0.011 C 
ATOM     13  C   UNL     1     145.005   8.719  95.771  1.00  0.00     0.011 C 
ATOM     14  C   UNL     1     143.653   5.508  91.630  1.00  0.00     0.017 C 
ATOM     15  C   UNL     1     145.325   5.443  89.626  1.00  0.00    -0.020 C 
ATOM     16  C   UNL     1     144.988   7.927  89.078  1.00  0.00     0.032 C 
ATOM     17  C   UNL     1     144.558   6.476  88.704  1.00  0.00     0.006 C 
ATOM     18  C   UNL     1     146.832   5.497  89.239  1.00  0.00     0.008 C 
ATOM     19  C   UNL     1     144.796   3.990  89.392  1.00  0.00     0.012 C 
ATOM     20  C   UNL     1     144.647   6.158  87.119  1.00  0.00    -0.025 C 
ATOM     21  C   UNL     1     147.164   5.804  87.757  1.00  0.00     0.005 C 
ATOM     22  C   UNL     1     146.048   5.508  86.714  1.00  0.00     0.003 C 
ATOM     23  C   UNL     1     144.341   7.432  86.240  1.00  0.00     0.010 C 
ATOM     24  C   UNL     1     143.492   5.153  86.768  1.00  0.00     0.012 C 
ATOM     25  C   UNL     1     146.521   5.823  85.226  1.00  0.00    -0.006 C 
ATOM     26  C   UNL     1     145.580   8.208  85.778  1.00  0.00     0.033 C 
ATOM     27  C   UNL     1     146.560   7.370  84.931  1.00  0.00     0.120 C 
ATOM     28  C   UNL     1     147.917   5.187  84.941  1.00  0.00     0.014 C 
ATOM     29  C   UNL     1     145.572   5.131  84.200  1.00  0.00     0.014 C 
ENDROOT
BRANCH   1  30
ATOM     30  C   UNL     1     148.304   7.943  92.262  1.00  0.00     0.048 C 
ATOM     31  O   UNL     1     148.500   7.735  91.036  1.00  0.00    -0.550 OA
ATOM     32  O   UNL     1     149.121   8.856  92.920  1.00  0.00    -0.550 OA
ENDBRANCH   1  30
BRANCH  27  33
ATOM     33  O   UNL     1     147.856   7.889  85.124  1.00  0.00    -0.393 OA
ATOM     34  H   UNL     1     148.374   7.204  85.622  1.00  0.00     0.210 HD
ENDBRANCH  27  33
TORSDOF 2
ENDMDL
