MODEL 1
REMARK VINA RESULT:    -3.430      0.000      0.000
REMARK INTER + INTRA:          -5.698
REMARK INTER:                  -5.235
REMARK INTRA:                  -0.464
REMARK UNBOUND:                -0.464
REMARK SMILES CCCCCCCCCCC(=O)[O-]
REMARK SMILES IDX 7 1 8 2 9 3 10 4 11 5 12 6 13 7 6 8 5 9 4 10 3 11 2 12 1 13
REMARK H PARENT
REMARK Flexibility Score: inf
ROOT
ATOM      1  C   UNL     1       6.317 -23.120 -18.071  1.00  0.00     0.000 C 
ENDROOT
BRANCH   1   2
ATOM      2  C   UNL     1       7.692 -22.979 -18.742  1.00  0.00     0.000 C 
BRANCH   2   3
ATOM      3  C   UNL     1       7.597 -22.823 -20.271  1.00  0.00     0.006 C 
BRANCH   3   4
ATOM      4  C   UNL     1       8.950 -22.616 -20.970  1.00  0.00     0.053 C 
BRANCH   4   5
ATOM      5  C   UNL     1       8.877 -21.561 -22.032  1.00  0.00     0.041 C 
ATOM      6  O   UNL     1       8.442 -21.845 -23.179  1.00  0.00    -0.550 OA
ATOM      7  O   UNL     1       9.321 -20.273 -21.762  1.00  0.00    -0.550 OA
ENDBRANCH   4   5
ENDBRANCH   3   4
ENDBRANCH   2   3
ENDBRANCH   1   2
BRANCH   1   8
ATOM      8  C   UNL     1       6.421 -22.884 -16.557  1.00  0.00     0.000 C 
BRANCH   8   9
ATOM      9  C   UNL     1       5.790 -21.552 -16.116  1.00  0.00    -0.000 C 
BRANCH   9  10
ATOM     10  C   UNL     1       6.794 -20.483 -15.638  1.00  0.00    -0.000 C 
BRANCH  10  11
ATOM     11  C   UNL     1       8.267 -20.938 -15.601  1.00  0.00    -0.000 C 
BRANCH  11  12
ATOM     12  C   UNL     1       9.040 -20.521 -14.337  1.00  0.00    -0.003 C 
ATOM     13  C   UNL     1      10.522 -20.266 -14.602  1.00  0.00     0.004 C 
ENDBRANCH  11  12
ENDBRANCH  10  11
ENDBRANCH   9  10
ENDBRANCH   8   9
ENDBRANCH   1   8
TORSDOF 9
ENDMDL
MODEL 2
REMARK VINA RESULT:    -3.238      1.048      1.446
REMARK INTER + INTRA:          -5.405
REMARK INTER:                  -4.638
REMARK INTRA:                  -0.767
REMARK UNBOUND:                -0.464
REMARK SMILES CCCCCCCCCCC(=O)[O-]
REMARK SMILES IDX 7 1 8 2 9 3 10 4 11 5 12 6 13 7 6 8 5 9 4 10 3 11 2 12 1 13
REMARK H PARENT
REMARK Flexibility Score: inf
ROOT
ATOM      1  C   UNL     1       7.575 -22.455 -18.210  1.00  0.00     0.000 C 
ENDROOT
BRANCH   1   2
ATOM      2  C   UNL     1       9.100 -22.637 -18.191  1.00  0.00     0.000 C 
BRANCH   2   3
ATOM      3  C   UNL     1       9.830 -21.658 -19.130  1.00  0.00     0.006 C 
BRANCH   3   4
ATOM      4  C   UNL     1       9.984 -22.163 -20.573  1.00  0.00     0.053 C 
BRANCH   4   5
ATOM      5  C   UNL     1       9.247 -21.300 -21.551  1.00  0.00     0.041 C 
ATOM      6  O   UNL     1       9.659 -20.138 -21.808  1.00  0.00    -0.550 OA
ATOM      7  O   UNL     1       8.084 -21.767 -22.152  1.00  0.00    -0.550 OA
ENDBRANCH   4   5
ENDBRANCH   3   4
ENDBRANCH   2   3
ENDBRANCH   1   2
BRANCH   1   8
ATOM      8  C   UNL     1       6.984 -22.642 -16.805  1.00  0.00     0.000 C 
BRANCH   8   9
ATOM      9  C   UNL     1       6.362 -21.352 -16.242  1.00  0.00    -0.000 C 
BRANCH   9  10
ATOM     10  C   UNL     1       7.360 -20.384 -15.576  1.00  0.00    -0.000 C 
BRANCH  10  11
ATOM     11  C   UNL     1       8.522 -21.059 -14.819  1.00  0.00    -0.000 C 
BRANCH  11  12
ATOM     12  C   UNL     1       9.686 -20.121 -14.453  1.00  0.00    -0.003 C 
ATOM     13  C   UNL     1      10.976 -20.453 -15.200  1.00  0.00     0.004 C 
ENDBRANCH  11  12
ENDBRANCH  10  11
ENDBRANCH   9  10
ENDBRANCH   8   9
ENDBRANCH   1   8
TORSDOF 9
ENDMDL
MODEL 3
REMARK VINA RESULT:    -2.941      3.397      6.217
REMARK INTER + INTRA:          -4.953
REMARK INTER:                  -4.187
REMARK INTRA:                  -0.765
REMARK UNBOUND:                -0.464
REMARK SMILES CCCCCCCCCCC(=O)[O-]
REMARK SMILES IDX 7 1 8 2 9 3 10 4 11 5 12 6 13 7 6 8 5 9 4 10 3 11 2 12 1 13
REMARK H PARENT
REMARK Flexibility Score: inf
ROOT
ATOM      1  C   UNL     1       9.102 -22.067 -18.531  1.00  0.00     0.000 C 
ENDROOT
BRANCH   1   2
ATOM      2  C   UNL     1       7.705 -22.581 -18.910  1.00  0.00     0.000 C 
BRANCH   2   3
ATOM      3  C   UNL     1       6.920 -23.124 -17.701  1.00  0.00     0.006 C 
BRANCH   3   4
ATOM      4  C   UNL     1       7.236 -22.417 -16.373  1.00  0.00     0.053 C 
BRANCH   4   5
ATOM      5  C   UNL     1       6.190 -21.405 -16.015  1.00  0.00     0.041 C 
ATOM      6  O   UNL     1       4.970 -21.712 -16.061  1.00  0.00    -0.550 OA
ATOM      7  O   UNL     1       6.564 -20.114 -15.663  1.00  0.00    -0.550 OA
ENDBRANCH   4   5
ENDBRANCH   3   4
ENDBRANCH   2   3
ENDBRANCH   1   2
BRANCH   1   8
ATOM      8  C   UNL     1      10.138 -22.466 -19.592  1.00  0.00     0.000 C 
BRANCH   8   9
ATOM      9  C   UNL     1      10.940 -21.266 -20.125  1.00  0.00    -0.000 C 
BRANCH   9  10
ATOM     10  C   UNL     1      10.725 -20.950 -21.619  1.00  0.00    -0.000 C 
BRANCH  10  11
ATOM     11  C   UNL     1       9.358 -20.327 -21.967  1.00  0.00    -0.000 C 
BRANCH  11  12
ATOM     12  C   UNL     1       8.318 -21.320 -22.516  1.00  0.00    -0.003 C 
ATOM     13  C   UNL     1       8.945 -22.451 -23.328  1.00  0.00     0.004 C 
ENDBRANCH  11  12
ENDBRANCH  10  11
ENDBRANCH   9  10
ENDBRANCH   8   9
ENDBRANCH   1   8
TORSDOF 9
ENDMDL
MODEL 4
REMARK VINA RESULT:    -2.727      3.220      6.062
REMARK INTER + INTRA:          -4.626
REMARK INTER:                  -4.122
REMARK INTRA:                  -0.503
REMARK UNBOUND:                -0.464
REMARK SMILES CCCCCCCCCCC(=O)[O-]
REMARK SMILES IDX 7 1 8 2 9 3 10 4 11 5 12 6 13 7 6 8 5 9 4 10 3 11 2 12 1 13
REMARK H PARENT
REMARK Flexibility Score: inf
ROOT
ATOM      1  C   UNL     1       9.700 -22.274 -18.548  1.00  0.00     0.000 C 
ENDROOT
BRANCH   1   2
ATOM      2  C   UNL     1       8.384 -21.841 -17.884  1.00  0.00     0.000 C 
BRANCH   2   3
ATOM      3  C   UNL     1       7.809 -22.915 -16.940  1.00  0.00     0.006 C 
BRANCH   3   4
ATOM      4  C   UNL     1       7.288 -22.367 -15.603  1.00  0.00     0.053 C 
BRANCH   4   5
ATOM      5  C   UNL     1       7.640 -20.922 -15.413  1.00  0.00     0.041 C 
ATOM      6  O   UNL     1       8.785 -20.598 -15.001  1.00  0.00    -0.550 OA
ATOM      7  O   UNL     1       6.692 -19.938 -15.660  1.00  0.00    -0.550 OA
ENDBRANCH   4   5
ENDBRANCH   3   4
ENDBRANCH   2   3
ENDBRANCH   1   2
BRANCH   1   8
ATOM      8  C   UNL     1       9.428 -23.117 -19.802  1.00  0.00     0.000 C 
BRANCH   8   9
ATOM      9  C   UNL     1       8.119 -22.729 -20.511  1.00  0.00    -0.000 C 
BRANCH   9  10
ATOM     10  C   UNL     1       8.128 -22.911 -22.042  1.00  0.00    -0.000 C 
BRANCH  10  11
ATOM     11  C   UNL     1       9.108 -21.997 -22.805  1.00  0.00    -0.000 C 
BRANCH  11  12
ATOM     12  C   UNL     1       9.141 -20.537 -22.318  1.00  0.00    -0.003 C 
ATOM     13  C   UNL     1      10.460 -20.164 -21.644  1.00  0.00     0.004 C 
ENDBRANCH  11  12
ENDBRANCH  10  11
ENDBRANCH   9  10
ENDBRANCH   8   9
ENDBRANCH   1   8
TORSDOF 9
ENDMDL
MODEL 5
REMARK VINA RESULT:    -2.720      3.274      6.270
REMARK INTER + INTRA:          -4.614
REMARK INTER:                  -3.936
REMARK INTRA:                  -0.678
REMARK UNBOUND:                -0.464
REMARK SMILES CCCCCCCCCCC(=O)[O-]
REMARK SMILES IDX 7 1 8 2 9 3 10 4 11 5 12 6 13 7 6 8 5 9 4 10 3 11 2 12 1 13
REMARK H PARENT
REMARK Flexibility Score: inf
ROOT
ATOM      1  C   UNL     1       8.021 -21.650 -18.309  1.00  0.00     0.000 C 
ENDROOT
BRANCH   1   2
ATOM      2  C   UNL     1       7.029 -22.154 -17.250  1.00  0.00     0.000 C 
BRANCH   2   3
ATOM      3  C   UNL     1       7.592 -22.073 -15.819  1.00  0.00     0.006 C 
BRANCH   3   4
ATOM      4  C   UNL     1       7.961 -20.653 -15.363  1.00  0.00     0.053 C 
BRANCH   4   5
ATOM      5  C   UNL     1       9.259 -20.623 -14.616  1.00  0.00     0.041 C 
ATOM      6  O   UNL     1       9.313 -21.025 -13.424  1.00  0.00    -0.550 OA
ATOM      7  O   UNL     1      10.401 -20.119 -15.226  1.00  0.00    -0.550 OA
ENDBRANCH   4   5
ENDBRANCH   3   4
ENDBRANCH   2   3
ENDBRANCH   1   2
BRANCH   1   8
ATOM      8  C   UNL     1       9.281 -22.527 -18.341  1.00  0.00     0.000 C 
BRANCH   8   9
ATOM      9  C   UNL     1      10.512 -21.786 -18.892  1.00  0.00    -0.000 C 
BRANCH   9  10
ATOM     10  C   UNL     1      10.632 -21.775 -20.429  1.00  0.00    -0.000 C 
BRANCH  10  11
ATOM     11  C   UNL     1      10.173 -20.472 -21.113  1.00  0.00    -0.000 C 
BRANCH  11  12
ATOM     12  C   UNL     1       9.484 -20.666 -22.476  1.00  0.00    -0.003 C 
ATOM     13  C   UNL     1       8.319 -21.652 -22.418  1.00  0.00     0.004 C 
ENDBRANCH  11  12
ENDBRANCH  10  11
ENDBRANCH   9  10
ENDBRANCH   8   9
ENDBRANCH   1   8
TORSDOF 9
ENDMDL
MODEL 6
REMARK VINA RESULT:    -2.642      2.531      5.502
REMARK INTER + INTRA:          -4.495
REMARK INTER:                  -3.935
REMARK INTRA:                  -0.560
REMARK UNBOUND:                -0.464
REMARK SMILES CCCCCCCCCCC(=O)[O-]
REMARK SMILES IDX 7 1 8 2 9 3 10 4 11 5 12 6 13 7 6 8 5 9 4 10 3 11 2 12 1 13
REMARK H PARENT
REMARK Flexibility Score: inf
ROOT
ATOM      1  C   UNL     1       4.883 -22.025 -16.353  1.00  0.00     0.000 C 
ENDROOT
BRANCH   1   2
ATOM      2  C   UNL     1       5.498 -20.959 -15.435  1.00  0.00     0.000 C 
BRANCH   2   3
ATOM      3  C   UNL     1       6.859 -20.446 -15.942  1.00  0.00     0.006 C 
BRANCH   3   4
ATOM      4  C   UNL     1       7.978 -20.478 -14.889  1.00  0.00     0.053 C 
BRANCH   4   5
ATOM      5  C   UNL     1       9.304 -20.832 -15.491  1.00  0.00     0.041 C 
ATOM      6  O   UNL     1       9.360 -21.576 -16.505  1.00  0.00    -0.550 OA
ATOM      7  O   UNL     1      10.477 -20.368 -14.910  1.00  0.00    -0.550 OA
ENDBRANCH   4   5
ENDBRANCH   3   4
ENDBRANCH   2   3
ENDBRANCH   1   2
BRANCH   1   8
ATOM      8  C   UNL     1       5.961 -22.987 -16.872  1.00  0.00     0.000 C 
BRANCH   8   9
ATOM      9  C   UNL     1       5.952 -23.125 -18.405  1.00  0.00    -0.000 C 
BRANCH   9  10
ATOM     10  C   UNL     1       7.282 -22.772 -19.099  1.00  0.00    -0.000 C 
BRANCH  10  11
ATOM     11  C   UNL     1       7.291 -22.953 -20.630  1.00  0.00    -0.000 C 
BRANCH  11  12
ATOM     12  C   UNL     1       8.690 -22.949 -21.273  1.00  0.00    -0.003 C 
ATOM     13  C   UNL     1       9.176 -21.546 -21.631  1.00  0.00     0.004 C 
ENDBRANCH  11  12
ENDBRANCH  10  11
ENDBRANCH   9  10
ENDBRANCH   8   9
ENDBRANCH   1   8
TORSDOF 9
ENDMDL
MODEL 7
REMARK VINA RESULT:    -2.641      1.230      2.073
REMARK INTER + INTRA:          -4.494
REMARK INTER:                  -3.789
REMARK INTRA:                  -0.704
REMARK UNBOUND:                -0.464
REMARK SMILES CCCCCCCCCCC(=O)[O-]
REMARK SMILES IDX 7 1 8 2 9 3 10 4 11 5 12 6 13 7 6 8 5 9 4 10 3 11 2 12 1 13
REMARK H PARENT
REMARK Flexibility Score: inf
ROOT
ATOM      1  C   UNL     1       5.782 -21.926 -16.362  1.00  0.00     0.000 C 
ENDROOT
BRANCH   1   2
ATOM      2  C   UNL     1       6.096 -23.089 -17.314  1.00  0.00     0.000 C 
BRANCH   2   3
ATOM      3  C   UNL     1       7.458 -22.934 -18.018  1.00  0.00     0.006 C 
BRANCH   3   4
ATOM      4  C   UNL     1       7.387 -22.997 -19.552  1.00  0.00     0.053 C 
BRANCH   4   5
ATOM      5  C   UNL     1       8.584 -22.366 -20.195  1.00  0.00     0.041 C 
ATOM      6  O   UNL     1       8.779 -22.491 -21.432  1.00  0.00    -0.550 OA
ATOM      7  O   UNL     1       9.502 -21.669 -19.420  1.00  0.00    -0.550 OA
ENDBRANCH   4   5
ENDBRANCH   3   4
ENDBRANCH   2   3
ENDBRANCH   1   2
BRANCH   1   8
ATOM      8  C   UNL     1       6.651 -20.702 -16.688  1.00  0.00     0.000 C 
BRANCH   8   9
ATOM      9  C   UNL     1       7.429 -20.179 -15.467  1.00  0.00    -0.000 C 
BRANCH   9  10
ATOM     10  C   UNL     1       8.069 -21.271 -14.586  1.00  0.00    -0.000 C 
BRANCH  10  11
ATOM     11  C   UNL     1       9.433 -20.900 -13.971  1.00  0.00    -0.000 C 
BRANCH  11  12
ATOM     12  C   UNL     1      10.335 -20.039 -14.873  1.00  0.00    -0.003 C 
ATOM     13  C   UNL     1      11.125 -20.865 -15.887  1.00  0.00     0.004 C 
ENDBRANCH  11  12
ENDBRANCH  10  11
ENDBRANCH   9  10
ENDBRANCH   8   9
ENDBRANCH   1   8
TORSDOF 9
ENDMDL
MODEL 8
REMARK VINA RESULT:    -2.300      2.816      6.106
REMARK INTER + INTRA:          -3.974
REMARK INTER:                  -3.553
REMARK INTRA:                  -0.422
REMARK UNBOUND:                -0.464
REMARK SMILES CCCCCCCCCCC(=O)[O-]
REMARK SMILES IDX 7 1 8 2 9 3 10 4 11 5 12 6 13 7 6 8 5 9 4 10 3 11 2 12 1 13
REMARK H PARENT
REMARK Flexibility Score: inf
ROOT
ATOM      1  C   UNL     1       6.717 -22.422 -17.916  1.00  0.00     0.000 C 
ENDROOT
BRANCH   1   2
ATOM      2  C   UNL     1       7.086 -22.236 -16.437  1.00  0.00     0.000 C 
BRANCH   2   3
ATOM      3  C   UNL     1       7.794 -20.895 -16.162  1.00  0.00     0.006 C 
BRANCH   3   4
ATOM      4  C   UNL     1       8.550 -20.843 -14.825  1.00  0.00     0.053 C 
BRANCH   4   5
ATOM      5  C   UNL     1      10.018 -20.614 -15.020  1.00  0.00     0.041 C 
ATOM      6  O   UNL     1      10.716 -20.146 -14.083  1.00  0.00    -0.550 OA
ATOM      7  O   UNL     1      10.606 -20.885 -16.249  1.00  0.00    -0.550 OA
ENDBRANCH   4   5
ENDBRANCH   3   4
ENDBRANCH   2   3
ENDBRANCH   1   2
BRANCH   1   8
ATOM      8  C   UNL     1       7.870 -23.077 -18.690  1.00  0.00     0.000 C 
BRANCH   8   9
ATOM      9  C   UNL     1       8.953 -22.071 -19.114  1.00  0.00    -0.000 C 
BRANCH   9  10
ATOM     10  C   UNL     1       9.558 -22.315 -20.511  1.00  0.00    -0.000 C 
BRANCH  10  11
ATOM     11  C   UNL     1       8.606 -22.970 -21.533  1.00  0.00    -0.000 C 
BRANCH  11  12
ATOM     12  C   UNL     1       8.300 -22.110 -22.772  1.00  0.00    -0.003 C 
ATOM     13  C   UNL     1       8.210 -20.619 -22.454  1.00  0.00     0.004 C 
ENDBRANCH  11  12
ENDBRANCH  10  11
ENDBRANCH   9  10
ENDBRANCH   8   9
ENDBRANCH   1   8
TORSDOF 9
ENDMDL
