MODEL 1
REMARK VINA RESULT:    -4.640      0.000      0.000
REMARK INTER + INTRA:          -5.281
REMARK INTER:                  -5.047
REMARK INTRA:                  -0.234
REMARK UNBOUND:                -0.234
REMARK SMILES O=C([O-])c1ccccc1O
REMARK SMILES IDX 4 1 9 2 5 3 8 4 6 5 7 6 2 7 1 8 3 9 10 10
REMARK H PARENT 10 11
REMARK Flexibility Score: inf
ROOT
ATOM      1  C   UNL     1      19.120  -3.070 -20.722  1.00  0.00     0.039 A 
ATOM      2  C   UNL     1      19.365  -1.713 -20.387  1.00  0.00     0.124 A 
ATOM      3  C   UNL     1      19.349  -3.496 -22.044  1.00  0.00     0.014 A 
ATOM      4  C   UNL     1      19.886  -0.844 -21.355  1.00  0.00     0.047 A 
ATOM      5  C   UNL     1      19.848  -2.611 -23.002  1.00  0.00     0.001 A 
ATOM      6  C   UNL     1      20.125  -1.290 -22.655  1.00  0.00     0.004 A 
ENDROOT
BRANCH   1   7
ATOM      7  C   UNL     1      18.670  -4.064 -19.723  1.00  0.00     0.075 C 
ATOM      8  O   UNL     1      17.596  -3.882 -19.090  1.00  0.00    -0.545 OA
ATOM      9  O   UNL     1      19.382  -5.239 -19.519  1.00  0.00    -0.545 OA
ENDBRANCH   1   7
BRANCH   2  10
ATOM     10  O   UNL     1      19.073  -1.185 -19.128  1.00  0.00    -0.507 OA
ATOM     11  H   UNL     1      19.778  -0.839 -18.493  1.00  0.00     0.293 HD
ENDBRANCH   2  10
TORSDOF 2
ENDMDL
MODEL 2
REMARK VINA RESULT:    -4.614     20.873     21.760
REMARK INTER + INTRA:          -5.252
REMARK INTER:                  -5.020
REMARK INTRA:                  -0.232
REMARK UNBOUND:                -0.234
REMARK SMILES O=C([O-])c1ccccc1O
REMARK SMILES IDX 4 1 9 2 5 3 8 4 6 5 7 6 2 7 1 8 3 9 10 10
REMARK H PARENT 10 11
REMARK Flexibility Score: inf
ROOT
ATOM      1  C   UNL     1       2.703   6.072 -10.341  1.00  0.00     0.039 A 
ATOM      2  C   UNL     1       3.404   6.293  -9.128  1.00  0.00     0.124 A 
ATOM      3  C   UNL     1       1.600   6.891 -10.649  1.00  0.00     0.014 A 
ATOM      4  C   UNL     1       3.027   7.354  -8.294  1.00  0.00     0.047 A 
ATOM      5  C   UNL     1       1.224   7.931  -9.796  1.00  0.00     0.001 A 
ATOM      6  C   UNL     1       1.943   8.168  -8.625  1.00  0.00     0.004 A 
ENDROOT
BRANCH   1   7
ATOM      7  C   UNL     1       3.112   5.037 -11.317  1.00  0.00     0.075 C 
ATOM      8  O   UNL     1       2.878   5.198 -12.544  1.00  0.00    -0.545 OA
ATOM      9  O   UNL     1       3.815   3.912 -10.906  1.00  0.00    -0.545 OA
ENDBRANCH   1   7
BRANCH   2  10
ATOM     10  O   UNL     1       4.445   5.467  -8.700  1.00  0.00    -0.507 OA
ATOM     11  H   UNL     1       4.729   5.385  -7.734  1.00  0.00     0.293 HD
ENDBRANCH   2  10
TORSDOF 2
ENDMDL
MODEL 3
REMARK VINA RESULT:    -4.425     19.762     20.387
REMARK INTER + INTRA:          -5.046
REMARK INTER:                  -4.806
REMARK INTRA:                  -0.240
REMARK UNBOUND:                -0.234
REMARK SMILES O=C([O-])c1ccccc1O
REMARK SMILES IDX 4 1 9 2 5 3 8 4 6 5 7 6 2 7 1 8 3 9 10 10
REMARK H PARENT 10 11
REMARK Flexibility Score: inf
ROOT
ATOM      1  C   UNL     1       2.420   8.031 -20.969  1.00  0.00     0.039 A 
ATOM      2  C   UNL     1       1.669   8.019 -19.766  1.00  0.00     0.124 A 
ATOM      3  C   UNL     1       2.471   9.215 -21.728  1.00  0.00     0.014 A 
ATOM      4  C   UNL     1       1.049   9.195 -19.324  1.00  0.00     0.047 A 
ATOM      5  C   UNL     1       1.829  10.374 -21.285  1.00  0.00     0.001 A 
ATOM      6  C   UNL     1       1.127  10.365 -20.080  1.00  0.00     0.004 A 
ENDROOT
BRANCH   1   7
ATOM      7  C   UNL     1       3.185   6.854 -21.439  1.00  0.00     0.075 C 
ATOM      8  O   UNL     1       3.983   6.267 -20.662  1.00  0.00    -0.545 OA
ATOM      9  O   UNL     1       2.986   6.339 -22.714  1.00  0.00    -0.545 OA
ENDBRANCH   1   7
BRANCH   2  10
ATOM     10  O   UNL     1       1.487   6.862 -19.006  1.00  0.00    -0.507 OA
ATOM     11  H   UNL     1       1.302   5.954 -19.409  1.00  0.00     0.293 HD
ENDBRANCH   2  10
TORSDOF 2
ENDMDL
MODEL 4
REMARK VINA RESULT:    -4.295     20.474     21.346
REMARK INTER + INTRA:          -4.905
REMARK INTER:                  -4.694
REMARK INTRA:                  -0.211
REMARK UNBOUND:                -0.234
REMARK SMILES O=C([O-])c1ccccc1O
REMARK SMILES IDX 4 1 9 2 5 3 8 4 6 5 7 6 2 7 1 8 3 9 10 10
REMARK H PARENT 10 11
REMARK Flexibility Score: inf
ROOT
ATOM      1  C   UNL     1       2.364   5.979 -10.977  1.00  0.00     0.039 A 
ATOM      2  C   UNL     1       2.773   4.715 -11.475  1.00  0.00     0.124 A 
ATOM      3  C   UNL     1       1.384   6.704 -11.680  1.00  0.00     0.014 A 
ATOM      4  C   UNL     1       2.152   4.186 -12.615  1.00  0.00     0.047 A 
ATOM      5  C   UNL     1       0.790   6.171 -12.827  1.00  0.00     0.001 A 
ATOM      6  C   UNL     1       1.167   4.911 -13.288  1.00  0.00     0.004 A 
ENDROOT
BRANCH   1   7
ATOM      7  C   UNL     1       2.903   6.549  -9.722  1.00  0.00     0.075 C 
ATOM      8  O   UNL     1       2.554   7.700  -9.350  1.00  0.00    -0.545 OA
ATOM      9  O   UNL     1       3.743   5.802  -8.905  1.00  0.00    -0.545 OA
ENDBRANCH   1   7
BRANCH   2  10
ATOM     10  O   UNL     1       3.805   3.976 -10.895  1.00  0.00    -0.507 OA
ATOM     11  H   UNL     1       3.774   2.974 -10.776  1.00  0.00     0.293 HD
ENDBRANCH   2  10
TORSDOF 2
ENDMDL
MODEL 5
REMARK VINA RESULT:    -4.236      2.571      4.638
REMARK INTER + INTRA:          -4.841
REMARK INTER:                  -4.665
REMARK INTRA:                  -0.176
REMARK UNBOUND:                -0.234
REMARK SMILES O=C([O-])c1ccccc1O
REMARK SMILES IDX 4 1 9 2 5 3 8 4 6 5 7 6 2 7 1 8 3 9 10 10
REMARK H PARENT 10 11
REMARK Flexibility Score: inf
ROOT
ATOM      1  C   UNL     1      17.967  -4.577 -19.218  1.00  0.00     0.039 A 
ATOM      2  C   UNL     1      16.713  -4.821 -18.601  1.00  0.00     0.124 A 
ATOM      3  C   UNL     1      18.848  -5.656 -19.421  1.00  0.00     0.014 A 
ATOM      4  C   UNL     1      16.351  -6.132 -18.265  1.00  0.00     0.047 A 
ATOM      5  C   UNL     1      18.480  -6.954 -19.060  1.00  0.00     0.001 A 
ATOM      6  C   UNL     1      17.229  -7.193 -18.492  1.00  0.00     0.004 A 
ENDROOT
BRANCH   1   7
ATOM      7  C   UNL     1      18.370  -3.234 -19.693  1.00  0.00     0.075 C 
ATOM      8  O   UNL     1      18.647  -2.328 -18.863  1.00  0.00    -0.545 OA
ATOM      9  O   UNL     1      18.513  -2.973 -21.049  1.00  0.00    -0.545 OA
ENDBRANCH   1   7
BRANCH   2  10
ATOM     10  O   UNL     1      15.823  -3.796 -18.276  1.00  0.00    -0.507 OA
ATOM     11  H   UNL     1      15.925  -3.210 -17.459  1.00  0.00     0.293 HD
ENDBRANCH   2  10
TORSDOF 2
ENDMDL
MODEL 6
REMARK VINA RESULT:    -4.202     21.111     22.020
REMARK INTER + INTRA:          -4.804
REMARK INTER:                  -4.593
REMARK INTRA:                  -0.211
REMARK UNBOUND:                -0.234
REMARK SMILES O=C([O-])c1ccccc1O
REMARK SMILES IDX 4 1 9 2 5 3 8 4 6 5 7 6 2 7 1 8 3 9 10 10
REMARK H PARENT 10 11
REMARK Flexibility Score: inf
ROOT
ATOM      1  C   UNL     1       2.747   6.210 -10.315  1.00  0.00     0.039 A 
ATOM      2  C   UNL     1       1.685   7.058 -10.723  1.00  0.00     0.124 A 
ATOM      3  C   UNL     1       3.318   6.398  -9.042  1.00  0.00     0.014 A 
ATOM      4  C   UNL     1       1.186   8.019  -9.834  1.00  0.00     0.047 A 
ATOM      5  C   UNL     1       2.822   7.376  -8.176  1.00  0.00     0.001 A 
ATOM      6  C   UNL     1       1.751   8.178  -8.568  1.00  0.00     0.004 A 
ENDROOT
BRANCH   1   7
ATOM      7  C   UNL     1       3.253   5.108 -11.163  1.00  0.00     0.075 C 
ATOM      8  O   UNL     1       3.982   4.210 -10.664  1.00  0.00    -0.545 OA
ATOM      9  O   UNL     1       2.879   5.008 -12.497  1.00  0.00    -0.545 OA
ENDBRANCH   1   7
BRANCH   2  10
ATOM     10  O   UNL     1       1.129   7.003 -12.002  1.00  0.00    -0.507 OA
ATOM     11  H   UNL     1       0.977   6.142 -12.507  1.00  0.00     0.293 HD
ENDBRANCH   2  10
TORSDOF 2
ENDMDL
MODEL 7
REMARK VINA RESULT:    -4.138     19.820     20.456
REMARK INTER + INTRA:          -4.734
REMARK INTER:                  -4.490
REMARK INTRA:                  -0.244
REMARK UNBOUND:                -0.234
REMARK SMILES O=C([O-])c1ccccc1O
REMARK SMILES IDX 4 1 9 2 5 3 8 4 6 5 7 6 2 7 1 8 3 9 10 10
REMARK H PARENT 10 11
REMARK Flexibility Score: inf
ROOT
ATOM      1  C   UNL     1       2.412   8.005 -20.822  1.00  0.00     0.039 A 
ATOM      2  C   UNL     1       2.235   9.226 -21.523  1.00  0.00     0.124 A 
ATOM      3  C   UNL     1       1.824   7.859 -19.551  1.00  0.00     0.014 A 
ATOM      4  C   UNL     1       1.432  10.232 -20.970  1.00  0.00     0.047 A 
ATOM      5  C   UNL     1       1.044   8.880 -19.005  1.00  0.00     0.001 A 
ATOM      6  C   UNL     1       0.840  10.061 -19.718  1.00  0.00     0.004 A 
ENDROOT
BRANCH   1   7
ATOM      7  C   UNL     1       3.161   6.864 -21.393  1.00  0.00     0.075 C 
ATOM      8  O   UNL     1       2.913   6.467 -22.562  1.00  0.00    -0.545 OA
ATOM      9  O   UNL     1       4.189   6.260 -20.680  1.00  0.00    -0.545 OA
ENDBRANCH   1   7
BRANCH   2  10
ATOM     10  O   UNL     1       2.863   9.491 -22.741  1.00  0.00    -0.507 OA
ATOM     11  H   UNL     1       2.806   8.877 -23.542  1.00  0.00     0.293 HD
ENDBRANCH   2  10
TORSDOF 2
ENDMDL
MODEL 8
REMARK VINA RESULT:    -3.872     20.379     21.184
REMARK INTER + INTRA:          -4.445
REMARK INTER:                  -4.206
REMARK INTRA:                  -0.239
REMARK UNBOUND:                -0.234
REMARK SMILES O=C([O-])c1ccccc1O
REMARK SMILES IDX 4 1 9 2 5 3 8 4 6 5 7 6 2 7 1 8 3 9 10 10
REMARK H PARENT 10 11
REMARK Flexibility Score: inf
ROOT
ATOM      1  C   UNL     1       2.385   5.826 -11.695  1.00  0.00     0.039 A 
ATOM      2  C   UNL     1       1.790   4.988 -12.672  1.00  0.00     0.124 A 
ATOM      3  C   UNL     1       2.129   7.210 -11.738  1.00  0.00     0.014 A 
ATOM      4  C   UNL     1       0.914   5.539 -13.617  1.00  0.00     0.047 A 
ATOM      5  C   UNL     1       1.270   7.746 -12.700  1.00  0.00     0.001 A 
ATOM      6  C   UNL     1       0.657   6.910 -13.632  1.00  0.00     0.004 A 
ENDROOT
BRANCH   1   7
ATOM      7  C   UNL     1       3.236   5.296 -10.606  1.00  0.00     0.075 C 
ATOM      8  O   UNL     1       3.980   4.301 -10.813  1.00  0.00    -0.545 OA
ATOM      9  O   UNL     1       3.279   5.923  -9.367  1.00  0.00    -0.545 OA
ENDBRANCH   1   7
BRANCH   2  10
ATOM     10  O   UNL     1       2.068   3.622 -12.761  1.00  0.00    -0.507 OA
ATOM     11  H   UNL     1       2.922   3.205 -12.419  1.00  0.00     0.293 HD
ENDBRANCH   2  10
TORSDOF 2
ENDMDL
