MODEL 1
REMARK VINA RESULT:    -3.346      0.000      0.000
REMARK INTER + INTRA:          -4.719
REMARK INTER:                  -4.323
REMARK INTRA:                  -0.396
REMARK UNBOUND:                -0.396
REMARK SMILES CCCCCCC(=O)[O-]
REMARK SMILES IDX 5 1 6 2 7 3 8 4 9 5 4 6 3 7 2 8 1 9
REMARK H PARENT
REMARK Flexibility Score: inf
ROOT
ATOM      1  C   UNL     1     162.155 156.000 164.430  1.00  0.00     0.006 C 
ENDROOT
BRANCH   1   2
ATOM      2  C   UNL     1     161.933 155.671 165.912  1.00  0.00     0.053 C 
BRANCH   2   3
ATOM      3  C   UNL     1     163.074 156.139 166.763  1.00  0.00     0.041 C 
ATOM      4  O   UNL     1     162.923 157.118 167.541  1.00  0.00    -0.550 OA
ATOM      5  O   UNL     1     164.311 155.515 166.673  1.00  0.00    -0.550 OA
ENDBRANCH   2   3
ENDBRANCH   1   2
BRANCH   1   6
ATOM      6  C   UNL     1     162.004 157.500 164.138  1.00  0.00     0.000 C 
BRANCH   6   7
ATOM      7  C   UNL     1     160.620 158.007 164.574  1.00  0.00    -0.000 C 
BRANCH   7   8
ATOM      8  C   UNL     1     160.669 159.426 165.159  1.00  0.00    -0.003 C 
ATOM      9  C   UNL     1     162.083 159.858 165.546  1.00  0.00     0.004 C 
ENDBRANCH   7   8
ENDBRANCH   6   7
ENDBRANCH   1   6
TORSDOF 5
ENDMDL
MODEL 2
REMARK VINA RESULT:    -3.286      1.269      2.048
REMARK INTER + INTRA:          -4.643
REMARK INTER:                  -4.449
REMARK INTRA:                  -0.194
REMARK UNBOUND:                -0.396
REMARK SMILES CCCCCCC(=O)[O-]
REMARK SMILES IDX 5 1 6 2 7 3 8 4 9 5 4 6 3 7 2 8 1 9
REMARK H PARENT
REMARK Flexibility Score: inf
ROOT
ATOM      1  C   UNL     1     163.111 158.636 165.116  1.00  0.00     0.006 C 
ENDROOT
BRANCH   1   2
ATOM      2  C   UNL     1     162.752 157.145 165.181  1.00  0.00     0.053 C 
BRANCH   2   3
ATOM      3  C   UNL     1     163.184 156.524 166.474  1.00  0.00     0.041 C 
ATOM      4  O   UNL     1     162.664 156.896 167.559  1.00  0.00    -0.550 OA
ATOM      5  O   UNL     1     164.182 155.559 166.485  1.00  0.00    -0.550 OA
ENDBRANCH   2   3
ENDBRANCH   1   2
BRANCH   1   6
ATOM      6  C   UNL     1     161.890 159.538 165.351  1.00  0.00     0.000 C 
BRANCH   6   7
ATOM      7  C   UNL     1     160.597 158.841 164.898  1.00  0.00    -0.000 C 
BRANCH   7   8
ATOM      8  C   UNL     1     159.367 159.757 164.999  1.00  0.00    -0.003 C 
ATOM      9  C   UNL     1     158.217 159.302 164.103  1.00  0.00     0.004 C 
ENDBRANCH   7   8
ENDBRANCH   6   7
ENDBRANCH   1   6
TORSDOF 5
ENDMDL
MODEL 3
REMARK VINA RESULT:    -3.256      1.972      3.609
REMARK INTER + INTRA:          -4.604
REMARK INTER:                  -4.230
REMARK INTRA:                  -0.374
REMARK UNBOUND:                -0.396
REMARK SMILES CCCCCCC(=O)[O-]
REMARK SMILES IDX 5 1 6 2 7 3 8 4 9 5 4 6 3 7 2 8 1 9
REMARK H PARENT
REMARK Flexibility Score: inf
ROOT
ATOM      1  C   UNL     1     161.547 156.778 163.919  1.00  0.00     0.006 C 
ENDROOT
BRANCH   1   2
ATOM      2  C   UNL     1     160.602 157.864 164.450  1.00  0.00     0.053 C 
BRANCH   2   3
ATOM      3  C   UNL     1     161.356 159.041 164.990  1.00  0.00     0.041 C 
ATOM      4  O   UNL     1     160.737 159.985 165.550  1.00  0.00    -0.550 OA
ATOM      5  O   UNL     1     162.735 159.111 164.846  1.00  0.00    -0.550 OA
ENDBRANCH   2   3
ENDBRANCH   1   2
BRANCH   1   6
ATOM      6  C   UNL     1     161.859 155.710 164.978  1.00  0.00     0.000 C 
BRANCH   6   7
ATOM      7  C   UNL     1     163.374 155.584 165.201  1.00  0.00    -0.000 C 
BRANCH   7   8
ATOM      8  C   UNL     1     163.771 155.769 166.674  1.00  0.00    -0.003 C 
ATOM      9  C   UNL     1     162.835 156.714 167.425  1.00  0.00     0.004 C 
ENDBRANCH   7   8
ENDBRANCH   6   7
ENDBRANCH   1   6
TORSDOF 5
ENDMDL
MODEL 4
REMARK VINA RESULT:    -3.193     14.616     15.456
REMARK INTER + INTRA:          -4.522
REMARK INTER:                  -4.413
REMARK INTRA:                  -0.109
REMARK UNBOUND:                -0.396
REMARK SMILES CCCCCCC(=O)[O-]
REMARK SMILES IDX 5 1 6 2 7 3 8 4 9 5 4 6 3 7 2 8 1 9
REMARK H PARENT
REMARK Flexibility Score: inf
ROOT
ATOM      1  C   UNL     1     161.010 157.886 150.426  1.00  0.00     0.006 C 
ENDROOT
BRANCH   1   2
ATOM      2  C   UNL     1     159.822 158.857 150.393  1.00  0.00     0.053 C 
BRANCH   2   3
ATOM      3  C   UNL     1     158.511 158.134 150.427  1.00  0.00     0.041 C 
ATOM      4  O   UNL     1     157.511 158.663 150.981  1.00  0.00    -0.550 OA
ATOM      5  O   UNL     1     158.401 156.865 149.875  1.00  0.00    -0.550 OA
ENDBRANCH   2   3
ENDBRANCH   1   2
BRANCH   1   6
ATOM      6  C   UNL     1     162.343 158.586 150.124  1.00  0.00     0.000 C 
BRANCH   6   7
ATOM      7  C   UNL     1     162.759 159.498 151.289  1.00  0.00    -0.000 C 
BRANCH   7   8
ATOM      8  C   UNL     1     164.245 159.885 151.234  1.00  0.00    -0.003 C 
ATOM      9  C   UNL     1     165.113 159.031 152.156  1.00  0.00     0.004 C 
ENDBRANCH   7   8
ENDBRANCH   6   7
ENDBRANCH   1   6
TORSDOF 5
ENDMDL
MODEL 5
REMARK VINA RESULT:    -3.160      2.613      4.393
REMARK INTER + INTRA:          -4.479
REMARK INTER:                  -4.174
REMARK INTRA:                  -0.305
REMARK UNBOUND:                -0.396
REMARK SMILES CCCCCCC(=O)[O-]
REMARK SMILES IDX 5 1 6 2 7 3 8 4 9 5 4 6 3 7 2 8 1 9
REMARK H PARENT
REMARK Flexibility Score: inf
ROOT
ATOM      1  C   UNL     1     162.617 158.462 165.356  1.00  0.00     0.006 C 
ENDROOT
BRANCH   1   2
ATOM      2  C   UNL     1     161.344 159.314 165.252  1.00  0.00     0.053 C 
BRANCH   2   3
ATOM      3  C   UNL     1     160.252 158.595 164.520  1.00  0.00     0.041 C 
ATOM      4  O   UNL     1     160.309 157.346 164.368  1.00  0.00    -0.550 OA
ATOM      5  O   UNL     1     159.191 159.308 163.978  1.00  0.00    -0.550 OA
ENDBRANCH   2   3
ENDBRANCH   1   2
BRANCH   1   6
ATOM      6  C   UNL     1     162.841 157.924 166.778  1.00  0.00     0.000 C 
BRANCH   6   7
ATOM      7  C   UNL     1     162.735 156.391 166.807  1.00  0.00    -0.000 C 
BRANCH   7   8
ATOM      8  C   UNL     1     163.265 155.739 165.521  1.00  0.00    -0.003 C 
ATOM      9  C   UNL     1     164.701 155.236 165.661  1.00  0.00     0.004 C 
ENDBRANCH   7   8
ENDBRANCH   6   7
ENDBRANCH   1   6
TORSDOF 5
ENDMDL
MODEL 6
REMARK VINA RESULT:    -3.129      1.609      1.965
REMARK INTER + INTRA:          -4.440
REMARK INTER:                  -4.088
REMARK INTRA:                  -0.351
REMARK UNBOUND:                -0.396
REMARK SMILES CCCCCCC(=O)[O-]
REMARK SMILES IDX 5 1 6 2 7 3 8 4 9 5 4 6 3 7 2 8 1 9
REMARK H PARENT
REMARK Flexibility Score: inf
ROOT
ATOM      1  C   UNL     1     161.918 156.038 165.651  1.00  0.00     0.006 C 
ENDROOT
BRANCH   1   2
ATOM      2  C   UNL     1     163.340 155.945 166.219  1.00  0.00     0.053 C 
BRANCH   2   3
ATOM      3  C   UNL     1     164.318 155.458 165.194  1.00  0.00     0.041 C 
ATOM      4  O   UNL     1     164.270 154.266 164.790  1.00  0.00    -0.550 OA
ATOM      5  O   UNL     1     165.302 156.309 164.710  1.00  0.00    -0.550 OA
ENDBRANCH   2   3
ENDBRANCH   1   2
BRANCH   1   6
ATOM      6  C   UNL     1     161.833 156.991 164.449  1.00  0.00     0.000 C 
BRANCH   6   7
ATOM      7  C   UNL     1     160.950 158.206 164.773  1.00  0.00    -0.000 C 
BRANCH   7   8
ATOM      8  C   UNL     1     161.741 159.357 165.413  1.00  0.00    -0.003 C 
ATOM      9  C   UNL     1     163.182 159.435 164.911  1.00  0.00     0.004 C 
ENDBRANCH   7   8
ENDBRANCH   6   7
ENDBRANCH   1   6
TORSDOF 5
ENDMDL
MODEL 7
REMARK VINA RESULT:    -3.124      1.770      3.511
REMARK INTER + INTRA:          -4.433
REMARK INTER:                  -3.995
REMARK INTRA:                  -0.438
REMARK UNBOUND:                -0.396
REMARK SMILES CCCCCCC(=O)[O-]
REMARK SMILES IDX 5 1 6 2 7 3 8 4 9 5 4 6 3 7 2 8 1 9
REMARK H PARENT
REMARK Flexibility Score: inf
ROOT
ATOM      1  C   UNL     1     161.273 157.068 164.170  1.00  0.00     0.006 C 
ENDROOT
BRANCH   1   2
ATOM      2  C   UNL     1     161.266 158.393 164.945  1.00  0.00     0.053 C 
BRANCH   2   3
ATOM      3  C   UNL     1     162.633 158.754 165.440  1.00  0.00     0.041 C 
ATOM      4  O   UNL     1     162.863 158.814 166.677  1.00  0.00    -0.550 OA
ATOM      5  O   UNL     1     163.643 159.058 164.537  1.00  0.00    -0.550 OA
ENDBRANCH   2   3
ENDBRANCH   1   2
BRANCH   1   6
ATOM      6  C   UNL     1     161.619 155.871 165.068  1.00  0.00     0.000 C 
BRANCH   6   7
ATOM      7  C   UNL     1     162.663 154.965 164.397  1.00  0.00    -0.000 C 
BRANCH   7   8
ATOM      8  C   UNL     1     164.095 155.271 164.862  1.00  0.00    -0.003 C 
ATOM      9  C   UNL     1     164.189 155.514 166.367  1.00  0.00     0.004 C 
ENDBRANCH   7   8
ENDBRANCH   6   7
ENDBRANCH   1   6
TORSDOF 5
ENDMDL
MODEL 8
REMARK VINA RESULT:    -3.072      2.389      4.073
REMARK INTER + INTRA:          -4.366
REMARK INTER:                  -3.994
REMARK INTRA:                  -0.372
REMARK UNBOUND:                -0.396
REMARK SMILES CCCCCCC(=O)[O-]
REMARK SMILES IDX 5 1 6 2 7 3 8 4 9 5 4 6 3 7 2 8 1 9
REMARK H PARENT
REMARK Flexibility Score: inf
ROOT
ATOM      1  C   UNL     1     162.791 157.509 166.881  1.00  0.00     0.006 C 
ENDROOT
BRANCH   1   2
ATOM      2  C   UNL     1     162.863 158.392 165.627  1.00  0.00     0.053 C 
BRANCH   2   3
ATOM      3  C   UNL     1     161.516 158.922 165.241  1.00  0.00     0.041 C 
ATOM      4  O   UNL     1     161.212 160.118 165.490  1.00  0.00    -0.550 OA
ATOM      5  O   UNL     1     160.585 158.086 164.638  1.00  0.00    -0.550 OA
ENDBRANCH   2   3
ENDBRANCH   1   2
BRANCH   1   6
ATOM      6  C   UNL     1     163.169 156.050 166.587  1.00  0.00     0.000 C 
BRANCH   6   7
ATOM      7  C   UNL     1     163.788 155.914 165.187  1.00  0.00    -0.000 C 
BRANCH   7   8
ATOM      8  C   UNL     1     163.094 154.839 164.336  1.00  0.00    -0.003 C 
ATOM      9  C   UNL     1     161.591 154.759 164.595  1.00  0.00     0.004 C 
ENDBRANCH   7   8
ENDBRANCH   6   7
ENDBRANCH   1   6
TORSDOF 5
ENDMDL
MODEL 9
REMARK VINA RESULT:    -3.004     14.263     15.155
REMARK INTER + INTRA:          -4.278
REMARK INTER:                  -3.839
REMARK INTRA:                  -0.439
REMARK UNBOUND:                -0.396
REMARK SMILES CCCCCCC(=O)[O-]
REMARK SMILES IDX 5 1 6 2 7 3 8 4 9 5 4 6 3 7 2 8 1 9
REMARK H PARENT
REMARK Flexibility Score: inf
ROOT
ATOM      1  C   UNL     1     159.136 157.420 150.082  1.00  0.00     0.006 C 
ENDROOT
BRANCH   1   2
ATOM      2  C   UNL     1     160.201 156.850 151.029  1.00  0.00     0.053 C 
BRANCH   2   3
ATOM      3  C   UNL     1     159.713 155.628 151.745  1.00  0.00     0.041 C 
ATOM      4  O   UNL     1     159.927 154.485 151.262  1.00  0.00    -0.550 OA
ATOM      5  O   UNL     1     158.995 155.753 152.927  1.00  0.00    -0.550 OA
ENDBRANCH   2   3
ENDBRANCH   1   2
BRANCH   1   6
ATOM      6  C   UNL     1     158.378 158.603 150.704  1.00  0.00     0.000 C 
BRANCH   6   7
ATOM      7  C   UNL     1     156.971 158.178 151.152  1.00  0.00    -0.000 C 
BRANCH   7   8
ATOM      8  C   UNL     1     156.445 156.963 150.373  1.00  0.00    -0.003 C 
ATOM      9  C   UNL     1     155.870 155.879 151.283  1.00  0.00     0.004 C 
ENDBRANCH   7   8
ENDBRANCH   6   7
ENDBRANCH   1   6
TORSDOF 5
ENDMDL
