MODEL 1
REMARK VINA RESULT:    -3.910      0.000      0.000
REMARK INTER + INTRA:          -4.582
REMARK INTER:                  -4.367
REMARK INTRA:                  -0.214
REMARK UNBOUND:                -0.214
REMARK SMILES CC(C)c1ccc(C(=O)[O-])cc1
REMARK SMILES IDX 7 1 6 2 11 3 5 4 12 5 4 6 8 7 9 8 10 9 2 10 1 11 3 12
REMARK H PARENT
REMARK Flexibility Score: inf
ROOT
ATOM      1  C   UNL     1      64.469  35.104  61.169  1.00  0.00    -0.003 A 
ATOM      2  C   UNL     1      64.774  33.867  60.578  1.00  0.00     0.010 A 
ATOM      3  C   UNL     1      63.282  35.760  60.803  1.00  0.00     0.010 A 
ATOM      4  C   UNL     1      63.909  33.297  59.639  1.00  0.00     0.004 A 
ATOM      5  C   UNL     1      62.417  35.190  59.864  1.00  0.00     0.004 A 
ATOM      6  C   UNL     1      62.722  33.951  59.271  1.00  0.00    -0.045 A 
ENDROOT
BRANCH   1   7
ATOM      7  C   UNL     1      65.387  35.705  62.162  1.00  0.00     0.071 C 
ATOM      8  O   UNL     1      66.574  35.988  61.850  1.00  0.00    -0.545 OA
ATOM      9  O   UNL     1      64.952  35.965  63.457  1.00  0.00    -0.545 OA
ENDBRANCH   1   7
BRANCH   6  10
ATOM     10  C   UNL     1      61.792  33.321  58.251  1.00  0.00     0.013 C 
ATOM     11  C   UNL     1      60.337  33.738  58.497  1.00  0.00     0.012 C 
ATOM     12  C   UNL     1      61.934  31.795  58.241  1.00  0.00     0.012 C 
ENDBRANCH   6  10
TORSDOF 2
ENDMDL
MODEL 2
REMARK VINA RESULT:    -3.856      0.915      1.732
REMARK INTER + INTRA:          -4.521
REMARK INTER:                  -4.308
REMARK INTRA:                  -0.213
REMARK UNBOUND:                -0.214
REMARK SMILES CC(C)c1ccc(C(=O)[O-])cc1
REMARK SMILES IDX 7 1 6 2 11 3 5 4 12 5 4 6 8 7 9 8 10 9 2 10 1 11 3 12
REMARK H PARENT
REMARK Flexibility Score: inf
ROOT
ATOM      1  C   UNL     1      63.997  35.374  61.091  1.00  0.00    -0.003 A 
ATOM      2  C   UNL     1      62.812  36.124  61.016  1.00  0.00     0.010 A 
ATOM      3  C   UNL     1      64.164  34.277  60.228  1.00  0.00     0.010 A 
ATOM      4  C   UNL     1      61.814  35.785  60.097  1.00  0.00     0.004 A 
ATOM      5  C   UNL     1      63.167  33.939  59.309  1.00  0.00     0.004 A 
ATOM      6  C   UNL     1      61.980  34.690  59.233  1.00  0.00    -0.045 A 
ENDROOT
BRANCH   1   7
ATOM      7  C   UNL     1      65.050  35.735  62.065  1.00  0.00     0.071 C 
ATOM      8  O   UNL     1      66.266  35.697  61.739  1.00  0.00    -0.545 OA
ATOM      9  O   UNL     1      64.712  36.122  63.357  1.00  0.00    -0.545 OA
ENDBRANCH   1   7
BRANCH   6  10
ATOM     10  C   UNL     1      60.889  34.334  58.240  1.00  0.00     0.013 C 
ATOM     11  C   UNL     1      59.737  35.344  58.297  1.00  0.00     0.012 C 
ATOM     12  C   UNL     1      60.382  32.905  58.465  1.00  0.00     0.012 C 
ENDBRANCH   6  10
TORSDOF 2
ENDMDL
MODEL 3
REMARK VINA RESULT:    -3.707      3.385      5.288
REMARK INTER + INTRA:          -4.355
REMARK INTER:                  -4.149
REMARK INTRA:                  -0.206
REMARK UNBOUND:                -0.214
REMARK SMILES CC(C)c1ccc(C(=O)[O-])cc1
REMARK SMILES IDX 7 1 6 2 11 3 5 4 12 5 4 6 8 7 9 8 10 9 2 10 1 11 3 12
REMARK H PARENT
REMARK Flexibility Score: inf
ROOT
ATOM      1  C   UNL     1      61.584  35.128  59.166  1.00  0.00    -0.003 A 
ATOM      2  C   UNL     1      61.590  36.006  60.263  1.00  0.00     0.010 A 
ATOM      3  C   UNL     1      62.720  34.340  58.917  1.00  0.00     0.010 A 
ATOM      4  C   UNL     1      62.711  36.094  61.094  1.00  0.00     0.004 A 
ATOM      5  C   UNL     1      63.840  34.428  59.749  1.00  0.00     0.004 A 
ATOM      6  C   UNL     1      63.848  35.307  60.847  1.00  0.00    -0.045 A 
ENDROOT
BRANCH   1   7
ATOM      7  C   UNL     1      60.396  35.038  58.288  1.00  0.00     0.071 C 
ATOM      8  O   UNL     1      59.624  34.045  58.354  1.00  0.00    -0.545 OA
ATOM      9  O   UNL     1      60.115  36.049  57.377  1.00  0.00    -0.545 OA
ENDBRANCH   1   7
BRANCH   6  10
ATOM     10  C   UNL     1      65.058  35.413  61.758  1.00  0.00     0.013 C 
ATOM     11  C   UNL     1      64.703  36.125  63.069  1.00  0.00     0.012 C 
ATOM     12  C   UNL     1      66.224  36.110  61.049  1.00  0.00     0.012 C 
ENDBRANCH   6  10
TORSDOF 2
ENDMDL
MODEL 4
REMARK VINA RESULT:    -3.644      4.638      5.906
REMARK INTER + INTRA:          -4.285
REMARK INTER:                  -4.070
REMARK INTRA:                  -0.215
REMARK UNBOUND:                -0.214
REMARK SMILES CC(C)c1ccc(C(=O)[O-])cc1
REMARK SMILES IDX 7 1 6 2 11 3 5 4 12 5 4 6 8 7 9 8 10 9 2 10 1 11 3 12
REMARK H PARENT
REMARK Flexibility Score: inf
ROOT
ATOM      1  C   UNL     1      63.779  29.075  60.763  1.00  0.00    -0.003 A 
ATOM      2  C   UNL     1      62.928  29.691  59.831  1.00  0.00     0.010 A 
ATOM      3  C   UNL     1      64.847  29.813  61.302  1.00  0.00     0.010 A 
ATOM      4  C   UNL     1      63.141  31.018  59.444  1.00  0.00     0.004 A 
ATOM      5  C   UNL     1      65.058  31.140  60.916  1.00  0.00     0.004 A 
ATOM      6  C   UNL     1      64.207  31.757  59.982  1.00  0.00    -0.045 A 
ENDROOT
BRANCH   1   7
ATOM      7  C   UNL     1      63.552  27.671  61.170  1.00  0.00     0.071 C 
ATOM      8  O   UNL     1      64.456  26.807  61.025  1.00  0.00    -0.545 OA
ATOM      9  O   UNL     1      62.334  27.285  61.719  1.00  0.00    -0.545 OA
ENDBRANCH   1   7
BRANCH   6  10
ATOM     10  C   UNL     1      64.426  33.197  59.554  1.00  0.00     0.013 C 
ATOM     11  C   UNL     1      64.923  34.053  60.725  1.00  0.00     0.012 C 
ATOM     12  C   UNL     1      63.154  33.790  58.937  1.00  0.00     0.012 C 
ENDBRANCH   6  10
TORSDOF 2
ENDMDL
MODEL 5
REMARK VINA RESULT:    -3.643      3.404      4.966
REMARK INTER + INTRA:          -4.284
REMARK INTER:                  -4.066
REMARK INTRA:                  -0.218
REMARK UNBOUND:                -0.214
REMARK SMILES CC(C)c1ccc(C(=O)[O-])cc1
REMARK SMILES IDX 7 1 6 2 11 3 5 4 12 5 4 6 8 7 9 8 10 9 2 10 1 11 3 12
REMARK H PARENT
REMARK Flexibility Score: inf
ROOT
ATOM      1  C   UNL     1      64.183  31.479  59.509  1.00  0.00    -0.003 A 
ATOM      2  C   UNL     1      65.053  31.866  60.542  1.00  0.00     0.010 A 
ATOM      3  C   UNL     1      63.320  32.438  58.950  1.00  0.00     0.010 A 
ATOM      4  C   UNL     1      65.060  33.185  61.007  1.00  0.00     0.004 A 
ATOM      5  C   UNL     1      63.328  33.755  59.416  1.00  0.00     0.004 A 
ATOM      6  C   UNL     1      64.199  34.144  60.450  1.00  0.00    -0.045 A 
ENDROOT
BRANCH   1   7
ATOM      7  C   UNL     1      64.178  30.083  59.019  1.00  0.00     0.071 C 
ATOM      8  O   UNL     1      65.239  29.404  59.006  1.00  0.00    -0.545 OA
ATOM      9  O   UNL     1      63.000  29.500  58.566  1.00  0.00    -0.545 OA
ENDBRANCH   1   7
BRANCH   6  10
ATOM     10  C   UNL     1      64.217  35.571  60.965  1.00  0.00     0.013 C 
ATOM     11  C   UNL     1      64.987  35.674  62.287  1.00  0.00     0.012 C 
ATOM     12  C   UNL     1      62.794  36.125  61.110  1.00  0.00     0.012 C 
ENDBRANCH   6  10
TORSDOF 2
ENDMDL
MODEL 6
REMARK VINA RESULT:    -3.642      5.848      7.102
REMARK INTER + INTRA:          -4.282
REMARK INTER:                  -4.063
REMARK INTRA:                  -0.219
REMARK UNBOUND:                -0.214
REMARK SMILES CC(C)c1ccc(C(=O)[O-])cc1
REMARK SMILES IDX 7 1 6 2 11 3 5 4 12 5 4 6 8 7 9 8 10 9 2 10 1 11 3 12
REMARK H PARENT
REMARK Flexibility Score: inf
ROOT
ATOM      1  C   UNL     1      64.803  29.316  60.792  1.00  0.00    -0.003 A 
ATOM      2  C   UNL     1      63.521  29.345  61.365  1.00  0.00     0.010 A 
ATOM      3  C   UNL     1      65.388  28.073  60.494  1.00  0.00     0.010 A 
ATOM      4  C   UNL     1      62.838  28.155  61.636  1.00  0.00     0.004 A 
ATOM      5  C   UNL     1      64.704  26.885  60.764  1.00  0.00     0.004 A 
ATOM      6  C   UNL     1      63.420  26.913  61.339  1.00  0.00    -0.045 A 
ENDROOT
BRANCH   1   7
ATOM      7  C   UNL     1      65.523  30.576  60.507  1.00  0.00     0.071 C 
ATOM      8  O   UNL     1      65.186  31.650  61.072  1.00  0.00    -0.545 OA
ATOM      9  O   UNL     1      66.585  30.593  59.609  1.00  0.00    -0.545 OA
ENDBRANCH   1   7
BRANCH   6  10
ATOM     10  C   UNL     1      62.667  25.629  61.638  1.00  0.00     0.013 C 
ATOM     11  C   UNL     1      62.006  25.685  63.021  1.00  0.00     0.012 C 
ATOM     12  C   UNL     1      63.585  24.408  61.513  1.00  0.00     0.012 C 
ENDBRANCH   6  10
TORSDOF 2
ENDMDL
MODEL 7
REMARK VINA RESULT:    -3.617     13.799     14.515
REMARK INTER + INTRA:          -4.254
REMARK INTER:                  -4.035
REMARK INTRA:                  -0.219
REMARK UNBOUND:                -0.214
REMARK SMILES CC(C)c1ccc(C(=O)[O-])cc1
REMARK SMILES IDX 7 1 6 2 11 3 5 4 12 5 4 6 8 7 9 8 10 9 2 10 1 11 3 12
REMARK H PARENT
REMARK Flexibility Score: inf
ROOT
ATOM      1  C   UNL     1      60.467  25.354  50.144  1.00  0.00    -0.003 A 
ATOM      2  C   UNL     1      60.582  26.654  49.625  1.00  0.00     0.010 A 
ATOM      3  C   UNL     1      61.635  24.610  50.383  1.00  0.00     0.010 A 
ATOM      4  C   UNL     1      61.840  27.200  49.349  1.00  0.00     0.004 A 
ATOM      5  C   UNL     1      62.892  25.157  50.108  1.00  0.00     0.004 A 
ATOM      6  C   UNL     1      63.008  26.459  49.587  1.00  0.00    -0.045 A 
ENDROOT
BRANCH   1   7
ATOM      7  C   UNL     1      59.135  24.780  50.434  1.00  0.00     0.071 C 
ATOM      8  O   UNL     1      59.003  23.865  51.290  1.00  0.00    -0.545 OA
ATOM      9  O   UNL     1      58.007  25.242  49.765  1.00  0.00    -0.545 OA
ENDBRANCH   1   7
BRANCH   6  10
ATOM     10  C   UNL     1      64.367  27.063  49.284  1.00  0.00     0.013 C 
ATOM     11  C   UNL     1      64.341  27.851  47.968  1.00  0.00     0.012 C 
ATOM     12  C   UNL     1      65.458  25.987  49.262  1.00  0.00     0.012 C 
ENDBRANCH   6  10
TORSDOF 2
ENDMDL
MODEL 8
REMARK VINA RESULT:    -3.611     12.646     13.779
REMARK INTER + INTRA:          -4.248
REMARK INTER:                  -4.034
REMARK INTRA:                  -0.214
REMARK UNBOUND:                -0.214
REMARK SMILES CC(C)c1ccc(C(=O)[O-])cc1
REMARK SMILES IDX 7 1 6 2 11 3 5 4 12 5 4 6 8 7 9 8 10 9 2 10 1 11 3 12
REMARK H PARENT
REMARK Flexibility Score: inf
ROOT
ATOM      1  C   UNL     1      60.693  26.266  50.186  1.00  0.00    -0.003 A 
ATOM      2  C   UNL     1      59.843  25.302  49.620  1.00  0.00     0.010 A 
ATOM      3  C   UNL     1      60.165  27.184  51.109  1.00  0.00     0.010 A 
ATOM      4  C   UNL     1      58.489  25.257  49.971  1.00  0.00     0.004 A 
ATOM      5  C   UNL     1      58.813  27.137  51.460  1.00  0.00     0.004 A 
ATOM      6  C   UNL     1      57.959  26.173  50.894  1.00  0.00    -0.045 A 
ENDROOT
BRANCH   1   7
ATOM      7  C   UNL     1      62.124  26.311  49.812  1.00  0.00     0.071 C 
ATOM      8  O   UNL     1      62.882  25.336  50.058  1.00  0.00    -0.545 OA
ATOM      9  O   UNL     1      62.653  27.433  49.184  1.00  0.00    -0.545 OA
ENDBRANCH   1   7
BRANCH   6  10
ATOM     10  C   UNL     1      56.489  26.112  51.265  1.00  0.00     0.013 C 
ATOM     11  C   UNL     1      55.631  25.702  50.063  1.00  0.00     0.012 C 
ATOM     12  C   UNL     1      56.012  27.445  51.855  1.00  0.00     0.012 C 
ENDBRANCH   6  10
TORSDOF 2
ENDMDL
MODEL 9
REMARK VINA RESULT:    -3.608     11.917     13.992
REMARK INTER + INTRA:          -4.244
REMARK INTER:                  -4.024
REMARK INTRA:                  -0.220
REMARK UNBOUND:                -0.214
REMARK SMILES CC(C)c1ccc(C(=O)[O-])cc1
REMARK SMILES IDX 7 1 6 2 11 3 5 4 12 5 4 6 8 7 9 8 10 9 2 10 1 11 3 12
REMARK H PARENT
REMARK Flexibility Score: inf
ROOT
ATOM      1  C   UNL     1      58.427  26.549  51.614  1.00  0.00    -0.003 A 
ATOM      2  C   UNL     1      57.418  27.435  52.026  1.00  0.00     0.010 A 
ATOM      3  C   UNL     1      58.128  25.581  50.640  1.00  0.00     0.010 A 
ATOM      4  C   UNL     1      56.134  27.354  51.475  1.00  0.00     0.004 A 
ATOM      5  C   UNL     1      56.846  25.502  50.089  1.00  0.00     0.004 A 
ATOM      6  C   UNL     1      55.834  26.388  50.501  1.00  0.00    -0.045 A 
ENDROOT
BRANCH   1   7
ATOM      7  C   UNL     1      59.783  26.637  52.199  1.00  0.00     0.071 C 
ATOM      8  O   UNL     1      60.612  25.702  52.040  1.00  0.00    -0.545 OA
ATOM      9  O   UNL     1      60.162  27.755  52.934  1.00  0.00    -0.545 OA
ENDBRANCH   1   7
BRANCH   6  10
ATOM     10  C   UNL     1      54.438  26.312  49.912  1.00  0.00     0.013 C 
ATOM     11  C   UNL     1      54.401  25.382  48.693  1.00  0.00     0.012 C 
ATOM     12  C   UNL     1      53.910  27.707  49.558  1.00  0.00     0.012 C 
ENDBRANCH   6  10
TORSDOF 2
ENDMDL
