MODEL 1
REMARK VINA RESULT:    -5.385      0.000      0.000
REMARK INTER + INTRA:         -14.715
REMARK INTER:                 -11.680
REMARK INTRA:                  -3.035
REMARK UNBOUND:                -3.035
REMARK SMILES CCCCCCCCCCCCCCCCCCCCCC(=O)[O-]
REMARK SMILES IDX 12 1 11 2 10 3 9 4 8 5 7 6 6 7 5 8 4 9 3 10 2 11 1 12 13 13
REMARK SMILES IDX 14 14 15 15 16 16 17 17 18 18 19 19 20 20 21 21 22 22 23 23
REMARK SMILES IDX 24 24
REMARK H PARENT
REMARK Flexibility Score: inf
ROOT
ATOM      1  C   UNL     1     -16.406  42.625  -3.612  1.00  0.00     0.000 C 
ENDROOT
BRANCH   1   2
ATOM      2  C   UNL     1     -17.812  43.121  -3.990  1.00  0.00     0.000 C 
BRANCH   2   3
ATOM      3  C   UNL     1     -17.859  43.782  -5.380  1.00  0.00     0.000 C 
BRANCH   3   4
ATOM      4  C   UNL     1     -19.169  43.558  -6.161  1.00  0.00    -0.000 C 
BRANCH   4   5
ATOM      5  C   UNL     1     -19.002  43.411  -7.685  1.00  0.00    -0.000 C 
BRANCH   5   6
ATOM      6  C   UNL     1     -19.950  44.314  -8.504  1.00  0.00    -0.000 C 
BRANCH   6   7
ATOM      7  C   UNL     1     -20.088  45.722  -7.899  1.00  0.00    -0.000 C 
BRANCH   7   8
ATOM      8  C   UNL     1     -21.482  46.329  -8.131  1.00  0.00    -0.000 C 
BRANCH   8   9
ATOM      9  C   UNL     1     -22.566  45.258  -8.335  1.00  0.00    -0.000 C 
BRANCH   9  10
ATOM     10  C   UNL     1     -23.706  45.355  -7.304  1.00  0.00    -0.000 C 
BRANCH  10  11
ATOM     11  C   UNL     1     -23.277  45.154  -5.839  1.00  0.00    -0.003 C 
ATOM     12  C   UNL     1     -22.777  43.738  -5.550  1.00  0.00     0.004 C 
ENDBRANCH  10  11
ENDBRANCH   9  10
ENDBRANCH   8   9
ENDBRANCH   7   8
ENDBRANCH   6   7
ENDBRANCH   5   6
ENDBRANCH   4   5
ENDBRANCH   3   4
ENDBRANCH   2   3
ENDBRANCH   1   2
BRANCH   1  13
ATOM     13  C   UNL     1     -16.340  41.097  -3.451  1.00  0.00     0.000 C 
BRANCH  13  14
ATOM     14  C   UNL     1     -16.149  40.371  -4.793  1.00  0.00     0.000 C 
BRANCH  14  15
ATOM     15  C   UNL     1     -17.481  39.894  -5.398  1.00  0.00     0.000 C 
BRANCH  15  16
ATOM     16  C   UNL     1     -17.585  40.187  -6.902  1.00  0.00     0.000 C 
BRANCH  16  17
ATOM     17  C   UNL     1     -17.498  38.890  -7.720  1.00  0.00     0.000 C 
BRANCH  17  18
ATOM     18  C   UNL     1     -18.487  38.865  -8.897  1.00  0.00     0.000 C 
BRANCH  18  19
ATOM     19  C   UNL     1     -19.405  40.100  -8.927  1.00  0.00     0.000 C 
BRANCH  19  20
ATOM     20  C   UNL     1     -20.893  39.732  -8.822  1.00  0.00     0.006 C 
BRANCH  20  21
ATOM     21  C   UNL     1     -21.713  40.800  -8.088  1.00  0.00     0.053 C 
BRANCH  21  22
ATOM     22  C   UNL     1     -21.943  40.396  -6.665  1.00  0.00     0.041 C 
ATOM     23  O   UNL     1     -23.036  39.875  -6.324  1.00  0.00    -0.550 OA
ATOM     24  O   UNL     1     -20.929  40.545  -5.727  1.00  0.00    -0.550 OA
ENDBRANCH  21  22
ENDBRANCH  20  21
ENDBRANCH  19  20
ENDBRANCH  18  19
ENDBRANCH  17  18
ENDBRANCH  16  17
ENDBRANCH  15  16
ENDBRANCH  14  15
ENDBRANCH  13  14
ENDBRANCH   1  13
TORSDOF 20
ENDMDL
MODEL 2
REMARK VINA RESULT:    -5.295      2.206      4.600
REMARK INTER + INTRA:         -14.521
REMARK INTER:                 -11.228
REMARK INTRA:                  -3.293
REMARK UNBOUND:                -3.035
REMARK SMILES CCCCCCCCCCCCCCCCCCCCCC(=O)[O-]
REMARK SMILES IDX 12 1 11 2 10 3 9 4 8 5 7 6 6 7 5 8 4 9 3 10 2 11 1 12 13 13
REMARK SMILES IDX 14 14 15 15 16 16 17 17 18 18 19 19 20 20 21 21 22 22 23 23
REMARK SMILES IDX 24 24
REMARK H PARENT
REMARK Flexibility Score: inf
ROOT
ATOM      1  C   UNL     1     -16.522  40.113  -3.882  1.00  0.00     0.000 C 
ENDROOT
BRANCH   1   2
ATOM      2  C   UNL     1     -17.537  39.675  -4.951  1.00  0.00     0.000 C 
BRANCH   2   3
ATOM      3  C   UNL     1     -17.174  40.177  -6.361  1.00  0.00     0.000 C 
BRANCH   3   4
ATOM      4  C   UNL     1     -18.034  39.592  -7.498  1.00  0.00    -0.000 C 
BRANCH   4   5
ATOM      5  C   UNL     1     -18.549  40.623  -8.520  1.00  0.00    -0.000 C 
BRANCH   5   6
ATOM      6  C   UNL     1     -19.885  41.284  -8.118  1.00  0.00    -0.000 C 
BRANCH   6   7
ATOM      7  C   UNL     1     -20.780  40.344  -7.292  1.00  0.00    -0.000 C 
BRANCH   7   8
ATOM      8  C   UNL     1     -21.025  40.865  -5.866  1.00  0.00    -0.000 C 
BRANCH   8   9
ATOM      9  C   UNL     1     -21.886  42.140  -5.843  1.00  0.00    -0.000 C 
BRANCH   9  10
ATOM     10  C   UNL     1     -23.226  41.971  -6.582  1.00  0.00    -0.000 C 
BRANCH  10  11
ATOM     11  C   UNL     1     -23.474  42.982  -7.718  1.00  0.00    -0.003 C 
ATOM     12  C   UNL     1     -23.202  42.402  -9.106  1.00  0.00     0.004 C 
ENDBRANCH  10  11
ENDBRANCH   9  10
ENDBRANCH   8   9
ENDBRANCH   7   8
ENDBRANCH   6   7
ENDBRANCH   5   6
ENDBRANCH   4   5
ENDBRANCH   3   4
ENDBRANCH   2   3
ENDBRANCH   1   2
BRANCH   1  13
ATOM     13  C   UNL     1     -15.585  41.228  -4.375  1.00  0.00     0.000 C 
BRANCH  13  14
ATOM     14  C   UNL     1     -16.057  42.627  -3.945  1.00  0.00     0.000 C 
BRANCH  14  15
ATOM     15  C   UNL     1     -17.390  42.588  -3.178  1.00  0.00     0.000 C 
BRANCH  15  16
ATOM     16  C   UNL     1     -18.564  43.131  -4.006  1.00  0.00     0.000 C 
BRANCH  16  17
ATOM     17  C   UNL     1     -18.144  43.366  -5.465  1.00  0.00     0.000 C 
BRANCH  17  18
ATOM     18  C   UNL     1     -18.573  44.745  -5.990  1.00  0.00     0.000 C 
BRANCH  18  19
ATOM     19  C   UNL     1     -19.586  44.652  -7.146  1.00  0.00     0.000 C 
BRANCH  19  20
ATOM     20  C   UNL     1     -20.288  45.990  -7.424  1.00  0.00     0.006 C 
BRANCH  20  21
ATOM     21  C   UNL     1     -21.028  46.534  -6.196  1.00  0.00     0.053 C 
BRANCH  21  22
ATOM     22  C   UNL     1     -22.485  46.197  -6.272  1.00  0.00     0.041 C 
ATOM     23  O   UNL     1     -23.037  45.565  -5.335  1.00  0.00    -0.550 OA
ATOM     24  O   UNL     1     -23.242  46.628  -7.353  1.00  0.00    -0.550 OA
ENDBRANCH  21  22
ENDBRANCH  20  21
ENDBRANCH  19  20
ENDBRANCH  18  19
ENDBRANCH  17  18
ENDBRANCH  16  17
ENDBRANCH  15  16
ENDBRANCH  14  15
ENDBRANCH  13  14
ENDBRANCH   1  13
TORSDOF 20
ENDMDL
MODEL 3
REMARK VINA RESULT:    -5.224      2.390      5.333
REMARK INTER + INTRA:         -14.367
REMARK INTER:                 -11.057
REMARK INTRA:                  -3.310
REMARK UNBOUND:                -3.035
REMARK SMILES CCCCCCCCCCCCCCCCCCCCCC(=O)[O-]
REMARK SMILES IDX 12 1 11 2 10 3 9 4 8 5 7 6 6 7 5 8 4 9 3 10 2 11 1 12 13 13
REMARK SMILES IDX 14 14 15 15 16 16 17 17 18 18 19 19 20 20 21 21 22 22 23 23
REMARK SMILES IDX 24 24
REMARK H PARENT
REMARK Flexibility Score: inf
ROOT
ATOM      1  C   UNL     1     -18.391  41.832  -4.212  1.00  0.00     0.000 C 
ENDROOT
BRANCH   1   2
ATOM      2  C   UNL     1     -18.012  40.420  -4.692  1.00  0.00     0.000 C 
BRANCH   2   3
ATOM      3  C   UNL     1     -17.245  40.427  -6.026  1.00  0.00     0.000 C 
BRANCH   3   4
ATOM      4  C   UNL     1     -17.833  39.512  -7.118  1.00  0.00    -0.000 C 
BRANCH   4   5
ATOM      5  C   UNL     1     -18.421  40.248  -8.336  1.00  0.00    -0.000 C 
BRANCH   5   6
ATOM      6  C   UNL     1     -19.817  40.856  -8.082  1.00  0.00    -0.000 C 
BRANCH   6   7
ATOM      7  C   UNL     1     -20.905  39.780  -7.919  1.00  0.00    -0.000 C 
BRANCH   7   8
ATOM      8  C   UNL     1     -21.940  40.146  -6.842  1.00  0.00    -0.000 C 
BRANCH   8   9
ATOM      9  C   UNL     1     -21.463  41.288  -5.929  1.00  0.00    -0.000 C 
BRANCH   9  10
ATOM     10  C   UNL     1     -22.374  42.528  -5.994  1.00  0.00    -0.000 C 
BRANCH  10  11
ATOM     11  C   UNL     1     -23.551  42.419  -6.983  1.00  0.00    -0.003 C 
ATOM     12  C   UNL     1     -23.195  42.893  -8.392  1.00  0.00     0.004 C 
ENDBRANCH  10  11
ENDBRANCH   9  10
ENDBRANCH   8   9
ENDBRANCH   7   8
ENDBRANCH   6   7
ENDBRANCH   5   6
ENDBRANCH   4   5
ENDBRANCH   3   4
ENDBRANCH   2   3
ENDBRANCH   1   2
BRANCH   1  13
ATOM     13  C   UNL     1     -17.359  42.894  -4.627  1.00  0.00     0.000 C 
BRANCH  13  14
ATOM     14  C   UNL     1     -18.006  44.102  -5.326  1.00  0.00     0.000 C 
BRANCH  14  15
ATOM     15  C   UNL     1     -18.724  43.712  -6.629  1.00  0.00     0.000 C 
BRANCH  15  16
ATOM     16  C   UNL     1     -19.361  44.918  -7.336  1.00  0.00     0.000 C 
BRANCH  16  17
ATOM     17  C   UNL     1     -19.427  46.132  -6.398  1.00  0.00     0.000 C 
BRANCH  17  18
ATOM     18  C   UNL     1     -20.869  46.570  -6.099  1.00  0.00     0.000 C 
BRANCH  18  19
ATOM     19  C   UNL     1     -21.866  46.107  -7.176  1.00  0.00     0.000 C 
BRANCH  19  20
ATOM     20  C   UNL     1     -23.280  46.665  -6.951  1.00  0.00     0.006 C 
BRANCH  20  21
ATOM     21  C   UNL     1     -24.242  46.310  -8.091  1.00  0.00     0.053 C 
BRANCH  21  22
ATOM     22  C   UNL     1     -25.610  46.027  -7.552  1.00  0.00     0.041 C 
ATOM     23  O   UNL     1     -26.625  46.221  -8.270  1.00  0.00    -0.550 OA
ATOM     24  O   UNL     1     -25.759  45.498  -6.277  1.00  0.00    -0.550 OA
ENDBRANCH  21  22
ENDBRANCH  20  21
ENDBRANCH  19  20
ENDBRANCH  18  19
ENDBRANCH  17  18
ENDBRANCH  16  17
ENDBRANCH  15  16
ENDBRANCH  14  15
ENDBRANCH  13  14
ENDBRANCH   1  13
TORSDOF 20
ENDMDL
MODEL 4
REMARK VINA RESULT:    -5.191      2.143      5.189
REMARK INTER + INTRA:         -14.294
REMARK INTER:                 -11.221
REMARK INTRA:                  -3.074
REMARK UNBOUND:                -3.035
REMARK SMILES CCCCCCCCCCCCCCCCCCCCCC(=O)[O-]
REMARK SMILES IDX 12 1 11 2 10 3 9 4 8 5 7 6 6 7 5 8 4 9 3 10 2 11 1 12 13 13
REMARK SMILES IDX 14 14 15 15 16 16 17 17 18 18 19 19 20 20 21 21 22 22 23 23
REMARK SMILES IDX 24 24
REMARK H PARENT
REMARK Flexibility Score: inf
ROOT
ATOM      1  C   UNL     1     -23.491  42.090  -6.220  1.00  0.00     0.000 C 
ENDROOT
BRANCH   1   2
ATOM      2  C   UNL     1     -22.774  43.223  -6.973  1.00  0.00     0.000 C 
BRANCH   2   3
ATOM      3  C   UNL     1     -23.096  43.237  -8.479  1.00  0.00     0.000 C 
BRANCH   3   4
ATOM      4  C   UNL     1     -23.909  44.455  -8.957  1.00  0.00    -0.000 C 
BRANCH   4   5
ATOM      5  C   UNL     1     -25.026  44.909  -7.998  1.00  0.00    -0.000 C 
BRANCH   5   6
ATOM      6  C   UNL     1     -24.818  46.331  -7.432  1.00  0.00    -0.000 C 
BRANCH   6   7
ATOM      7  C   UNL     1     -24.539  46.324  -5.918  1.00  0.00    -0.000 C 
BRANCH   7   8
ATOM      8  C   UNL     1     -23.072  46.642  -5.587  1.00  0.00    -0.000 C 
BRANCH   8   9
ATOM      9  C   UNL     1     -22.279  47.119  -6.817  1.00  0.00    -0.000 C 
BRANCH   9  10
ATOM     10  C   UNL     1     -20.837  46.580  -6.846  1.00  0.00    -0.000 C 
BRANCH  10  11
ATOM     11  C   UNL     1     -20.357  46.080  -8.222  1.00  0.00    -0.003 C 
ATOM     12  C   UNL     1     -19.642  44.731  -8.153  1.00  0.00     0.004 C 
ENDBRANCH  10  11
ENDBRANCH   9  10
ENDBRANCH   8   9
ENDBRANCH   7   8
ENDBRANCH   6   7
ENDBRANCH   5   6
ENDBRANCH   4   5
ENDBRANCH   3   4
ENDBRANCH   2   3
ENDBRANCH   1   2
BRANCH   1  13
ATOM     13  C   UNL     1     -22.884  40.707  -6.511  1.00  0.00     0.000 C 
BRANCH  13  14
ATOM     14  C   UNL     1     -21.354  40.691  -6.353  1.00  0.00     0.000 C 
BRANCH  14  15
ATOM     15  C   UNL     1     -20.641  40.145  -7.602  1.00  0.00     0.000 C 
BRANCH  15  16
ATOM     16  C   UNL     1     -19.552  41.095  -8.124  1.00  0.00     0.000 C 
BRANCH  16  17
ATOM     17  C   UNL     1     -18.505  41.378  -7.037  1.00  0.00     0.000 C 
BRANCH  17  18
ATOM     18  C   UNL     1     -17.710  40.124  -6.640  1.00  0.00     0.000 C 
BRANCH  18  19
ATOM     19  C   UNL     1     -17.482  40.021  -5.121  1.00  0.00     0.000 C 
BRANCH  19  20
ATOM     20  C   UNL     1     -16.131  40.609  -4.686  1.00  0.00     0.006 C 
BRANCH  20  21
ATOM     21  C   UNL     1     -16.235  41.439  -3.401  1.00  0.00     0.053 C 
BRANCH  21  22
ATOM     22  C   UNL     1     -17.150  42.606  -3.606  1.00  0.00     0.041 C 
ATOM     23  O   UNL     1     -18.058  42.853  -2.769  1.00  0.00    -0.550 OA
ATOM     24  O   UNL     1     -16.966  43.452  -4.691  1.00  0.00    -0.550 OA
ENDBRANCH  21  22
ENDBRANCH  20  21
ENDBRANCH  19  20
ENDBRANCH  18  19
ENDBRANCH  17  18
ENDBRANCH  16  17
ENDBRANCH  15  16
ENDBRANCH  14  15
ENDBRANCH  13  14
ENDBRANCH   1  13
TORSDOF 20
ENDMDL
MODEL 5
REMARK VINA RESULT:    -5.148      2.188      4.613
REMARK INTER + INTRA:         -14.203
REMARK INTER:                 -10.726
REMARK INTRA:                  -3.476
REMARK UNBOUND:                -3.035
REMARK SMILES CCCCCCCCCCCCCCCCCCCCCC(=O)[O-]
REMARK SMILES IDX 12 1 11 2 10 3 9 4 8 5 7 6 6 7 5 8 4 9 3 10 2 11 1 12 13 13
REMARK SMILES IDX 14 14 15 15 16 16 17 17 18 18 19 19 20 20 21 21 22 22 23 23
REMARK SMILES IDX 24 24
REMARK H PARENT
REMARK Flexibility Score: inf
ROOT
ATOM      1  C   UNL     1     -21.209  41.527  -5.815  1.00  0.00     0.000 C 
ENDROOT
BRANCH   1   2
ATOM      2  C   UNL     1     -22.030  42.825  -5.741  1.00  0.00     0.000 C 
BRANCH   2   3
ATOM      3  C   UNL     1     -23.507  42.621  -6.125  1.00  0.00     0.000 C 
BRANCH   3   4
ATOM      4  C   UNL     1     -24.066  43.651  -7.125  1.00  0.00    -0.000 C 
BRANCH   4   5
ATOM      5  C   UNL     1     -23.704  43.390  -8.599  1.00  0.00    -0.000 C 
BRANCH   5   6
ATOM      6  C   UNL     1     -22.553  44.275  -9.123  1.00  0.00    -0.000 C 
BRANCH   6   7
ATOM      7  C   UNL     1     -22.718  45.751  -8.721  1.00  0.00    -0.000 C 
BRANCH   7   8
ATOM      8  C   UNL     1     -21.417  46.556  -8.884  1.00  0.00    -0.000 C 
BRANCH   8   9
ATOM      9  C   UNL     1     -20.162  45.669  -8.817  1.00  0.00    -0.000 C 
BRANCH   9  10
ATOM     10  C   UNL     1     -19.595  45.540  -7.391  1.00  0.00    -0.000 C 
BRANCH  10  11
ATOM     11  C   UNL     1     -18.989  44.164  -7.054  1.00  0.00    -0.003 C 
ATOM     12  C   UNL     1     -18.241  44.149  -5.721  1.00  0.00     0.004 C 
ENDBRANCH  10  11
ENDBRANCH   9  10
ENDBRANCH   8   9
ENDBRANCH   7   8
ENDBRANCH   6   7
ENDBRANCH   5   6
ENDBRANCH   4   5
ENDBRANCH   3   4
ENDBRANCH   2   3
ENDBRANCH   1   2
BRANCH   1  13
ATOM     13  C   UNL     1     -21.976  40.378  -6.491  1.00  0.00     0.000 C 
BRANCH  13  14
ATOM     14  C   UNL     1     -21.380  39.995  -7.856  1.00  0.00     0.000 C 
BRANCH  14  15
ATOM     15  C   UNL     1     -20.705  41.185  -8.558  1.00  0.00     0.000 C 
BRANCH  15  16
ATOM     16  C   UNL     1     -19.297  40.848  -9.071  1.00  0.00     0.000 C 
BRANCH  16  17
ATOM     17  C   UNL     1     -18.946  39.380  -8.784  1.00  0.00     0.000 C 
BRANCH  17  18
ATOM     18  C   UNL     1     -17.522  39.209  -8.231  1.00  0.00     0.000 C 
BRANCH  18  19
ATOM     19  C   UNL     1     -17.474  39.252  -6.693  1.00  0.00     0.000 C 
BRANCH  19  20
ATOM     20  C   UNL     1     -17.599  40.680  -6.138  1.00  0.00     0.006 C 
BRANCH  20  21
ATOM     21  C   UNL     1     -17.763  40.707  -4.613  1.00  0.00     0.053 C 
BRANCH  21  22
ATOM     22  C   UNL     1     -16.542  41.283  -3.966  1.00  0.00     0.041 C 
ATOM     23  O   UNL     1     -15.397  40.944  -4.363  1.00  0.00    -0.550 OA
ATOM     24  O   UNL     1     -16.670  42.234  -2.963  1.00  0.00    -0.550 OA
ENDBRANCH  21  22
ENDBRANCH  20  21
ENDBRANCH  19  20
ENDBRANCH  18  19
ENDBRANCH  17  18
ENDBRANCH  16  17
ENDBRANCH  15  16
ENDBRANCH  14  15
ENDBRANCH  13  14
ENDBRANCH   1  13
TORSDOF 20
ENDMDL
MODEL 6
REMARK VINA RESULT:    -5.101      2.007      4.086
REMARK INTER + INTRA:         -14.100
REMARK INTER:                 -10.507
REMARK INTRA:                  -3.593
REMARK UNBOUND:                -3.035
REMARK SMILES CCCCCCCCCCCCCCCCCCCCCC(=O)[O-]
REMARK SMILES IDX 12 1 11 2 10 3 9 4 8 5 7 6 6 7 5 8 4 9 3 10 2 11 1 12 13 13
REMARK SMILES IDX 14 14 15 15 16 16 17 17 18 18 19 19 20 20 21 21 22 22 23 23
REMARK SMILES IDX 24 24
REMARK H PARENT
REMARK Flexibility Score: inf
ROOT
ATOM      1  C   UNL     1     -21.583  41.011  -6.064  1.00  0.00     0.000 C 
ENDROOT
BRANCH   1   2
ATOM      2  C   UNL     1     -21.339  42.523  -5.922  1.00  0.00     0.000 C 
BRANCH   2   3
ATOM      3  C   UNL     1     -19.944  42.853  -5.359  1.00  0.00     0.000 C 
BRANCH   3   4
ATOM      4  C   UNL     1     -18.995  43.555  -6.349  1.00  0.00    -0.000 C 
BRANCH   4   5
ATOM      5  C   UNL     1     -19.039  45.094  -6.314  1.00  0.00    -0.000 C 
BRANCH   5   6
ATOM      6  C   UNL     1     -19.708  45.726  -7.554  1.00  0.00    -0.000 C 
BRANCH   6   7
ATOM      7  C   UNL     1     -20.031  44.685  -8.640  1.00  0.00    -0.000 C 
BRANCH   7   8
ATOM      8  C   UNL     1     -21.488  44.772  -9.125  1.00  0.00    -0.000 C 
BRANCH   8   9
ATOM      9  C   UNL     1     -22.457  45.199  -8.009  1.00  0.00    -0.000 C 
BRANCH   9  10
ATOM     10  C   UNL     1     -23.689  44.280  -7.901  1.00  0.00    -0.000 C 
BRANCH  10  11
ATOM     11  C   UNL     1     -24.752  44.736  -6.884  1.00  0.00    -0.003 C 
ATOM     12  C   UNL     1     -24.283  45.895  -6.005  1.00  0.00     0.004 C 
ENDBRANCH  10  11
ENDBRANCH   9  10
ENDBRANCH   8   9
ENDBRANCH   7   8
ENDBRANCH   6   7
ENDBRANCH   5   6
ENDBRANCH   4   5
ENDBRANCH   3   4
ENDBRANCH   2   3
ENDBRANCH   1   2
BRANCH   1  13
ATOM     13  C   UNL     1     -22.117  40.624  -7.453  1.00  0.00     0.000 C 
BRANCH  13  14
ATOM     14  C   UNL     1     -21.030  40.016  -8.354  1.00  0.00     0.000 C 
BRANCH  14  15
ATOM     15  C   UNL     1     -20.221  41.087  -9.105  1.00  0.00     0.000 C 
BRANCH  15  16
ATOM     16  C   UNL     1     -18.724  41.044  -8.765  1.00  0.00     0.000 C 
BRANCH  16  17
ATOM     17  C   UNL     1     -18.193  39.603  -8.809  1.00  0.00     0.000 C 
BRANCH  17  18
ATOM     18  C   UNL     1     -17.479  39.195  -7.510  1.00  0.00     0.000 C 
BRANCH  18  19
ATOM     19  C   UNL     1     -17.918  40.041  -6.301  1.00  0.00     0.000 C 
BRANCH  19  20
ATOM     20  C   UNL     1     -16.736  40.457  -5.412  1.00  0.00     0.006 C 
BRANCH  20  21
ATOM     21  C   UNL     1     -17.149  40.688  -3.953  1.00  0.00     0.053 C 
BRANCH  21  22
ATOM     22  C   UNL     1     -16.883  42.106  -3.553  1.00  0.00     0.041 C 
ATOM     23  O   UNL     1     -17.669  42.700  -2.770  1.00  0.00    -0.550 OA
ATOM     24  O   UNL     1     -15.740  42.753  -4.003  1.00  0.00    -0.550 OA
ENDBRANCH  21  22
ENDBRANCH  20  21
ENDBRANCH  19  20
ENDBRANCH  18  19
ENDBRANCH  17  18
ENDBRANCH  16  17
ENDBRANCH  15  16
ENDBRANCH  14  15
ENDBRANCH  13  14
ENDBRANCH   1  13
TORSDOF 20
ENDMDL
MODEL 7
REMARK VINA RESULT:    -5.061      2.185      6.294
REMARK INTER + INTRA:         -14.012
REMARK INTER:                 -11.098
REMARK INTRA:                  -2.914
REMARK UNBOUND:                -3.035
REMARK SMILES CCCCCCCCCCCCCCCCCCCCCC(=O)[O-]
REMARK SMILES IDX 12 1 11 2 10 3 9 4 8 5 7 6 6 7 5 8 4 9 3 10 2 11 1 12 13 13
REMARK SMILES IDX 14 14 15 15 16 16 17 17 18 18 19 19 20 20 21 21 22 22 23 23
REMARK SMILES IDX 24 24
REMARK H PARENT
REMARK Flexibility Score: inf
ROOT
ATOM      1  C   UNL     1     -20.667  41.664  -5.366  1.00  0.00     0.000 C 
ENDROOT
BRANCH   1   2
ATOM      2  C   UNL     1     -21.328  40.543  -6.185  1.00  0.00     0.000 C 
BRANCH   2   3
ATOM      3  C   UNL     1     -21.519  40.917  -7.666  1.00  0.00     0.000 C 
BRANCH   3   4
ATOM      4  C   UNL     1     -20.522  40.255  -8.637  1.00  0.00    -0.000 C 
BRANCH   4   5
ATOM      5  C   UNL     1     -19.071  40.760  -8.523  1.00  0.00    -0.000 C 
BRANCH   5   6
ATOM      6  C   UNL     1     -18.018  39.630  -8.526  1.00  0.00    -0.000 C 
BRANCH   6   7
ATOM      7  C   UNL     1     -17.524  39.285  -7.110  1.00  0.00    -0.000 C 
BRANCH   7   8
ATOM      8  C   UNL     1     -17.492  40.511  -6.182  1.00  0.00    -0.000 C 
BRANCH   8   9
ATOM      9  C   UNL     1     -17.033  40.160  -4.756  1.00  0.00    -0.000 C 
BRANCH   9  10
ATOM     10  C   UNL     1     -16.036  41.181  -4.178  1.00  0.00    -0.000 C 
BRANCH  10  11
ATOM     11  C   UNL     1     -16.554  42.631  -4.115  1.00  0.00    -0.003 C 
ATOM     12  C   UNL     1     -17.765  42.795  -3.197  1.00  0.00     0.004 C 
ENDBRANCH  10  11
ENDBRANCH   9  10
ENDBRANCH   8   9
ENDBRANCH   7   8
ENDBRANCH   6   7
ENDBRANCH   5   6
ENDBRANCH   4   5
ENDBRANCH   3   4
ENDBRANCH   2   3
ENDBRANCH   1   2
BRANCH   1  13
ATOM     13  C   UNL     1     -20.866  43.053  -5.995  1.00  0.00     0.000 C 
BRANCH  13  14
ATOM     14  C   UNL     1     -19.535  43.783  -6.245  1.00  0.00     0.000 C 
BRANCH  14  15
ATOM     15  C   UNL     1     -19.396  44.269  -7.698  1.00  0.00     0.000 C 
BRANCH  15  16
ATOM     16  C   UNL     1     -19.815  45.736  -7.873  1.00  0.00     0.000 C 
BRANCH  16  17
ATOM     17  C   UNL     1     -21.332  45.898  -7.695  1.00  0.00     0.000 C 
BRANCH  17  18
ATOM     18  C   UNL     1     -22.115  45.584  -8.980  1.00  0.00     0.000 C 
BRANCH  18  19
ATOM     19  C   UNL     1     -22.864  44.241  -8.906  1.00  0.00     0.000 C 
BRANCH  19  20
ATOM     20  C   UNL     1     -24.387  44.407  -9.023  1.00  0.00     0.006 C 
BRANCH  20  21
ATOM     21  C   UNL     1     -24.869  45.777  -8.531  1.00  0.00     0.053 C 
BRANCH  21  22
ATOM     22  C   UNL     1     -25.560  45.645  -7.210  1.00  0.00     0.041 C 
ATOM     23  O   UNL     1     -24.901  45.361  -6.176  1.00  0.00    -0.550 OA
ATOM     24  O   UNL     1     -26.924  45.889  -7.110  1.00  0.00    -0.550 OA
ENDBRANCH  21  22
ENDBRANCH  20  21
ENDBRANCH  19  20
ENDBRANCH  18  19
ENDBRANCH  17  18
ENDBRANCH  16  17
ENDBRANCH  15  16
ENDBRANCH  14  15
ENDBRANCH  13  14
ENDBRANCH   1  13
TORSDOF 20
ENDMDL
MODEL 8
REMARK VINA RESULT:    -4.589      1.965      6.989
REMARK INTER + INTRA:         -12.989
REMARK INTER:                 -10.577
REMARK INTRA:                  -2.412
REMARK UNBOUND:                -3.035
REMARK SMILES CCCCCCCCCCCCCCCCCCCCCC(=O)[O-]
REMARK SMILES IDX 12 1 11 2 10 3 9 4 8 5 7 6 6 7 5 8 4 9 3 10 2 11 1 12 13 13
REMARK SMILES IDX 14 14 15 15 16 16 17 17 18 18 19 19 20 20 21 21 22 22 23 23
REMARK SMILES IDX 24 24
REMARK H PARENT
REMARK Flexibility Score: inf
ROOT
ATOM      1  C   UNL     1     -21.914  41.911  -5.848  1.00  0.00     0.000 C 
ENDROOT
BRANCH   1   2
ATOM      2  C   UNL     1     -21.889  40.461  -6.360  1.00  0.00     0.000 C 
BRANCH   2   3
ATOM      3  C   UNL     1     -21.883  40.370  -7.897  1.00  0.00     0.000 C 
BRANCH   3   4
ATOM      4  C   UNL     1     -20.561  39.873  -8.512  1.00  0.00    -0.000 C 
BRANCH   4   5
ATOM      5  C   UNL     1     -19.561  40.982  -8.890  1.00  0.00    -0.000 C 
BRANCH   5   6
ATOM      6  C   UNL     1     -18.252  40.943  -8.072  1.00  0.00    -0.000 C 
BRANCH   6   7
ATOM      7  C   UNL     1     -18.447  40.315  -6.681  1.00  0.00    -0.000 C 
BRANCH   7   8
ATOM      8  C   UNL     1     -17.118  40.109  -5.936  1.00  0.00    -0.000 C 
BRANCH   8   9
ATOM      9  C   UNL     1     -17.261  40.290  -4.414  1.00  0.00    -0.000 C 
BRANCH   9  10
ATOM     10  C   UNL     1     -16.098  41.086  -3.794  1.00  0.00    -0.000 C 
BRANCH  10  11
ATOM     11  C   UNL     1     -16.354  42.597  -3.639  1.00  0.00    -0.003 C 
ATOM     12  C   UNL     1     -17.815  42.984  -3.873  1.00  0.00     0.004 C 
ENDBRANCH  10  11
ENDBRANCH   9  10
ENDBRANCH   8   9
ENDBRANCH   7   8
ENDBRANCH   6   7
ENDBRANCH   5   6
ENDBRANCH   4   5
ENDBRANCH   3   4
ENDBRANCH   2   3
ENDBRANCH   1   2
BRANCH   1  13
ATOM     13  C   UNL     1     -22.568  42.881  -6.845  1.00  0.00     0.000 C 
BRANCH  13  14
ATOM     14  C   UNL     1     -24.036  43.183  -6.499  1.00  0.00     0.000 C 
BRANCH  14  15
ATOM     15  C   UNL     1     -24.287  44.681  -6.258  1.00  0.00     0.000 C 
BRANCH  15  16
ATOM     16  C   UNL     1     -25.442  45.231  -7.107  1.00  0.00     0.000 C 
BRANCH  16  17
ATOM     17  C   UNL     1     -24.958  45.600  -8.517  1.00  0.00     0.000 C 
BRANCH  17  18
ATOM     18  C   UNL     1     -23.785  46.593  -8.499  1.00  0.00     0.000 C 
BRANCH  18  19
ATOM     19  C   UNL     1     -22.504  46.010  -9.123  1.00  0.00     0.000 C 
BRANCH  19  20
ATOM     20  C   UNL     1     -21.227  46.593  -8.500  1.00  0.00     0.006 C 
BRANCH  20  21
ATOM     21  C   UNL     1     -20.978  46.079  -7.076  1.00  0.00     0.053 C 
BRANCH  21  22
ATOM     22  C   UNL     1     -19.697  45.307  -7.017  1.00  0.00     0.041 C 
ATOM     23  O   UNL     1     -19.484  44.370  -7.830  1.00  0.00    -0.550 OA
ATOM     24  O   UNL     1     -18.716  45.657  -6.098  1.00  0.00    -0.550 OA
ENDBRANCH  21  22
ENDBRANCH  20  21
ENDBRANCH  19  20
ENDBRANCH  18  19
ENDBRANCH  17  18
ENDBRANCH  16  17
ENDBRANCH  15  16
ENDBRANCH  14  15
ENDBRANCH  13  14
ENDBRANCH   1  13
TORSDOF 20
ENDMDL
