MODEL 1
REMARK VINA RESULT:    -4.620      0.000      0.000
REMARK INTER + INTRA:          -5.901
REMARK INTER:                  -5.701
REMARK INTRA:                  -0.201
REMARK UNBOUND:                -0.201
REMARK SMILES CCCCCC(=O)[O-]
REMARK SMILES IDX 4 1 5 2 6 3 7 4 8 5 3 6 2 7 1 8
REMARK H PARENT
REMARK Flexibility Score: inf
ROOT
ATOM      1  C   UNL     1      92.738 122.925 118.603  1.00  0.00     0.006 C 
ENDROOT
BRANCH   1   2
ATOM      2  C   UNL     1      94.188 122.515 118.892  1.00  0.00     0.053 C 
BRANCH   2   3
ATOM      3  C   UNL     1      94.222 121.261 119.708  1.00  0.00     0.041 C 
ATOM      4  O   UNL     1      94.927 120.285 119.340  1.00  0.00    -0.550 OA
ATOM      5  O   UNL     1      93.512 121.188 120.900  1.00  0.00    -0.550 OA
ENDBRANCH   2   3
ENDBRANCH   1   2
BRANCH   1   6
ATOM      6  C   UNL     1      91.988 121.885 117.756  1.00  0.00     0.000 C 
BRANCH   6   7
ATOM      7  C   UNL     1      92.235 122.059 116.250  1.00  0.00    -0.003 C 
ATOM      8  C   UNL     1      92.907 120.824 115.658  1.00  0.00     0.004 C 
ENDBRANCH   6   7
ENDBRANCH   1   6
TORSDOF 4
ENDMDL
MODEL 2
REMARK VINA RESULT:    -4.583      0.070      1.146
REMARK INTER + INTRA:          -5.855
REMARK INTER:                  -5.662
REMARK INTRA:                  -0.193
REMARK UNBOUND:                -0.201
REMARK SMILES CCCCCC(=O)[O-]
REMARK SMILES IDX 4 1 5 2 6 3 7 4 8 5 3 6 2 7 1 8
REMARK H PARENT
REMARK Flexibility Score: inf
ROOT
ATOM      1  C   UNL     1      92.718 122.964 118.607  1.00  0.00     0.006 C 
ENDROOT
BRANCH   1   2
ATOM      2  C   UNL     1      94.170 122.572 118.915  1.00  0.00     0.053 C 
BRANCH   2   3
ATOM      3  C   UNL     1      94.208 121.336 119.757  1.00  0.00     0.041 C 
ATOM      4  O   UNL     1      93.569 121.288 120.842  1.00  0.00    -0.550 OA
ATOM      5  O   UNL     1      94.910 120.219 119.321  1.00  0.00    -0.550 OA
ENDBRANCH   2   3
ENDBRANCH   1   2
BRANCH   1   6
ATOM      6  C   UNL     1      91.980 121.899 117.781  1.00  0.00     0.000 C 
BRANCH   6   7
ATOM      7  C   UNL     1      92.212 122.056 116.271  1.00  0.00    -0.003 C 
ATOM      8  C   UNL     1      92.924 120.837 115.695  1.00  0.00     0.004 C 
ENDBRANCH   6   7
ENDBRANCH   1   6
TORSDOF 4
ENDMDL
MODEL 3
REMARK VINA RESULT:    -4.493      1.536      1.973
REMARK INTER + INTRA:          -5.744
REMARK INTER:                  -5.687
REMARK INTRA:                  -0.058
REMARK UNBOUND:                -0.201
REMARK SMILES CCCCCC(=O)[O-]
REMARK SMILES IDX 4 1 5 2 6 3 7 4 8 5 3 6 2 7 1 8
REMARK H PARENT
REMARK Flexibility Score: inf
ROOT
ATOM      1  C   UNL     1      94.147 122.554 118.878  1.00  0.00     0.006 C 
ENDROOT
BRANCH   1   2
ATOM      2  C   UNL     1      94.628 122.207 120.293  1.00  0.00     0.053 C 
BRANCH   2   3
ATOM      3  C   UNL     1      93.505 122.337 121.272  1.00  0.00     0.041 C 
ATOM      4  O   UNL     1      92.407 121.760 121.057  1.00  0.00    -0.550 OA
ATOM      5  O   UNL     1      93.686 123.058 122.447  1.00  0.00    -0.550 OA
ENDBRANCH   2   3
ENDBRANCH   1   2
BRANCH   1   6
ATOM      6  C   UNL     1      93.851 121.305 118.032  1.00  0.00     0.000 C 
BRANCH   6   7
ATOM      7  C   UNL     1      92.615 121.476 117.137  1.00  0.00    -0.003 C 
ATOM      8  C   UNL     1      92.858 120.895 115.748  1.00  0.00     0.004 C 
ENDBRANCH   6   7
ENDBRANCH   1   6
TORSDOF 4
ENDMDL
MODEL 4
REMARK VINA RESULT:    -4.319      2.513      4.162
REMARK INTER + INTRA:          -5.530
REMARK INTER:                  -5.355
REMARK INTRA:                  -0.175
REMARK UNBOUND:                -0.201
REMARK SMILES CCCCCC(=O)[O-]
REMARK SMILES IDX 4 1 5 2 6 3 7 4 8 5 3 6 2 7 1 8
REMARK H PARENT
REMARK Flexibility Score: inf
ROOT
ATOM      1  C   UNL     1      94.430 122.387 118.839  1.00  0.00     0.006 C 
ENDROOT
BRANCH   1   2
ATOM      2  C   UNL     1      93.106 123.070 118.468  1.00  0.00     0.053 C 
BRANCH   2   3
ATOM      3  C   UNL     1      92.398 122.290 117.406  1.00  0.00     0.041 C 
ATOM      4  O   UNL     1      92.014 122.860 116.351  1.00  0.00    -0.550 OA
ATOM      5  O   UNL     1      92.205 120.922 117.560  1.00  0.00    -0.550 OA
ENDBRANCH   2   3
ENDBRANCH   1   2
BRANCH   1   6
ATOM      6  C   UNL     1      94.597 122.209 120.357  1.00  0.00     0.000 C 
BRANCH   6   7
ATOM      7  C   UNL     1      93.271 121.896 121.065  1.00  0.00    -0.003 C 
ATOM      8  C   UNL     1      93.212 122.561 122.438  1.00  0.00     0.004 C 
ENDBRANCH   6   7
ENDBRANCH   1   6
TORSDOF 4
ENDMDL
MODEL 5
REMARK VINA RESULT:    -4.142      3.005      4.105
REMARK INTER + INTRA:          -5.311
REMARK INTER:                  -5.202
REMARK INTRA:                  -0.109
REMARK UNBOUND:                -0.201
REMARK SMILES CCCCCC(=O)[O-]
REMARK SMILES IDX 4 1 5 2 6 3 7 4 8 5 3 6 2 7 1 8
REMARK H PARENT
REMARK Flexibility Score: inf
ROOT
ATOM      1  C   UNL     1      93.119 122.619 121.150  1.00  0.00     0.006 C 
ENDROOT
BRANCH   1   2
ATOM      2  C   UNL     1      93.079 122.250 122.640  1.00  0.00     0.053 C 
BRANCH   2   3
ATOM      3  C   UNL     1      93.548 123.401 123.473  1.00  0.00     0.041 C 
ATOM      4  O   UNL     1      92.827 124.425 123.603  1.00  0.00    -0.550 OA
ATOM      5  O   UNL     1      94.761 123.323 124.146  1.00  0.00    -0.550 OA
ENDBRANCH   2   3
ENDBRANCH   1   2
BRANCH   1   6
ATOM      6  C   UNL     1      94.440 122.214 120.477  1.00  0.00     0.000 C 
BRANCH   6   7
ATOM      7  C   UNL     1      94.294 122.017 118.961  1.00  0.00    -0.003 C 
ATOM      8  C   UNL     1      93.226 122.943 118.387  1.00  0.00     0.004 C 
ENDBRANCH   6   7
ENDBRANCH   1   6
TORSDOF 4
ENDMDL
MODEL 6
REMARK VINA RESULT:    -4.115      2.829      4.629
REMARK INTER + INTRA:          -5.278
REMARK INTER:                  -5.189
REMARK INTRA:                  -0.089
REMARK UNBOUND:                -0.201
REMARK SMILES CCCCCC(=O)[O-]
REMARK SMILES IDX 4 1 5 2 6 3 7 4 8 5 3 6 2 7 1 8
REMARK H PARENT
REMARK Flexibility Score: inf
ROOT
ATOM      1  C   UNL     1      92.751 121.930 120.733  1.00  0.00     0.006 C 
ENDROOT
BRANCH   1   2
ATOM      2  C   UNL     1      92.803 122.575 119.342  1.00  0.00     0.053 C 
BRANCH   2   3
ATOM      3  C   UNL     1      93.332 121.601 118.337  1.00  0.00     0.041 C 
ATOM      4  O   UNL     1      92.617 121.242 117.364  1.00  0.00    -0.550 OA
ATOM      5  O   UNL     1      94.634 121.127 118.446  1.00  0.00    -0.550 OA
ENDBRANCH   2   3
ENDBRANCH   1   2
BRANCH   1   6
ATOM      6  C   UNL     1      93.712 122.598 121.730  1.00  0.00     0.000 C 
BRANCH   6   7
ATOM      7  C   UNL     1      93.156 122.624 123.161  1.00  0.00    -0.003 C 
ATOM      8  C   UNL     1      93.139 124.045 123.717  1.00  0.00     0.004 C 
ENDBRANCH   6   7
ENDBRANCH   1   6
TORSDOF 4
ENDMDL
MODEL 7
REMARK VINA RESULT:    -4.081      5.935      7.955
REMARK INTER + INTRA:          -5.236
REMARK INTER:                  -5.149
REMARK INTRA:                  -0.087
REMARK UNBOUND:                -0.201
REMARK SMILES CCCCCC(=O)[O-]
REMARK SMILES IDX 4 1 5 2 6 3 7 4 8 5 3 6 2 7 1 8
REMARK H PARENT
REMARK Flexibility Score: inf
ROOT
ATOM      1  C   UNL     1      95.669 123.772 124.705  1.00  0.00     0.006 C 
ENDROOT
BRANCH   1   2
ATOM      2  C   UNL     1      94.369 122.977 124.890  1.00  0.00     0.053 C 
BRANCH   2   3
ATOM      3  C   UNL     1      93.395 123.312 123.806  1.00  0.00     0.041 C 
ATOM      4  O   UNL     1      93.008 124.500 123.646  1.00  0.00    -0.550 OA
ATOM      5  O   UNL     1      92.948 122.321 122.942  1.00  0.00    -0.550 OA
ENDBRANCH   2   3
ENDBRANCH   1   2
BRANCH   1   6
ATOM      6  C   UNL     1      96.657 123.569 125.865  1.00  0.00     0.000 C 
BRANCH   6   7
ATOM      7  C   UNL     1      97.556 124.792 126.097  1.00  0.00    -0.003 C 
ATOM      8  C   UNL     1      97.299 125.869 125.047  1.00  0.00     0.004 C 
ENDBRANCH   6   7
ENDBRANCH   1   6
TORSDOF 4
ENDMDL
MODEL 8
REMARK VINA RESULT:    -4.042      5.902      7.133
REMARK INTER + INTRA:          -5.188
REMARK INTER:                  -5.092
REMARK INTRA:                  -0.095
REMARK UNBOUND:                -0.201
REMARK SMILES CCCCCC(=O)[O-]
REMARK SMILES IDX 4 1 5 2 6 3 7 4 8 5 3 6 2 7 1 8
REMARK H PARENT
REMARK Flexibility Score: inf
ROOT
ATOM      1  C   UNL     1      94.977 123.283 125.046  1.00  0.00     0.006 C 
ENDROOT
BRANCH   1   2
ATOM      2  C   UNL     1      96.360 123.669 124.505  1.00  0.00     0.053 C 
BRANCH   2   3
ATOM      3  C   UNL     1      97.295 123.970 125.633  1.00  0.00     0.041 C 
ATOM      4  O   UNL     1      97.355 125.132 126.115  1.00  0.00    -0.550 OA
ATOM      5  O   UNL     1      98.067 122.955 126.185  1.00  0.00    -0.550 OA
ENDBRANCH   2   3
ENDBRANCH   1   2
BRANCH   1   6
ATOM      6  C   UNL     1      93.832 123.768 124.141  1.00  0.00     0.000 C 
BRANCH   6   7
ATOM      7  C   UNL     1      93.083 122.611 123.465  1.00  0.00    -0.003 C 
ATOM      8  C   UNL     1      93.337 122.596 121.961  1.00  0.00     0.004 C 
ENDBRANCH   6   7
ENDBRANCH   1   6
TORSDOF 4
ENDMDL
MODEL 9
REMARK VINA RESULT:    -3.945      4.407      6.365
REMARK INTER + INTRA:          -5.068
REMARK INTER:                  -4.974
REMARK INTRA:                  -0.094
REMARK UNBOUND:                -0.201
REMARK SMILES CCCCCC(=O)[O-]
REMARK SMILES IDX 4 1 5 2 6 3 7 4 8 5 3 6 2 7 1 8
REMARK H PARENT
REMARK Flexibility Score: inf
ROOT
ATOM      1  C   UNL     1      93.120 123.704 123.614  1.00  0.00     0.006 C 
ENDROOT
BRANCH   1   2
ATOM      2  C   UNL     1      93.072 122.324 122.944  1.00  0.00     0.053 C 
BRANCH   2   3
ATOM      3  C   UNL     1      93.433 122.436 121.496  1.00  0.00     0.041 C 
ATOM      4  O   UNL     1      94.637 122.565 121.151  1.00  0.00    -0.550 OA
ATOM      5  O   UNL     1      92.444 122.348 120.525  1.00  0.00    -0.550 OA
ENDBRANCH   2   3
ENDBRANCH   1   2
BRANCH   1   6
ATOM      6  C   UNL     1      94.490 124.010 124.240  1.00  0.00     0.000 C 
BRANCH   6   7
ATOM      7  C   UNL     1      94.912 122.962 125.280  1.00  0.00    -0.003 C 
ATOM      8  C   UNL     1      96.276 123.299 125.875  1.00  0.00     0.004 C 
ENDBRANCH   6   7
ENDBRANCH   1   6
TORSDOF 4
ENDMDL
