MODEL 1
REMARK VINA RESULT:    -7.194      0.000      0.000
REMARK INTER + INTRA:          -8.952
REMARK INTER:                  -8.666
REMARK INTRA:                  -0.286
REMARK UNBOUND:                -0.286
REMARK SMILES O=c1c(O)c(-c2ccc(O)c(O)c2)oc2cc(O)cc(O)c12
REMARK SMILES IDX 5 1 3 2 2 3 1 4 22 5 20 6 19 7 17 8 16 9 15 10 14 11 6 12
REMARK SMILES IDX 7 13 8 14 9 15 13 16 11 17 10 18 12 20 4 22 21 24 18 26
REMARK H PARENT 10 19 12 21 4 23 21 25 18 27
REMARK Flexibility Score: inf
ROOT
ATOM      1  C   UNL     1      72.247  -2.902  24.468  1.00  0.00     0.180 A 
ATOM      2  C   UNL     1      73.628  -3.144  24.597  1.00  0.00     0.208 A 
ATOM      3  C   UNL     1      74.348  -3.588  23.477  1.00  0.00     0.238 A 
ATOM      4  O   UNL     1      75.587  -3.798  23.578  1.00  0.00    -0.285 OA
ATOM      5  C   UNL     1      73.674  -3.799  22.256  1.00  0.00     0.111 A 
ATOM      6  C   UNL     1      74.324  -4.248  21.081  1.00  0.00     0.134 A 
ATOM      7  C   UNL     1      73.583  -4.445  19.907  1.00  0.00     0.093 A 
ATOM      8  C   UNL     1      72.207  -4.202  19.885  1.00  0.00     0.123 A 
ATOM      9  C   UNL     1      71.560  -3.757  21.042  1.00  0.00     0.094 A 
ATOM     10  C   UNL     1      72.282  -3.555  22.221  1.00  0.00     0.146 A 
ATOM     11  O   UNL     1      71.643  -3.127  23.305  1.00  0.00    -0.452 OA
ENDROOT
BRANCH   1  12
ATOM     12  C   UNL     1      71.424  -2.415  25.598  1.00  0.00     0.025 A 
ATOM     13  C   UNL     1      71.470  -1.073  26.013  1.00  0.00     0.016 A 
ATOM     14  C   UNL     1      70.665  -0.631  27.067  1.00  0.00     0.051 A 
ATOM     15  C   UNL     1      69.797  -1.515  27.713  1.00  0.00     0.157 A 
ATOM     16  C   UNL     1      70.535  -3.296  26.235  1.00  0.00     0.062 A 
ATOM     17  C   UNL     1      69.728  -2.855  27.295  1.00  0.00     0.158 A 
BRANCH  15  18
ATOM     18  O   UNL     1      69.009  -1.046  28.763  1.00  0.00    -0.504 OA
ATOM     19  H   UNL     1      69.401  -0.805  29.665  1.00  0.00     0.293 HD
ENDBRANCH  15  18
BRANCH  17  20
ATOM     20  O   UNL     1      68.858  -3.740  27.929  1.00  0.00    -0.504 OA
ATOM     21  H   UNL     1      68.034  -3.414  28.421  1.00  0.00     0.293 HD
ENDBRANCH  17  20
ENDBRANCH   1  12
BRANCH   2  22
ATOM     22  O   UNL     1      74.262  -2.973  25.831  1.00  0.00    -0.502 OA
ATOM     23  H   UNL     1      73.977  -2.260  26.492  1.00  0.00     0.293 HD
ENDBRANCH   2  22
BRANCH   6  24
ATOM     24  O   UNL     1      75.696  -4.502  21.072  1.00  0.00    -0.507 OA
ATOM     25  H   UNL     1      76.133  -5.048  20.337  1.00  0.00     0.293 HD
ENDBRANCH   6  24
BRANCH   8  26
ATOM     26  O   UNL     1      71.493  -4.405  18.705  1.00  0.00    -0.508 OA
ATOM     27  H   UNL     1      71.324  -5.336  18.343  1.00  0.00     0.293 HD
ENDBRANCH   8  26
TORSDOF 6
ENDMDL
MODEL 2
REMARK VINA RESULT:    -7.113      1.548      6.860
REMARK INTER + INTRA:          -8.854
REMARK INTER:                  -8.523
REMARK INTRA:                  -0.332
REMARK UNBOUND:                -0.286
REMARK SMILES O=c1c(O)c(-c2ccc(O)c(O)c2)oc2cc(O)cc(O)c12
REMARK SMILES IDX 5 1 3 2 2 3 1 4 22 5 20 6 19 7 17 8 16 9 15 10 14 11 6 12
REMARK SMILES IDX 7 13 8 14 9 15 13 16 11 17 10 18 12 20 4 22 21 24 18 26
REMARK H PARENT 10 19 12 21 4 23 21 25 18 27
REMARK Flexibility Score: inf
ROOT
ATOM      1  C   UNL     1      72.261  -2.740  23.364  1.00  0.00     0.180 A 
ATOM      2  C   UNL     1      72.718  -1.426  23.584  1.00  0.00     0.208 A 
ATOM      3  C   UNL     1      72.297  -0.745  24.737  1.00  0.00     0.238 A 
ATOM      4  O   UNL     1      72.708   0.428  24.950  1.00  0.00    -0.285 OA
ATOM      5  C   UNL     1      71.416  -1.379  25.637  1.00  0.00     0.111 A 
ATOM      6  C   UNL     1      70.941  -0.762  26.820  1.00  0.00     0.134 A 
ATOM      7  C   UNL     1      70.057  -1.454  27.661  1.00  0.00     0.093 A 
ATOM      8  C   UNL     1      69.640  -2.749  27.342  1.00  0.00     0.123 A 
ATOM      9  C   UNL     1      70.106  -3.364  26.176  1.00  0.00     0.094 A 
ATOM     10  C   UNL     1      70.988  -2.690  25.326  1.00  0.00     0.146 A 
ATOM     11  O   UNL     1      71.419  -3.300  24.228  1.00  0.00    -0.452 OA
ENDROOT
BRANCH   1  12
ATOM     12  C   UNL     1      72.675  -3.530  22.182  1.00  0.00     0.025 A 
ATOM     13  C   UNL     1      73.837  -4.321  22.200  1.00  0.00     0.016 A 
ATOM     14  C   UNL     1      74.194  -5.077  21.080  1.00  0.00     0.051 A 
ATOM     15  C   UNL     1      73.395  -5.065  19.934  1.00  0.00     0.157 A 
ATOM     16  C   UNL     1      71.863  -3.536  21.037  1.00  0.00     0.062 A 
ATOM     17  C   UNL     1      72.221  -4.293  19.911  1.00  0.00     0.158 A 
BRANCH  15  18
ATOM     18  O   UNL     1      73.779  -5.827  18.832  1.00  0.00    -0.504 OA
ATOM     19  H   UNL     1      73.291  -6.675  18.567  1.00  0.00     0.293 HD
ENDBRANCH  15  18
BRANCH  17  20
ATOM     20  O   UNL     1      71.415  -4.283  18.774  1.00  0.00    -0.504 OA
ATOM     21  H   UNL     1      70.415  -4.442  18.830  1.00  0.00     0.293 HD
ENDBRANCH  17  20
ENDBRANCH   1  12
BRANCH   2  22
ATOM     22  O   UNL     1      73.552  -0.804  22.651  1.00  0.00    -0.502 OA
ATOM     23  H   UNL     1      74.516  -0.571  22.858  1.00  0.00     0.293 HD
ENDBRANCH   2  22
BRANCH   6  24
ATOM     24  O   UNL     1      71.338   0.531  27.164  1.00  0.00    -0.507 OA
ATOM     25  H   UNL     1      71.830   0.725  28.030  1.00  0.00     0.293 HD
ENDBRANCH   6  24
BRANCH   8  26
ATOM     26  O   UNL     1      68.760  -3.415  28.194  1.00  0.00    -0.508 OA
ATOM     27  H   UNL     1      68.198  -4.193  27.871  1.00  0.00     0.293 HD
ENDBRANCH   8  26
TORSDOF 6
ENDMDL
MODEL 3
REMARK VINA RESULT:    -7.041      2.947      4.499
REMARK INTER + INTRA:          -8.768
REMARK INTER:                  -8.786
REMARK INTRA:                   0.019
REMARK UNBOUND:                -0.286
REMARK SMILES O=c1c(O)c(-c2ccc(O)c(O)c2)oc2cc(O)cc(O)c12
REMARK SMILES IDX 5 1 3 2 2 3 1 4 22 5 20 6 19 7 17 8 16 9 15 10 14 11 6 12
REMARK SMILES IDX 7 13 8 14 9 15 13 16 11 17 10 18 12 20 4 22 21 24 18 26
REMARK H PARENT 10 19 12 21 4 23 21 25 18 27
REMARK Flexibility Score: inf
ROOT
ATOM      1  C   UNL     1      73.907  -2.326  24.727  1.00  0.00     0.180 A 
ATOM      2  C   UNL     1      74.514  -3.246  23.851  1.00  0.00     0.208 A 
ATOM      3  C   UNL     1      75.754  -2.922  23.277  1.00  0.00     0.238 A 
ATOM      4  O   UNL     1      76.311  -3.743  22.499  1.00  0.00    -0.285 OA
ATOM      5  C   UNL     1      76.354  -1.681  23.573  1.00  0.00     0.111 A 
ATOM      6  C   UNL     1      77.599  -1.275  23.035  1.00  0.00     0.134 A 
ATOM      7  C   UNL     1      78.127  -0.019  23.369  1.00  0.00     0.093 A 
ATOM      8  C   UNL     1      77.435   0.837  24.229  1.00  0.00     0.123 A 
ATOM      9  C   UNL     1      76.205   0.442  24.764  1.00  0.00     0.094 A 
ATOM     10  C   UNL     1      75.664  -0.806  24.444  1.00  0.00     0.146 A 
ATOM     11  O   UNL     1      74.496  -1.159  24.971  1.00  0.00    -0.452 OA
ENDROOT
BRANCH   1  12
ATOM     12  C   UNL     1      72.611  -2.604  25.386  1.00  0.00     0.025 A 
ATOM     13  C   UNL     1      71.499  -3.053  24.653  1.00  0.00     0.016 A 
ATOM     14  C   UNL     1      70.292  -3.332  25.301  1.00  0.00     0.051 A 
ATOM     15  C   UNL     1      70.180  -3.180  26.686  1.00  0.00     0.157 A 
ATOM     16  C   UNL     1      72.502  -2.472  26.780  1.00  0.00     0.062 A 
ATOM     17  C   UNL     1      71.291  -2.751  27.432  1.00  0.00     0.158 A 
BRANCH  15  18
ATOM     18  O   UNL     1      68.963  -3.464  27.304  1.00  0.00    -0.504 OA
ATOM     19  H   UNL     1      68.858  -4.228  27.961  1.00  0.00     0.293 HD
ENDBRANCH  15  18
BRANCH  17  20
ATOM     20  O   UNL     1      71.190  -2.605  28.814  1.00  0.00    -0.504 OA
ATOM     21  H   UNL     1      71.033  -1.699  29.242  1.00  0.00     0.293 HD
ENDBRANCH  17  20
ENDBRANCH   1  12
BRANCH   2  22
ATOM     22  O   UNL     1      73.874  -4.448  23.537  1.00  0.00    -0.502 OA
ATOM     23  H   UNL     1      73.614  -5.124  24.245  1.00  0.00     0.293 HD
ENDBRANCH   2  22
BRANCH   6  24
ATOM     24  O   UNL     1      78.313  -2.107  22.171  1.00  0.00    -0.507 OA
ATOM     25  H   UNL     1      77.918  -2.970  21.813  1.00  0.00     0.293 HD
ENDBRANCH   6  24
BRANCH   8  26
ATOM     26  O   UNL     1      77.981   2.080  24.545  1.00  0.00    -0.508 OA
ATOM     27  H   UNL     1      78.226   2.748  23.825  1.00  0.00     0.293 HD
ENDBRANCH   8  26
TORSDOF 6
ENDMDL
MODEL 4
REMARK VINA RESULT:    -6.962      3.410      7.681
REMARK INTER + INTRA:          -8.672
REMARK INTER:                  -8.600
REMARK INTRA:                  -0.072
REMARK UNBOUND:                -0.286
REMARK SMILES O=c1c(O)c(-c2ccc(O)c(O)c2)oc2cc(O)cc(O)c12
REMARK SMILES IDX 5 1 3 2 2 3 1 4 22 5 20 6 19 7 17 8 16 9 15 10 14 11 6 12
REMARK SMILES IDX 7 13 8 14 9 15 13 16 11 17 10 18 12 20 4 22 21 24 18 26
REMARK H PARENT 10 19 12 21 4 23 21 25 18 27
REMARK Flexibility Score: inf
ROOT
ATOM      1  C   UNL     1      75.595  -2.147  23.319  1.00  0.00     0.180 A 
ATOM      2  C   UNL     1      74.489  -2.684  22.632  1.00  0.00     0.208 A 
ATOM      3  C   UNL     1      73.318  -2.974  23.351  1.00  0.00     0.238 A 
ATOM      4  O   UNL     1      72.318  -3.445  22.744  1.00  0.00    -0.285 OA
ATOM      5  C   UNL     1      73.280  -2.741  24.741  1.00  0.00     0.111 A 
ATOM      6  C   UNL     1      72.142  -3.010  25.539  1.00  0.00     0.134 A 
ATOM      7  C   UNL     1      72.184  -2.761  26.919  1.00  0.00     0.093 A 
ATOM      8  C   UNL     1      73.341  -2.251  27.514  1.00  0.00     0.123 A 
ATOM      9  C   UNL     1      74.468  -1.983  26.731  1.00  0.00     0.094 A 
ATOM     10  C   UNL     1      74.443  -2.223  25.354  1.00  0.00     0.146 A 
ATOM     11  O   UNL     1      75.526  -1.955  24.632  1.00  0.00    -0.452 OA
ENDROOT
BRANCH   1  12
ATOM     12  C   UNL     1      76.856  -1.798  22.627  1.00  0.00     0.025 A 
ATOM     13  C   UNL     1      77.567  -2.748  21.875  1.00  0.00     0.016 A 
ATOM     14  C   UNL     1      78.743  -2.388  21.211  1.00  0.00     0.051 A 
ATOM     15  C   UNL     1      79.220  -1.076  21.277  1.00  0.00     0.157 A 
ATOM     16  C   UNL     1      77.326  -0.475  22.675  1.00  0.00     0.062 A 
ATOM     17  C   UNL     1      78.507  -0.112  22.010  1.00  0.00     0.158 A 
BRANCH  15  18
ATOM     18  O   UNL     1      80.397  -0.748  20.606  1.00  0.00    -0.504 OA
ATOM     19  H   UNL     1      81.293  -1.141  20.867  1.00  0.00     0.293 HD
ENDBRANCH  15  18
BRANCH  17  20
ATOM     20  O   UNL     1      78.973   1.200  22.074  1.00  0.00    -0.504 OA
ATOM     21  H   UNL     1      79.941   1.410  22.287  1.00  0.00     0.293 HD
ENDBRANCH  17  20
ENDBRANCH   1  12
BRANCH   2  22
ATOM     22  O   UNL     1      74.570  -2.950  21.262  1.00  0.00    -0.502 OA
ATOM     23  H   UNL     1      73.852  -3.464  20.767  1.00  0.00     0.293 HD
ENDBRANCH   2  22
BRANCH   6  24
ATOM     24  O   UNL     1      70.973  -3.521  24.974  1.00  0.00    -0.507 OA
ATOM     25  H   UNL     1      70.144  -2.949  24.854  1.00  0.00     0.293 HD
ENDBRANCH   6  24
BRANCH   8  26
ATOM     26  O   UNL     1      73.358  -2.013  28.888  1.00  0.00    -0.508 OA
ATOM     27  H   UNL     1      73.904  -2.588  29.518  1.00  0.00     0.293 HD
ENDBRANCH   8  26
TORSDOF 6
ENDMDL
MODEL 5
REMARK VINA RESULT:    -6.956      4.416      6.596
REMARK INTER + INTRA:          -8.665
REMARK INTER:                  -8.365
REMARK INTRA:                  -0.300
REMARK UNBOUND:                -0.286
REMARK SMILES O=c1c(O)c(-c2ccc(O)c(O)c2)oc2cc(O)cc(O)c12
REMARK SMILES IDX 5 1 3 2 2 3 1 4 22 5 20 6 19 7 17 8 16 9 15 10 14 11 6 12
REMARK SMILES IDX 7 13 8 14 9 15 13 16 11 17 10 18 12 20 4 22 21 24 18 26
REMARK H PARENT 10 19 12 21 4 23 21 25 18 27
REMARK Flexibility Score: inf
ROOT
ATOM      1  C   UNL     1      74.239  -5.038  18.699  1.00  0.00     0.180 A 
ATOM      2  C   UNL     1      75.549  -4.595  18.966  1.00  0.00     0.208 A 
ATOM      3  C   UNL     1      76.564  -4.881  18.039  1.00  0.00     0.238 A 
ATOM      4  O   UNL     1      77.739  -4.480  18.263  1.00  0.00    -0.285 OA
ATOM      5  C   UNL     1      76.259  -5.617  16.876  1.00  0.00     0.111 A 
ATOM      6  C   UNL     1      77.223  -5.950  15.895  1.00  0.00     0.134 A 
ATOM      7  C   UNL     1      76.843  -6.694  14.768  1.00  0.00     0.093 A 
ATOM      8  C   UNL     1      75.520  -7.112  14.606  1.00  0.00     0.123 A 
ATOM      9  C   UNL     1      74.562  -6.786  15.571  1.00  0.00     0.094 A 
ATOM     10  C   UNL     1      74.922  -6.043  16.699  1.00  0.00     0.146 A 
ATOM     11  O   UNL     1      73.992  -5.742  17.599  1.00  0.00    -0.452 OA
ENDROOT
BRANCH   1  12
ATOM     12  C   UNL     1      73.112  -4.760  19.617  1.00  0.00     0.025 A 
ATOM     13  C   UNL     1      72.486  -3.502  19.648  1.00  0.00     0.016 A 
ATOM     14  C   UNL     1      71.407  -3.270  20.507  1.00  0.00     0.051 A 
ATOM     15  C   UNL     1      70.931  -4.290  21.335  1.00  0.00     0.157 A 
ATOM     16  C   UNL     1      72.617  -5.789  20.435  1.00  0.00     0.062 A 
ATOM     17  C   UNL     1      71.536  -5.558  21.299  1.00  0.00     0.158 A 
BRANCH  15  18
ATOM     18  O   UNL     1      69.855  -4.029  22.183  1.00  0.00    -0.504 OA
ATOM     19  H   UNL     1      69.308  -4.771  22.604  1.00  0.00     0.293 HD
ENDBRANCH  15  18
BRANCH  17  20
ATOM     20  O   UNL     1      71.061  -6.582  22.116  1.00  0.00    -0.504 OA
ATOM     21  H   UNL     1      70.075  -6.674  22.333  1.00  0.00     0.293 HD
ENDBRANCH  17  20
ENDBRANCH   1  12
BRANCH   2  22
ATOM     22  O   UNL     1      75.835  -3.910  20.150  1.00  0.00    -0.502 OA
ATOM     23  H   UNL     1      75.363  -3.050  20.405  1.00  0.00     0.293 HD
ENDBRANCH   2  22
BRANCH   6  24
ATOM     24  O   UNL     1      78.553  -5.549  16.030  1.00  0.00    -0.507 OA
ATOM     25  H   UNL     1      78.983  -4.897  15.383  1.00  0.00     0.293 HD
ENDBRANCH   6  24
BRANCH   8  26
ATOM     26  O   UNL     1      75.168  -7.852  13.478  1.00  0.00    -0.508 OA
ATOM     27  H   UNL     1      75.775  -8.572  13.107  1.00  0.00     0.293 HD
ENDBRANCH   8  26
TORSDOF 6
ENDMDL
MODEL 6
REMARK VINA RESULT:    -6.903      8.577     11.099
REMARK INTER + INTRA:          -8.602
REMARK INTER:                  -8.365
REMARK INTRA:                  -0.236
REMARK UNBOUND:                -0.286
REMARK SMILES O=c1c(O)c(-c2ccc(O)c(O)c2)oc2cc(O)cc(O)c12
REMARK SMILES IDX 5 1 3 2 2 3 1 4 22 5 20 6 19 7 17 8 16 9 15 10 14 11 6 12
REMARK SMILES IDX 7 13 8 14 9 15 13 16 11 17 10 18 12 20 4 22 21 24 18 26
REMARK H PARENT 10 19 12 21 4 23 21 25 18 27
REMARK Flexibility Score: inf
ROOT
ATOM      1  C   UNL     1      76.403  -8.078  17.361  1.00  0.00     0.180 A 
ATOM      2  C   UNL     1      76.578  -7.309  18.528  1.00  0.00     0.208 A 
ATOM      3  C   UNL     1      77.194  -7.898  19.643  1.00  0.00     0.238 A 
ATOM      4  O   UNL     1      77.365  -7.215  20.690  1.00  0.00    -0.285 OA
ATOM      5  C   UNL     1      77.607  -9.244  19.580  1.00  0.00     0.111 A 
ATOM      6  C   UNL     1      78.232  -9.914  20.660  1.00  0.00     0.134 A 
ATOM      7  C   UNL     1      78.605 -11.259  20.524  1.00  0.00     0.093 A 
ATOM      8  C   UNL     1      78.364 -11.947  19.332  1.00  0.00     0.123 A 
ATOM      9  C   UNL     1      77.748 -11.291  18.262  1.00  0.00     0.094 A 
ATOM     10  C   UNL     1      77.370  -9.950  18.378  1.00  0.00     0.146 A 
ATOM     11  O   UNL     1      76.791  -9.349  17.344  1.00  0.00    -0.452 OA
ENDROOT
BRANCH   1  12
ATOM     12  C   UNL     1      75.779  -7.522  16.139  1.00  0.00     0.025 A 
ATOM     13  C   UNL     1      74.474  -7.876  15.757  1.00  0.00     0.016 A 
ATOM     14  C   UNL     1      73.897  -7.320  14.612  1.00  0.00     0.051 A 
ATOM     15  C   UNL     1      74.607  -6.396  13.840  1.00  0.00     0.157 A 
ATOM     16  C   UNL     1      76.482  -6.577  15.373  1.00  0.00     0.062 A 
ATOM     17  C   UNL     1      75.905  -6.019  14.223  1.00  0.00     0.158 A 
BRANCH  15  18
ATOM     18  O   UNL     1      74.006  -5.860  12.702  1.00  0.00    -0.504 OA
ATOM     19  H   UNL     1      74.376  -6.018  11.772  1.00  0.00     0.293 HD
ENDBRANCH  15  18
BRANCH  17  20
ATOM     20  O   UNL     1      76.615  -5.092  13.462  1.00  0.00    -0.504 OA
ATOM     21  H   UNL     1      76.174  -4.255  13.097  1.00  0.00     0.293 HD
ENDBRANCH  17  20
ENDBRANCH   1  12
BRANCH   2  22
ATOM     22  O   UNL     1      76.116  -5.991  18.580  1.00  0.00    -0.502 OA
ATOM     23  H   UNL     1      76.208  -5.353  17.798  1.00  0.00     0.293 HD
ENDBRANCH   2  22
BRANCH   6  24
ATOM     24  O   UNL     1      78.484  -9.255  21.864  1.00  0.00    -0.507 OA
ATOM     25  H   UNL     1      79.078  -8.434  21.909  1.00  0.00     0.293 HD
ENDBRANCH   6  24
BRANCH   8  26
ATOM     26  O   UNL     1      78.743 -13.283  19.222  1.00  0.00    -0.508 OA
ATOM     27  H   UNL     1      79.329 -13.606  18.461  1.00  0.00     0.293 HD
ENDBRANCH   8  26
TORSDOF 6
ENDMDL
MODEL 7
REMARK VINA RESULT:    -6.836      8.973     11.588
REMARK INTER + INTRA:          -8.521
REMARK INTER:                  -8.294
REMARK INTRA:                  -0.227
REMARK UNBOUND:                -0.286
REMARK SMILES O=c1c(O)c(-c2ccc(O)c(O)c2)oc2cc(O)cc(O)c12
REMARK SMILES IDX 5 1 3 2 2 3 1 4 22 5 20 6 19 7 17 8 16 9 15 10 14 11 6 12
REMARK SMILES IDX 7 13 8 14 9 15 13 16 11 17 10 18 12 20 4 22 21 24 18 26
REMARK H PARENT 10 19 12 21 4 23 21 25 18 27
REMARK Flexibility Score: inf
ROOT
ATOM      1  C   UNL     1      76.530  -8.885  16.907  1.00  0.00     0.180 A 
ATOM      2  C   UNL     1      76.832 -10.250  16.735  1.00  0.00     0.208 A 
ATOM      3  C   UNL     1      77.429 -10.952  17.794  1.00  0.00     0.238 A 
ATOM      4  O   UNL     1      77.695 -12.176  17.655  1.00  0.00    -0.285 OA
ATOM      5  C   UNL     1      77.729 -10.277  18.995  1.00  0.00     0.111 A 
ATOM      6  C   UNL     1      78.333 -10.909  20.108  1.00  0.00     0.134 A 
ATOM      7  C   UNL     1      78.609 -10.167  21.266  1.00  0.00     0.093 A 
ATOM      8  C   UNL     1      78.295  -8.807  21.331  1.00  0.00     0.123 A 
ATOM      9  C   UNL     1      77.698  -8.177  20.235  1.00  0.00     0.094 A 
ATOM     10  C   UNL     1      77.413  -8.901  19.073  1.00  0.00     0.146 A 
ATOM     11  O   UNL     1      76.841  -8.279  18.048  1.00  0.00    -0.452 OA
ENDROOT
BRANCH   1  12
ATOM     12  C   UNL     1      75.883  -8.082  15.844  1.00  0.00     0.025 A 
ATOM     13  C   UNL     1      74.551  -8.313  15.460  1.00  0.00     0.016 A 
ATOM     14  C   UNL     1      73.955  -7.525  14.471  1.00  0.00     0.051 A 
ATOM     15  C   UNL     1      74.672  -6.492  13.861  1.00  0.00     0.157 A 
ATOM     16  C   UNL     1      76.594  -7.029  15.245  1.00  0.00     0.062 A 
ATOM     17  C   UNL     1      75.998  -6.239  14.251  1.00  0.00     0.158 A 
BRANCH  15  18
ATOM     18  O   UNL     1      74.051  -5.725  12.876  1.00  0.00    -0.504 OA
ATOM     19  H   UNL     1      74.527  -5.456  12.023  1.00  0.00     0.293 HD
ENDBRANCH  15  18
BRANCH  17  20
ATOM     20  O   UNL     1      76.716  -5.205  13.653  1.00  0.00    -0.504 OA
ATOM     21  H   UNL     1      77.294  -5.364  12.835  1.00  0.00     0.293 HD
ENDBRANCH  17  20
ENDBRANCH   1  12
BRANCH   2  22
ATOM     22  O   UNL     1      76.569 -10.883  15.517  1.00  0.00    -0.502 OA
ATOM     23  H   UNL     1      76.100 -11.779  15.462  1.00  0.00     0.293 HD
ENDBRANCH   2  22
BRANCH   6  24
ATOM     24  O   UNL     1      78.660 -12.266  20.073  1.00  0.00    -0.507 OA
ATOM     25  H   UNL     1      78.058 -12.971  20.484  1.00  0.00     0.293 HD
ENDBRANCH   6  24
BRANCH   8  26
ATOM     26  O   UNL     1      78.581  -8.092  22.493  1.00  0.00    -0.508 OA
ATOM     27  H   UNL     1      79.490  -7.674  22.646  1.00  0.00     0.293 HD
ENDBRANCH   8  26
TORSDOF 6
ENDMDL
MODEL 8
REMARK VINA RESULT:    -6.770      4.308      5.263
REMARK INTER + INTRA:          -8.441
REMARK INTER:                  -8.123
REMARK INTRA:                  -0.318
REMARK UNBOUND:                -0.286
REMARK SMILES O=c1c(O)c(-c2ccc(O)c(O)c2)oc2cc(O)cc(O)c12
REMARK SMILES IDX 5 1 3 2 2 3 1 4 22 5 20 6 19 7 17 8 16 9 15 10 14 11 6 12
REMARK SMILES IDX 7 13 8 14 9 15 13 16 11 17 10 18 12 20 4 22 21 24 18 26
REMARK H PARENT 10 19 12 21 4 23 21 25 18 27
REMARK Flexibility Score: inf
ROOT
ATOM      1  C   UNL     1      75.769  -0.619  24.875  1.00  0.00     0.180 A 
ATOM      2  C   UNL     1      76.261   0.699  24.932  1.00  0.00     0.208 A 
ATOM      3  C   UNL     1      77.203   1.114  23.977  1.00  0.00     0.238 A 
ATOM      4  O   UNL     1      77.643   2.295  24.012  1.00  0.00    -0.285 OA
ATOM      5  C   UNL     1      77.649   0.203  22.999  1.00  0.00     0.111 A 
ATOM      6  C   UNL     1      78.599   0.539  22.004  1.00  0.00     0.134 A 
ATOM      7  C   UNL     1      79.001  -0.426  21.069  1.00  0.00     0.093 A 
ATOM      8  C   UNL     1      78.474  -1.719  21.111  1.00  0.00     0.123 A 
ATOM      9  C   UNL     1      77.535  -2.058  22.091  1.00  0.00     0.094 A 
ATOM     10  C   UNL     1      77.121  -1.108  23.029  1.00  0.00     0.146 A 
ATOM     11  O   UNL     1      76.224  -1.454  23.946  1.00  0.00    -0.452 OA
ENDROOT
BRANCH   1  12
ATOM     12  C   UNL     1      74.760  -1.124  25.833  1.00  0.00     0.025 A 
ATOM     13  C   UNL     1      75.134  -1.640  27.086  1.00  0.00     0.016 A 
ATOM     14  C   UNL     1      74.161  -2.088  27.985  1.00  0.00     0.051 A 
ATOM     15  C   UNL     1      72.805  -2.019  27.653  1.00  0.00     0.157 A 
ATOM     16  C   UNL     1      73.396  -1.035  25.512  1.00  0.00     0.062 A 
ATOM     17  C   UNL     1      72.418  -1.487  26.411  1.00  0.00     0.158 A 
BRANCH  15  18
ATOM     18  O   UNL     1      71.859  -2.476  28.568  1.00  0.00    -0.504 OA
ATOM     19  H   UNL     1      72.123  -2.899  29.450  1.00  0.00     0.293 HD
ENDBRANCH  15  18
BRANCH  17  20
ATOM     20  O   UNL     1      71.068  -1.406  26.077  1.00  0.00    -0.504 OA
ATOM     21  H   UNL     1      70.606  -0.514  25.944  1.00  0.00     0.293 HD
ENDBRANCH  17  20
ENDBRANCH   1  12
BRANCH   2  22
ATOM     22  O   UNL     1      75.838   1.568  25.942  1.00  0.00    -0.502 OA
ATOM     23  H   UNL     1      74.860   1.687  26.179  1.00  0.00     0.293 HD
ENDBRANCH   2  22
BRANCH   6  24
ATOM     24  O   UNL     1      79.146   1.822  21.937  1.00  0.00    -0.507 OA
ATOM     25  H   UNL     1      78.579   2.633  21.715  1.00  0.00     0.293 HD
ENDBRANCH   6  24
BRANCH   8  26
ATOM     26  O   UNL     1      78.891  -2.661  20.172  1.00  0.00    -0.508 OA
ATOM     27  H   UNL     1      79.207  -2.385  19.250  1.00  0.00     0.293 HD
ENDBRANCH   8  26
TORSDOF 6
ENDMDL
MODEL 9
REMARK VINA RESULT:    -6.747      5.748      6.856
REMARK INTER + INTRA:          -8.413
REMARK INTER:                  -8.119
REMARK INTRA:                  -0.294
REMARK UNBOUND:                -0.286
REMARK SMILES O=c1c(O)c(-c2ccc(O)c(O)c2)oc2cc(O)cc(O)c12
REMARK SMILES IDX 5 1 3 2 2 3 1 4 22 5 20 6 19 7 17 8 16 9 15 10 14 11 6 12
REMARK SMILES IDX 7 13 8 14 9 15 13 16 11 17 10 18 12 20 4 22 21 24 18 26
REMARK H PARENT 10 19 12 21 4 23 21 25 18 27
REMARK Flexibility Score: inf
ROOT
ATOM      1  C   UNL     1      75.477  -7.766  22.157  1.00  0.00     0.180 A 
ATOM      2  C   UNL     1      76.553  -7.694  21.250  1.00  0.00     0.208 A 
ATOM      3  C   UNL     1      76.390  -6.968  20.059  1.00  0.00     0.238 A 
ATOM      4  O   UNL     1      77.349  -6.888  19.245  1.00  0.00    -0.285 OA
ATOM      5  C   UNL     1      75.154  -6.346  19.787  1.00  0.00     0.111 A 
ATOM      6  C   UNL     1      74.905  -5.601  18.610  1.00  0.00     0.134 A 
ATOM      7  C   UNL     1      73.646  -5.019  18.406  1.00  0.00     0.093 A 
ATOM      8  C   UNL     1      72.631  -5.170  19.354  1.00  0.00     0.123 A 
ATOM      9  C   UNL     1      72.870  -5.905  20.519  1.00  0.00     0.094 A 
ATOM     10  C   UNL     1      74.120  -6.490  20.741  1.00  0.00     0.146 A 
ATOM     11  O   UNL     1      74.323  -7.179  21.859  1.00  0.00    -0.452 OA
ENDROOT
BRANCH   1  12
ATOM     12  C   UNL     1      75.579  -8.495  23.441  1.00  0.00     0.025 A 
ATOM     13  C   UNL     1      75.082  -9.802  23.583  1.00  0.00     0.016 A 
ATOM     14  C   UNL     1      75.211 -10.480  24.798  1.00  0.00     0.051 A 
ATOM     15  C   UNL     1      75.846  -9.870  25.884  1.00  0.00     0.157 A 
ATOM     16  C   UNL     1      76.235  -7.893  24.527  1.00  0.00     0.062 A 
ATOM     17  C   UNL     1      76.364  -8.571  25.749  1.00  0.00     0.158 A 
BRANCH  15  18
ATOM     18  O   UNL     1      75.958 -10.570  27.085  1.00  0.00    -0.504 OA
ATOM     19  H   UNL     1      76.103 -10.100  27.970  1.00  0.00     0.293 HD
ENDBRANCH  15  18
BRANCH  17  20
ATOM     20  O   UNL     1      77.006  -7.960  26.824  1.00  0.00    -0.504 OA
ATOM     21  H   UNL     1      76.529  -7.796  27.704  1.00  0.00     0.293 HD
ENDBRANCH  17  20
ENDBRANCH   1  12
BRANCH   2  22
ATOM     22  O   UNL     1      77.751  -8.360  21.522  1.00  0.00    -0.502 OA
ATOM     23  H   UNL     1      78.598  -8.190  20.993  1.00  0.00     0.293 HD
ENDBRANCH   2  22
BRANCH   6  24
ATOM     24  O   UNL     1      75.898  -5.434  17.643  1.00  0.00    -0.507 OA
ATOM     25  H   UNL     1      75.672  -5.302  16.663  1.00  0.00     0.293 HD
ENDBRANCH   6  24
BRANCH   8  26
ATOM     26  O   UNL     1      71.387  -4.583  19.128  1.00  0.00    -0.508 OA
ATOM     27  H   UNL     1      70.612  -4.725  19.763  1.00  0.00     0.293 HD
ENDBRANCH   8  26
TORSDOF 6
ENDMDL
