MODEL 1
REMARK VINA RESULT:    -4.477      0.000      0.000
REMARK INTER + INTRA:          -4.477
REMARK INTER:                  -4.477
REMARK INTRA:                   0.000
REMARK UNBOUND:                 0.000
REMARK SMILES c1ccc2ccccc2c1
REMARK SMILES IDX 2 1 1 2 10 3 9 4 8 5 7 6 6 7 5 8 4 9 3 10
REMARK H PARENT
REMARK Flexibility Score: inf
ROOT
ATOM      1  C   UNL     1     217.018 224.560 189.133  1.00  0.00     0.001 A 
ATOM      2  C   UNL     1     216.847 223.181 188.991  1.00  0.00     0.001 A 
ATOM      3  C   UNL     1     216.811 222.355 190.119  1.00  0.00     0.009 A 
ATOM      4  C   UNL     1     216.947 222.908 191.401  1.00  0.00    -0.018 A 
ATOM      5  C   UNL     1     216.913 222.092 192.542  1.00  0.00     0.009 A 
ATOM      6  C   UNL     1     217.049 222.657 193.813  1.00  0.00     0.001 A 
ATOM      7  C   UNL     1     217.221 224.035 193.956  1.00  0.00     0.001 A 
ATOM      8  C   UNL     1     217.257 224.861 192.828  1.00  0.00     0.009 A 
ATOM      9  C   UNL     1     217.121 224.308 191.546  1.00  0.00    -0.018 A 
ATOM     10  C   UNL     1     217.155 225.125 190.405  1.00  0.00     0.009 A 
ENDROOT
TORSDOF 0
ENDMDL
MODEL 2
REMARK VINA RESULT:    -4.408      0.085      3.436
REMARK INTER + INTRA:          -4.408
REMARK INTER:                  -4.408
REMARK INTRA:                   0.000
REMARK UNBOUND:                 0.000
REMARK SMILES c1ccc2ccccc2c1
REMARK SMILES IDX 2 1 1 2 10 3 9 4 8 5 7 6 6 7 5 8 4 9 3 10
REMARK H PARENT
REMARK Flexibility Score: inf
ROOT
ATOM      1  C   UNL     1     217.167 224.046 194.019  1.00  0.00     0.001 A 
ATOM      2  C   UNL     1     216.977 222.670 193.873  1.00  0.00     0.001 A 
ATOM      3  C   UNL     1     216.872 222.104 192.600  1.00  0.00     0.009 A 
ATOM      4  C   UNL     1     216.956 222.916 191.459  1.00  0.00    -0.018 A 
ATOM      5  C   UNL     1     216.851 222.361 190.174  1.00  0.00     0.009 A 
ATOM      6  C   UNL     1     216.937 223.182 189.046  1.00  0.00     0.001 A 
ATOM      7  C   UNL     1     217.126 224.558 189.191  1.00  0.00     0.001 A 
ATOM      8  C   UNL     1     217.232 225.125 190.465  1.00  0.00     0.009 A 
ATOM      9  C   UNL     1     217.148 224.313 191.605  1.00  0.00    -0.018 A 
ATOM     10  C   UNL     1     217.252 224.868 192.890  1.00  0.00     0.009 A 
ENDROOT
TORSDOF 0
ENDMDL
MODEL 3
REMARK VINA RESULT:    -4.406      3.015      4.837
REMARK INTER + INTRA:          -4.406
REMARK INTER:                  -4.406
REMARK INTRA:                   0.000
REMARK UNBOUND:                 0.000
REMARK SMILES c1ccc2ccccc2c1
REMARK SMILES IDX 2 1 1 2 10 3 9 4 8 5 7 6 6 7 5 8 4 9 3 10
REMARK H PARENT
REMARK Flexibility Score: inf
ROOT
ATOM      1  C   UNL     1     216.712 224.545 184.296  1.00  0.00     0.001 A 
ATOM      2  C   UNL     1     216.519 223.168 184.171  1.00  0.00     0.001 A 
ATOM      3  C   UNL     1     216.461 222.358 185.309  1.00  0.00     0.009 A 
ATOM      4  C   UNL     1     216.596 222.926 186.585  1.00  0.00    -0.018 A 
ATOM      5  C   UNL     1     216.540 222.125 187.736  1.00  0.00     0.009 A 
ATOM      6  C   UNL     1     216.677 222.705 189.001  1.00  0.00     0.001 A 
ATOM      7  C   UNL     1     216.869 224.083 189.126  1.00  0.00     0.001 A 
ATOM      8  C   UNL     1     216.927 224.893 187.988  1.00  0.00     0.009 A 
ATOM      9  C   UNL     1     216.792 224.324 186.713  1.00  0.00    -0.018 A 
ATOM     10  C   UNL     1     216.848 225.125 185.561  1.00  0.00     0.009 A 
ENDROOT
TORSDOF 0
ENDMDL
MODEL 4
REMARK VINA RESULT:    -4.390      3.008      5.256
REMARK INTER + INTRA:          -4.390
REMARK INTER:                  -4.390
REMARK INTRA:                   0.000
REMARK UNBOUND:                 0.000
REMARK SMILES c1ccc2ccccc2c1
REMARK SMILES IDX 2 1 1 2 10 3 9 4 8 5 7 6 6 7 5 8 4 9 3 10
REMARK H PARENT
REMARK Flexibility Score: inf
ROOT
ATOM      1  C   UNL     1     216.573 223.167 184.178  1.00  0.00     0.001 A 
ATOM      2  C   UNL     1     216.764 224.545 184.308  1.00  0.00     0.001 A 
ATOM      3  C   UNL     1     216.872 225.125 185.575  1.00  0.00     0.009 A 
ATOM      4  C   UNL     1     216.789 224.325 186.725  1.00  0.00    -0.018 A 
ATOM      5  C   UNL     1     216.896 224.894 188.004  1.00  0.00     0.009 A 
ATOM      6  C   UNL     1     216.812 224.085 189.141  1.00  0.00     0.001 A 
ATOM      7  C   UNL     1     216.620 222.707 189.011  1.00  0.00     0.001 A 
ATOM      8  C   UNL     1     216.512 222.127 187.743  1.00  0.00     0.009 A 
ATOM      9  C   UNL     1     216.595 222.927 186.594  1.00  0.00    -0.018 A 
ATOM     10  C   UNL     1     216.488 222.358 185.315  1.00  0.00     0.009 A 
ENDROOT
TORSDOF 0
ENDMDL
MODEL 5
REMARK VINA RESULT:    -4.389      0.354      4.031
REMARK INTER + INTRA:          -4.389
REMARK INTER:                  -4.389
REMARK INTRA:                   0.000
REMARK UNBOUND:                 0.000
REMARK SMILES c1ccc2ccccc2c1
REMARK SMILES IDX 2 1 1 2 10 3 9 4 8 5 7 6 6 7 5 8 4 9 3 10
REMARK H PARENT
REMARK Flexibility Score: inf
ROOT
ATOM      1  C   UNL     1     217.097 222.701 193.479  1.00  0.00     0.001 A 
ATOM      2  C   UNL     1     217.323 224.075 193.596  1.00  0.00     0.001 A 
ATOM      3  C   UNL     1     217.339 224.886 192.457  1.00  0.00     0.009 A 
ATOM      4  C   UNL     1     217.128 224.323 191.190  1.00  0.00    -0.018 A 
ATOM      5  C   UNL     1     217.142 225.125 190.038  1.00  0.00     0.009 A 
ATOM      6  C   UNL     1     216.930 224.551 188.781  1.00  0.00     0.001 A 
ATOM      7  C   UNL     1     216.704 223.177 188.664  1.00  0.00     0.001 A 
ATOM      8  C   UNL     1     216.688 222.367 189.803  1.00  0.00     0.009 A 
ATOM      9  C   UNL     1     216.899 222.929 191.070  1.00  0.00    -0.018 A 
ATOM     10  C   UNL     1     216.886 222.127 192.222  1.00  0.00     0.009 A 
ENDROOT
TORSDOF 0
ENDMDL
MODEL 6
REMARK VINA RESULT:    -4.382      0.250      2.096
REMARK INTER + INTRA:          -4.382
REMARK INTER:                  -4.382
REMARK INTRA:                   0.000
REMARK UNBOUND:                 0.000
REMARK SMILES c1ccc2ccccc2c1
REMARK SMILES IDX 2 1 1 2 10 3 9 4 8 5 7 6 6 7 5 8 4 9 3 10
REMARK H PARENT
REMARK Flexibility Score: inf
ROOT
ATOM      1  C   UNL     1     216.957 223.166 189.230  1.00  0.00     0.001 A 
ATOM      2  C   UNL     1     217.147 224.544 189.359  1.00  0.00     0.001 A 
ATOM      3  C   UNL     1     217.253 225.125 190.626  1.00  0.00     0.009 A 
ATOM      4  C   UNL     1     217.170 224.326 191.776  1.00  0.00    -0.018 A 
ATOM      5  C   UNL     1     217.274 224.896 193.054  1.00  0.00     0.009 A 
ATOM      6  C   UNL     1     217.189 224.088 194.192  1.00  0.00     0.001 A 
ATOM      7  C   UNL     1     216.999 222.710 194.063  1.00  0.00     0.001 A 
ATOM      8  C   UNL     1     216.893 222.129 192.796  1.00  0.00     0.009 A 
ATOM      9  C   UNL     1     216.976 222.928 191.646  1.00  0.00    -0.018 A 
ATOM     10  C   UNL     1     216.872 222.358 190.367  1.00  0.00     0.009 A 
ENDROOT
TORSDOF 0
ENDMDL
MODEL 7
REMARK VINA RESULT:    -4.348      2.546      5.447
REMARK INTER + INTRA:          -4.348
REMARK INTER:                  -4.348
REMARK INTRA:                   0.000
REMARK UNBOUND:                 0.000
REMARK SMILES c1ccc2ccccc2c1
REMARK SMILES IDX 2 1 1 2 10 3 9 4 8 5 7 6 6 7 5 8 4 9 3 10
REMARK H PARENT
REMARK Flexibility Score: inf
ROOT
ATOM      1  C   UNL     1     217.036 224.310 189.690  1.00  0.00     0.001 A 
ATOM      2  C   UNL     1     216.849 222.927 189.659  1.00  0.00     0.001 A 
ATOM      3  C   UNL     1     216.665 222.268 188.440  1.00  0.00     0.009 A 
ATOM      4  C   UNL     1     216.668 222.994 187.240  1.00  0.00    -0.018 A 
ATOM      5  C   UNL     1     216.485 222.345 186.008  1.00  0.00     0.009 A 
ATOM      6  C   UNL     1     216.490 223.081 184.820  1.00  0.00     0.001 A 
ATOM      7  C   UNL     1     216.678 224.465 184.851  1.00  0.00     0.001 A 
ATOM      8  C   UNL     1     216.862 225.124 186.070  1.00  0.00     0.009 A 
ATOM      9  C   UNL     1     216.858 224.398 187.270  1.00  0.00    -0.018 A 
ATOM     10  C   UNL     1     217.042 225.047 188.502  1.00  0.00     0.009 A 
ENDROOT
TORSDOF 0
ENDMDL
MODEL 8
REMARK VINA RESULT:    -4.343      2.334      5.621
REMARK INTER + INTRA:          -4.343
REMARK INTER:                  -4.343
REMARK INTRA:                   0.000
REMARK UNBOUND:                 0.000
REMARK SMILES c1ccc2ccccc2c1
REMARK SMILES IDX 2 1 1 2 10 3 9 4 8 5 7 6 6 7 5 8 4 9 3 10
REMARK H PARENT
REMARK Flexibility Score: inf
ROOT
ATOM      1  C   UNL     1     216.878 223.006 189.967  1.00  0.00     0.001 A 
ATOM      2  C   UNL     1     217.062 224.391 189.965  1.00  0.00     0.001 A 
ATOM      3  C   UNL     1     217.063 225.100 188.760  1.00  0.00     0.009 A 
ATOM      4  C   UNL     1     216.878 224.423 187.546  1.00  0.00    -0.018 A 
ATOM      5  C   UNL     1     216.877 225.122 186.328  1.00  0.00     0.009 A 
ATOM      6  C   UNL     1     216.692 224.435 185.125  1.00  0.00     0.001 A 
ATOM      7  C   UNL     1     216.508 223.051 185.127  1.00  0.00     0.001 A 
ATOM      8  C   UNL     1     216.507 222.342 186.332  1.00  0.00     0.009 A 
ATOM      9  C   UNL     1     216.692 223.018 187.546  1.00  0.00    -0.018 A 
ATOM     10  C   UNL     1     216.693 222.319 188.764  1.00  0.00     0.009 A 
ENDROOT
TORSDOF 0
ENDMDL
MODEL 9
REMARK VINA RESULT:    -4.221      1.109      2.854
REMARK INTER + INTRA:          -4.221
REMARK INTER:                  -4.221
REMARK INTRA:                   0.000
REMARK UNBOUND:                 0.000
REMARK SMILES c1ccc2ccccc2c1
REMARK SMILES IDX 2 1 1 2 10 3 9 4 8 5 7 6 6 7 5 8 4 9 3 10
REMARK H PARENT
REMARK Flexibility Score: inf
ROOT
ATOM      1  C   UNL     1     216.691 222.703 187.202  1.00  0.00     0.001 A 
ATOM      2  C   UNL     1     216.848 224.084 187.061  1.00  0.00     0.001 A 
ATOM      3  C   UNL     1     217.010 224.894 188.189  1.00  0.00     0.009 A 
ATOM      4  C   UNL     1     217.015 224.324 189.470  1.00  0.00    -0.018 A 
ATOM      5  C   UNL     1     217.177 225.125 190.612  1.00  0.00     0.009 A 
ATOM      6  C   UNL     1     217.181 224.543 191.883  1.00  0.00     0.001 A 
ATOM      7  C   UNL     1     217.024 223.162 192.024  1.00  0.00     0.001 A 
ATOM      8  C   UNL     1     216.862 222.352 190.896  1.00  0.00     0.009 A 
ATOM      9  C   UNL     1     216.856 222.922 189.615  1.00  0.00    -0.018 A 
ATOM     10  C   UNL     1     216.695 222.121 188.474  1.00  0.00     0.009 A 
ENDROOT
TORSDOF 0
ENDMDL
