MODEL 1
REMARK VINA RESULT:    -6.638      0.000      0.000
REMARK INTER + INTRA:          -9.394
REMARK INTER:                  -8.966
REMARK INTRA:                  -0.428
REMARK UNBOUND:                -0.428
REMARK SMILES C[C@H]1O[C@H](Oc2cc(O)c3c(=O)c(O)c(-c4ccc(O)cc4)oc3c2)[C@H](O)[C@@H](O)[C@@H]1O
REMARK SMILES IDX 6 1 7 2 8 3 10 4 24 5 25 6 23 7 15 8 13 9 11 10 12 11 5 12
REMARK SMILES IDX 4 13 1 14 2 15 30 16 3 17 28 18 26 19 31 20 29 22 27 24 9 26
REMARK SMILES IDX 16 28 17 29 22 30 18 31 21 32 19 33 20 34 14 36
REMARK H PARENT 31 21 29 23 27 25 9 27 20 35 14 37
REMARK Flexibility Score: inf
ROOT
ATOM      1  C   UNL     1      17.284  43.825  75.291  1.00  0.00     0.130 A 
ATOM      2  C   UNL     1      18.238  44.745  75.761  1.00  0.00     0.093 A 
ATOM      3  C   UNL     1      18.005  46.126  75.678  1.00  0.00     0.134 A 
ATOM      4  C   UNL     1      16.799  46.603  75.114  1.00  0.00     0.111 A 
ATOM      5  C   UNL     1      15.848  45.672  74.638  1.00  0.00     0.146 A 
ATOM      6  C   UNL     1      16.096  44.300  74.731  1.00  0.00     0.094 A 
ATOM      7  O   UNL     1      14.708  46.086  74.097  1.00  0.00    -0.452 OA
ATOM      8  C   UNL     1      14.386  47.370  73.963  1.00  0.00     0.180 A 
ATOM      9  C   UNL     1      15.266  48.363  74.433  1.00  0.00     0.208 A 
ATOM     10  C   UNL     1      16.487  47.973  75.004  1.00  0.00     0.238 A 
ATOM     11  O   UNL     1      17.288  48.856  75.418  1.00  0.00    -0.285 OA
ENDROOT
BRANCH   1  12
ATOM     12  O   UNL     1      17.473  42.436  75.363  1.00  0.00    -0.462 OA
BRANCH  12  13
ATOM     13  C   UNL     1      18.727  41.788  75.600  1.00  0.00     0.339 C 
ATOM     14  C   UNL     1      18.942  42.173  79.251  1.00  0.00     0.042 C 
ATOM     15  C   UNL     1      18.371  41.685  77.919  1.00  0.00     0.151 C 
ATOM     16  C   UNL     1      18.224  40.147  77.917  1.00  0.00     0.174 C 
ATOM     17  O   UNL     1      19.243  42.111  76.884  1.00  0.00    -0.335 OA
ATOM     18  C   UNL     1      17.714  39.677  76.543  1.00  0.00     0.180 C 
ATOM     19  C   UNL     1      18.593  40.266  75.427  1.00  0.00     0.214 C 
BRANCH  16  20
ATOM     20  O   UNL     1      17.315  39.761  78.917  1.00  0.00    -0.388 OA
ATOM     21  H   UNL     1      17.827  39.233  79.585  1.00  0.00     0.211 HD
ENDBRANCH  16  20
BRANCH  18  22
ATOM     22  O   UNL     1      17.753  38.274  76.470  1.00  0.00    -0.387 OA
ATOM     23  H   UNL     1      18.676  37.998  76.709  1.00  0.00     0.211 HD
ENDBRANCH  18  22
BRANCH  19  24
ATOM     24  O   UNL     1      18.034  39.988  74.169  1.00  0.00    -0.384 OA
ATOM     25  H   UNL     1      18.692  40.287  73.488  1.00  0.00     0.211 HD
ENDBRANCH  19  24
ENDBRANCH  12  13
ENDBRANCH   1  12
BRANCH   3  26
ATOM     26  O   UNL     1      18.972  47.011  76.157  1.00  0.00    -0.507 OA
ATOM     27  H   UNL     1      19.808  46.685  76.626  1.00  0.00     0.293 HD
ENDBRANCH   3  26
BRANCH   8  28
ATOM     28  C   UNL     1      13.089  47.701  73.332  1.00  0.00     0.021 A 
ATOM     29  C   UNL     1      11.902  47.544  74.067  1.00  0.00     0.016 A 
ATOM     30  C   UNL     1      13.010  48.116  71.989  1.00  0.00     0.016 A 
ATOM     31  C   UNL     1      10.664  47.831  73.484  1.00  0.00     0.047 A 
ATOM     32  C   UNL     1      11.771  48.400  71.408  1.00  0.00     0.047 A 
ATOM     33  C   UNL     1      10.595  48.261  72.156  1.00  0.00     0.115 A 
BRANCH  33  34
ATOM     34  O   UNL     1       9.354  48.543  71.587  1.00  0.00    -0.508 OA
ATOM     35  H   UNL     1       8.637  49.043  72.102  1.00  0.00     0.293 HD
ENDBRANCH  33  34
ENDBRANCH   8  28
BRANCH   9  36
ATOM     36  O   UNL     1      14.912  49.713  74.357  1.00  0.00    -0.502 OA
ATOM     37  H   UNL     1      13.977  50.042  74.567  1.00  0.00     0.293 HD
ENDBRANCH   9  36
TORSDOF 9
ENDMDL
MODEL 2
REMARK VINA RESULT:    -5.755      5.124      6.905
REMARK INTER + INTRA:          -8.202
REMARK INTER:                  -7.425
REMARK INTRA:                  -0.778
REMARK UNBOUND:                -0.428
REMARK SMILES C[C@H]1O[C@H](Oc2cc(O)c3c(=O)c(O)c(-c4ccc(O)cc4)oc3c2)[C@H](O)[C@@H](O)[C@@H]1O
REMARK SMILES IDX 6 1 7 2 8 3 10 4 24 5 25 6 23 7 15 8 13 9 11 10 12 11 5 12
REMARK SMILES IDX 4 13 1 14 2 15 30 16 3 17 28 18 26 19 31 20 29 22 27 24 9 26
REMARK SMILES IDX 16 28 17 29 22 30 18 31 21 32 19 33 20 34 14 36
REMARK H PARENT 31 21 29 23 27 25 9 27 20 35 14 37
REMARK Flexibility Score: inf
ROOT
ATOM      1  C   UNL     1      19.567  42.095  77.014  1.00  0.00     0.130 A 
ATOM      2  C   UNL     1      19.657  42.718  75.757  1.00  0.00     0.093 A 
ATOM      3  C   UNL     1      19.597  44.115  75.641  1.00  0.00     0.134 A 
ATOM      4  C   UNL     1      19.442  44.910  76.801  1.00  0.00     0.111 A 
ATOM      5  C   UNL     1      19.347  44.277  78.061  1.00  0.00     0.146 A 
ATOM      6  C   UNL     1      19.411  42.884  78.156  1.00  0.00     0.094 A 
ATOM      7  O   UNL     1      19.196  44.993  79.168  1.00  0.00    -0.452 OA
ATOM      8  C   UNL     1      19.121  46.322  79.175  1.00  0.00     0.180 A 
ATOM      9  C   UNL     1      19.232  47.034  77.966  1.00  0.00     0.208 A 
ATOM     10  C   UNL     1      19.383  46.318  76.768  1.00  0.00     0.238 A 
ATOM     11  O   UNL     1      19.472  46.946  75.678  1.00  0.00    -0.285 OA
ENDROOT
BRANCH   1  12
ATOM     12  O   UNL     1      19.631  40.703  77.176  1.00  0.00    -0.462 OA
BRANCH  12  13
ATOM     13  C   UNL     1      18.542  39.872  77.590  1.00  0.00     0.339 C 
ATOM     14  C   UNL     1      16.937  39.285  74.333  1.00  0.00     0.042 C 
ATOM     15  C   UNL     1      18.042  39.223  75.389  1.00  0.00     0.151 C 
ATOM     16  C   UNL     1      18.497  37.766  75.621  1.00  0.00     0.174 C 
ATOM     17  O   UNL     1      17.539  39.793  76.587  1.00  0.00    -0.335 OA
ATOM     18  C   UNL     1      19.559  37.726  76.735  1.00  0.00     0.180 C 
ATOM     19  C   UNL     1      19.044  38.471  77.977  1.00  0.00     0.214 C 
BRANCH  16  20
ATOM     20  O   UNL     1      19.038  37.248  74.432  1.00  0.00    -0.388 OA
ATOM     21  H   UNL     1      19.935  37.659  74.318  1.00  0.00     0.211 HD
ENDBRANCH  16  20
BRANCH  18  22
ATOM     22  O   UNL     1      19.842  36.393  77.080  1.00  0.00    -0.387 OA
ATOM     23  H   UNL     1      20.240  35.965  76.279  1.00  0.00     0.211 HD
ENDBRANCH  18  22
BRANCH  19  24
ATOM     24  O   UNL     1      20.067  38.591  78.931  1.00  0.00    -0.384 OA
ATOM     25  H   UNL     1      20.218  37.685  79.309  1.00  0.00     0.211 HD
ENDBRANCH  19  24
ENDBRANCH  12  13
ENDBRANCH   1  12
BRANCH   3  26
ATOM     26  O   UNL     1      19.691  44.699  74.378  1.00  0.00    -0.507 OA
ATOM     27  H   UNL     1      20.581  44.985  73.987  1.00  0.00     0.293 HD
ENDBRANCH   3  26
BRANCH   8  28
ATOM     28  C   UNL     1      18.940  47.003  80.477  1.00  0.00     0.021 A 
ATOM     29  C   UNL     1      17.645  47.337  80.908  1.00  0.00     0.016 A 
ATOM     30  C   UNL     1      20.041  47.378  81.270  1.00  0.00     0.016 A 
ATOM     31  C   UNL     1      17.451  47.999  82.123  1.00  0.00     0.047 A 
ATOM     32  C   UNL     1      19.844  48.042  82.484  1.00  0.00     0.047 A 
ATOM     33  C   UNL     1      18.548  48.351  82.915  1.00  0.00     0.115 A 
BRANCH  33  34
ATOM     34  O   UNL     1      18.340  49.012  84.125  1.00  0.00    -0.508 OA
ATOM     35  H   UNL     1      18.609  49.981  84.252  1.00  0.00     0.293 HD
ENDBRANCH  33  34
ENDBRANCH   8  28
BRANCH   9  36
ATOM     36  O   UNL     1      19.219  48.431  77.966  1.00  0.00    -0.502 OA
ATOM     37  H   UNL     1      19.271  48.975  77.113  1.00  0.00     0.293 HD
ENDBRANCH   9  36
TORSDOF 9
ENDMDL
MODEL 3
REMARK VINA RESULT:    -5.703      1.285      2.423
REMARK INTER + INTRA:          -8.132
REMARK INTER:                  -7.521
REMARK INTRA:                  -0.611
REMARK UNBOUND:                -0.428
REMARK SMILES C[C@H]1O[C@H](Oc2cc(O)c3c(=O)c(O)c(-c4ccc(O)cc4)oc3c2)[C@H](O)[C@@H](O)[C@@H]1O
REMARK SMILES IDX 6 1 7 2 8 3 10 4 24 5 25 6 23 7 15 8 13 9 11 10 12 11 5 12
REMARK SMILES IDX 4 13 1 14 2 15 30 16 3 17 28 18 26 19 31 20 29 22 27 24 9 26
REMARK SMILES IDX 16 28 17 29 22 30 18 31 21 32 19 33 20 34 14 36
REMARK H PARENT 31 21 29 23 27 25 9 27 20 35 14 37
REMARK Flexibility Score: inf
ROOT
ATOM      1  C   UNL     1      18.410  43.713  75.910  1.00  0.00     0.130 A 
ATOM      2  C   UNL     1      19.386  44.678  76.218  1.00  0.00     0.093 A 
ATOM      3  C   UNL     1      19.136  46.043  76.012  1.00  0.00     0.134 A 
ATOM      4  C   UNL     1      17.890  46.458  75.486  1.00  0.00     0.111 A 
ATOM      5  C   UNL     1      16.917  45.481  75.173  1.00  0.00     0.146 A 
ATOM      6  C   UNL     1      17.183  44.127  75.388  1.00  0.00     0.094 A 
ATOM      7  O   UNL     1      15.739  45.836  74.673  1.00  0.00    -0.452 OA
ATOM      8  C   UNL     1      15.397  47.099  74.432  1.00  0.00     0.180 A 
ATOM      9  C   UNL     1      16.298  48.137  74.737  1.00  0.00     0.208 A 
ATOM     10  C   UNL     1      17.559  47.810  75.259  1.00  0.00     0.238 A 
ATOM     11  O   UNL     1      18.378  48.731  75.525  1.00  0.00    -0.285 OA
ENDROOT
BRANCH   1  12
ATOM     12  O   UNL     1      18.616  42.339  76.109  1.00  0.00    -0.462 OA
BRANCH  12  13
ATOM     13  C   UNL     1      17.650  41.433  76.651  1.00  0.00     0.339 C 
ATOM     14  C   UNL     1      17.643  38.879  74.005  1.00  0.00     0.042 C 
ATOM     15  C   UNL     1      18.220  39.731  75.136  1.00  0.00     0.151 C 
ATOM     16  C   UNL     1      18.835  38.837  76.236  1.00  0.00     0.174 C 
ATOM     17  O   UNL     1      17.173  40.531  75.662  1.00  0.00    -0.335 OA
ATOM     18  C   UNL     1      19.345  39.716  77.393  1.00  0.00     0.180 C 
ATOM     19  C   UNL     1      18.234  40.673  77.854  1.00  0.00     0.214 C 
BRANCH  16  20
ATOM     20  O   UNL     1      19.901  38.097  75.698  1.00  0.00    -0.388 OA
ATOM     21  H   UNL     1      19.503  37.391  75.124  1.00  0.00     0.211 HD
ENDBRANCH  16  20
BRANCH  18  22
ATOM     22  O   UNL     1      19.735  38.907  78.474  1.00  0.00    -0.387 OA
ATOM     23  H   UNL     1      19.429  37.985  78.270  1.00  0.00     0.211 HD
ENDBRANCH  18  22
BRANCH  19  24
ATOM     24  O   UNL     1      18.740  41.594  78.785  1.00  0.00    -0.384 OA
ATOM     25  H   UNL     1      19.378  41.100  79.363  1.00  0.00     0.211 HD
ENDBRANCH  19  24
ENDBRANCH  12  13
ENDBRANCH   1  12
BRANCH   3  26
ATOM     26  O   UNL     1      20.125  46.974  76.330  1.00  0.00    -0.507 OA
ATOM     27  H   UNL     1      19.906  47.850  76.789  1.00  0.00     0.293 HD
ENDBRANCH   3  26
BRANCH   8  28
ATOM     28  C   UNL     1      14.057  47.362  73.860  1.00  0.00     0.021 A 
ATOM     29  C   UNL     1      13.951  47.936  72.582  1.00  0.00     0.016 A 
ATOM     30  C   UNL     1      12.883  47.104  74.593  1.00  0.00     0.016 A 
ATOM     31  C   UNL     1      12.696  48.213  72.032  1.00  0.00     0.047 A 
ATOM     32  C   UNL     1      11.629  47.383  74.039  1.00  0.00     0.047 A 
ATOM     33  C   UNL     1      11.533  47.935  72.756  1.00  0.00     0.115 A 
BRANCH  33  34
ATOM     34  O   UNL     1      10.289  48.216  72.195  1.00  0.00    -0.508 OA
ATOM     35  H   UNL     1      10.149  49.021  71.593  1.00  0.00     0.293 HD
ENDBRANCH  33  34
ENDBRANCH   8  28
BRANCH   9  36
ATOM     36  O   UNL     1      15.928  49.471  74.549  1.00  0.00    -0.502 OA
ATOM     37  H   UNL     1      14.980  49.797  74.694  1.00  0.00     0.293 HD
ENDBRANCH   9  36
TORSDOF 9
ENDMDL
MODEL 4
REMARK VINA RESULT:    -5.685      1.530      8.884
REMARK INTER + INTRA:          -8.107
REMARK INTER:                  -7.816
REMARK INTRA:                  -0.291
REMARK UNBOUND:                -0.428
REMARK SMILES C[C@H]1O[C@H](Oc2cc(O)c3c(=O)c(O)c(-c4ccc(O)cc4)oc3c2)[C@H](O)[C@@H](O)[C@@H]1O
REMARK SMILES IDX 6 1 7 2 8 3 10 4 24 5 25 6 23 7 15 8 13 9 11 10 12 11 5 12
REMARK SMILES IDX 4 13 1 14 2 15 30 16 3 17 28 18 26 19 31 20 29 22 27 24 9 26
REMARK SMILES IDX 16 28 17 29 22 30 18 31 21 32 19 33 20 34 14 36
REMARK H PARENT 31 21 29 23 27 25 9 27 20 35 14 37
REMARK Flexibility Score: inf
ROOT
ATOM      1  C   UNL     1      14.755  46.296  74.521  1.00  0.00     0.130 A 
ATOM      2  C   UNL     1      15.767  47.249  74.733  1.00  0.00     0.093 A 
ATOM      3  C   UNL     1      17.064  46.852  75.090  1.00  0.00     0.134 A 
ATOM      4  C   UNL     1      17.362  45.478  75.242  1.00  0.00     0.111 A 
ATOM      5  C   UNL     1      16.338  44.526  75.033  1.00  0.00     0.146 A 
ATOM      6  C   UNL     1      15.052  44.940  74.676  1.00  0.00     0.094 A 
ATOM      7  O   UNL     1      16.582  43.228  75.173  1.00  0.00    -0.452 OA
ATOM      8  C   UNL     1      17.772  42.741  75.513  1.00  0.00     0.180 A 
ATOM      9  C   UNL     1      18.855  43.618  75.716  1.00  0.00     0.208 A 
ATOM     10  C   UNL     1      18.642  44.999  75.588  1.00  0.00     0.238 A 
ATOM     11  O   UNL     1      19.602  45.794  75.779  1.00  0.00    -0.285 OA
ENDROOT
BRANCH   1  12
ATOM     12  O   UNL     1      13.447  46.650  74.156  1.00  0.00    -0.462 OA
BRANCH  12  13
ATOM     13  C   UNL     1      12.790  47.866  74.525  1.00  0.00     0.339 C 
ATOM     14  C   UNL     1      14.063  50.086  71.884  1.00  0.00     0.042 C 
ATOM     15  C   UNL     1      13.299  48.904  72.481  1.00  0.00     0.151 C 
ATOM     16  C   UNL     1      11.825  48.915  72.019  1.00  0.00     0.174 C 
ATOM     17  O   UNL     1      13.386  48.991  73.894  1.00  0.00    -0.335 OA
ATOM     18  C   UNL     1      11.063  47.756  72.687  1.00  0.00     0.180 C 
ATOM     19  C   UNL     1      11.287  47.790  74.208  1.00  0.00     0.214 C 
BRANCH  16  20
ATOM     20  O   UNL     1      11.770  48.774  70.622  1.00  0.00    -0.388 OA
ATOM     21  H   UNL     1      11.353  49.602  70.264  1.00  0.00     0.211 HD
ENDBRANCH  16  20
BRANCH  18  22
ATOM     22  O   UNL     1       9.688  47.869  72.421  1.00  0.00    -0.387 OA
ATOM     23  H   UNL     1       9.598  48.100  71.460  1.00  0.00     0.211 HD
ENDBRANCH  18  22
BRANCH  19  24
ATOM     24  O   UNL     1      10.744  46.641  74.806  1.00  0.00    -0.384 OA
ATOM     25  H   UNL     1      10.842  46.752  75.787  1.00  0.00     0.211 HD
ENDBRANCH  19  24
ENDBRANCH  12  13
ENDBRANCH   1  12
BRANCH   3  26
ATOM     26  O   UNL     1      18.045  47.825  75.290  1.00  0.00    -0.507 OA
ATOM     27  H   UNL     1      18.759  48.014  74.596  1.00  0.00     0.293 HD
ENDBRANCH   3  26
BRANCH   8  28
ATOM     28  C   UNL     1      17.912  41.273  75.648  1.00  0.00     0.021 A 
ATOM     29  C   UNL     1      18.296  40.726  76.884  1.00  0.00     0.016 A 
ATOM     30  C   UNL     1      17.725  40.413  74.550  1.00  0.00     0.016 A 
ATOM     31  C   UNL     1      18.454  39.345  77.029  1.00  0.00     0.047 A 
ATOM     32  C   UNL     1      17.885  39.032  74.698  1.00  0.00     0.047 A 
ATOM     33  C   UNL     1      18.248  38.494  75.940  1.00  0.00     0.115 A 
BRANCH  33  34
ATOM     34  O   UNL     1      18.409  37.119  76.099  1.00  0.00    -0.508 OA
ATOM     35  H   UNL     1      18.000  36.459  75.447  1.00  0.00     0.293 HD
ENDBRANCH  33  34
ENDBRANCH   8  28
BRANCH   9  36
ATOM     36  O   UNL     1      20.125  43.115  76.011  1.00  0.00    -0.502 OA
ATOM     37  H   UNL     1      20.850  43.027  75.309  1.00  0.00     0.293 HD
ENDBRANCH   9  36
TORSDOF 9
ENDMDL
MODEL 5
REMARK VINA RESULT:    -5.667      2.050      2.378
REMARK INTER + INTRA:          -8.083
REMARK INTER:                  -8.251
REMARK INTRA:                   0.168
REMARK UNBOUND:                -0.428
REMARK SMILES C[C@H]1O[C@H](Oc2cc(O)c3c(=O)c(O)c(-c4ccc(O)cc4)oc3c2)[C@H](O)[C@@H](O)[C@@H]1O
REMARK SMILES IDX 6 1 7 2 8 3 10 4 24 5 25 6 23 7 15 8 13 9 11 10 12 11 5 12
REMARK SMILES IDX 4 13 1 14 2 15 30 16 3 17 28 18 26 19 31 20 29 22 27 24 9 26
REMARK SMILES IDX 16 28 17 29 22 30 18 31 21 32 19 33 20 34 14 36
REMARK H PARENT 31 21 29 23 27 25 9 27 20 35 14 37
REMARK Flexibility Score: inf
ROOT
ATOM      1  C   UNL     1      17.948  42.489  74.579  1.00  0.00     0.130 A 
ATOM      2  C   UNL     1      18.843  43.296  73.854  1.00  0.00     0.093 A 
ATOM      3  C   UNL     1      18.487  44.596  73.469  1.00  0.00     0.134 A 
ATOM      4  C   UNL     1      17.212  45.106  73.809  1.00  0.00     0.111 A 
ATOM      5  C   UNL     1      16.316  44.287  74.532  1.00  0.00     0.146 A 
ATOM      6  C   UNL     1      16.689  42.995  74.910  1.00  0.00     0.094 A 
ATOM      7  O   UNL     1      15.109  44.732  74.863  1.00  0.00    -0.452 OA
ATOM      8  C   UNL     1      14.665  45.946  74.544  1.00  0.00     0.180 A 
ATOM      9  C   UNL     1      15.503  46.836  73.845  1.00  0.00     0.208 A 
ATOM     10  C   UNL     1      16.784  46.405  73.466  1.00  0.00     0.238 A 
ATOM     11  O   UNL     1      17.539  47.190  72.830  1.00  0.00    -0.285 OA
ENDROOT
BRANCH   1  12
ATOM     12  O   UNL     1      18.267  41.186  74.991  1.00  0.00    -0.462 OA
BRANCH  12  13
ATOM     13  C   UNL     1      19.458  40.814  75.694  1.00  0.00     0.339 C 
ATOM     14  C   UNL     1      19.026  42.815  78.749  1.00  0.00     0.042 C 
ATOM     15  C   UNL     1      18.698  41.737  77.715  1.00  0.00     0.151 C 
ATOM     16  C   UNL     1      18.549  40.356  78.391  1.00  0.00     0.174 C 
ATOM     17  O   UNL     1      19.740  41.719  76.752  1.00  0.00    -0.335 OA
ATOM     18  C   UNL     1      18.287  39.280  77.322  1.00  0.00     0.180 C 
ATOM     19  C   UNL     1      19.352  39.372  76.216  1.00  0.00     0.214 C 
BRANCH  16  20
ATOM     20  O   UNL     1      17.477  40.391  79.300  1.00  0.00    -0.388 OA
ATOM     21  H   UNL     1      17.666  39.712  79.998  1.00  0.00     0.211 HD
ENDBRANCH  16  20
BRANCH  18  22
ATOM     22  O   UNL     1      18.336  38.003  77.905  1.00  0.00    -0.387 OA
ATOM     23  H   UNL     1      17.563  37.938  78.524  1.00  0.00     0.211 HD
ENDBRANCH  18  22
BRANCH  19  24
ATOM     24  O   UNL     1      19.023  38.515  75.153  1.00  0.00    -0.384 OA
ATOM     25  H   UNL     1      19.636  37.736  75.209  1.00  0.00     0.211 HD
ENDBRANCH  19  24
ENDBRANCH  12  13
ENDBRANCH   1  12
BRANCH   3  26
ATOM     26  O   UNL     1      19.401  45.370  72.753  1.00  0.00    -0.507 OA
ATOM     27  H   UNL     1      19.227  45.653  71.796  1.00  0.00     0.293 HD
ENDBRANCH   3  26
BRANCH   8  28
ATOM     28  C   UNL     1      13.294  46.318  74.961  1.00  0.00     0.021 A 
ATOM     29  C   UNL     1      12.910  47.670  74.946  1.00  0.00     0.016 A 
ATOM     30  C   UNL     1      12.381  45.354  75.429  1.00  0.00     0.016 A 
ATOM     31  C   UNL     1      11.628  48.046  75.355  1.00  0.00     0.047 A 
ATOM     32  C   UNL     1      11.100  45.735  75.839  1.00  0.00     0.047 A 
ATOM     33  C   UNL     1      10.719  47.081  75.800  1.00  0.00     0.115 A 
BRANCH  33  34
ATOM     34  O   UNL     1       9.444  47.472  76.206  1.00  0.00    -0.508 OA
ATOM     35  H   UNL     1       9.130  48.431  76.114  1.00  0.00     0.293 HD
ENDBRANCH  33  34
ENDBRANCH   8  28
BRANCH   9  36
ATOM     36  O   UNL     1      15.073  48.134  73.561  1.00  0.00    -0.502 OA
ATOM     37  H   UNL     1      14.250  48.540  73.991  1.00  0.00     0.293 HD
ENDBRANCH   9  36
TORSDOF 9
ENDMDL
MODEL 6
REMARK VINA RESULT:    -5.657      2.055      3.220
REMARK INTER + INTRA:          -8.069
REMARK INTER:                  -8.040
REMARK INTRA:                  -0.030
REMARK UNBOUND:                -0.428
REMARK SMILES C[C@H]1O[C@H](Oc2cc(O)c3c(=O)c(O)c(-c4ccc(O)cc4)oc3c2)[C@H](O)[C@@H](O)[C@@H]1O
REMARK SMILES IDX 6 1 7 2 8 3 10 4 24 5 25 6 23 7 15 8 13 9 11 10 12 11 5 12
REMARK SMILES IDX 4 13 1 14 2 15 30 16 3 17 28 18 26 19 31 20 29 22 27 24 9 26
REMARK SMILES IDX 16 28 17 29 22 30 18 31 21 32 19 33 20 34 14 36
REMARK H PARENT 31 21 29 23 27 25 9 27 20 35 14 37
REMARK Flexibility Score: inf
ROOT
ATOM      1  C   UNL     1      18.465  42.315  75.648  1.00  0.00     0.130 A 
ATOM      2  C   UNL     1      19.435  42.919  74.828  1.00  0.00     0.093 A 
ATOM      3  C   UNL     1      19.138  44.081  74.102  1.00  0.00     0.134 A 
ATOM      4  C   UNL     1      17.848  44.656  74.191  1.00  0.00     0.111 A 
ATOM      5  C   UNL     1      16.877  44.040  75.014  1.00  0.00     0.146 A 
ATOM      6  C   UNL     1      17.192  42.884  75.731  1.00  0.00     0.094 A 
ATOM      7  O   UNL     1      15.656  44.550  75.116  1.00  0.00    -0.452 OA
ATOM      8  C   UNL     1      15.264  45.645  74.469  1.00  0.00     0.180 A 
ATOM      9  C   UNL     1      16.175  46.335  73.647  1.00  0.00     0.208 A 
ATOM     10  C   UNL     1      17.476  45.828  73.501  1.00  0.00     0.238 A 
ATOM     11  O   UNL     1      18.297  46.432  72.758  1.00  0.00    -0.285 OA
ENDROOT
BRANCH   1  12
ATOM     12  O   UNL     1      18.723  41.157  76.398  1.00  0.00    -0.462 OA
BRANCH  12  13
ATOM     13  C   UNL     1      17.756  40.151  76.716  1.00  0.00     0.339 C 
ATOM     14  C   UNL     1      17.908  38.145  73.638  1.00  0.00     0.042 C 
ATOM     15  C   UNL     1      18.421  38.775  74.934  1.00  0.00     0.151 C 
ATOM     16  C   UNL     1      19.010  37.697  75.870  1.00  0.00     0.174 C 
ATOM     17  O   UNL     1      17.337  39.447  75.556  1.00  0.00    -0.335 OA
ATOM     18  C   UNL     1      19.455  38.347  77.193  1.00  0.00     0.180 C 
ATOM     19  C   UNL     1      18.307  39.185  77.778  1.00  0.00     0.214 C 
BRANCH  16  20
ATOM     20  O   UNL     1      20.113  37.087  75.248  1.00  0.00    -0.388 OA
ATOM     21  H   UNL     1      20.646  36.653  75.965  1.00  0.00     0.211 HD
ENDBRANCH  16  20
BRANCH  18  22
ATOM     22  O   UNL     1      19.819  37.353  78.118  1.00  0.00    -0.387 OA
ATOM     23  H   UNL     1      19.389  37.589  78.980  1.00  0.00     0.211 HD
ENDBRANCH  18  22
BRANCH  19  24
ATOM     24  O   UNL     1      18.756  39.919  78.887  1.00  0.00    -0.384 OA
ATOM     25  H   UNL     1      19.295  40.675  78.535  1.00  0.00     0.211 HD
ENDBRANCH  19  24
ENDBRANCH  12  13
ENDBRANCH   1  12
BRANCH   3  26
ATOM     26  O   UNL     1      20.124  44.655  73.299  1.00  0.00    -0.507 OA
ATOM     27  H   UNL     1      21.059  44.833  73.647  1.00  0.00     0.293 HD
ENDBRANCH   3  26
BRANCH   8  28
ATOM     28  C   UNL     1      13.870  46.105  74.658  1.00  0.00     0.021 A 
ATOM     29  C   UNL     1      12.896  45.195  75.102  1.00  0.00     0.016 A 
ATOM     30  C   UNL     1      13.482  47.423  74.347  1.00  0.00     0.016 A 
ATOM     31  C   UNL     1      11.569  45.603  75.267  1.00  0.00     0.047 A 
ATOM     32  C   UNL     1      12.154  47.826  74.513  1.00  0.00     0.047 A 
ATOM     33  C   UNL     1      11.194  46.917  74.976  1.00  0.00     0.115 A 
BRANCH  33  34
ATOM     34  O   UNL     1       9.868  47.309  75.145  1.00  0.00    -0.508 OA
ATOM     35  H   UNL     1       9.578  47.866  75.942  1.00  0.00     0.293 HD
ENDBRANCH  33  34
ENDBRANCH   8  28
BRANCH   9  36
ATOM     36  O   UNL     1      15.796  47.521  73.013  1.00  0.00    -0.502 OA
ATOM     37  H   UNL     1      15.245  47.530  72.163  1.00  0.00     0.293 HD
ENDBRANCH   9  36
TORSDOF 9
ENDMDL
MODEL 7
REMARK VINA RESULT:    -5.533      3.780      5.101
REMARK INTER + INTRA:          -7.902
REMARK INTER:                  -7.147
REMARK INTRA:                  -0.755
REMARK UNBOUND:                -0.428
REMARK SMILES C[C@H]1O[C@H](Oc2cc(O)c3c(=O)c(O)c(-c4ccc(O)cc4)oc3c2)[C@H](O)[C@@H](O)[C@@H]1O
REMARK SMILES IDX 6 1 7 2 8 3 10 4 24 5 25 6 23 7 15 8 13 9 11 10 12 11 5 12
REMARK SMILES IDX 4 13 1 14 2 15 30 16 3 17 28 18 26 19 31 20 29 22 27 24 9 26
REMARK SMILES IDX 16 28 17 29 22 30 18 31 21 32 19 33 20 34 14 36
REMARK H PARENT 31 21 29 23 27 25 9 27 20 35 14 37
REMARK Flexibility Score: inf
ROOT
ATOM      1  C   UNL     1      19.478  42.196  77.366  1.00  0.00     0.130 A 
ATOM      2  C   UNL     1      19.550  42.852  78.608  1.00  0.00     0.093 A 
ATOM      3  C   UNL     1      19.484  44.250  78.687  1.00  0.00     0.134 A 
ATOM      4  C   UNL     1      19.345  45.015  77.504  1.00  0.00     0.111 A 
ATOM      5  C   UNL     1      19.279  44.350  76.259  1.00  0.00     0.146 A 
ATOM      6  C   UNL     1      19.344  42.955  76.201  1.00  0.00     0.094 A 
ATOM      7  O   UNL     1      19.155  45.037  75.130  1.00  0.00    -0.452 OA
ATOM      8  C   UNL     1      19.088  46.366  75.087  1.00  0.00     0.180 A 
ATOM      9  C   UNL     1      19.122  47.107  76.284  1.00  0.00     0.208 A 
ATOM     10  C   UNL     1      19.262  46.423  77.501  1.00  0.00     0.238 A 
ATOM     11  O   UNL     1      19.305  47.077  78.579  1.00  0.00    -0.285 OA
ENDROOT
BRANCH   1  12
ATOM     12  O   UNL     1      19.532  40.799  77.243  1.00  0.00    -0.462 OA
BRANCH  12  13
ATOM     13  C   UNL     1      18.501  39.897  77.660  1.00  0.00     0.339 C 
ATOM     14  C   UNL     1      16.877  39.272  74.420  1.00  0.00     0.042 C 
ATOM     15  C   UNL     1      18.002  39.259  75.455  1.00  0.00     0.151 C 
ATOM     16  C   UNL     1      18.548  37.828  75.653  1.00  0.00     0.174 C 
ATOM     17  O   UNL     1      17.487  39.776  76.673  1.00  0.00    -0.335 OA
ATOM     18  C   UNL     1      19.630  37.831  76.748  1.00  0.00     0.180 C 
ATOM     19  C   UNL     1      19.094  38.522  78.012  1.00  0.00     0.214 C 
BRANCH  16  20
ATOM     20  O   UNL     1      19.098  37.364  74.445  1.00  0.00    -0.388 OA
ATOM     21  H   UNL     1      18.343  37.038  73.889  1.00  0.00     0.211 HD
ENDBRANCH  16  20
BRANCH  18  22
ATOM     22  O   UNL     1      19.999  36.512  77.063  1.00  0.00    -0.387 OA
ATOM     23  H   UNL     1      19.192  35.949  76.935  1.00  0.00     0.211 HD
ENDBRANCH  18  22
BRANCH  19  24
ATOM     24  O   UNL     1      20.125  38.687  78.951  1.00  0.00    -0.384 OA
ATOM     25  H   UNL     1      19.982  38.006  79.660  1.00  0.00     0.211 HD
ENDBRANCH  19  24
ENDBRANCH  12  13
ENDBRANCH   1  12
BRANCH   3  26
ATOM     26  O   UNL     1      19.556  44.868  79.936  1.00  0.00    -0.507 OA
ATOM     27  H   UNL     1      18.902  44.651  80.677  1.00  0.00     0.293 HD
ENDBRANCH   3  26
BRANCH   8  28
ATOM     28  C   UNL     1      18.962  47.015  73.762  1.00  0.00     0.021 A 
ATOM     29  C   UNL     1      20.114  47.236  72.989  1.00  0.00     0.016 A 
ATOM     30  C   UNL     1      17.720  47.469  73.282  1.00  0.00     0.016 A 
ATOM     31  C   UNL     1      20.022  47.866  71.745  1.00  0.00     0.047 A 
ATOM     32  C   UNL     1      17.631  48.100  72.037  1.00  0.00     0.047 A 
ATOM     33  C   UNL     1      18.782  48.298  71.265  1.00  0.00     0.115 A 
BRANCH  33  34
ATOM     34  O   UNL     1      18.705  48.924  70.022  1.00  0.00    -0.508 OA
ATOM     35  H   UNL     1      17.858  49.390  69.716  1.00  0.00     0.293 HD
ENDBRANCH  33  34
ENDBRANCH   8  28
BRANCH   9  36
ATOM     36  O   UNL     1      18.989  48.497  76.257  1.00  0.00    -0.502 OA
ATOM     37  H   UNL     1      19.019  49.029  75.396  1.00  0.00     0.293 HD
ENDBRANCH   9  36
TORSDOF 9
ENDMDL
MODEL 8
REMARK VINA RESULT:    -4.692      2.202      8.803
REMARK INTER + INTRA:          -6.766
REMARK INTER:                  -6.645
REMARK INTRA:                  -0.120
REMARK UNBOUND:                -0.428
REMARK SMILES C[C@H]1O[C@H](Oc2cc(O)c3c(=O)c(O)c(-c4ccc(O)cc4)oc3c2)[C@H](O)[C@@H](O)[C@@H]1O
REMARK SMILES IDX 6 1 7 2 8 3 10 4 24 5 25 6 23 7 15 8 13 9 11 10 12 11 5 12
REMARK SMILES IDX 4 13 1 14 2 15 30 16 3 17 28 18 26 19 31 20 29 22 27 24 9 26
REMARK SMILES IDX 16 28 17 29 22 30 18 31 21 32 19 33 20 34 14 36
REMARK H PARENT 31 21 29 23 27 25 9 27 20 35 14 37
REMARK Flexibility Score: inf
ROOT
ATOM      1  C   UNL     1      18.129  46.679  75.787  1.00  0.00     0.130 A 
ATOM      2  C   UNL     1      18.601  47.195  77.008  1.00  0.00     0.093 A 
ATOM      3  C   UNL     1      19.095  46.341  78.004  1.00  0.00     0.134 A 
ATOM      4  C   UNL     1      19.119  44.943  77.784  1.00  0.00     0.111 A 
ATOM      5  C   UNL     1      18.638  44.433  76.558  1.00  0.00     0.146 A 
ATOM      6  C   UNL     1      18.151  45.299  75.575  1.00  0.00     0.094 A 
ATOM      7  O   UNL     1      18.641  43.126  76.321  1.00  0.00    -0.452 OA
ATOM      8  C   UNL     1      19.081  42.225  77.196  1.00  0.00     0.180 A 
ATOM      9  C   UNL     1      19.601  42.650  78.434  1.00  0.00     0.208 A 
ATOM     10  C   UNL     1      19.609  44.021  78.732  1.00  0.00     0.238 A 
ATOM     11  O   UNL     1      20.062  44.412  79.843  1.00  0.00    -0.285 OA
ENDROOT
BRANCH   1  12
ATOM     12  O   UNL     1      17.634  47.499  74.761  1.00  0.00    -0.462 OA
BRANCH  12  13
ATOM     13  C   UNL     1      17.136  47.031  73.503  1.00  0.00     0.339 C 
ATOM     14  C   UNL     1      13.671  46.252  74.460  1.00  0.00     0.042 C 
ATOM     15  C   UNL     1      14.900  47.129  74.216  1.00  0.00     0.151 C 
ATOM     16  C   UNL     1      14.558  48.301  73.271  1.00  0.00     0.174 C 
ATOM     17  O   UNL     1      15.920  46.313  73.661  1.00  0.00    -0.335 OA
ATOM     18  C   UNL     1      15.826  49.126  72.987  1.00  0.00     0.180 C 
ATOM     19  C   UNL     1      16.961  48.200  72.520  1.00  0.00     0.214 C 
BRANCH  16  20
ATOM     20  O   UNL     1      13.585  49.119  73.870  1.00  0.00    -0.388 OA
ATOM     21  H   UNL     1      12.711  48.661  73.756  1.00  0.00     0.211 HD
ENDBRANCH  16  20
BRANCH  18  22
ATOM     22  O   UNL     1      15.566  50.079  71.987  1.00  0.00    -0.387 OA
ATOM     23  H   UNL     1      16.330  50.712  71.985  1.00  0.00     0.211 HD
ENDBRANCH  18  22
BRANCH  19  24
ATOM     24  O   UNL     1      18.166  48.915  72.427  1.00  0.00    -0.384 OA
ATOM     25  H   UNL     1      18.365  49.023  71.461  1.00  0.00     0.211 HD
ENDBRANCH  19  24
ENDBRANCH  12  13
ENDBRANCH   1  12
BRANCH   3  26
ATOM     26  O   UNL     1      19.558  46.886  79.203  1.00  0.00    -0.507 OA
ATOM     27  H   UNL     1      19.981  46.312  79.922  1.00  0.00     0.293 HD
ENDBRANCH   3  26
BRANCH   8  28
ATOM     28  C   UNL     1      19.020  40.796  76.816  1.00  0.00     0.021 A 
ATOM     29  C   UNL     1      20.124  39.965  77.069  1.00  0.00     0.016 A 
ATOM     30  C   UNL     1      17.900  40.260  76.153  1.00  0.00     0.016 A 
ATOM     31  C   UNL     1      20.096  38.617  76.700  1.00  0.00     0.047 A 
ATOM     32  C   UNL     1      17.876  38.911  75.784  1.00  0.00     0.047 A 
ATOM     33  C   UNL     1      18.973  38.086  76.059  1.00  0.00     0.115 A 
BRANCH  33  34
ATOM     34  O   UNL     1      18.960  36.741  75.696  1.00  0.00    -0.508 OA
ATOM     35  H   UNL     1      19.545  36.060  76.167  1.00  0.00     0.293 HD
ENDBRANCH  33  34
ENDBRANCH   8  28
BRANCH   9  36
ATOM     36  O   UNL     1      20.125  41.720  79.336  1.00  0.00    -0.502 OA
ATOM     37  H   UNL     1      20.842  41.961  80.009  1.00  0.00     0.293 HD
ENDBRANCH   9  36
TORSDOF 9
ENDMDL
