MODEL 1
REMARK VINA RESULT:    -4.080      0.000      0.000
REMARK INTER + INTRA:          -5.353
REMARK INTER:                  -5.272
REMARK INTRA:                  -0.080
REMARK UNBOUND:                -0.080
REMARK SMILES CCCCCCC(C)=O
REMARK SMILES IDX 4 1 3 2 2 3 1 4 5 5 6 6 7 7 9 8 8 9
REMARK H PARENT
REMARK Flexibility Score: inf
ROOT
ATOM      1  C   UNL     1      25.647  56.805  -8.992  1.00  0.00     0.000 C 
ENDROOT
BRANCH   1   2
ATOM      2  C   UNL     1      24.192  56.501  -8.607  1.00  0.00    -0.000 C 
BRANCH   2   3
ATOM      3  C   UNL     1      23.977  55.025  -8.235  1.00  0.00    -0.003 C 
ATOM      4  C   UNL     1      22.624  54.775  -7.568  1.00  0.00     0.004 C 
ENDBRANCH   2   3
ENDBRANCH   1   2
BRANCH   1   5
ATOM      5  C   UNL     1      25.831  58.296  -9.306  1.00  0.00     0.008 C 
BRANCH   5   6
ATOM      6  C   UNL     1      26.960  58.510 -10.320  1.00  0.00     0.075 C 
BRANCH   6   7
ATOM      7  C   UNL     1      27.411  59.945 -10.324  1.00  0.00     0.129 C 
ATOM      8  O   UNL     1      27.052  60.695  -9.429  1.00  0.00    -0.300 OA
ATOM      9  C   UNL     1      28.317  60.454 -11.404  1.00  0.00     0.087 C 
ENDBRANCH   6   7
ENDBRANCH   5   6
ENDBRANCH   1   5
TORSDOF 5
ENDMDL
MODEL 2
REMARK VINA RESULT:    -3.807     15.897     17.692
REMARK INTER + INTRA:          -5.000
REMARK INTER:                  -4.829
REMARK INTRA:                  -0.170
REMARK UNBOUND:                -0.080
REMARK SMILES CCCCCCC(C)=O
REMARK SMILES IDX 4 1 3 2 2 3 1 4 5 5 6 6 7 7 9 8 8 9
REMARK H PARENT
REMARK Flexibility Score: inf
ROOT
ATOM      1  C   UNL     1      32.248  45.136   2.612  1.00  0.00     0.000 C 
ENDROOT
BRANCH   1   2
ATOM      2  C   UNL     1      32.843  46.507   2.966  1.00  0.00    -0.000 C 
BRANCH   2   3
ATOM      3  C   UNL     1      31.908  47.345   3.852  1.00  0.00    -0.003 C 
ATOM      4  C   UNL     1      32.286  48.826   3.876  1.00  0.00     0.004 C 
ENDBRANCH   2   3
ENDBRANCH   1   2
BRANCH   1   5
ATOM      5  C   UNL     1      31.659  45.143   1.196  1.00  0.00     0.008 C 
BRANCH   5   6
ATOM      6  C   UNL     1      30.141  45.344   1.232  1.00  0.00     0.075 C 
BRANCH   6   7
ATOM      7  C   UNL     1      29.518  44.952  -0.080  1.00  0.00     0.129 C 
ATOM      8  O   UNL     1      30.000  44.036  -0.730  1.00  0.00    -0.300 OA
ATOM      9  C   UNL     1      28.296  45.660  -0.582  1.00  0.00     0.087 C 
ENDBRANCH   6   7
ENDBRANCH   5   6
ENDBRANCH   1   5
TORSDOF 5
ENDMDL
MODEL 3
REMARK VINA RESULT:    -3.769     17.202     19.113
REMARK INTER + INTRA:          -4.952
REMARK INTER:                  -4.474
REMARK INTRA:                  -0.478
REMARK UNBOUND:                -0.080
REMARK SMILES CCCCCCC(C)=O
REMARK SMILES IDX 4 1 3 2 2 3 1 4 5 5 6 6 7 7 9 8 8 9
REMARK H PARENT
REMARK Flexibility Score: inf
ROOT
ATOM      1  C   UNL     1      15.968  43.108   1.300  1.00  0.00     0.000 C 
ENDROOT
BRANCH   1   2
ATOM      2  C   UNL     1      15.825  44.621   1.520  1.00  0.00    -0.000 C 
BRANCH   2   3
ATOM      3  C   UNL     1      15.002  45.303   0.416  1.00  0.00    -0.003 C 
ATOM      4  C   UNL     1      15.771  45.434  -0.899  1.00  0.00     0.004 C 
ENDBRANCH   2   3
ENDBRANCH   1   2
BRANCH   1   5
ATOM      5  C   UNL     1      17.442  42.713   1.143  1.00  0.00     0.008 C 
BRANCH   5   6
ATOM      6  C   UNL     1      18.367  43.864   1.553  1.00  0.00     0.075 C 
BRANCH   6   7
ATOM      7  C   UNL     1      19.414  44.108   0.501  1.00  0.00     0.129 C 
ATOM      8  O   UNL     1      20.300  43.286   0.325  1.00  0.00    -0.300 OA
ATOM      9  C   UNL     1      19.362  45.341  -0.350  1.00  0.00     0.087 C 
ENDBRANCH   6   7
ENDBRANCH   5   6
ENDBRANCH   1   5
TORSDOF 5
ENDMDL
MODEL 4
REMARK VINA RESULT:    -3.760      3.784      6.489
REMARK INTER + INTRA:          -4.940
REMARK INTER:                  -4.725
REMARK INTRA:                  -0.214
REMARK UNBOUND:                -0.080
REMARK SMILES CCCCCCC(C)=O
REMARK SMILES IDX 4 1 3 2 2 3 1 4 5 5 6 6 7 7 9 8 8 9
REMARK H PARENT
REMARK Flexibility Score: inf
ROOT
ATOM      1  C   UNL     1      30.238  58.791 -13.207  1.00  0.00     0.000 C 
ENDROOT
BRANCH   1   2
ATOM      2  C   UNL     1      30.177  57.273 -13.433  1.00  0.00    -0.000 C 
BRANCH   2   3
ATOM      3  C   UNL     1      31.546  56.674 -13.793  1.00  0.00    -0.003 C 
ATOM      4  C   UNL     1      32.570  57.737 -14.191  1.00  0.00     0.004 C 
ENDBRANCH   2   3
ENDBRANCH   1   2
BRANCH   1   5
ATOM      5  C   UNL     1      29.540  59.179 -11.897  1.00  0.00     0.008 C 
BRANCH   5   6
ATOM      6  C   UNL     1      28.170  58.501 -11.781  1.00  0.00     0.075 C 
BRANCH   6   7
ATOM      7  C   UNL     1      27.409  59.034 -10.599  1.00  0.00     0.129 C 
ATOM      8  O   UNL     1      26.657  58.296  -9.979  1.00  0.00    -0.300 OA
ATOM      9  C   UNL     1      27.585  60.456 -10.161  1.00  0.00     0.087 C 
ENDBRANCH   6   7
ENDBRANCH   5   6
ENDBRANCH   1   5
TORSDOF 5
ENDMDL
MODEL 5
REMARK VINA RESULT:    -3.712     16.170     17.653
REMARK INTER + INTRA:          -4.877
REMARK INTER:                  -4.716
REMARK INTRA:                  -0.161
REMARK UNBOUND:                -0.080
REMARK SMILES CCCCCCC(C)=O
REMARK SMILES IDX 4 1 3 2 2 3 1 4 5 5 6 6 7 7 9 8 8 9
REMARK H PARENT
REMARK Flexibility Score: inf
ROOT
ATOM      1  C   UNL     1      31.800  44.955   1.442  1.00  0.00     0.000 C 
ENDROOT
BRANCH   1   2
ATOM      2  C   UNL     1      30.307  45.301   1.338  1.00  0.00    -0.000 C 
BRANCH   2   3
ATOM      3  C   UNL     1      29.672  44.790   0.036  1.00  0.00    -0.003 C 
ATOM      4  C   UNL     1      28.496  45.650  -0.427  1.00  0.00     0.004 C 
ENDBRANCH   2   3
ENDBRANCH   1   2
BRANCH   1   5
ATOM      5  C   UNL     1      32.374  45.403   2.792  1.00  0.00     0.008 C 
BRANCH   5   6
ATOM      6  C   UNL     1      31.754  46.730   3.242  1.00  0.00     0.075 C 
BRANCH   6   7
ATOM      7  C   UNL     1      32.798  47.634   3.839  1.00  0.00     0.129 C 
ATOM      8  O   UNL     1      33.897  47.184   4.124  1.00  0.00    -0.300 OA
ATOM      9  C   UNL     1      32.507  49.087   4.062  1.00  0.00     0.087 C 
ENDBRANCH   6   7
ENDBRANCH   5   6
ENDBRANCH   1   5
TORSDOF 5
ENDMDL
MODEL 6
REMARK VINA RESULT:    -3.664      4.825      7.286
REMARK INTER + INTRA:          -4.816
REMARK INTER:                  -4.594
REMARK INTRA:                  -0.222
REMARK UNBOUND:                -0.080
REMARK SMILES CCCCCCC(C)=O
REMARK SMILES IDX 4 1 3 2 2 3 1 4 5 5 6 6 7 7 9 8 8 9
REMARK H PARENT
REMARK Flexibility Score: inf
ROOT
ATOM      1  C   UNL     1      30.475  56.995 -13.133  1.00  0.00     0.000 C 
ENDROOT
BRANCH   1   2
ATOM      2  C   UNL     1      31.577  56.667 -14.152  1.00  0.00    -0.000 C 
BRANCH   2   3
ATOM      3  C   UNL     1      32.646  57.768 -14.239  1.00  0.00    -0.003 C 
ATOM      4  C   UNL     1      34.025  57.289 -13.786  1.00  0.00     0.004 C 
ENDBRANCH   2   3
ENDBRANCH   1   2
BRANCH   1   5
ATOM      5  C   UNL     1      29.974  58.433 -13.311  1.00  0.00     0.008 C 
BRANCH   5   6
ATOM      6  C   UNL     1      29.951  59.178 -11.972  1.00  0.00     0.075 C 
BRANCH   6   7
ATOM      7  C   UNL     1      28.537  59.404 -11.510  1.00  0.00     0.129 C 
ATOM      8  O   UNL     1      27.742  58.477 -11.516  1.00  0.00    -0.300 OA
ATOM      9  C   UNL     1      28.105  60.753 -11.018  1.00  0.00     0.087 C 
ENDBRANCH   6   7
ENDBRANCH   5   6
ENDBRANCH   1   5
TORSDOF 5
ENDMDL
MODEL 7
REMARK VINA RESULT:    -3.653      4.285      6.209
REMARK INTER + INTRA:          -4.801
REMARK INTER:                  -4.559
REMARK INTRA:                  -0.242
REMARK UNBOUND:                -0.080
REMARK SMILES CCCCCCC(C)=O
REMARK SMILES IDX 4 1 3 2 2 3 1 4 5 5 6 6 7 7 9 8 8 9
REMARK H PARENT
REMARK Flexibility Score: inf
ROOT
ATOM      1  C   UNL     1      30.120  59.023 -12.059  1.00  0.00     0.000 C 
ENDROOT
BRANCH   1   2
ATOM      2  C   UNL     1      28.802  59.663 -11.598  1.00  0.00    -0.000 C 
BRANCH   2   3
ATOM      3  C   UNL     1      27.713  58.621 -11.299  1.00  0.00    -0.003 C 
ATOM      4  C   UNL     1      26.839  59.005 -10.105  1.00  0.00     0.004 C 
ENDBRANCH   2   3
ENDBRANCH   1   2
BRANCH   1   5
ATOM      5  C   UNL     1      29.962  58.378 -13.442  1.00  0.00     0.008 C 
BRANCH   5   6
ATOM      6  C   UNL     1      30.641  57.005 -13.491  1.00  0.00     0.075 C 
BRANCH   6   7
ATOM      7  C   UNL     1      32.134  57.143 -13.371  1.00  0.00     0.129 C 
ATOM      8  O   UNL     1      32.729  56.548 -12.485  1.00  0.00    -0.300 OA
ATOM      9  C   UNL     1      32.900  57.985 -14.347  1.00  0.00     0.087 C 
ENDBRANCH   6   7
ENDBRANCH   5   6
ENDBRANCH   1   5
TORSDOF 5
ENDMDL
MODEL 8
REMARK VINA RESULT:    -3.639     18.374     19.047
REMARK INTER + INTRA:          -4.784
REMARK INTER:                  -4.500
REMARK INTRA:                  -0.284
REMARK UNBOUND:                -0.080
REMARK SMILES CCCCCCC(C)=O
REMARK SMILES IDX 4 1 3 2 2 3 1 4 5 5 6 6 7 7 9 8 8 9
REMARK H PARENT
REMARK Flexibility Score: inf
ROOT
ATOM      1  C   UNL     1      15.631  42.290 -12.128  1.00  0.00     0.000 C 
ENDROOT
BRANCH   1   2
ATOM      2  C   UNL     1      16.259  40.899 -12.304  1.00  0.00    -0.000 C 
BRANCH   2   3
ATOM      3  C   UNL     1      17.751  40.875 -11.934  1.00  0.00    -0.003 C 
ATOM      4  C   UNL     1      17.986  40.937 -10.425  1.00  0.00     0.004 C 
ENDBRANCH   2   3
ENDBRANCH   1   2
BRANCH   1   5
ATOM      5  C   UNL     1      14.220  42.334 -12.730  1.00  0.00     0.008 C 
BRANCH   5   6
ATOM      6  C   UNL     1      14.276  42.461 -14.256  1.00  0.00     0.075 C 
BRANCH   6   7
ATOM      7  C   UNL     1      14.911  43.762 -14.661  1.00  0.00     0.129 C 
ATOM      8  O   UNL     1      14.443  44.817 -14.259  1.00  0.00    -0.300 OA
ATOM      9  C   UNL     1      16.128  43.773 -15.536  1.00  0.00     0.087 C 
ENDBRANCH   6   7
ENDBRANCH   5   6
ENDBRANCH   1   5
TORSDOF 5
ENDMDL
MODEL 9
REMARK VINA RESULT:    -3.630     18.214     18.928
REMARK INTER + INTRA:          -4.772
REMARK INTER:                  -4.506
REMARK INTRA:                  -0.265
REMARK UNBOUND:                -0.080
REMARK SMILES CCCCCCC(C)=O
REMARK SMILES IDX 4 1 3 2 2 3 1 4 5 5 6 6 7 7 9 8 8 9
REMARK H PARENT
REMARK Flexibility Score: inf
ROOT
ATOM      1  C   UNL     1      18.254  43.878   1.817  1.00  0.00     0.000 C 
ENDROOT
BRANCH   1   2
ATOM      2  C   UNL     1      19.551  44.174   1.049  1.00  0.00    -0.000 C 
BRANCH   2   3
ATOM      3  C   UNL     1      20.642  43.122   1.306  1.00  0.00    -0.003 C 
ATOM      4  C   UNL     1      21.009  42.331   0.051  1.00  0.00     0.004 C 
ENDBRANCH   2   3
ENDBRANCH   1   2
BRANCH   1   5
ATOM      5  C   UNL     1      17.053  43.822   0.864  1.00  0.00     0.008 C 
BRANCH   5   6
ATOM      6  C   UNL     1      17.212  44.825  -0.283  1.00  0.00     0.075 C 
BRANCH   6   7
ATOM      7  C   UNL     1      15.899  45.483  -0.604  1.00  0.00     0.129 C 
ATOM      8  O   UNL     1      15.741  46.025  -1.687  1.00  0.00    -0.300 OA
ATOM      9  C   UNL     1      14.774  45.456   0.386  1.00  0.00     0.087 C 
ENDBRANCH   6   7
ENDBRANCH   5   6
ENDBRANCH   1   5
TORSDOF 5
ENDMDL
