MODEL 1
REMARK VINA RESULT:    -5.254      0.000      0.000
REMARK INTER + INTRA:         -10.940
REMARK INTER:                  -8.940
REMARK INTRA:                  -2.000
REMARK UNBOUND:                -2.000
REMARK SMILES CCCCCCCCCCCCCC(=O)[O-]
REMARK SMILES IDX 8 1 9 2 10 3 11 4 12 5 13 6 14 7 15 8 16 9 7 10 6 11 5 12
REMARK SMILES IDX 4 13 3 14 2 15 1 16
REMARK H PARENT
REMARK Flexibility Score: inf
ROOT
ATOM      1  C   UNL     1     -28.815   1.468  22.473  1.00  0.00     0.000 C 
ENDROOT
BRANCH   1   2
ATOM      2  C   UNL     1     -27.443   1.043  23.023  1.00  0.00     0.000 C 
BRANCH   2   3
ATOM      3  C   UNL     1     -27.143  -0.445  22.773  1.00  0.00     0.000 C 
BRANCH   3   4
ATOM      4  C   UNL     1     -26.812  -1.206  24.068  1.00  0.00     0.000 C 
BRANCH   4   5
ATOM      5  C   UNL     1     -27.304  -0.477  25.327  1.00  0.00     0.006 C 
BRANCH   5   6
ATOM      6  C   UNL     1     -28.587  -1.120  25.865  1.00  0.00     0.053 C 
BRANCH   6   7
ATOM      7  C   UNL     1     -29.212  -0.248  26.908  1.00  0.00     0.041 C 
ATOM      8  O   UNL     1     -28.521   0.195  27.861  1.00  0.00    -0.550 OA
ATOM      9  O   UNL     1     -30.547   0.118  26.797  1.00  0.00    -0.550 OA
ENDBRANCH   6   7
ENDBRANCH   5   6
ENDBRANCH   4   5
ENDBRANCH   3   4
ENDBRANCH   2   3
ENDBRANCH   1   2
BRANCH   1  10
ATOM     10  C   UNL     1     -29.967   1.148  23.442  1.00  0.00     0.000 C 
BRANCH  10  11
ATOM     11  C   UNL     1     -31.097   0.350  22.772  1.00  0.00    -0.000 C 
BRANCH  11  12
ATOM     12  C   UNL     1     -31.214  -1.080  23.321  1.00  0.00    -0.000 C 
BRANCH  12  13
ATOM     13  C   UNL     1     -30.392  -2.063  22.473  1.00  0.00    -0.000 C 
BRANCH  13  14
ATOM     14  C   UNL     1     -30.194  -1.564  21.026  1.00  0.00    -0.000 C 
BRANCH  14  15
ATOM     15  C   UNL     1     -29.008  -2.223  20.304  1.00  0.00    -0.003 C 
ATOM     16  C   UNL     1     -28.264  -1.266  19.376  1.00  0.00     0.004 C 
ENDBRANCH  14  15
ENDBRANCH  13  14
ENDBRANCH  12  13
ENDBRANCH  11  12
ENDBRANCH  10  11
ENDBRANCH   1  10
TORSDOF 12
ENDMDL
MODEL 2
REMARK VINA RESULT:    -5.007      3.201      5.366
REMARK INTER + INTRA:         -10.520
REMARK INTER:                  -8.580
REMARK INTRA:                  -1.940
REMARK UNBOUND:                -2.000
REMARK SMILES CCCCCCCCCCCCCC(=O)[O-]
REMARK SMILES IDX 8 1 9 2 10 3 11 4 12 5 13 6 14 7 15 8 16 9 7 10 6 11 5 12
REMARK SMILES IDX 4 13 3 14 2 15 1 16
REMARK H PARENT
REMARK Flexibility Score: inf
ROOT
ATOM      1  C   UNL     1     -27.893  -1.944  24.786  1.00  0.00     0.000 C 
ENDROOT
BRANCH   1   2
ATOM      2  C   UNL     1     -26.684  -1.423  23.991  1.00  0.00     0.000 C 
BRANCH   2   3
ATOM      3  C   UNL     1     -26.719   0.103  23.798  1.00  0.00     0.000 C 
BRANCH   3   4
ATOM      4  C   UNL     1     -27.480   0.519  22.527  1.00  0.00     0.000 C 
BRANCH   4   5
ATOM      5  C   UNL     1     -27.346  -0.508  21.392  1.00  0.00     0.006 C 
BRANCH   5   6
ATOM      6  C   UNL     1     -28.620  -0.552  20.543  1.00  0.00     0.053 C 
BRANCH   6   7
ATOM      7  C   UNL     1     -28.521  -1.626  19.506  1.00  0.00     0.041 C 
ATOM      8  O   UNL     1     -28.014  -1.377  18.382  1.00  0.00    -0.550 OA
ATOM      9  O   UNL     1     -28.940  -2.917  19.801  1.00  0.00    -0.550 OA
ENDBRANCH   6   7
ENDBRANCH   5   6
ENDBRANCH   4   5
ENDBRANCH   3   4
ENDBRANCH   2   3
ENDBRANCH   1   2
BRANCH   1  10
ATOM     10  C   UNL     1     -28.772  -2.905  23.967  1.00  0.00     0.000 C 
BRANCH  10  11
ATOM     11  C   UNL     1     -29.999  -2.208  23.358  1.00  0.00    -0.000 C 
BRANCH  11  12
ATOM     12  C   UNL     1     -30.847  -1.481  24.412  1.00  0.00    -0.000 C 
BRANCH  12  13
ATOM     13  C   UNL     1     -30.847   0.036  24.168  1.00  0.00    -0.000 C 
BRANCH  13  14
ATOM     14  C   UNL     1     -30.038   0.800  25.238  1.00  0.00    -0.000 C 
BRANCH  14  15
ATOM     15  C   UNL     1     -30.160   0.198  26.648  1.00  0.00    -0.003 C 
ATOM     16  C   UNL     1     -28.848   0.229  27.429  1.00  0.00     0.004 C 
ENDBRANCH  14  15
ENDBRANCH  13  14
ENDBRANCH  12  13
ENDBRANCH  11  12
ENDBRANCH  10  11
ENDBRANCH   1  10
TORSDOF 12
ENDMDL
MODEL 3
REMARK VINA RESULT:    -4.897      3.468      5.568
REMARK INTER + INTRA:         -10.333
REMARK INTER:                  -8.424
REMARK INTRA:                  -1.909
REMARK UNBOUND:                -2.000
REMARK SMILES CCCCCCCCCCCCCC(=O)[O-]
REMARK SMILES IDX 8 1 9 2 10 3 11 4 12 5 13 6 14 7 15 8 16 9 7 10 6 11 5 12
REMARK SMILES IDX 4 13 3 14 2 15 1 16
REMARK H PARENT
REMARK Flexibility Score: inf
ROOT
ATOM      1  C   UNL     1     -31.048   0.139  23.297  1.00  0.00     0.000 C 
ENDROOT
BRANCH   1   2
ATOM      2  C   UNL     1     -29.798   0.918  22.854  1.00  0.00     0.000 C 
BRANCH   2   3
ATOM      3  C   UNL     1     -29.143   0.316  21.599  1.00  0.00     0.000 C 
BRANCH   3   4
ATOM      4  C   UNL     1     -27.688  -0.116  21.843  1.00  0.00     0.000 C 
BRANCH   4   5
ATOM      5  C   UNL     1     -27.273  -1.320  20.984  1.00  0.00     0.006 C 
BRANCH   5   6
ATOM      6  C   UNL     1     -28.502  -2.102  20.509  1.00  0.00     0.053 C 
BRANCH   6   7
ATOM      7  C   UNL     1     -28.562  -2.125  19.014  1.00  0.00     0.041 C 
ATOM      8  O   UNL     1     -29.135  -3.074  18.417  1.00  0.00    -0.550 OA
ATOM      9  O   UNL     1     -28.032  -1.071  18.281  1.00  0.00    -0.550 OA
ENDBRANCH   6   7
ENDBRANCH   5   6
ENDBRANCH   4   5
ENDBRANCH   3   4
ENDBRANCH   2   3
ENDBRANCH   1   2
BRANCH   1  10
ATOM     10  C   UNL     1     -30.971  -1.357  22.946  1.00  0.00     0.000 C 
BRANCH  10  11
ATOM     11  C   UNL     1     -30.486  -2.215  24.125  1.00  0.00    -0.000 C 
BRANCH  11  12
ATOM     12  C   UNL     1     -28.996  -2.573  24.020  1.00  0.00    -0.000 C 
BRANCH  12  13
ATOM     13  C   UNL     1     -28.153  -1.693  24.956  1.00  0.00    -0.000 C 
BRANCH  13  14
ATOM     14  C   UNL     1     -28.988  -1.099  26.110  1.00  0.00    -0.000 C 
BRANCH  14  15
ATOM     15  C   UNL     1     -28.699   0.388  26.377  1.00  0.00    -0.003 C 
ATOM     16  C   UNL     1     -29.847   1.103  27.086  1.00  0.00     0.004 C 
ENDBRANCH  14  15
ENDBRANCH  13  14
ENDBRANCH  12  13
ENDBRANCH  11  12
ENDBRANCH  10  11
ENDBRANCH   1  10
TORSDOF 12
ENDMDL
MODEL 4
REMARK VINA RESULT:    -4.886      1.194      3.799
REMARK INTER + INTRA:         -10.314
REMARK INTER:                  -8.530
REMARK INTRA:                  -1.784
REMARK UNBOUND:                -2.000
REMARK SMILES CCCCCCCCCCCCCC(=O)[O-]
REMARK SMILES IDX 8 1 9 2 10 3 11 4 12 5 13 6 14 7 15 8 16 9 7 10 6 11 5 12
REMARK SMILES IDX 4 13 3 14 2 15 1 16
REMARK H PARENT
REMARK Flexibility Score: inf
ROOT
ATOM      1  C   UNL     1     -30.278  -1.113  20.804  1.00  0.00     0.000 C 
ENDROOT
BRANCH   1   2
ATOM      2  C   UNL     1     -30.188  -1.918  22.111  1.00  0.00     0.000 C 
BRANCH   2   3
ATOM      3  C   UNL     1     -31.219  -1.460  23.157  1.00  0.00     0.000 C 
BRANCH   3   4
ATOM      4  C   UNL     1     -31.234   0.067  23.340  1.00  0.00     0.000 C 
BRANCH   4   5
ATOM      5  C   UNL     1     -30.215   0.550  24.383  1.00  0.00     0.006 C 
BRANCH   5   6
ATOM      6  C   UNL     1     -30.540  -0.015  25.769  1.00  0.00     0.053 C 
BRANCH   6   7
ATOM      7  C   UNL     1     -29.669   0.616  26.809  1.00  0.00     0.041 C 
ATOM      8  O   UNL     1     -28.420   0.643  26.658  1.00  0.00    -0.550 OA
ATOM      9  O   UNL     1     -30.241   1.222  27.920  1.00  0.00    -0.550 OA
ENDBRANCH   6   7
ENDBRANCH   5   6
ENDBRANCH   4   5
ENDBRANCH   3   4
ENDBRANCH   2   3
ENDBRANCH   1   2
BRANCH   1  10
ATOM     10  C   UNL     1     -28.896  -0.737  20.242  1.00  0.00     0.000 C 
BRANCH  10  11
ATOM     11  C   UNL     1     -27.789  -0.801  21.307  1.00  0.00    -0.000 C 
BRANCH  11  12
ATOM     12  C   UNL     1     -27.582   0.542  22.022  1.00  0.00    -0.000 C 
BRANCH  12  13
ATOM     13  C   UNL     1     -26.802   0.352  23.332  1.00  0.00    -0.000 C 
BRANCH  13  14
ATOM     14  C   UNL     1     -26.270  -1.088  23.492  1.00  0.00    -0.000 C 
BRANCH  14  15
ATOM     15  C   UNL     1     -26.757  -1.785  24.773  1.00  0.00    -0.003 C 
ATOM     16  C   UNL     1     -28.056  -2.564  24.575  1.00  0.00     0.004 C 
ENDBRANCH  14  15
ENDBRANCH  13  14
ENDBRANCH  12  13
ENDBRANCH  11  12
ENDBRANCH  10  11
ENDBRANCH   1  10
TORSDOF 12
ENDMDL
MODEL 5
REMARK VINA RESULT:    -4.884      0.973      2.681
REMARK INTER + INTRA:         -10.310
REMARK INTER:                  -8.284
REMARK INTRA:                  -2.026
REMARK UNBOUND:                -2.000
REMARK SMILES CCCCCCCCCCCCCC(=O)[O-]
REMARK SMILES IDX 8 1 9 2 10 3 11 4 12 5 13 6 14 7 15 8 16 9 7 10 6 11 5 12
REMARK SMILES IDX 4 13 3 14 2 15 1 16
REMARK H PARENT
REMARK Flexibility Score: inf
ROOT
ATOM      1  C   UNL     1     -27.594   0.007  21.598  1.00  0.00     0.000 C 
ENDROOT
BRANCH   1   2
ATOM      2  C   UNL     1     -27.072   0.066  23.043  1.00  0.00     0.000 C 
BRANCH   2   3
ATOM      3  C   UNL     1     -26.838  -1.331  23.642  1.00  0.00     0.000 C 
BRANCH   3   4
ATOM      4  C   UNL     1     -27.567  -1.527  24.982  1.00  0.00     0.000 C 
BRANCH   4   5
ATOM      5  C   UNL     1     -27.983  -0.199  25.632  1.00  0.00     0.006 C 
BRANCH   5   6
ATOM      6  C   UNL     1     -28.676  -0.441  26.977  1.00  0.00     0.053 C 
BRANCH   6   7
ATOM      7  C   UNL     1     -30.012   0.233  27.006  1.00  0.00     0.041 C 
ATOM      8  O   UNL     1     -31.020  -0.337  26.515  1.00  0.00    -0.550 OA
ATOM      9  O   UNL     1     -30.152   1.469  27.624  1.00  0.00    -0.550 OA
ENDBRANCH   6   7
ENDBRANCH   5   6
ENDBRANCH   4   5
ENDBRANCH   3   4
ENDBRANCH   2   3
ENDBRANCH   1   2
BRANCH   1  10
ATOM     10  C   UNL     1     -27.543  -1.414  21.006  1.00  0.00     0.000 C 
BRANCH  10  11
ATOM     11  C   UNL     1     -28.756  -1.725  20.114  1.00  0.00    -0.000 C 
BRANCH  11  12
ATOM     12  C   UNL     1     -30.092  -1.469  20.826  1.00  0.00    -0.000 C 
BRANCH  12  13
ATOM     13  C   UNL     1     -30.151  -2.214  22.168  1.00  0.00    -0.000 C 
BRANCH  13  14
ATOM     14  C   UNL     1     -30.851  -1.385  23.267  1.00  0.00    -0.000 C 
BRANCH  14  15
ATOM     15  C   UNL     1     -31.367  -0.023  22.774  1.00  0.00    -0.003 C 
ATOM     16  C   UNL     1     -30.592   1.157  23.357  1.00  0.00     0.004 C 
ENDBRANCH  14  15
ENDBRANCH  13  14
ENDBRANCH  12  13
ENDBRANCH  11  12
ENDBRANCH  10  11
ENDBRANCH   1  10
TORSDOF 12
ENDMDL
MODEL 6
REMARK VINA RESULT:    -4.883      2.980      5.657
REMARK INTER + INTRA:         -10.308
REMARK INTER:                  -8.597
REMARK INTRA:                  -1.711
REMARK UNBOUND:                -2.000
REMARK SMILES CCCCCCCCCCCCCC(=O)[O-]
REMARK SMILES IDX 8 1 9 2 10 3 11 4 12 5 13 6 14 7 15 8 16 9 7 10 6 11 5 12
REMARK SMILES IDX 4 13 3 14 2 15 1 16
REMARK H PARENT
REMARK Flexibility Score: inf
ROOT
ATOM      1  C   UNL     1     -29.844   1.268  23.267  1.00  0.00     0.000 C 
ENDROOT
BRANCH   1   2
ATOM      2  C   UNL     1     -30.678   0.030  23.634  1.00  0.00     0.000 C 
BRANCH   2   3
ATOM      3  C   UNL     1     -30.343  -1.188  22.756  1.00  0.00     0.000 C 
BRANCH   3   4
ATOM      4  C   UNL     1     -31.006  -1.115  21.370  1.00  0.00     0.000 C 
BRANCH   4   5
ATOM      5  C   UNL     1     -30.180  -1.813  20.279  1.00  0.00     0.006 C 
BRANCH   5   6
ATOM      6  C   UNL     1     -28.812  -2.242  20.818  1.00  0.00     0.053 C 
BRANCH   6   7
ATOM      7  C   UNL     1     -27.714  -1.621  20.012  1.00  0.00     0.041 C 
ATOM      8  O   UNL     1     -26.551  -1.536  20.486  1.00  0.00    -0.550 OA
ATOM      9  O   UNL     1     -27.964  -1.185  18.718  1.00  0.00    -0.550 OA
ENDBRANCH   6   7
ENDBRANCH   5   6
ENDBRANCH   4   5
ENDBRANCH   3   4
ENDBRANCH   2   3
ENDBRANCH   1   2
BRANCH   1  10
ATOM     10  C   UNL     1     -28.546   0.910  22.521  1.00  0.00     0.000 C 
BRANCH  10  11
ATOM     11  C   UNL     1     -27.311   0.947  23.434  1.00  0.00    -0.000 C 
BRANCH  11  12
ATOM     12  C   UNL     1     -26.849  -0.455  23.858  1.00  0.00    -0.000 C 
BRANCH  12  13
ATOM     13  C   UNL     1     -27.489  -0.864  25.194  1.00  0.00    -0.000 C 
BRANCH  13  14
ATOM     14  C   UNL     1     -27.714   0.344  26.129  1.00  0.00    -0.000 C 
BRANCH  14  15
ATOM     15  C   UNL     1     -28.679   0.052  27.289  1.00  0.00    -0.003 C 
ATOM     16  C   UNL     1     -29.972   0.862  27.212  1.00  0.00     0.004 C 
ENDBRANCH  14  15
ENDBRANCH  13  14
ENDBRANCH  12  13
ENDBRANCH  11  12
ENDBRANCH  10  11
ENDBRANCH   1  10
TORSDOF 12
ENDMDL
MODEL 7
REMARK VINA RESULT:    -4.833      1.359      2.412
REMARK INTER + INTRA:         -10.223
REMARK INTER:                  -8.422
REMARK INTRA:                  -1.801
REMARK UNBOUND:                -2.000
REMARK SMILES CCCCCCCCCCCCCC(=O)[O-]
REMARK SMILES IDX 8 1 9 2 10 3 11 4 12 5 13 6 14 7 15 8 16 9 7 10 6 11 5 12
REMARK SMILES IDX 4 13 3 14 2 15 1 16
REMARK H PARENT
REMARK Flexibility Score: inf
ROOT
ATOM      1  C   UNL     1     -28.992  -2.729  23.614  1.00  0.00     0.000 C 
ENDROOT
BRANCH   1   2
ATOM      2  C   UNL     1     -28.077  -2.310  24.776  1.00  0.00     0.000 C 
BRANCH   2   3
ATOM      3  C   UNL     1     -26.902  -1.432  24.314  1.00  0.00     0.000 C 
BRANCH   3   4
ATOM      4  C   UNL     1     -27.111   0.055  24.646  1.00  0.00     0.000 C 
BRANCH   4   5
ATOM      5  C   UNL     1     -27.886   0.269  25.955  1.00  0.00     0.006 C 
BRANCH   5   6
ATOM      6  C   UNL     1     -29.270   0.866  25.680  1.00  0.00     0.053 C 
BRANCH   6   7
ATOM      7  C   UNL     1     -30.213   0.535  26.793  1.00  0.00     0.041 C 
ATOM      8  O   UNL     1     -31.086  -0.358  26.640  1.00  0.00    -0.550 OA
ATOM      9  O   UNL     1     -30.094   1.177  28.019  1.00  0.00    -0.550 OA
ENDBRANCH   6   7
ENDBRANCH   5   6
ENDBRANCH   4   5
ENDBRANCH   3   4
ENDBRANCH   2   3
ENDBRANCH   1   2
BRANCH   1  10
ATOM     10  C   UNL     1     -30.425  -2.185  23.759  1.00  0.00     0.000 C 
BRANCH  10  11
ATOM     11  C   UNL     1     -30.848  -1.312  22.568  1.00  0.00    -0.000 C 
BRANCH  11  12
ATOM     12  C   UNL     1     -29.972  -0.061  22.413  1.00  0.00    -0.000 C 
BRANCH  12  13
ATOM     13  C   UNL     1     -29.320  -0.014  21.023  1.00  0.00    -0.000 C 
BRANCH  13  14
ATOM     14  C   UNL     1     -27.915  -0.654  21.014  1.00  0.00    -0.000 C 
BRANCH  14  15
ATOM     15  C   UNL     1     -27.721  -1.699  19.903  1.00  0.00    -0.003 C 
ATOM     16  C   UNL     1     -28.967  -2.547  19.654  1.00  0.00     0.004 C 
ENDBRANCH  14  15
ENDBRANCH  13  14
ENDBRANCH  12  13
ENDBRANCH  11  12
ENDBRANCH  10  11
ENDBRANCH   1  10
TORSDOF 12
ENDMDL
MODEL 8
REMARK VINA RESULT:    -4.832      1.254      3.110
REMARK INTER + INTRA:         -10.222
REMARK INTER:                  -8.249
REMARK INTRA:                  -1.973
REMARK UNBOUND:                -2.000
REMARK SMILES CCCCCCCCCCCCCC(=O)[O-]
REMARK SMILES IDX 8 1 9 2 10 3 11 4 12 5 13 6 14 7 15 8 16 9 7 10 6 11 5 12
REMARK SMILES IDX 4 13 3 14 2 15 1 16
REMARK H PARENT
REMARK Flexibility Score: inf
ROOT
ATOM      1  C   UNL     1     -27.393  -1.850  23.764  1.00  0.00     0.000 C 
ENDROOT
BRANCH   1   2
ATOM      2  C   UNL     1     -28.637  -2.494  24.397  1.00  0.00     0.000 C 
BRANCH   2   3
ATOM      3  C   UNL     1     -29.845  -2.505  23.444  1.00  0.00     0.000 C 
BRANCH   3   4
ATOM      4  C   UNL     1     -31.099  -1.876  24.074  1.00  0.00     0.000 C 
BRANCH   4   5
ATOM      5  C   UNL     1     -30.818  -0.510  24.719  1.00  0.00     0.006 C 
BRANCH   5   6
ATOM      6  C   UNL     1     -30.778  -0.624  26.246  1.00  0.00     0.053 C 
BRANCH   6   7
ATOM      7  C   UNL     1     -29.704   0.254  26.808  1.00  0.00     0.041 C 
ATOM      8  O   UNL     1     -29.750   1.499  26.637  1.00  0.00    -0.550 OA
ATOM      9  O   UNL     1     -28.681  -0.300  27.567  1.00  0.00    -0.550 OA
ENDBRANCH   6   7
ENDBRANCH   5   6
ENDBRANCH   4   5
ENDBRANCH   3   4
ENDBRANCH   2   3
ENDBRANCH   1   2
BRANCH   1  10
ATOM     10  C   UNL     1     -26.853  -0.666  24.588  1.00  0.00     0.000 C 
BRANCH  10  11
ATOM     11  C   UNL     1     -27.293   0.694  24.023  1.00  0.00    -0.000 C 
BRANCH  11  12
ATOM     12  C   UNL     1     -27.486   0.665  22.500  1.00  0.00    -0.000 C 
BRANCH  12  13
ATOM     13  C   UNL     1     -28.953   0.929  22.127  1.00  0.00    -0.000 C 
BRANCH  13  14
ATOM     14  C   UNL     1     -29.477  -0.069  21.072  1.00  0.00    -0.000 C 
BRANCH  14  15
ATOM     15  C   UNL     1     -28.361  -0.765  20.276  1.00  0.00    -0.003 C 
ATOM     16  C   UNL     1     -28.625  -2.252  20.048  1.00  0.00     0.004 C 
ENDBRANCH  14  15
ENDBRANCH  13  14
ENDBRANCH  12  13
ENDBRANCH  11  12
ENDBRANCH  10  11
ENDBRANCH   1  10
TORSDOF 12
ENDMDL
MODEL 9
REMARK VINA RESULT:    -4.813      3.169      5.487
REMARK INTER + INTRA:         -10.189
REMARK INTER:                  -8.477
REMARK INTRA:                  -1.712
REMARK UNBOUND:                -2.000
REMARK SMILES CCCCCCCCCCCCCC(=O)[O-]
REMARK SMILES IDX 8 1 9 2 10 3 11 4 12 5 13 6 14 7 15 8 16 9 7 10 6 11 5 12
REMARK SMILES IDX 4 13 3 14 2 15 1 16
REMARK H PARENT
REMARK Flexibility Score: inf
ROOT
ATOM      1  C   UNL     1     -30.892  -1.134  25.394  1.00  0.00     0.000 C 
ENDROOT
BRANCH   1   2
ATOM      2  C   UNL     1     -30.882  -1.687  23.959  1.00  0.00     0.000 C 
BRANCH   2   3
ATOM      3  C   UNL     1     -31.226  -0.615  22.911  1.00  0.00     0.000 C 
BRANCH   3   4
ATOM      4  C   UNL     1     -30.122  -0.449  21.853  1.00  0.00     0.000 C 
BRANCH   4   5
ATOM      5  C   UNL     1     -29.485  -1.785  21.444  1.00  0.00     0.006 C 
BRANCH   5   6
ATOM      6  C   UNL     1     -29.499  -1.955  19.922  1.00  0.00     0.053 C 
BRANCH   6   7
ATOM      7  C   UNL     1     -28.146  -1.669  19.351  1.00  0.00     0.041 C 
ATOM      8  O   UNL     1     -27.996  -1.544  18.108  1.00  0.00    -0.550 OA
ATOM      9  O   UNL     1     -27.059  -1.489  20.197  1.00  0.00    -0.550 OA
ENDBRANCH   6   7
ENDBRANCH   5   6
ENDBRANCH   4   5
ENDBRANCH   3   4
ENDBRANCH   2   3
ENDBRANCH   1   2
BRANCH   1  10
ATOM     10  C   UNL     1     -30.621   0.381  25.448  1.00  0.00     0.000 C 
BRANCH  10  11
ATOM     11  C   UNL     1     -29.836   0.794  26.703  1.00  0.00    -0.000 C 
BRANCH  11  12
ATOM     12  C   UNL     1     -28.589  -0.072  26.930  1.00  0.00    -0.000 C 
BRANCH  12  13
ATOM     13  C   UNL     1     -27.504   0.241  25.887  1.00  0.00    -0.000 C 
BRANCH  13  14
ATOM     14  C   UNL     1     -27.211  -0.964  24.968  1.00  0.00    -0.000 C 
BRANCH  14  15
ATOM     15  C   UNL     1     -26.738  -0.565  23.561  1.00  0.00    -0.003 C 
ATOM     16  C   UNL     1     -26.942   0.918  23.259  1.00  0.00     0.004 C 
ENDBRANCH  14  15
ENDBRANCH  13  14
ENDBRANCH  12  13
ENDBRANCH  11  12
ENDBRANCH  10  11
ENDBRANCH   1  10
TORSDOF 12
ENDMDL
