MODEL 1
REMARK VINA RESULT:    -4.018      0.000      0.000
REMARK INTER + INTRA:          -6.396
REMARK INTER:                  -5.780
REMARK INTRA:                  -0.616
REMARK UNBOUND:                -0.616
REMARK SMILES CCCCCCCCCO
REMARK SMILES IDX 6 1 5 2 4 3 3 4 2 5 1 6 7 7 8 8 9 9 10 10
REMARK H PARENT 10 11
REMARK Flexibility Score: inf
ROOT
ATOM      1  C   UNL     1      20.132  -0.789 -14.887  1.00  0.00     0.000 C 
ENDROOT
BRANCH   1   2
ATOM      2  C   UNL     1      21.562  -1.120 -15.362  1.00  0.00     0.000 C 
BRANCH   2   3
ATOM      3  C   UNL     1      22.032  -0.331 -16.596  1.00  0.00    -0.000 C 
BRANCH   3   4
ATOM      4  C   UNL     1      21.909  -1.136 -17.900  1.00  0.00    -0.000 C 
BRANCH   4   5
ATOM      5  C   UNL     1      20.490  -1.089 -18.488  1.00  0.00    -0.003 C 
ATOM      6  C   UNL     1      19.702  -2.374 -18.234  1.00  0.00     0.004 C 
ENDBRANCH   4   5
ENDBRANCH   3   4
ENDBRANCH   2   3
ENDBRANCH   1   2
BRANCH   1   7
ATOM      7  C   UNL     1      19.707   0.682 -15.060  1.00  0.00     0.002 C 
BRANCH   7   8
ATOM      8  C   UNL     1      18.299   0.887 -15.648  1.00  0.00     0.028 C 
BRANCH   8   9
ATOM      9  C   UNL     1      18.315   1.599 -17.002  1.00  0.00     0.156 C 
BRANCH   9  10
ATOM     10  O   UNL     1      17.002   1.901 -17.384  1.00  0.00    -0.396 OA
ATOM     11  H   UNL     1      16.732   1.192 -18.023  1.00  0.00     0.210 HD
ENDBRANCH   9  10
ENDBRANCH   8   9
ENDBRANCH   7   8
ENDBRANCH   1   7
TORSDOF 8
ENDMDL
MODEL 2
REMARK VINA RESULT:    -3.904      4.731      6.097
REMARK INTER + INTRA:          -6.232
REMARK INTER:                  -6.050
REMARK INTRA:                  -0.182
REMARK UNBOUND:                -0.616
REMARK SMILES CCCCCCCCCO
REMARK SMILES IDX 6 1 5 2 4 3 3 4 2 5 1 6 7 7 8 8 9 9 10 10
REMARK H PARENT 10 11
REMARK Flexibility Score: inf
ROOT
ATOM      1  C   UNL     1      23.732  -0.327 -14.854  1.00  0.00     0.000 C 
ENDROOT
BRANCH   1   2
ATOM      2  C   UNL     1      22.650  -0.799 -15.847  1.00  0.00     0.000 C 
BRANCH   2   3
ATOM      3  C   UNL     1      21.421  -1.459 -15.200  1.00  0.00    -0.000 C 
BRANCH   3   4
ATOM      4  C   UNL     1      20.143  -1.288 -16.038  1.00  0.00    -0.000 C 
BRANCH   4   5
ATOM      5  C   UNL     1      19.933  -2.439 -17.033  1.00  0.00    -0.003 C 
ATOM      6  C   UNL     1      20.119  -2.004 -18.487  1.00  0.00     0.004 C 
ENDBRANCH   4   5
ENDBRANCH   3   4
ENDBRANCH   2   3
ENDBRANCH   1   2
BRANCH   1   7
ATOM      7  C   UNL     1      24.750  -1.405 -14.431  1.00  0.00     0.002 C 
BRANCH   7   8
ATOM      8  C   UNL     1      25.712  -0.983 -13.306  1.00  0.00     0.028 C 
BRANCH   8   9
ATOM      9  C   UNL     1      26.692  -2.090 -12.913  1.00  0.00     0.156 C 
BRANCH   9  10
ATOM     10  O   UNL     1      27.902  -1.903 -13.593  1.00  0.00    -0.396 OA
ATOM     11  H   UNL     1      27.665  -1.783 -14.549  1.00  0.00     0.210 HD
ENDBRANCH   9  10
ENDBRANCH   8   9
ENDBRANCH   7   8
ENDBRANCH   1   7
TORSDOF 8
ENDMDL
MODEL 3
REMARK VINA RESULT:    -3.901      7.696      9.272
REMARK INTER + INTRA:          -6.227
REMARK INTER:                  -5.475
REMARK INTRA:                  -0.752
REMARK UNBOUND:                -0.616
REMARK SMILES CCCCCCCCCO
REMARK SMILES IDX 6 1 5 2 4 3 3 4 2 5 1 6 7 7 8 8 9 9 10 10
REMARK H PARENT 10 11
REMARK Flexibility Score: inf
ROOT
ATOM      1  C   UNL     1      17.057   1.648 -23.099  1.00  0.00     0.000 C 
ENDROOT
BRANCH   1   2
ATOM      2  C   UNL     1      17.085   2.125 -24.566  1.00  0.00     0.000 C 
BRANCH   2   3
ATOM      3  C   UNL     1      15.874   1.689 -25.410  1.00  0.00    -0.000 C 
BRANCH   3   4
ATOM      4  C   UNL     1      16.236   0.631 -26.466  1.00  0.00    -0.000 C 
BRANCH   4   5
ATOM      5  C   UNL     1      17.715   0.691 -26.876  1.00  0.00    -0.003 C 
ATOM      6  C   UNL     1      18.124  -0.469 -27.784  1.00  0.00     0.004 C 
ENDBRANCH   4   5
ENDBRANCH   3   4
ENDBRANCH   2   3
ENDBRANCH   1   2
BRANCH   1   7
ATOM      7  C   UNL     1      17.129   0.121 -22.905  1.00  0.00     0.002 C 
BRANCH   7   8
ATOM      8  C   UNL     1      18.461  -0.525 -23.327  1.00  0.00     0.028 C 
BRANCH   8   9
ATOM      9  C   UNL     1      18.275  -1.868 -24.036  1.00  0.00     0.156 C 
BRANCH   9  10
ATOM     10  O   UNL     1      16.915  -2.067 -24.305  1.00  0.00    -0.396 OA
ATOM     11  H   UNL     1      16.843  -2.973 -24.703  1.00  0.00     0.210 HD
ENDBRANCH   9  10
ENDBRANCH   8   9
ENDBRANCH   7   8
ENDBRANCH   1   7
TORSDOF 8
ENDMDL
MODEL 4
REMARK VINA RESULT:    -3.892      1.950      3.847
REMARK INTER + INTRA:          -6.214
REMARK INTER:                  -5.561
REMARK INTRA:                  -0.654
REMARK UNBOUND:                -0.616
REMARK SMILES CCCCCCCCCO
REMARK SMILES IDX 6 1 5 2 4 3 3 4 2 5 1 6 7 7 8 8 9 9 10 10
REMARK H PARENT 10 11
REMARK Flexibility Score: inf
ROOT
ATOM      1  C   UNL     1      21.179  -0.738 -15.130  1.00  0.00     0.000 C 
ENDROOT
BRANCH   1   2
ATOM      2  C   UNL     1      21.578   0.624 -15.734  1.00  0.00     0.000 C 
BRANCH   2   3
ATOM      3  C   UNL     1      20.557   1.753 -15.514  1.00  0.00    -0.000 C 
BRANCH   3   4
ATOM      4  C   UNL     1      19.388   1.330 -14.609  1.00  0.00    -0.000 C 
BRANCH   4   5
ATOM      5  C   UNL     1      18.043   1.323 -15.352  1.00  0.00    -0.003 C 
ATOM      6  C   UNL     1      18.204   1.436 -16.868  1.00  0.00     0.004 C 
ENDBRANCH   4   5
ENDBRANCH   3   4
ENDBRANCH   2   3
ENDBRANCH   1   2
BRANCH   1   7
ATOM      7  C   UNL     1      20.717  -1.798 -16.150  1.00  0.00     0.002 C 
BRANCH   7   8
ATOM      8  C   UNL     1      20.697  -1.323 -17.615  1.00  0.00     0.028 C 
BRANCH   8   9
ATOM      9  C   UNL     1      19.907  -2.257 -18.534  1.00  0.00     0.156 C 
BRANCH   9  10
ATOM     10  O   UNL     1      19.121  -3.118 -17.758  1.00  0.00    -0.396 OA
ATOM     11  H   UNL     1      18.449  -2.544 -17.306  1.00  0.00     0.210 HD
ENDBRANCH   9  10
ENDBRANCH   8   9
ENDBRANCH   7   8
ENDBRANCH   1   7
TORSDOF 8
ENDMDL
MODEL 5
REMARK VINA RESULT:    -3.874      7.480      8.891
REMARK INTER + INTRA:          -6.189
REMARK INTER:                  -5.440
REMARK INTRA:                  -0.748
REMARK UNBOUND:                -0.616
REMARK SMILES CCCCCCCCCO
REMARK SMILES IDX 6 1 5 2 4 3 3 4 2 5 1 6 7 7 8 8 9 9 10 10
REMARK H PARENT 10 11
REMARK Flexibility Score: inf
ROOT
ATOM      1  C   UNL     1      16.911   1.656 -23.834  1.00  0.00     0.000 C 
ENDROOT
BRANCH   1   2
ATOM      2  C   UNL     1      16.700   0.345 -23.048  1.00  0.00     0.000 C 
BRANCH   2   3
ATOM      3  C   UNL     1      17.847  -0.673 -23.168  1.00  0.00    -0.000 C 
BRANCH   3   4
ATOM      4  C   UNL     1      19.196  -0.013 -23.498  1.00  0.00    -0.000 C 
BRANCH   4   5
ATOM      5  C   UNL     1      19.930  -0.717 -24.650  1.00  0.00    -0.003 C 
ATOM      6  C   UNL     1      19.291  -2.054 -25.026  1.00  0.00     0.004 C 
ENDBRANCH   4   5
ENDBRANCH   3   4
ENDBRANCH   2   3
ENDBRANCH   1   2
BRANCH   1   7
ATOM      7  C   UNL     1      16.054   1.803 -25.106  1.00  0.00     0.002 C 
BRANCH   7   8
ATOM      8  C   UNL     1      16.824   1.649 -26.430  1.00  0.00     0.028 C 
BRANCH   8   9
ATOM      9  C   UNL     1      17.039   0.188 -26.829  1.00  0.00     0.156 C 
BRANCH   9  10
ATOM     10  O   UNL     1      15.937  -0.573 -26.418  1.00  0.00    -0.396 OA
ATOM     11  H   UNL     1      16.306  -1.426 -26.070  1.00  0.00     0.210 HD
ENDBRANCH   9  10
ENDBRANCH   8   9
ENDBRANCH   7   8
ENDBRANCH   1   7
TORSDOF 8
ENDMDL
MODEL 6
REMARK VINA RESULT:    -3.867      7.500      8.652
REMARK INTER + INTRA:          -6.179
REMARK INTER:                  -5.642
REMARK INTRA:                  -0.537
REMARK UNBOUND:                -0.616
REMARK SMILES CCCCCCCCCO
REMARK SMILES IDX 6 1 5 2 4 3 3 4 2 5 1 6 7 7 8 8 9 9 10 10
REMARK H PARENT 10 11
REMARK Flexibility Score: inf
ROOT
ATOM      1  C   UNL     1      16.765   0.249 -23.080  1.00  0.00     0.000 C 
ENDROOT
BRANCH   1   2
ATOM      2  C   UNL     1      18.048  -0.608 -23.107  1.00  0.00     0.000 C 
BRANCH   2   3
ATOM      3  C   UNL     1      18.112  -1.639 -24.247  1.00  0.00    -0.000 C 
BRANCH   3   4
ATOM      4  C   UNL     1      19.207  -1.318 -25.278  1.00  0.00    -0.000 C 
BRANCH   4   5
ATOM      5  C   UNL     1      20.337  -0.460 -24.689  1.00  0.00    -0.003 C 
ATOM      6  C   UNL     1      21.726  -1.004 -25.020  1.00  0.00     0.004 C 
ENDBRANCH   4   5
ENDBRANCH   3   4
ENDBRANCH   2   3
ENDBRANCH   1   2
BRANCH   1   7
ATOM      7  C   UNL     1      16.825   1.545 -23.913  1.00  0.00     0.002 C 
BRANCH   7   8
ATOM      8  C   UNL     1      16.037   1.503 -25.235  1.00  0.00     0.028 C 
BRANCH   8   9
ATOM      9  C   UNL     1      16.941   1.456 -26.468  1.00  0.00     0.156 C 
BRANCH   9  10
ATOM     10  O   UNL     1      17.169   2.759 -26.927  1.00  0.00    -0.396 OA
ATOM     11  H   UNL     1      18.150   2.839 -27.054  1.00  0.00     0.210 HD
ENDBRANCH   9  10
ENDBRANCH   8   9
ENDBRANCH   7   8
ENDBRANCH   1   7
TORSDOF 8
ENDMDL
MODEL 7
REMARK VINA RESULT:    -3.853      7.118      8.489
REMARK INTER + INTRA:          -6.158
REMARK INTER:                  -5.504
REMARK INTRA:                  -0.654
REMARK UNBOUND:                -0.616
REMARK SMILES CCCCCCCCCO
REMARK SMILES IDX 6 1 5 2 4 3 3 4 2 5 1 6 7 7 8 8 9 9 10 10
REMARK H PARENT 10 11
REMARK Flexibility Score: inf
ROOT
ATOM      1  C   UNL     1      16.712   0.140 -23.230  1.00  0.00     0.000 C 
ENDROOT
BRANCH   1   2
ATOM      2  C   UNL     1      17.108   1.568 -22.803  1.00  0.00     0.000 C 
BRANCH   2   3
ATOM      3  C   UNL     1      18.623   1.831 -22.748  1.00  0.00    -0.000 C 
BRANCH   3   4
ATOM      4  C   UNL     1      19.453   0.537 -22.786  1.00  0.00    -0.000 C 
BRANCH   4   5
ATOM      5  C   UNL     1      20.237   0.379 -24.098  1.00  0.00    -0.003 C 
ATOM      6  C   UNL     1      19.962  -0.954 -24.794  1.00  0.00     0.004 C 
ENDBRANCH   4   5
ENDBRANCH   3   4
ENDBRANCH   2   3
ENDBRANCH   1   2
BRANCH   1   7
ATOM      7  C   UNL     1      16.083   0.024 -24.632  1.00  0.00     0.002 C 
BRANCH   7   8
ATOM      8  C   UNL     1      16.003   1.346 -25.418  1.00  0.00     0.028 C 
BRANCH   8   9
ATOM      9  C   UNL     1      17.055   1.447 -26.524  1.00  0.00     0.156 C 
BRANCH   9  10
ATOM     10  O   UNL     1      17.174   2.782 -26.932  1.00  0.00    -0.396 OA
ATOM     11  H   UNL     1      18.109   3.047 -26.735  1.00  0.00     0.210 HD
ENDBRANCH   9  10
ENDBRANCH   8   9
ENDBRANCH   7   8
ENDBRANCH   1   7
TORSDOF 8
ENDMDL
MODEL 8
REMARK VINA RESULT:    -3.834      7.695      9.417
REMARK INTER + INTRA:          -6.131
REMARK INTER:                  -5.329
REMARK INTRA:                  -0.802
REMARK UNBOUND:                -0.616
REMARK SMILES CCCCCCCCCO
REMARK SMILES IDX 6 1 5 2 4 3 3 4 2 5 1 6 7 7 8 8 9 9 10 10
REMARK H PARENT 10 11
REMARK Flexibility Score: inf
ROOT
ATOM      1  C   UNL     1      18.158  -0.320 -22.936  1.00  0.00     0.000 C 
ENDROOT
BRANCH   1   2
ATOM      2  C   UNL     1      16.751   0.207 -23.288  1.00  0.00     0.000 C 
BRANCH   2   3
ATOM      3  C   UNL     1      16.105  -0.449 -24.521  1.00  0.00    -0.000 C 
BRANCH   3   4
ATOM      4  C   UNL     1      15.766   0.566 -25.625  1.00  0.00    -0.000 C 
BRANCH   4   5
ATOM      5  C   UNL     1      16.121   2.007 -25.229  1.00  0.00    -0.003 C 
ATOM      6  C   UNL     1      17.245   2.595 -26.082  1.00  0.00     0.004 C 
ENDBRANCH   4   5
ENDBRANCH   3   4
ENDBRANCH   2   3
ENDBRANCH   1   2
BRANCH   1   7
ATOM      7  C   UNL     1      19.292   0.175 -23.854  1.00  0.00     0.002 C 
BRANCH   7   8
ATOM      8  C   UNL     1      19.776  -0.849 -24.898  1.00  0.00     0.028 C 
BRANCH   8   9
ATOM      9  C   UNL     1      19.419  -0.453 -26.332  1.00  0.00     0.156 C 
BRANCH   9  10
ATOM     10  O   UNL     1      18.626  -1.454 -26.906  1.00  0.00    -0.396 OA
ATOM     11  H   UNL     1      18.168  -1.033 -27.679  1.00  0.00     0.210 HD
ENDBRANCH   9  10
ENDBRANCH   8   9
ENDBRANCH   7   8
ENDBRANCH   1   7
TORSDOF 8
ENDMDL
MODEL 9
REMARK VINA RESULT:    -3.819      7.246      8.787
REMARK INTER + INTRA:          -6.109
REMARK INTER:                  -5.403
REMARK INTRA:                  -0.706
REMARK UNBOUND:                -0.616
REMARK SMILES CCCCCCCCCO
REMARK SMILES IDX 6 1 5 2 4 3 3 4 2 5 1 6 7 7 8 8 9 9 10 10
REMARK H PARENT 10 11
REMARK Flexibility Score: inf
ROOT
ATOM      1  C   UNL     1      15.981   0.121 -24.699  1.00  0.00     0.000 C 
ENDROOT
BRANCH   1   2
ATOM      2  C   UNL     1      15.980   1.509 -25.373  1.00  0.00     0.000 C 
BRANCH   2   3
ATOM      3  C   UNL     1      17.000   1.674 -26.513  1.00  0.00    -0.000 C 
BRANCH   3   4
ATOM      4  C   UNL     1      17.742   0.368 -26.842  1.00  0.00    -0.000 C 
BRANCH   4   5
ATOM      5  C   UNL     1      19.231   0.427 -26.469  1.00  0.00    -0.003 C 
ATOM      6  C   UNL     1      19.619  -0.616 -25.421  1.00  0.00     0.004 C 
ENDBRANCH   4   5
ENDBRANCH   3   4
ENDBRANCH   2   3
ENDBRANCH   1   2
BRANCH   1   7
ATOM      7  C   UNL     1      16.589   0.080 -23.283  1.00  0.00     0.002 C 
BRANCH   7   8
ATOM      8  C   UNL     1      17.230   1.399 -22.813  1.00  0.00     0.028 C 
BRANCH   8   9
ATOM      9  C   UNL     1      18.557   1.189 -22.080  1.00  0.00     0.156 C 
BRANCH   9  10
ATOM     10  O   UNL     1      18.313   1.053 -20.708  1.00  0.00    -0.396 OA
ATOM     11  H   UNL     1      18.735   0.197 -20.437  1.00  0.00     0.210 HD
ENDBRANCH   9  10
ENDBRANCH   8   9
ENDBRANCH   7   8
ENDBRANCH   1   7
TORSDOF 8
ENDMDL
