MODEL 1
REMARK VINA RESULT:    -6.286      0.000      0.000
REMARK INTER + INTRA:         -10.651
REMARK INTER:                  -9.593
REMARK INTRA:                  -1.058
REMARK UNBOUND:                -1.058
REMARK SMILES CC(=O)CCC=C(C)CCC=C(C)CCC=C(C)C
REMARK SMILES IDX 10 1 11 2 12 3 13 4 14 5 15 6 16 7 18 8 17 9 19 10 9 11 7 12
REMARK SMILES IDX 6 13 8 14 5 15 4 16 2 17 3 18 1 19
REMARK H PARENT
REMARK Flexibility Score: inf
ROOT
ATOM      1  C   UNL     1     -12.831 -15.737  29.205  1.00  0.00     0.032 C 
ENDROOT
BRANCH   1   2
ATOM      2  C   UNL     1     -13.060 -16.081  30.654  1.00  0.00    -0.028 C 
ATOM      3  C   UNL     1     -13.899 -15.407  31.475  1.00  0.00    -0.077 C 
ATOM      4  C   UNL     1     -14.765 -14.275  30.974  1.00  0.00     0.039 C 
BRANCH   3   5
ATOM      5  C   UNL     1     -13.978 -15.803  32.935  1.00  0.00     0.034 C 
BRANCH   5   6
ATOM      6  C   UNL     1     -13.609 -14.637  33.865  1.00  0.00     0.032 C 
BRANCH   6   7
ATOM      7  C   UNL     1     -12.432 -14.973  34.750  1.00  0.00    -0.028 C 
ATOM      8  C   UNL     1     -10.864 -14.685  36.642  1.00  0.00     0.039 C 
ATOM      9  C   UNL     1     -12.080 -14.274  35.853  1.00  0.00    -0.080 C 
ATOM     10  C   UNL     1     -12.901 -13.118  36.368  1.00  0.00     0.039 C 
ENDBRANCH   6   7
ENDBRANCH   5   6
ENDBRANCH   3   5
ENDBRANCH   1   2
BRANCH   1  11
ATOM     11  C   UNL     1     -11.338 -15.808  28.865  1.00  0.00     0.034 C 
BRANCH  11  12
ATOM     12  C   UNL     1     -10.994 -17.107  28.162  1.00  0.00    -0.077 C 
ATOM     13  C   UNL     1     -10.568 -18.217  28.812  1.00  0.00    -0.028 C 
ATOM     14  C   UNL     1     -11.126 -17.174  26.661  1.00  0.00     0.039 C 
BRANCH  13  15
ATOM     15  C   UNL     1     -10.396 -18.352  30.306  1.00  0.00     0.035 C 
BRANCH  15  16
ATOM     16  C   UNL     1     -10.915 -19.715  30.775  1.00  0.00     0.079 C 
BRANCH  16  17
ATOM     17  C   UNL     1     -12.417 -19.778  30.675  1.00  0.00     0.130 C 
ATOM     18  O   UNL     1     -13.097 -19.463  31.638  1.00  0.00    -0.300 OA
ATOM     19  C   UNL     1     -13.098 -20.208  29.409  1.00  0.00     0.087 C 
ENDBRANCH  16  17
ENDBRANCH  15  16
ENDBRANCH  13  15
ENDBRANCH  11  12
ENDBRANCH   1  11
TORSDOF 9
ENDMDL
MODEL 2
REMARK VINA RESULT:    -6.012      0.677      1.041
REMARK INTER + INTRA:         -10.232
REMARK INTER:                  -9.177
REMARK INTRA:                  -1.055
REMARK UNBOUND:                -1.058
REMARK SMILES CC(=O)CCC=C(C)CCC=C(C)CCC=C(C)C
REMARK SMILES IDX 10 1 11 2 12 3 13 4 14 5 15 6 16 7 18 8 17 9 19 10 9 11 7 12
REMARK SMILES IDX 6 13 8 14 5 15 4 16 2 17 3 18 1 19
REMARK H PARENT
REMARK Flexibility Score: inf
ROOT
ATOM      1  C   UNL     1     -12.713 -15.570  29.126  1.00  0.00     0.032 C 
ENDROOT
BRANCH   1   2
ATOM      2  C   UNL     1     -13.184 -15.764  30.545  1.00  0.00    -0.028 C 
ATOM      3  C   UNL     1     -14.129 -15.004  31.146  1.00  0.00    -0.077 C 
ATOM      4  C   UNL     1     -14.875 -13.923  30.399  1.00  0.00     0.039 C 
BRANCH   3   5
ATOM      5  C   UNL     1     -14.453 -15.250  32.605  1.00  0.00     0.034 C 
BRANCH   5   6
ATOM      6  C   UNL     1     -13.188 -15.281  33.475  1.00  0.00     0.032 C 
BRANCH   6   7
ATOM      7  C   UNL     1     -13.307 -14.371  34.675  1.00  0.00    -0.028 C 
ATOM      8  C   UNL     1     -12.548 -13.207  36.722  1.00  0.00     0.039 C 
ATOM      9  C   UNL     1     -12.301 -14.109  35.540  1.00  0.00    -0.080 C 
ATOM     10  C   UNL     1     -10.905 -14.642  35.334  1.00  0.00     0.039 C 
ENDBRANCH   6   7
ENDBRANCH   5   6
ENDBRANCH   3   5
ENDBRANCH   1   2
BRANCH   1  11
ATOM     11  C   UNL     1     -12.770 -16.894  28.354  1.00  0.00     0.034 C 
BRANCH  11  12
ATOM     12  C   UNL     1     -11.392 -17.314  27.881  1.00  0.00    -0.077 C 
ATOM     13  C   UNL     1     -10.425 -17.773  28.711  1.00  0.00    -0.028 C 
ATOM     14  C   UNL     1     -11.071 -17.212  26.410  1.00  0.00     0.039 C 
BRANCH  13  15
ATOM     15  C   UNL     1     -10.563 -17.967  30.202  1.00  0.00     0.035 C 
BRANCH  15  16
ATOM     16  C   UNL     1     -10.813 -19.444  30.521  1.00  0.00     0.079 C 
BRANCH  16  17
ATOM     17  C   UNL     1     -12.288 -19.751  30.510  1.00  0.00     0.130 C 
ATOM     18  O   UNL     1     -12.967 -19.475  31.487  1.00  0.00    -0.300 OA
ATOM     19  C   UNL     1     -12.947 -20.376  29.316  1.00  0.00     0.087 C 
ENDBRANCH  16  17
ENDBRANCH  15  16
ENDBRANCH  13  15
ENDBRANCH  11  12
ENDBRANCH   1  11
TORSDOF 9
ENDMDL
MODEL 3
REMARK VINA RESULT:    -5.435      2.243      7.067
REMARK INTER + INTRA:          -9.351
REMARK INTER:                  -8.897
REMARK INTRA:                  -0.455
REMARK UNBOUND:                -1.058
REMARK SMILES CC(=O)CCC=C(C)CCC=C(C)CCC=C(C)C
REMARK SMILES IDX 10 1 11 2 12 3 13 4 14 5 15 6 16 7 18 8 17 9 19 10 9 11 7 12
REMARK SMILES IDX 6 13 8 14 5 15 4 16 2 17 3 18 1 19
REMARK H PARENT
REMARK Flexibility Score: inf
ROOT
ATOM      1  C   UNL     1     -13.301 -15.612  30.706  1.00  0.00     0.032 C 
ENDROOT
BRANCH   1   2
ATOM      2  C   UNL     1     -12.318 -16.195  29.724  1.00  0.00    -0.028 C 
ATOM      3  C   UNL     1     -12.390 -16.030  28.383  1.00  0.00    -0.077 C 
ATOM      4  C   UNL     1     -13.440 -15.152  27.743  1.00  0.00     0.039 C 
BRANCH   3   5
ATOM      5  C   UNL     1     -11.384 -16.739  27.498  1.00  0.00     0.034 C 
BRANCH   5   6
ATOM      6  C   UNL     1     -11.595 -18.260  27.499  1.00  0.00     0.032 C 
BRANCH   6   7
ATOM      7  C   UNL     1     -11.593 -18.829  28.898  1.00  0.00    -0.028 C 
ATOM      8  C   UNL     1     -12.445 -20.147  30.810  1.00  0.00     0.039 C 
ATOM      9  C   UNL     1     -12.534 -19.669  29.384  1.00  0.00    -0.080 C 
ATOM     10  C   UNL     1     -13.655 -20.203  28.527  1.00  0.00     0.039 C 
ENDBRANCH   6   7
ENDBRANCH   5   6
ENDBRANCH   3   5
ENDBRANCH   1   2
BRANCH   1  11
ATOM     11  C   UNL     1     -12.816 -15.822  32.145  1.00  0.00     0.034 C 
BRANCH  11  12
ATOM     12  C   UNL     1     -13.777 -15.209  33.145  1.00  0.00    -0.077 C 
ATOM     13  C   UNL     1     -13.404 -14.791  34.378  1.00  0.00    -0.028 C 
ATOM     14  C   UNL     1     -15.226 -15.058  32.756  1.00  0.00     0.039 C 
BRANCH  13  15
ATOM     15  C   UNL     1     -12.002 -14.837  34.939  1.00  0.00     0.035 C 
BRANCH  15  16
ATOM     16  C   UNL     1     -12.042 -14.749  36.467  1.00  0.00     0.079 C 
BRANCH  16  17
ATOM     17  C   UNL     1     -12.441 -13.366  36.912  1.00  0.00     0.130 C 
ATOM     18  O   UNL     1     -13.447 -13.219  37.588  1.00  0.00    -0.300 OA
ATOM     19  C   UNL     1     -11.620 -12.163  36.553  1.00  0.00     0.087 C 
ENDBRANCH  16  17
ENDBRANCH  15  16
ENDBRANCH  13  15
ENDBRANCH  11  12
ENDBRANCH   1  11
TORSDOF 9
ENDMDL
MODEL 4
REMARK VINA RESULT:    -5.330      1.983      6.618
REMARK INTER + INTRA:          -9.192
REMARK INTER:                  -8.068
REMARK INTRA:                  -1.124
REMARK UNBOUND:                -1.058
REMARK SMILES CC(=O)CCC=C(C)CCC=C(C)CCC=C(C)C
REMARK SMILES IDX 10 1 11 2 12 3 13 4 14 5 15 6 16 7 18 8 17 9 19 10 9 11 7 12
REMARK SMILES IDX 6 13 8 14 5 15 4 16 2 17 3 18 1 19
REMARK H PARENT
REMARK Flexibility Score: inf
ROOT
ATOM      1  C   UNL     1     -14.200 -15.150  30.803  1.00  0.00     0.032 C 
ENDROOT
BRANCH   1   2
ATOM      2  C   UNL     1     -12.797 -15.675  30.644  1.00  0.00    -0.028 C 
ATOM      3  C   UNL     1     -12.174 -15.840  29.454  1.00  0.00    -0.077 C 
ATOM      4  C   UNL     1     -12.818 -15.421  28.153  1.00  0.00     0.039 C 
BRANCH   3   5
ATOM      5  C   UNL     1     -10.790 -16.456  29.426  1.00  0.00     0.034 C 
BRANCH   5   6
ATOM      6  C   UNL     1     -10.815 -17.939  29.825  1.00  0.00     0.032 C 
BRANCH   6   7
ATOM      7  C   UNL     1     -11.815 -18.724  29.010  1.00  0.00    -0.028 C 
ATOM      8  C   UNL     1     -13.632 -20.355  28.610  1.00  0.00     0.039 C 
ATOM      9  C   UNL     1     -12.702 -19.604  29.528  1.00  0.00    -0.080 C 
ATOM     10  C   UNL     1     -12.842 -19.825  31.014  1.00  0.00     0.039 C 
ENDBRANCH   6   7
ENDBRANCH   5   6
ENDBRANCH   3   5
ENDBRANCH   1   2
BRANCH   1  11
ATOM     11  C   UNL     1     -14.409 -14.590  32.215  1.00  0.00     0.034 C 
BRANCH  11  12
ATOM     12  C   UNL     1     -14.018 -15.604  33.272  1.00  0.00    -0.077 C 
ATOM     13  C   UNL     1     -13.334 -15.283  34.397  1.00  0.00    -0.028 C 
ATOM     14  C   UNL     1     -14.401 -17.048  33.066  1.00  0.00     0.039 C 
BRANCH  13  15
ATOM     15  C   UNL     1     -12.885 -13.896  34.790  1.00  0.00     0.035 C 
BRANCH  15  16
ATOM     16  C   UNL     1     -12.277 -13.917  36.196  1.00  0.00     0.079 C 
BRANCH  16  17
ATOM     17  C   UNL     1     -10.982 -14.688  36.206  1.00  0.00     0.130 C 
ATOM     18  O   UNL     1     -10.766 -15.488  37.103  1.00  0.00    -0.300 OA
ATOM     19  C   UNL     1      -9.955 -14.505  35.128  1.00  0.00     0.087 C 
ENDBRANCH  16  17
ENDBRANCH  15  16
ENDBRANCH  13  15
ENDBRANCH  11  12
ENDBRANCH   1  11
TORSDOF 9
ENDMDL
MODEL 5
REMARK VINA RESULT:    -5.330      1.277      2.151
REMARK INTER + INTRA:          -9.191
REMARK INTER:                  -8.049
REMARK INTRA:                  -1.143
REMARK UNBOUND:                -1.058
REMARK SMILES CC(=O)CCC=C(C)CCC=C(C)CCC=C(C)C
REMARK SMILES IDX 10 1 11 2 12 3 13 4 14 5 15 6 16 7 18 8 17 9 19 10 9 11 7 12
REMARK SMILES IDX 6 13 8 14 5 15 4 16 2 17 3 18 1 19
REMARK H PARENT
REMARK Flexibility Score: inf
ROOT
ATOM      1  C   UNL     1     -13.044 -16.409  31.045  1.00  0.00     0.032 C 
ENDROOT
BRANCH   1   2
ATOM      2  C   UNL     1     -12.884 -15.706  32.369  1.00  0.00    -0.028 C 
ATOM      3  C   UNL     1     -13.872 -15.028  32.997  1.00  0.00    -0.077 C 
ATOM      4  C   UNL     1     -15.281 -14.988  32.454  1.00  0.00     0.039 C 
BRANCH   3   5
ATOM      5  C   UNL     1     -13.559 -14.295  34.286  1.00  0.00     0.034 C 
BRANCH   5   6
ATOM      6  C   UNL     1     -12.463 -15.005  35.095  1.00  0.00     0.032 C 
BRANCH   6   7
ATOM      7  C   UNL     1     -11.236 -14.140  35.260  1.00  0.00    -0.028 C 
ATOM      8  C   UNL     1      -9.883 -12.270  36.150  1.00  0.00     0.039 C 
ATOM      9  C   UNL     1     -11.153 -13.079  36.094  1.00  0.00    -0.080 C 
ATOM     10  C   UNL     1     -12.276 -12.702  37.029  1.00  0.00     0.039 C 
ENDBRANCH   6   7
ENDBRANCH   5   6
ENDBRANCH   3   5
ENDBRANCH   1   2
BRANCH   1  11
ATOM     11  C   UNL     1     -12.050 -15.855  30.017  1.00  0.00     0.034 C 
BRANCH  11  12
ATOM     12  C   UNL     1     -12.669 -15.788  28.635  1.00  0.00    -0.077 C 
ATOM     13  C   UNL     1     -12.508 -16.753  27.698  1.00  0.00    -0.028 C 
ATOM     14  C   UNL     1     -13.504 -14.585  28.274  1.00  0.00     0.039 C 
BRANCH  13  15
ATOM     15  C   UNL     1     -11.731 -18.036  27.877  1.00  0.00     0.035 C 
BRANCH  15  16
ATOM     16  C   UNL     1     -12.623 -19.109  28.509  1.00  0.00     0.079 C 
BRANCH  16  17
ATOM     17  C   UNL     1     -12.062 -19.556  29.834  1.00  0.00     0.130 C 
ATOM     18  O   UNL     1     -12.731 -20.277  30.557  1.00  0.00    -0.300 OA
ATOM     19  C   UNL     1     -10.690 -19.145  30.281  1.00  0.00     0.087 C 
ENDBRANCH  16  17
ENDBRANCH  15  16
ENDBRANCH  13  15
ENDBRANCH  11  12
ENDBRANCH   1  11
TORSDOF 9
ENDMDL
MODEL 6
REMARK VINA RESULT:    -5.044      2.462      7.050
REMARK INTER + INTRA:          -8.756
REMARK INTER:                  -7.545
REMARK INTRA:                  -1.210
REMARK UNBOUND:                -1.058
REMARK SMILES CC(=O)CCC=C(C)CCC=C(C)CCC=C(C)C
REMARK SMILES IDX 10 1 11 2 12 3 13 4 14 5 15 6 16 7 18 8 17 9 19 10 9 11 7 12
REMARK SMILES IDX 6 13 8 14 5 15 4 16 2 17 3 18 1 19
REMARK H PARENT
REMARK Flexibility Score: inf
ROOT
ATOM      1  C   UNL     1     -13.742 -17.322  31.758  1.00  0.00     0.032 C 
ENDROOT
BRANCH   1   2
ATOM      2  C   UNL     1     -12.435 -16.821  31.198  1.00  0.00    -0.028 C 
ATOM      3  C   UNL     1     -11.554 -17.587  30.514  1.00  0.00    -0.077 C 
ATOM      4  C   UNL     1     -11.853 -19.027  30.167  1.00  0.00     0.039 C 
BRANCH   3   5
ATOM      5  C   UNL     1     -10.236 -16.982  30.075  1.00  0.00     0.034 C 
BRANCH   5   6
ATOM      6  C   UNL     1     -10.432 -15.898  29.006  1.00  0.00     0.032 C 
BRANCH   6   7
ATOM      7  C   UNL     1     -11.305 -16.378  27.870  1.00  0.00    -0.028 C 
ATOM      8  C   UNL     1     -13.349 -16.516  26.484  1.00  0.00     0.039 C 
ATOM      9  C   UNL     1     -12.561 -15.938  27.631  1.00  0.00    -0.080 C 
ATOM     10  C   UNL     1     -13.193 -14.834  28.440  1.00  0.00     0.039 C 
ENDBRANCH   6   7
ENDBRANCH   5   6
ENDBRANCH   3   5
ENDBRANCH   1   2
BRANCH   1  11
ATOM     11  C   UNL     1     -14.023 -16.685  33.124  1.00  0.00     0.034 C 
BRANCH  11  12
ATOM     12  C   UNL     1     -14.130 -15.176  33.015  1.00  0.00    -0.077 C 
ATOM     13  C   UNL     1     -13.535 -14.321  33.882  1.00  0.00    -0.028 C 
ATOM     14  C   UNL     1     -14.944 -14.588  31.890  1.00  0.00     0.039 C 
BRANCH  13  15
ATOM     15  C   UNL     1     -12.665 -14.716  35.052  1.00  0.00     0.035 C 
BRANCH  15  16
ATOM     16  C   UNL     1     -12.713 -13.632  36.134  1.00  0.00     0.079 C 
BRANCH  16  17
ATOM     17  C   UNL     1     -11.367 -12.972  36.288  1.00  0.00     0.130 C 
ATOM     18  O   UNL     1     -11.304 -11.828  36.711  1.00  0.00    -0.300 OA
ATOM     19  C   UNL     1     -10.098 -13.696  35.947  1.00  0.00     0.087 C 
ENDBRANCH  16  17
ENDBRANCH  15  16
ENDBRANCH  13  15
ENDBRANCH  11  12
ENDBRANCH   1  11
TORSDOF 9
ENDMDL
MODEL 7
REMARK VINA RESULT:    -5.041      1.586      2.844
REMARK INTER + INTRA:          -8.751
REMARK INTER:                  -7.784
REMARK INTRA:                  -0.967
REMARK UNBOUND:                -1.058
REMARK SMILES CC(=O)CCC=C(C)CCC=C(C)CCC=C(C)C
REMARK SMILES IDX 10 1 11 2 12 3 13 4 14 5 15 6 16 7 18 8 17 9 19 10 9 11 7 12
REMARK SMILES IDX 6 13 8 14 5 15 4 16 2 17 3 18 1 19
REMARK H PARENT
REMARK Flexibility Score: inf
ROOT
ATOM      1  C   UNL     1     -12.453 -16.201  30.155  1.00  0.00     0.032 C 
ENDROOT
BRANCH   1   2
ATOM      2  C   UNL     1     -13.076 -15.951  31.505  1.00  0.00    -0.028 C 
ATOM      3  C   UNL     1     -14.058 -15.049  31.737  1.00  0.00    -0.077 C 
ATOM      4  C   UNL     1     -14.691 -14.255  30.618  1.00  0.00     0.039 C 
BRANCH   3   5
ATOM      5  C   UNL     1     -14.541 -14.834  33.157  1.00  0.00     0.034 C 
BRANCH   5   6
ATOM      6  C   UNL     1     -13.431 -15.101  34.185  1.00  0.00     0.032 C 
BRANCH   6   7
ATOM      7  C   UNL     1     -13.099 -13.865  34.987  1.00  0.00    -0.028 C 
ATOM      8  C   UNL     1     -12.002 -12.549  36.772  1.00  0.00     0.039 C 
ATOM      9  C   UNL     1     -12.230 -13.837  36.023  1.00  0.00    -0.080 C 
ATOM     10  C   UNL     1     -11.423 -15.045  36.429  1.00  0.00     0.039 C 
ENDBRANCH   6   7
ENDBRANCH   5   6
ENDBRANCH   3   5
ENDBRANCH   1   2
BRANCH   1  11
ATOM     11  C   UNL     1     -10.960 -16.517  30.301  1.00  0.00     0.034 C 
BRANCH  11  12
ATOM     12  C   UNL     1     -10.605 -17.824  29.619  1.00  0.00    -0.077 C 
ATOM     13  C   UNL     1     -10.450 -17.948  28.278  1.00  0.00    -0.028 C 
ATOM     14  C   UNL     1     -10.420 -19.056  30.468  1.00  0.00     0.039 C 
BRANCH  13  15
ATOM     15  C   UNL     1     -10.571 -16.830  27.270  1.00  0.00     0.035 C 
BRANCH  15  16
ATOM     16  C   UNL     1     -11.655 -17.164  26.241  1.00  0.00     0.079 C 
BRANCH  16  17
ATOM     17  C   UNL     1     -13.029 -16.959  26.826  1.00  0.00     0.130 C 
ATOM     18  O   UNL     1     -13.583 -17.884  27.398  1.00  0.00    -0.300 OA
ATOM     19  C   UNL     1     -13.727 -15.635  26.732  1.00  0.00     0.087 C 
ENDBRANCH  16  17
ENDBRANCH  15  16
ENDBRANCH  13  15
ENDBRANCH  11  12
ENDBRANCH   1  11
TORSDOF 9
ENDMDL
MODEL 8
REMARK VINA RESULT:    -4.843      1.965      5.811
REMARK INTER + INTRA:          -8.449
REMARK INTER:                  -7.026
REMARK INTRA:                  -1.423
REMARK UNBOUND:                -1.058
REMARK SMILES CC(=O)CCC=C(C)CCC=C(C)CCC=C(C)C
REMARK SMILES IDX 10 1 11 2 12 3 13 4 14 5 15 6 16 7 18 8 17 9 19 10 9 11 7 12
REMARK SMILES IDX 6 13 8 14 5 15 4 16 2 17 3 18 1 19
REMARK H PARENT
REMARK Flexibility Score: inf
ROOT
ATOM      1  C   UNL     1     -10.077 -19.392  31.029  1.00  0.00     0.032 C 
ENDROOT
BRANCH   1   2
ATOM      2  C   UNL     1     -10.097 -18.451  29.852  1.00  0.00    -0.028 C 
ATOM      3  C   UNL     1     -10.047 -17.102  29.952  1.00  0.00    -0.077 C 
ATOM      4  C   UNL     1      -9.876 -16.408  31.283  1.00  0.00     0.039 C 
BRANCH   3   5
ATOM      5  C   UNL     1     -10.159 -16.265  28.694  1.00  0.00     0.034 C 
BRANCH   5   6
ATOM      6  C   UNL     1     -11.556 -16.362  28.064  1.00  0.00     0.032 C 
BRANCH   6   7
ATOM      7  C   UNL     1     -12.477 -15.277  28.569  1.00  0.00    -0.028 C 
ATOM      8  C   UNL     1     -14.435 -13.764  28.527  1.00  0.00     0.039 C 
ATOM      9  C   UNL     1     -13.610 -14.883  27.944  1.00  0.00    -0.080 C 
ATOM     10  C   UNL     1     -14.123 -15.568  26.703  1.00  0.00     0.039 C 
ENDBRANCH   6   7
ENDBRANCH   5   6
ENDBRANCH   3   5
ENDBRANCH   1   2
BRANCH   1  11
ATOM     11  C   UNL     1     -11.491 -19.898  31.339  1.00  0.00     0.034 C 
BRANCH  11  12
ATOM     12  C   UNL     1     -12.499 -19.354  30.345  1.00  0.00    -0.077 C 
ATOM     13  C   UNL     1     -13.295 -18.287  30.598  1.00  0.00    -0.028 C 
ATOM     14  C   UNL     1     -12.634 -20.035  29.006  1.00  0.00     0.039 C 
BRANCH  13  15
ATOM     15  C   UNL     1     -13.290 -17.464  31.864  1.00  0.00     0.035 C 
BRANCH  15  16
ATOM     16  C   UNL     1     -13.509 -15.985  31.532  1.00  0.00     0.079 C 
BRANCH  16  17
ATOM     17  C   UNL     1     -14.217 -15.283  32.662  1.00  0.00     0.130 C 
ATOM     18  O   UNL     1     -15.376 -14.927  32.516  1.00  0.00    -0.300 OA
ATOM     19  C   UNL     1     -13.533 -15.023  33.971  1.00  0.00     0.087 C 
ENDBRANCH  16  17
ENDBRANCH  15  16
ENDBRANCH  13  15
ENDBRANCH  11  12
ENDBRANCH   1  11
TORSDOF 9
ENDMDL
MODEL 9
REMARK VINA RESULT:    -4.798      2.346      6.153
REMARK INTER + INTRA:          -8.380
REMARK INTER:                  -7.231
REMARK INTRA:                  -1.150
REMARK UNBOUND:                -1.058
REMARK SMILES CC(=O)CCC=C(C)CCC=C(C)CCC=C(C)C
REMARK SMILES IDX 10 1 11 2 12 3 13 4 14 5 15 6 16 7 18 8 17 9 19 10 9 11 7 12
REMARK SMILES IDX 6 13 8 14 5 15 4 16 2 17 3 18 1 19
REMARK H PARENT
REMARK Flexibility Score: inf
ROOT
ATOM      1  C   UNL     1     -13.894 -14.813  27.928  1.00  0.00     0.032 C 
ENDROOT
BRANCH   1   2
ATOM      2  C   UNL     1     -12.598 -15.365  28.464  1.00  0.00    -0.028 C 
ATOM      3  C   UNL     1     -11.826 -16.266  27.814  1.00  0.00    -0.077 C 
ATOM      4  C   UNL     1     -12.162 -16.746  26.421  1.00  0.00     0.039 C 
BRANCH   3   5
ATOM      5  C   UNL     1     -10.586 -16.804  28.499  1.00  0.00     0.034 C 
BRANCH   5   6
ATOM      6  C   UNL     1     -10.879 -18.093  29.282  1.00  0.00     0.032 C 
BRANCH   6   7
ATOM      7  C   UNL     1     -12.001 -18.888  28.658  1.00  0.00    -0.028 C 
ATOM      8  C   UNL     1     -13.731 -20.652  28.530  1.00  0.00     0.039 C 
ATOM      9  C   UNL     1     -12.646 -19.909  29.266  1.00  0.00    -0.080 C 
ATOM     10  C   UNL     1     -12.361 -20.303  30.694  1.00  0.00     0.039 C 
ENDBRANCH   6   7
ENDBRANCH   5   6
ENDBRANCH   3   5
ENDBRANCH   1   2
BRANCH   1  11
ATOM     11  C   UNL     1     -14.216 -13.464  28.581  1.00  0.00     0.034 C 
BRANCH  11  12
ATOM     12  C   UNL     1     -15.493 -13.539  29.396  1.00  0.00    -0.077 C 
ATOM     13  C   UNL     1     -15.529 -13.932  30.692  1.00  0.00    -0.028 C 
ATOM     14  C   UNL     1     -16.796 -13.162  28.735  1.00  0.00     0.039 C 
BRANCH  13  15
ATOM     15  C   UNL     1     -14.334 -14.324  31.528  1.00  0.00     0.035 C 
BRANCH  15  16
ATOM     16  C   UNL     1     -14.785 -15.139  32.744  1.00  0.00     0.079 C 
BRANCH  16  17
ATOM     17  C   UNL     1     -14.230 -16.539  32.684  1.00  0.00     0.130 C 
ATOM     18  O   UNL     1     -14.545 -17.347  33.543  1.00  0.00    -0.300 OA
ATOM     19  C   UNL     1     -13.308 -16.967  31.581  1.00  0.00     0.087 C 
ENDBRANCH  16  17
ENDBRANCH  15  16
ENDBRANCH  13  15
ENDBRANCH  11  12
ENDBRANCH   1  11
TORSDOF 9
ENDMDL
