MODEL 1
REMARK VINA RESULT:    -3.923      0.000      0.000
REMARK INTER + INTRA:          -9.224
REMARK INTER:                  -7.134
REMARK INTRA:                  -2.090
REMARK UNBOUND:                -2.090
REMARK SMILES CCCCCCCCCCCCCCCC(=O)[O-]
REMARK SMILES IDX 9 1 10 2 11 3 12 4 13 5 14 6 15 7 16 8 17 9 18 10 8 11 7 12
REMARK SMILES IDX 6 13 5 14 4 15 3 16 2 17 1 18
REMARK H PARENT
REMARK Flexibility Score: inf
ROOT
ATOM      1  C   UNL     1     163.446 177.417 187.386  1.00  0.00     0.000 C 
ENDROOT
BRANCH   1   2
ATOM      2  C   UNL     1     162.214 177.463 188.306  1.00  0.00     0.000 C 
BRANCH   2   3
ATOM      3  C   UNL     1     160.956 177.982 187.590  1.00  0.00     0.000 C 
BRANCH   3   4
ATOM      4  C   UNL     1     161.176 178.204 186.083  1.00  0.00     0.000 C 
BRANCH   4   5
ATOM      5  C   UNL     1     160.301 177.331 185.161  1.00  0.00     0.000 C 
BRANCH   5   6
ATOM      6  C   UNL     1     160.922 177.073 183.770  1.00  0.00     0.006 C 
BRANCH   6   7
ATOM      7  C   UNL     1     162.459 177.116 183.769  1.00  0.00     0.053 C 
BRANCH   7   8
ATOM      8  C   UNL     1     163.001 177.571 182.449  1.00  0.00     0.041 C 
ATOM      9  O   UNL     1     163.181 176.745 181.516  1.00  0.00    -0.550 OA
ATOM     10  O   UNL     1     163.289 178.914 182.241  1.00  0.00    -0.550 OA
ENDBRANCH   7   8
ENDBRANCH   6   7
ENDBRANCH   5   6
ENDBRANCH   4   5
ENDBRANCH   3   4
ENDBRANCH   2   3
ENDBRANCH   1   2
BRANCH   1  11
ATOM     11  C   UNL     1     163.971 175.989 187.124  1.00  0.00     0.000 C 
BRANCH  11  12
ATOM     12  C   UNL     1     163.032 174.912 187.697  1.00  0.00    -0.000 C 
BRANCH  12  13
ATOM     13  C   UNL     1     162.056 174.347 186.641  1.00  0.00    -0.000 C 
BRANCH  13  14
ATOM     14  C   UNL     1     160.597 174.275 187.124  1.00  0.00    -0.000 C 
BRANCH  14  15
ATOM     15  C   UNL     1     160.187 172.916 187.720  1.00  0.00    -0.000 C 
BRANCH  15  16
ATOM     16  C   UNL     1     160.839 171.708 187.010  1.00  0.00    -0.000 C 
BRANCH  16  17
ATOM     17  C   UNL     1     161.392 170.669 187.996  1.00  0.00    -0.003 C 
ATOM     18  C   UNL     1     162.361 171.310 188.987  1.00  0.00     0.004 C 
ENDBRANCH  16  17
ENDBRANCH  15  16
ENDBRANCH  14  15
ENDBRANCH  13  14
ENDBRANCH  12  13
ENDBRANCH  11  12
ENDBRANCH   1  11
TORSDOF 14
ENDMDL
MODEL 2
REMARK VINA RESULT:    -3.900      0.807      1.446
REMARK INTER + INTRA:          -9.181
REMARK INTER:                  -7.278
REMARK INTRA:                  -1.903
REMARK UNBOUND:                -2.090
REMARK SMILES CCCCCCCCCCCCCCCC(=O)[O-]
REMARK SMILES IDX 9 1 10 2 11 3 12 4 13 5 14 6 15 7 16 8 17 9 18 10 8 11 7 12
REMARK SMILES IDX 6 13 5 14 4 15 3 16 2 17 1 18
REMARK H PARENT
REMARK Flexibility Score: inf
ROOT
ATOM      1  C   UNL     1     163.814 176.461 186.973  1.00  0.00     0.000 C 
ENDROOT
BRANCH   1   2
ATOM      2  C   UNL     1     163.202 177.814 187.372  1.00  0.00     0.000 C 
BRANCH   2   3
ATOM      3  C   UNL     1     162.040 177.671 188.370  1.00  0.00     0.000 C 
BRANCH   3   4
ATOM      4  C   UNL     1     160.666 177.923 187.726  1.00  0.00     0.000 C 
BRANCH   4   5
ATOM      5  C   UNL     1     160.705 178.312 186.234  1.00  0.00     0.000 C 
BRANCH   5   6
ATOM      6  C   UNL     1     160.561 177.112 185.271  1.00  0.00     0.006 C 
BRANCH   6   7
ATOM      7  C   UNL     1     160.910 177.453 183.812  1.00  0.00     0.053 C 
BRANCH   7   8
ATOM      8  C   UNL     1     162.365 177.241 183.526  1.00  0.00     0.041 C 
ATOM      9  O   UNL     1     162.869 176.090 183.610  1.00  0.00    -0.550 OA
ATOM     10  O   UNL     1     163.162 178.313 183.146  1.00  0.00    -0.550 OA
ENDBRANCH   7   8
ENDBRANCH   6   7
ENDBRANCH   5   6
ENDBRANCH   4   5
ENDBRANCH   3   4
ENDBRANCH   2   3
ENDBRANCH   1   2
BRANCH   1  11
ATOM     11  C   UNL     1     163.292 175.274 187.811  1.00  0.00     0.000 C 
BRANCH  11  12
ATOM     12  C   UNL     1     162.436 174.307 186.977  1.00  0.00    -0.000 C 
BRANCH  12  13
ATOM     13  C   UNL     1     160.956 174.282 187.421  1.00  0.00    -0.000 C 
BRANCH  13  14
ATOM     14  C   UNL     1     160.152 173.113 186.826  1.00  0.00    -0.000 C 
BRANCH  14  15
ATOM     15  C   UNL     1     160.791 171.728 187.029  1.00  0.00    -0.000 C 
BRANCH  15  16
ATOM     16  C   UNL     1     160.716 171.219 188.487  1.00  0.00    -0.000 C 
BRANCH  16  17
ATOM     17  C   UNL     1     162.090 171.165 189.168  1.00  0.00    -0.003 C 
ATOM     18  C   UNL     1     163.173 170.716 188.190  1.00  0.00     0.004 C 
ENDBRANCH  16  17
ENDBRANCH  15  16
ENDBRANCH  14  15
ENDBRANCH  13  14
ENDBRANCH  12  13
ENDBRANCH  11  12
ENDBRANCH   1  11
TORSDOF 14
ENDMDL
MODEL 3
REMARK VINA RESULT:    -3.892      3.078      5.696
REMARK INTER + INTRA:          -9.167
REMARK INTER:                  -6.773
REMARK INTRA:                  -2.393
REMARK UNBOUND:                -2.090
REMARK SMILES CCCCCCCCCCCCCCCC(=O)[O-]
REMARK SMILES IDX 9 1 10 2 11 3 12 4 13 5 14 6 15 7 16 8 17 9 18 10 8 11 7 12
REMARK SMILES IDX 6 13 5 14 4 15 3 16 2 17 1 18
REMARK H PARENT
REMARK Flexibility Score: inf
ROOT
ATOM      1  C   UNL     1     161.152 178.164 185.771  1.00  0.00     0.000 C 
ENDROOT
BRANCH   1   2
ATOM      2  C   UNL     1     160.503 178.304 187.158  1.00  0.00     0.000 C 
BRANCH   2   3
ATOM      3  C   UNL     1     161.072 177.308 188.183  1.00  0.00     0.000 C 
BRANCH   3   4
ATOM      4  C   UNL     1     161.365 175.926 187.573  1.00  0.00     0.000 C 
BRANCH   4   5
ATOM      5  C   UNL     1     160.164 174.961 187.536  1.00  0.00     0.000 C 
BRANCH   5   6
ATOM      6  C   UNL     1     160.447 173.638 186.788  1.00  0.00     0.006 C 
BRANCH   6   7
ATOM      7  C   UNL     1     160.752 172.458 187.726  1.00  0.00     0.053 C 
BRANCH   7   8
ATOM      8  C   UNL     1     160.676 171.145 187.009  1.00  0.00     0.041 C 
ATOM      9  O   UNL     1     160.905 170.071 187.624  1.00  0.00    -0.550 OA
ATOM     10  O   UNL     1     160.331 171.106 185.664  1.00  0.00    -0.550 OA
ENDBRANCH   7   8
ENDBRANCH   6   7
ENDBRANCH   5   6
ENDBRANCH   4   5
ENDBRANCH   3   4
ENDBRANCH   2   3
ENDBRANCH   1   2
BRANCH   1  11
ATOM     11  C   UNL     1     160.170 177.699 184.673  1.00  0.00     0.000 C 
BRANCH  11  12
ATOM     12  C   UNL     1     160.697 176.475 183.905  1.00  0.00    -0.000 C 
BRANCH  12  13
ATOM     13  C   UNL     1     162.242 176.408 183.873  1.00  0.00    -0.000 C 
BRANCH  13  14
ATOM     14  C   UNL     1     162.810 175.042 184.296  1.00  0.00    -0.000 C 
BRANCH  14  15
ATOM     15  C   UNL     1     164.004 175.119 185.264  1.00  0.00    -0.000 C 
BRANCH  15  16
ATOM     16  C   UNL     1     164.662 176.515 185.325  1.00  0.00    -0.000 C 
BRANCH  16  17
ATOM     17  C   UNL     1     164.742 177.071 186.753  1.00  0.00    -0.003 C 
ATOM     18  C   UNL     1     164.568 178.588 186.765  1.00  0.00     0.004 C 
ENDBRANCH  16  17
ENDBRANCH  15  16
ENDBRANCH  14  15
ENDBRANCH  13  14
ENDBRANCH  12  13
ENDBRANCH  11  12
ENDBRANCH   1  11
TORSDOF 14
ENDMDL
MODEL 4
REMARK VINA RESULT:    -3.808      3.267      6.359
REMARK INTER + INTRA:          -9.014
REMARK INTER:                  -7.104
REMARK INTRA:                  -1.910
REMARK UNBOUND:                -2.090
REMARK SMILES CCCCCCCCCCCCCCCC(=O)[O-]
REMARK SMILES IDX 9 1 10 2 11 3 12 4 13 5 14 6 15 7 16 8 17 9 18 10 8 11 7 12
REMARK SMILES IDX 6 13 5 14 4 15 3 16 2 17 1 18
REMARK H PARENT
REMARK Flexibility Score: inf
ROOT
ATOM      1  C   UNL     1     161.937 175.548 184.377  1.00  0.00     0.000 C 
ENDROOT
BRANCH   1   2
ATOM      2  C   UNL     1     160.759 174.635 183.998  1.00  0.00     0.000 C 
BRANCH   2   3
ATOM      3  C   UNL     1     160.448 173.586 185.079  1.00  0.00     0.000 C 
BRANCH   3   4
ATOM      4  C   UNL     1     160.446 174.175 186.500  1.00  0.00     0.000 C 
BRANCH   4   5
ATOM      5  C   UNL     1     160.129 173.169 187.624  1.00  0.00     0.000 C 
BRANCH   5   6
ATOM      6  C   UNL     1     161.245 172.127 187.864  1.00  0.00     0.006 C 
BRANCH   6   7
ATOM      7  C   UNL     1     160.718 170.692 188.026  1.00  0.00     0.053 C 
BRANCH   7   8
ATOM      8  C   UNL     1     160.884 169.894 186.769  1.00  0.00     0.041 C 
ATOM      9  O   UNL     1     160.138 170.107 185.778  1.00  0.00    -0.550 OA
ATOM     10  O   UNL     1     161.879 168.928 186.684  1.00  0.00    -0.550 OA
ENDBRANCH   7   8
ENDBRANCH   6   7
ENDBRANCH   5   6
ENDBRANCH   4   5
ENDBRANCH   3   4
ENDBRANCH   2   3
ENDBRANCH   1   2
BRANCH   1  11
ATOM     11  C   UNL     1     161.623 177.053 184.239  1.00  0.00     0.000 C 
BRANCH  11  12
ATOM     12  C   UNL     1     160.337 177.448 184.986  1.00  0.00    -0.000 C 
BRANCH  12  13
ATOM     13  C   UNL     1     160.612 178.333 186.223  1.00  0.00    -0.000 C 
BRANCH  13  14
ATOM     14  C   UNL     1     160.736 177.538 187.535  1.00  0.00    -0.000 C 
BRANCH  14  15
ATOM     15  C   UNL     1     162.120 177.621 188.204  1.00  0.00    -0.000 C 
BRANCH  15  16
ATOM     16  C   UNL     1     163.151 176.630 187.620  1.00  0.00    -0.000 C 
BRANCH  16  17
ATOM     17  C   UNL     1     164.426 177.324 187.124  1.00  0.00    -0.003 C 
ATOM     18  C   UNL     1     164.161 178.789 186.784  1.00  0.00     0.004 C 
ENDBRANCH  16  17
ENDBRANCH  15  16
ENDBRANCH  14  15
ENDBRANCH  13  14
ENDBRANCH  12  13
ENDBRANCH  11  12
ENDBRANCH   1  11
TORSDOF 14
ENDMDL
MODEL 5
REMARK VINA RESULT:    -3.799      2.128      3.726
REMARK INTER + INTRA:          -8.997
REMARK INTER:                  -7.049
REMARK INTRA:                  -1.948
REMARK UNBOUND:                -2.090
REMARK SMILES CCCCCCCCCCCCCCCC(=O)[O-]
REMARK SMILES IDX 9 1 10 2 11 3 12 4 13 5 14 6 15 7 16 8 17 9 18 10 8 11 7 12
REMARK SMILES IDX 6 13 5 14 4 15 3 16 2 17 1 18
REMARK H PARENT
REMARK Flexibility Score: inf
ROOT
ATOM      1  C   UNL     1     161.301 173.889 185.593  1.00  0.00     0.000 C 
ENDROOT
BRANCH   1   2
ATOM      2  C   UNL     1     160.116 174.032 186.563  1.00  0.00     0.000 C 
BRANCH   2   3
ATOM      3  C   UNL     1     160.340 175.125 187.621  1.00  0.00     0.000 C 
BRANCH   3   4
ATOM      4  C   UNL     1     160.663 176.497 187.002  1.00  0.00     0.000 C 
BRANCH   4   5
ATOM      5  C   UNL     1     161.170 177.559 187.997  1.00  0.00     0.000 C 
BRANCH   5   6
ATOM      6  C   UNL     1     162.690 177.488 188.268  1.00  0.00     0.006 C 
BRANCH   6   7
ATOM      7  C   UNL     1     163.519 177.158 187.016  1.00  0.00     0.053 C 
BRANCH   7   8
ATOM      8  C   UNL     1     163.821 178.385 186.211  1.00  0.00     0.041 C 
ATOM      9  O   UNL     1     164.403 179.367 186.742  1.00  0.00    -0.550 OA
ATOM     10  O   UNL     1     163.478 178.436 184.865  1.00  0.00    -0.550 OA
ENDBRANCH   7   8
ENDBRANCH   6   7
ENDBRANCH   5   6
ENDBRANCH   4   5
ENDBRANCH   3   4
ENDBRANCH   2   3
ENDBRANCH   1   2
BRANCH   1  11
ATOM     11  C   UNL     1     161.208 172.648 184.680  1.00  0.00     0.000 C 
BRANCH  11  12
ATOM     12  C   UNL     1     162.464 171.765 184.771  1.00  0.00    -0.000 C 
BRANCH  12  13
ATOM     13  C   UNL     1     162.160 170.344 185.298  1.00  0.00    -0.000 C 
BRANCH  13  14
ATOM     14  C   UNL     1     160.752 170.197 185.899  1.00  0.00    -0.000 C 
BRANCH  14  15
ATOM     15  C   UNL     1     160.729 169.796 187.385  1.00  0.00    -0.000 C 
BRANCH  15  16
ATOM     16  C   UNL     1     160.787 171.000 188.351  1.00  0.00    -0.000 C 
BRANCH  16  17
ATOM     17  C   UNL     1     162.156 171.152 189.028  1.00  0.00    -0.003 C 
ATOM     18  C   UNL     1     162.927 172.338 188.453  1.00  0.00     0.004 C 
ENDBRANCH  16  17
ENDBRANCH  15  16
ENDBRANCH  14  15
ENDBRANCH  13  14
ENDBRANCH  12  13
ENDBRANCH  11  12
ENDBRANCH   1  11
TORSDOF 14
ENDMDL
MODEL 6
REMARK VINA RESULT:    -3.774      1.721      4.283
REMARK INTER + INTRA:          -8.952
REMARK INTER:                  -6.585
REMARK INTRA:                  -2.367
REMARK UNBOUND:                -2.090
REMARK SMILES CCCCCCCCCCCCCCCC(=O)[O-]
REMARK SMILES IDX 9 1 10 2 11 3 12 4 13 5 14 6 15 7 16 8 17 9 18 10 8 11 7 12
REMARK SMILES IDX 6 13 5 14 4 15 3 16 2 17 1 18
REMARK H PARENT
REMARK Flexibility Score: inf
ROOT
ATOM      1  C   UNL     1     162.755 174.463 187.295  1.00  0.00     0.000 C 
ENDROOT
BRANCH   1   2
ATOM      2  C   UNL     1     163.439 174.141 185.956  1.00  0.00     0.000 C 
BRANCH   2   3
ATOM      3  C   UNL     1     163.115 175.170 184.860  1.00  0.00     0.000 C 
BRANCH   3   4
ATOM      4  C   UNL     1     161.966 174.720 183.940  1.00  0.00     0.000 C 
BRANCH   4   5
ATOM      5  C   UNL     1     161.153 175.864 183.303  1.00  0.00     0.000 C 
BRANCH   5   6
ATOM      6  C   UNL     1     161.300 175.956 181.767  1.00  0.00     0.006 C 
BRANCH   6   7
ATOM      7  C   UNL     1     162.581 176.678 181.317  1.00  0.00     0.053 C 
BRANCH   7   8
ATOM      8  C   UNL     1     162.603 178.105 181.771  1.00  0.00     0.041 C 
ATOM      9  O   UNL     1     161.773 178.932 181.310  1.00  0.00    -0.550 OA
ATOM     10  O   UNL     1     163.529 178.519 182.721  1.00  0.00    -0.550 OA
ENDBRANCH   7   8
ENDBRANCH   6   7
ENDBRANCH   5   6
ENDBRANCH   4   5
ENDBRANCH   3   4
ENDBRANCH   2   3
ENDBRANCH   1   2
BRANCH   1  11
ATOM     11  C   UNL     1     161.316 173.913 187.403  1.00  0.00     0.000 C 
BRANCH  11  12
ATOM     12  C   UNL     1     160.271 175.038 187.491  1.00  0.00    -0.000 C 
BRANCH  12  13
ATOM     13  C   UNL     1     160.904 176.424 187.750  1.00  0.00    -0.000 C 
BRANCH  13  14
ATOM     14  C   UNL     1     160.668 177.434 186.613  1.00  0.00    -0.000 C 
BRANCH  14  15
ATOM     15  C   UNL     1     161.911 178.247 186.212  1.00  0.00    -0.000 C 
BRANCH  15  16
ATOM     16  C   UNL     1     163.072 178.144 187.227  1.00  0.00    -0.000 C 
BRANCH  16  17
ATOM     17  C   UNL     1     164.435 178.475 186.604  1.00  0.00    -0.003 C 
ATOM     18  C   UNL     1     165.463 177.391 186.919  1.00  0.00     0.004 C 
ENDBRANCH  16  17
ENDBRANCH  15  16
ENDBRANCH  14  15
ENDBRANCH  13  14
ENDBRANCH  12  13
ENDBRANCH  11  12
ENDBRANCH   1  11
TORSDOF 14
ENDMDL
MODEL 7
REMARK VINA RESULT:    -3.718      1.235      2.184
REMARK INTER + INTRA:          -8.851
REMARK INTER:                  -6.585
REMARK INTRA:                  -2.265
REMARK UNBOUND:                -2.090
REMARK SMILES CCCCCCCCCCCCCCCC(=O)[O-]
REMARK SMILES IDX 9 1 10 2 11 3 12 4 13 5 14 6 15 7 16 8 17 9 18 10 8 11 7 12
REMARK SMILES IDX 6 13 5 14 4 15 3 16 2 17 1 18
REMARK H PARENT
REMARK Flexibility Score: inf
ROOT
ATOM      1  C   UNL     1     162.480 177.624 188.201  1.00  0.00     0.000 C 
ENDROOT
BRANCH   1   2
ATOM      2  C   UNL     1     161.036 177.658 187.673  1.00  0.00     0.000 C 
BRANCH   2   3
ATOM      3  C   UNL     1     160.568 176.296 187.135  1.00  0.00     0.000 C 
BRANCH   3   4
ATOM      4  C   UNL     1     160.605 176.216 185.598  1.00  0.00     0.000 C 
BRANCH   4   5
ATOM      5  C   UNL     1     160.451 177.567 184.871  1.00  0.00     0.000 C 
BRANCH   5   6
ATOM      6  C   UNL     1     160.983 177.561 183.420  1.00  0.00     0.006 C 
BRANCH   6   7
ATOM      7  C   UNL     1     162.321 176.818 183.263  1.00  0.00     0.053 C 
BRANCH   7   8
ATOM      8  C   UNL     1     163.426 177.745 182.859  1.00  0.00     0.041 C 
ATOM      9  O   UNL     1     163.163 178.840 182.296  1.00  0.00    -0.550 OA
ATOM     10  O   UNL     1     164.748 177.408 183.123  1.00  0.00    -0.550 OA
ENDBRANCH   7   8
ENDBRANCH   6   7
ENDBRANCH   5   6
ENDBRANCH   4   5
ENDBRANCH   3   4
ENDBRANCH   2   3
ENDBRANCH   1   2
BRANCH   1  11
ATOM     11  C   UNL     1     163.537 177.986 187.136  1.00  0.00     0.000 C 
BRANCH  11  12
ATOM     12  C   UNL     1     164.610 176.894 186.989  1.00  0.00    -0.000 C 
BRANCH  12  13
ATOM     13  C   UNL     1     164.130 175.693 186.142  1.00  0.00    -0.000 C 
BRANCH  13  14
ATOM     14  C   UNL     1     164.308 174.334 186.842  1.00  0.00    -0.000 C 
BRANCH  14  15
ATOM     15  C   UNL     1     163.314 174.070 187.987  1.00  0.00    -0.000 C 
BRANCH  15  16
ATOM     16  C   UNL     1     162.684 172.660 187.946  1.00  0.00    -0.000 C 
BRANCH  16  17
ATOM     17  C   UNL     1     161.192 172.688 187.588  1.00  0.00    -0.003 C 
ATOM     18  C   UNL     1     160.972 172.361 186.113  1.00  0.00     0.004 C 
ENDBRANCH  16  17
ENDBRANCH  15  16
ENDBRANCH  14  15
ENDBRANCH  13  14
ENDBRANCH  12  13
ENDBRANCH  11  12
ENDBRANCH   1  11
TORSDOF 14
ENDMDL
MODEL 8
REMARK VINA RESULT:    -3.696      3.501      6.188
REMARK INTER + INTRA:          -8.811
REMARK INTER:                  -6.796
REMARK INTRA:                  -2.016
REMARK UNBOUND:                -2.090
REMARK SMILES CCCCCCCCCCCCCCCC(=O)[O-]
REMARK SMILES IDX 9 1 10 2 11 3 12 4 13 5 14 6 15 7 16 8 17 9 18 10 8 11 7 12
REMARK SMILES IDX 6 13 5 14 4 15 3 16 2 17 1 18
REMARK H PARENT
REMARK Flexibility Score: inf
ROOT
ATOM      1  C   UNL     1     163.091 175.739 187.509  1.00  0.00     0.000 C 
ENDROOT
BRANCH   1   2
ATOM      2  C   UNL     1     162.262 174.444 187.472  1.00  0.00     0.000 C 
BRANCH   2   3
ATOM      3  C   UNL     1     160.747 174.706 187.519  1.00  0.00     0.000 C 
BRANCH   3   4
ATOM      4  C   UNL     1     159.921 173.413 187.630  1.00  0.00     0.000 C 
BRANCH   4   5
ATOM      5  C   UNL     1     160.608 172.149 187.076  1.00  0.00     0.000 C 
BRANCH   5   6
ATOM      6  C   UNL     1     161.157 171.205 188.169  1.00  0.00     0.006 C 
BRANCH   6   7
ATOM      7  C   UNL     1     162.530 170.604 187.825  1.00  0.00     0.053 C 
BRANCH   7   8
ATOM      8  C   UNL     1     163.504 170.767 188.951  1.00  0.00     0.041 C 
ATOM      9  O   UNL     1     164.374 169.883 189.172  1.00  0.00    -0.550 OA
ATOM     10  O   UNL     1     163.466 171.906 189.745  1.00  0.00    -0.550 OA
ENDBRANCH   7   8
ENDBRANCH   6   7
ENDBRANCH   5   6
ENDBRANCH   4   5
ENDBRANCH   3   4
ENDBRANCH   2   3
ENDBRANCH   1   2
BRANCH   1  11
ATOM     11  C   UNL     1     162.379 176.910 188.221  1.00  0.00     0.000 C 
BRANCH  11  12
ATOM     12  C   UNL     1     162.215 178.133 187.302  1.00  0.00    -0.000 C 
BRANCH  12  13
ATOM     13  C   UNL     1     160.784 178.268 186.735  1.00  0.00    -0.000 C 
BRANCH  13  14
ATOM     14  C   UNL     1     160.624 177.689 185.318  1.00  0.00    -0.000 C 
BRANCH  14  15
ATOM     15  C   UNL     1     161.946 177.500 184.553  1.00  0.00    -0.000 C 
BRANCH  15  16
ATOM     16  C   UNL     1     161.998 176.199 183.720  1.00  0.00    -0.000 C 
BRANCH  16  17
ATOM     17  C   UNL     1     160.626 175.525 183.587  1.00  0.00    -0.003 C 
ATOM     18  C   UNL     1     160.718 174.028 183.868  1.00  0.00     0.004 C 
ENDBRANCH  16  17
ENDBRANCH  15  16
ENDBRANCH  14  15
ENDBRANCH  13  14
ENDBRANCH  12  13
ENDBRANCH  11  12
ENDBRANCH   1  11
TORSDOF 14
ENDMDL
MODEL 9
REMARK VINA RESULT:    -3.650      1.335      2.621
REMARK INTER + INTRA:          -8.726
REMARK INTER:                  -6.738
REMARK INTRA:                  -1.988
REMARK UNBOUND:                -2.090
REMARK SMILES CCCCCCCCCCCCCCCC(=O)[O-]
REMARK SMILES IDX 9 1 10 2 11 3 12 4 13 5 14 6 15 7 16 8 17 9 18 10 8 11 7 12
REMARK SMILES IDX 6 13 5 14 4 15 3 16 2 17 1 18
REMARK H PARENT
REMARK Flexibility Score: inf
ROOT
ATOM      1  C   UNL     1     162.469 177.811 187.905  1.00  0.00     0.000 C 
ENDROOT
BRANCH   1   2
ATOM      2  C   UNL     1     163.635 178.376 187.076  1.00  0.00     0.000 C 
BRANCH   2   3
ATOM      3  C   UNL     1     164.710 177.322 186.765  1.00  0.00     0.000 C 
BRANCH   3   4
ATOM      4  C   UNL     1     164.255 175.890 187.097  1.00  0.00     0.000 C 
BRANCH   4   5
ATOM      5  C   UNL     1     163.923 175.010 185.876  1.00  0.00     0.000 C 
BRANCH   5   6
ATOM      6  C   UNL     1     163.979 175.763 184.528  1.00  0.00     0.006 C 
BRANCH   6   7
ATOM      7  C   UNL     1     162.593 176.016 183.910  1.00  0.00     0.053 C 
BRANCH   7   8
ATOM      8  C   UNL     1     162.418 177.447 183.506  1.00  0.00     0.041 C 
ATOM      9  O   UNL     1     163.386 178.250 183.573  1.00  0.00    -0.550 OA
ATOM     10  O   UNL     1     161.190 177.892 183.034  1.00  0.00    -0.550 OA
ENDBRANCH   7   8
ENDBRANCH   6   7
ENDBRANCH   5   6
ENDBRANCH   4   5
ENDBRANCH   3   4
ENDBRANCH   2   3
ENDBRANCH   1   2
BRANCH   1  11
ATOM     11  C   UNL     1     161.099 177.924 187.203  1.00  0.00     0.000 C 
BRANCH  11  12
ATOM     12  C   UNL     1     160.611 176.570 186.660  1.00  0.00    -0.000 C 
BRANCH  12  13
ATOM     13  C   UNL     1     160.579 175.468 187.744  1.00  0.00    -0.000 C 
BRANCH  13  14
ATOM     14  C   UNL     1     160.071 174.110 187.228  1.00  0.00    -0.000 C 
BRANCH  14  15
ATOM     15  C   UNL     1     161.102 172.970 187.309  1.00  0.00    -0.000 C 
BRANCH  15  16
ATOM     16  C   UNL     1     160.680 171.820 188.250  1.00  0.00    -0.000 C 
BRANCH  16  17
ATOM     17  C   UNL     1     160.702 170.449 187.559  1.00  0.00    -0.003 C 
ATOM     18  C   UNL     1     161.001 170.588 186.068  1.00  0.00     0.004 C 
ENDBRANCH  16  17
ENDBRANCH  15  16
ENDBRANCH  14  15
ENDBRANCH  13  14
ENDBRANCH  12  13
ENDBRANCH  11  12
ENDBRANCH   1  11
TORSDOF 14
ENDMDL
