MODEL 1
REMARK VINA RESULT:    -3.797      0.000      0.000
REMARK INTER + INTRA:          -4.195
REMARK INTER:                  -4.019
REMARK INTRA:                  -0.176
REMARK UNBOUND:                -0.176
REMARK SMILES C=C1CC=C(C(C)C)CC1
REMARK SMILES IDX 5 1 4 2 3 3 2 4 1 5 10 6 9 7 6 8 7 9 8 10
REMARK H PARENT
REMARK Flexibility Score: inf
ROOT
ATOM      1  C   UNL     1     136.138 138.937 162.430  1.00  0.00    -0.071 C 
ATOM      2  C   UNL     1     137.323 138.354 162.151  1.00  0.00    -0.023 C 
ATOM      3  C   UNL     1     137.399 137.108 161.305  1.00  0.00     0.057 C 
ATOM      4  C   UNL     1     136.220 136.198 161.578  1.00  0.00    -0.073 C 
ATOM      5  C   UNL     1     136.331 134.877 161.387  1.00  0.00     0.008 C 
ATOM      6  C   UNL     1     134.900 136.784 162.036  1.00  0.00     0.035 C 
ATOM      7  C   UNL     1     134.875 138.311 161.870  1.00  0.00     0.035 C 
ENDROOT
BRANCH   1   8
ATOM      8  C   UNL     1     136.078 140.151 163.345  1.00  0.00     0.008 C 
ATOM      9  C   UNL     1     135.999 139.722 164.814  1.00  0.00     0.012 C 
ATOM     10  C   UNL     1     134.906 141.067 162.972  1.00  0.00     0.012 C 
ENDBRANCH   1   8
TORSDOF 1
ENDMDL
MODEL 2
REMARK VINA RESULT:    -3.071      1.078      4.273
REMARK INTER + INTRA:          -3.427
REMARK INTER:                  -3.290
REMARK INTRA:                  -0.137
REMARK UNBOUND:                -0.176
REMARK SMILES C=C1CC=C(C(C)C)CC1
REMARK SMILES IDX 5 1 4 2 3 3 2 4 1 5 10 6 9 7 6 8 7 9 8 10
REMARK H PARENT
REMARK Flexibility Score: inf
ROOT
ATOM      1  C   UNL     1     136.168 137.162 162.213  1.00  0.00    -0.071 C 
ATOM      2  C   UNL     1     136.693 137.687 163.340  1.00  0.00    -0.023 C 
ATOM      3  C   UNL     1     136.018 138.830 164.055  1.00  0.00     0.057 C 
ATOM      4  C   UNL     1     135.387 139.789 163.066  1.00  0.00    -0.073 C 
ATOM      5  C   UNL     1     135.223 141.078 163.390  1.00  0.00     0.008 C 
ATOM      6  C   UNL     1     134.908 139.282 161.721  1.00  0.00     0.035 C 
ATOM      7  C   UNL     1     134.875 137.748 161.677  1.00  0.00     0.035 C 
ENDROOT
BRANCH   1   8
ATOM      8  C   UNL     1     136.901 136.058 161.467  1.00  0.00     0.008 C 
ATOM      9  C   UNL     1     135.965 134.879 161.182  1.00  0.00     0.012 C 
ATOM     10  C   UNL     1     138.147 135.603 162.238  1.00  0.00     0.012 C 
ENDBRANCH   1   8
TORSDOF 1
ENDMDL
MODEL 3
REMARK VINA RESULT:    -1.853      1.060      4.352
REMARK INTER + INTRA:          -2.137
REMARK INTER:                  -1.948
REMARK INTRA:                  -0.189
REMARK UNBOUND:                -0.176
REMARK SMILES C=C1CC=C(C(C)C)CC1
REMARK SMILES IDX 5 1 4 2 3 3 2 4 1 5 10 6 9 7 6 8 7 9 8 10
REMARK H PARENT
REMARK Flexibility Score: inf
ROOT
ATOM      1  C   UNL     1     136.160 137.408 161.827  1.00  0.00    -0.071 C 
ATOM      2  C   UNL     1     135.069 138.084 161.410  1.00  0.00    -0.023 C 
ATOM      3  C   UNL     1     134.876 139.539 161.754  1.00  0.00     0.057 C 
ATOM      4  C   UNL     1     135.394 139.839 163.145  1.00  0.00    -0.073 C 
ATOM      5  C   UNL     1     134.875 140.850 163.853  1.00  0.00     0.008 C 
ATOM      6  C   UNL     1     136.525 139.015 163.725  1.00  0.00     0.035 C 
ATOM      7  C   UNL     1     137.197 138.146 162.652  1.00  0.00     0.035 C 
ENDROOT
BRANCH   1   8
ATOM      8  C   UNL     1     136.301 135.923 161.530  1.00  0.00     0.008 C 
ATOM      9  C   UNL     1     135.009 135.174 161.875  1.00  0.00     0.012 C 
ATOM     10  C   UNL     1     137.503 135.322 162.268  1.00  0.00     0.012 C 
ENDBRANCH   1   8
TORSDOF 1
ENDMDL
