MODEL 1
REMARK VINA RESULT:    -5.213      0.000      0.000
REMARK INTER + INTRA:          -5.670
REMARK INTER:                  -5.670
REMARK INTRA:                   0.000
REMARK UNBOUND:                 0.000
REMARK SMILES Cc1cc(O)c2c(c1)C(=O)c1cc(O)cc(O)c1C2=O
REMARK SMILES IDX 1 1 2 2 8 3 7 4 6 5 4 6 3 7 19 8 20 9 18 10 11 11 9 12 10 13
REMARK SMILES IDX 12 14 13 15 15 16 16 17 5 18 17 20 14 22
REMARK H PARENT 5 19 17 21 14 23
REMARK Flexibility Score: inf
ROOT
ATOM      1  C   UNL     1     -11.924   9.439  -6.730  1.00  0.00     0.044 C 
ATOM      2  C   UNL     1     -11.759   8.834  -5.367  1.00  0.00    -0.047 A 
ATOM      3  C   UNL     1     -12.146   9.548  -4.229  1.00  0.00     0.016 A 
ATOM      4  C   UNL     1     -11.970   9.001  -2.946  1.00  0.00     0.038 A 
ATOM      5  C   UNL     1     -11.395   7.719  -2.801  1.00  0.00     0.076 A 
ATOM      6  C   UNL     1     -10.927   7.036  -3.953  1.00  0.00     0.127 A 
ATOM      7  C   UNL     1     -11.133   7.592  -5.220  1.00  0.00     0.050 A 
ATOM      8  C   UNL     1     -11.360   7.113  -1.444  1.00  0.00     0.201 C 
ATOM      9  O   UNL     1     -11.415   5.861  -1.315  1.00  0.00    -0.288 OA
ATOM     10  C   UNL     1     -11.450   7.985  -0.245  1.00  0.00     0.076 A 
ATOM     11  C   UNL     1     -12.023   9.269  -0.394  1.00  0.00     0.041 A 
ATOM     12  C   UNL     1     -12.377   9.767  -1.744  1.00  0.00     0.194 C 
ATOM     13  O   UNL     1     -13.002  10.856  -1.871  1.00  0.00    -0.289 OA
ATOM     14  C   UNL     1     -12.251  10.068   0.740  1.00  0.00     0.059 A 
ATOM     15  C   UNL     1     -11.900   9.610   2.012  1.00  0.00     0.120 A 
ATOM     16  C   UNL     1     -11.298   8.362   2.159  1.00  0.00     0.093 A 
ATOM     17  C   UNL     1     -11.041   7.555   1.044  1.00  0.00     0.131 A 
ENDROOT
BRANCH   6  18
ATOM     18  O   UNL     1     -10.224   5.831  -3.884  1.00  0.00    -0.507 OA
ATOM     19  H   UNL     1      -9.973   5.380  -3.015  1.00  0.00     0.293 HD
ENDBRANCH   6  18
BRANCH  17  20
ATOM     20  O   UNL     1     -10.353   6.359   1.260  1.00  0.00    -0.507 OA
ATOM     21  H   UNL     1     -10.773   5.540   1.677  1.00  0.00     0.293 HD
ENDBRANCH  17  20
BRANCH  15  22
ATOM     22  O   UNL     1     -12.136  10.394   3.139  1.00  0.00    -0.508 OA
ATOM     23  H   UNL     1     -12.710  11.228   3.094  1.00  0.00     0.293 HD
ENDBRANCH  15  22
TORSDOF 3
ENDMDL
MODEL 2
REMARK VINA RESULT:    -5.125      3.962      6.816
REMARK INTER + INTRA:          -5.574
REMARK INTER:                  -5.574
REMARK INTRA:                   0.000
REMARK UNBOUND:                 0.000
REMARK SMILES Cc1cc(O)c2c(c1)C(=O)c1cc(O)cc(O)c1C2=O
REMARK SMILES IDX 1 1 2 2 8 3 7 4 6 5 4 6 3 7 19 8 20 9 18 10 11 11 9 12 10 13
REMARK SMILES IDX 12 14 13 15 15 16 16 17 5 18 17 20 14 22
REMARK H PARENT 5 19 17 21 14 23
REMARK Flexibility Score: inf
ROOT
ATOM      1  C   UNL     1     -13.122  -0.727  -1.488  1.00  0.00     0.044 C 
ATOM      2  C   UNL     1     -12.922   0.760  -1.506  1.00  0.00    -0.047 A 
ATOM      3  C   UNL     1     -12.770   1.435  -2.721  1.00  0.00     0.016 A 
ATOM      4  C   UNL     1     -12.554   2.823  -2.747  1.00  0.00     0.038 A 
ATOM      5  C   UNL     1     -12.488   3.547  -1.536  1.00  0.00     0.076 A 
ATOM      6  C   UNL     1     -12.557   2.845  -0.306  1.00  0.00     0.127 A 
ATOM      7  C   UNL     1     -12.794   1.466  -0.306  1.00  0.00     0.050 A 
ATOM      8  C   UNL     1     -12.406   5.030  -1.606  1.00  0.00     0.201 C 
ATOM      9  O   UNL     1     -12.901   5.729  -0.683  1.00  0.00    -0.288 OA
ATOM     10  C   UNL     1     -11.914   5.683  -2.846  1.00  0.00     0.076 A 
ATOM     11  C   UNL     1     -11.979   4.955  -4.056  1.00  0.00     0.041 A 
ATOM     12  C   UNL     1     -12.387   3.531  -4.040  1.00  0.00     0.194 C 
ATOM     13  O   UNL     1     -12.568   2.912  -5.125  1.00  0.00    -0.289 OA
ATOM     14  C   UNL     1     -11.652   5.585  -5.269  1.00  0.00     0.059 A 
ATOM     15  C   UNL     1     -11.247   6.922  -5.287  1.00  0.00     0.120 A 
ATOM     16  C   UNL     1     -11.142   7.632  -4.092  1.00  0.00     0.093 A 
ATOM     17  C   UNL     1     -11.443   7.022  -2.868  1.00  0.00     0.131 A 
ENDROOT
BRANCH   6  18
ATOM     18  O   UNL     1     -12.362   3.465   0.931  1.00  0.00    -0.507 OA
ATOM     19  H   UNL     1     -12.040   4.418   1.033  1.00  0.00     0.293 HD
ENDBRANCH   6  18
BRANCH  17  20
ATOM     20  O   UNL     1     -11.227   7.767  -1.707  1.00  0.00    -0.507 OA
ATOM     21  H   UNL     1     -11.509   7.461  -0.786  1.00  0.00     0.293 HD
ENDBRANCH  17  20
BRANCH  15  22
ATOM     22  O   UNL     1     -10.934   7.553  -6.489  1.00  0.00    -0.508 OA
ATOM     23  H   UNL     1     -11.634   7.706  -7.205  1.00  0.00     0.293 HD
ENDBRANCH  15  22
TORSDOF 3
ENDMDL
MODEL 3
REMARK VINA RESULT:    -4.985      2.498      3.080
REMARK INTER + INTRA:          -5.422
REMARK INTER:                  -5.422
REMARK INTRA:                   0.000
REMARK UNBOUND:                 0.000
REMARK SMILES Cc1cc(O)c2c(c1)C(=O)c1cc(O)cc(O)c1C2=O
REMARK SMILES IDX 1 1 2 2 8 3 7 4 6 5 4 6 3 7 19 8 20 9 18 10 11 11 9 12 10 13
REMARK SMILES IDX 12 14 13 15 15 16 16 17 5 18 17 20 14 22
REMARK H PARENT 5 19 17 21 14 23
REMARK Flexibility Score: inf
ROOT
ATOM      1  C   UNL     1     -12.741   4.557  -6.902  1.00  0.00     0.044 C 
ATOM      2  C   UNL     1     -12.628   4.643  -5.408  1.00  0.00    -0.047 A 
ATOM      3  C   UNL     1     -12.384   5.874  -4.791  1.00  0.00     0.016 A 
ATOM      4  C   UNL     1     -12.249   5.961  -3.395  1.00  0.00     0.038 A 
ATOM      5  C   UNL     1     -12.360   4.796  -2.604  1.00  0.00     0.076 A 
ATOM      6  C   UNL     1     -12.523   3.540  -3.242  1.00  0.00     0.127 A 
ATOM      7  C   UNL     1     -12.675   3.481  -4.631  1.00  0.00     0.050 A 
ATOM      8  C   UNL     1     -12.359   4.947  -1.125  1.00  0.00     0.201 C 
ATOM      9  O   UNL     1     -12.994   4.126  -0.412  1.00  0.00    -0.288 OA
ATOM     10  C   UNL     1     -11.773   6.164  -0.509  1.00  0.00     0.076 A 
ATOM     11  C   UNL     1     -11.661   7.328  -1.304  1.00  0.00     0.041 A 
ATOM     12  C   UNL     1     -11.984   7.269  -2.749  1.00  0.00     0.194 C 
ATOM     13  O   UNL     1     -12.007   8.328  -3.435  1.00  0.00    -0.289 OA
ATOM     14  C   UNL     1     -11.241   8.535  -0.720  1.00  0.00     0.059 A 
ATOM     15  C   UNL     1     -10.917   8.591   0.638  1.00  0.00     0.120 A 
ATOM     16  C   UNL     1     -10.987   7.437   1.416  1.00  0.00     0.093 A 
ATOM     17  C   UNL     1     -11.383   6.218   0.855  1.00  0.00     0.131 A 
ENDROOT
BRANCH   6  18
ATOM     18  O   UNL     1     -12.502   2.329  -2.545  1.00  0.00    -0.507 OA
ATOM     19  H   UNL     1     -11.664   1.929  -2.147  1.00  0.00     0.293 HD
ENDBRANCH   6  18
BRANCH  17  20
ATOM     20  O   UNL     1     -11.341   5.088   1.674  1.00  0.00    -0.507 OA
ATOM     21  H   UNL     1     -12.166   4.628   2.034  1.00  0.00     0.293 HD
ENDBRANCH  17  20
BRANCH  15  22
ATOM     22  O   UNL     1     -10.511   9.789   1.223  1.00  0.00    -0.508 OA
ATOM     23  H   UNL     1     -10.125  10.545   0.669  1.00  0.00     0.293 HD
ENDBRANCH  15  22
TORSDOF 3
ENDMDL
MODEL 4
REMARK VINA RESULT:    -4.976      3.420      6.250
REMARK INTER + INTRA:          -5.412
REMARK INTER:                  -5.412
REMARK INTRA:                   0.000
REMARK UNBOUND:                 0.000
REMARK SMILES Cc1cc(O)c2c(c1)C(=O)c1cc(O)cc(O)c1C2=O
REMARK SMILES IDX 1 1 2 2 8 3 7 4 6 5 4 6 3 7 19 8 20 9 18 10 11 11 9 12 10 13
REMARK SMILES IDX 12 14 13 15 15 16 16 17 5 18 17 20 14 22
REMARK H PARENT 5 19 17 21 14 23
REMARK Flexibility Score: inf
ROOT
ATOM      1  C   UNL     1     -11.236   9.276   1.887  1.00  0.00     0.044 C 
ATOM      2  C   UNL     1     -11.551   8.314   0.780  1.00  0.00    -0.047 A 
ATOM      3  C   UNL     1     -11.878   6.986   1.073  1.00  0.00     0.016 A 
ATOM      4  C   UNL     1     -12.147   6.071   0.042  1.00  0.00     0.038 A 
ATOM      5  C   UNL     1     -12.089   6.492  -1.305  1.00  0.00     0.076 A 
ATOM      6  C   UNL     1     -11.674   7.816  -1.599  1.00  0.00     0.127 A 
ATOM      7  C   UNL     1     -11.432   8.715  -0.555  1.00  0.00     0.050 A 
ATOM      8  C   UNL     1     -12.523   5.538  -2.360  1.00  0.00     0.201 C 
ATOM      9  O   UNL     1     -13.030   5.974  -3.428  1.00  0.00    -0.288 OA
ATOM     10  C   UNL     1     -12.533   4.081  -2.077  1.00  0.00     0.076 A 
ATOM     11  C   UNL     1     -12.589   3.662  -0.727  1.00  0.00     0.041 A 
ATOM     12  C   UNL     1     -12.486   4.663   0.361  1.00  0.00     0.194 C 
ATOM     13  O   UNL     1     -12.661   4.312   1.560  1.00  0.00    -0.289 OA
ATOM     14  C   UNL     1     -12.739   2.298  -0.424  1.00  0.00     0.059 A 
ATOM     15  C   UNL     1     -12.816   1.349  -1.446  1.00  0.00     0.120 A 
ATOM     16  C   UNL     1     -12.720   1.753  -2.777  1.00  0.00     0.093 A 
ATOM     17  C   UNL     1     -12.551   3.102  -3.105  1.00  0.00     0.131 A 
ENDROOT
BRANCH   6  18
ATOM     18  O   UNL     1     -11.457   8.269  -2.903  1.00  0.00    -0.507 OA
ATOM     19  H   UNL     1     -12.061   8.930  -3.372  1.00  0.00     0.293 HD
ENDBRANCH   6  18
BRANCH  17  20
ATOM     20  O   UNL     1     -12.370   3.420  -4.454  1.00  0.00    -0.507 OA
ATOM     21  H   UNL     1     -12.888   2.983  -5.204  1.00  0.00     0.293 HD
ENDBRANCH  17  20
BRANCH  15  22
ATOM     22  O   UNL     1     -12.976  -0.003  -1.150  1.00  0.00    -0.508 OA
ATOM     23  H   UNL     1     -13.876  -0.383  -0.878  1.00  0.00     0.293 HD
ENDBRANCH  15  22
TORSDOF 3
ENDMDL
MODEL 5
REMARK VINA RESULT:    -4.857      4.114      5.923
REMARK INTER + INTRA:          -5.283
REMARK INTER:                  -5.283
REMARK INTRA:                   0.000
REMARK UNBOUND:                 0.000
REMARK SMILES Cc1cc(O)c2c(c1)C(=O)c1cc(O)cc(O)c1C2=O
REMARK SMILES IDX 1 1 2 2 8 3 7 4 6 5 4 6 3 7 19 8 20 9 18 10 11 11 9 12 10 13
REMARK SMILES IDX 12 14 13 15 15 16 16 17 5 18 17 20 14 22
REMARK H PARENT 5 19 17 21 14 23
REMARK Flexibility Score: inf
ROOT
ATOM      1  C   UNL     1     -13.047  -0.664  -0.049  1.00  0.00     0.044 C 
ATOM      2  C   UNL     1     -12.892   0.689  -0.678  1.00  0.00    -0.047 A 
ATOM      3  C   UNL     1     -12.759   1.827   0.126  1.00  0.00     0.016 A 
ATOM      4  C   UNL     1     -12.641   3.102  -0.453  1.00  0.00     0.038 A 
ATOM      5  C   UNL     1     -12.657   3.241  -1.859  1.00  0.00     0.076 A 
ATOM      6  C   UNL     1     -12.877   2.094  -2.664  1.00  0.00     0.127 A 
ATOM      7  C   UNL     1     -12.971   0.833  -2.066  1.00  0.00     0.050 A 
ATOM      8  C   UNL     1     -12.382   4.582  -2.437  1.00  0.00     0.201 C 
ATOM      9  O   UNL     1     -11.832   4.677  -3.566  1.00  0.00    -0.288 OA
ATOM     10  C   UNL     1     -12.581   5.797  -1.606  1.00  0.00     0.076 A 
ATOM     11  C   UNL     1     -12.568   5.655  -0.200  1.00  0.00     0.041 A 
ATOM     12  C   UNL     1     -12.507   4.304   0.405  1.00  0.00     0.194 C 
ATOM     13  O   UNL     1     -12.369   4.175   1.653  1.00  0.00    -0.289 OA
ATOM     14  C   UNL     1     -12.615   6.797   0.618  1.00  0.00     0.059 A 
ATOM     15  C   UNL     1     -12.693   8.072   0.053  1.00  0.00     0.120 A 
ATOM     16  C   UNL     1     -12.747   8.214  -1.332  1.00  0.00     0.093 A 
ATOM     17  C   UNL     1     -12.722   7.093  -2.169  1.00  0.00     0.131 A 
ENDROOT
BRANCH   6  18
ATOM     18  O   UNL     1     -13.044   2.164  -4.050  1.00  0.00    -0.507 OA
ATOM     19  H   UNL     1     -12.588   2.852  -4.633  1.00  0.00     0.293 HD
ENDBRANCH   6  18
BRANCH  17  20
ATOM     20  O   UNL     1     -12.873   7.309  -3.541  1.00  0.00    -0.507 OA
ATOM     21  H   UNL     1     -13.740   7.159  -4.038  1.00  0.00     0.293 HD
ENDBRANCH  17  20
BRANCH  15  22
ATOM     22  O   UNL     1     -12.727   9.207   0.861  1.00  0.00    -0.508 OA
ATOM     23  H   UNL     1     -11.880   9.699   1.119  1.00  0.00     0.293 HD
ENDBRANCH  15  22
TORSDOF 3
ENDMDL
MODEL 6
REMARK VINA RESULT:    -4.757      2.834      5.432
REMARK INTER + INTRA:          -5.174
REMARK INTER:                  -5.174
REMARK INTRA:                   0.000
REMARK UNBOUND:                 0.000
REMARK SMILES Cc1cc(O)c2c(c1)C(=O)c1cc(O)cc(O)c1C2=O
REMARK SMILES IDX 1 1 2 2 8 3 7 4 6 5 4 6 3 7 19 8 20 9 18 10 11 11 9 12 10 13
REMARK SMILES IDX 12 14 13 15 15 16 16 17 5 18 17 20 14 22
REMARK H PARENT 5 19 17 21 14 23
REMARK Flexibility Score: inf
ROOT
ATOM      1  C   UNL     1     -12.490  12.116   0.272  1.00  0.00     0.044 C 
ATOM      2  C   UNL     1     -12.193  10.688   0.624  1.00  0.00    -0.047 A 
ATOM      3  C   UNL     1     -12.438   9.669  -0.303  1.00  0.00     0.016 A 
ATOM      4  C   UNL     1     -12.189   8.327   0.028  1.00  0.00     0.038 A 
ATOM      5  C   UNL     1     -11.687   7.998   1.306  1.00  0.00     0.076 A 
ATOM      6  C   UNL     1     -11.522   9.026   2.270  1.00  0.00     0.127 A 
ATOM      7  C   UNL     1     -11.756  10.358   1.911  1.00  0.00     0.050 A 
ATOM      8  C   UNL     1     -11.298   6.587   1.568  1.00  0.00     0.201 C 
ATOM      9  O   UNL     1     -10.373   6.334   2.385  1.00  0.00    -0.288 OA
ATOM     10  C   UNL     1     -11.865   5.499   0.733  1.00  0.00     0.076 A 
ATOM     11  C   UNL     1     -12.369   5.831  -0.546  1.00  0.00     0.041 A 
ATOM     12  C   UNL     1     -12.458   7.252  -0.958  1.00  0.00     0.194 C 
ATOM     13  O   UNL     1     -12.787   7.547  -2.140  1.00  0.00    -0.289 OA
ATOM     14  C   UNL     1     -12.787   4.812  -1.419  1.00  0.00     0.059 A 
ATOM     15  C   UNL     1     -12.723   3.473  -1.027  1.00  0.00     0.120 A 
ATOM     16  C   UNL     1     -12.265   3.143   0.247  1.00  0.00     0.093 A 
ATOM     17  C   UNL     1     -11.863   4.140   1.143  1.00  0.00     0.131 A 
ENDROOT
BRANCH   6  18
ATOM     18  O   UNL     1     -11.164   8.769   3.596  1.00  0.00    -0.507 OA
ATOM     19  H   UNL     1     -10.995   7.841   3.958  1.00  0.00     0.293 HD
ENDBRANCH   6  18
BRANCH  17  20
ATOM     20  O   UNL     1     -11.503   3.740   2.433  1.00  0.00    -0.507 OA
ATOM     21  H   UNL     1     -10.546   3.642   2.740  1.00  0.00     0.293 HD
ENDBRANCH  17  20
BRANCH  15  22
ATOM     22  O   UNL     1     -13.125   2.459  -1.895  1.00  0.00    -0.508 OA
ATOM     23  H   UNL     1     -12.485   1.731  -2.191  1.00  0.00     0.293 HD
ENDBRANCH  15  22
TORSDOF 3
ENDMDL
MODEL 7
REMARK VINA RESULT:    -4.480      2.905      5.191
REMARK INTER + INTRA:          -4.873
REMARK INTER:                  -4.873
REMARK INTRA:                   0.000
REMARK UNBOUND:                 0.000
REMARK SMILES Cc1cc(O)c2c(c1)C(=O)c1cc(O)cc(O)c1C2=O
REMARK SMILES IDX 1 1 2 2 8 3 7 4 6 5 4 6 3 7 19 8 20 9 18 10 11 11 9 12 10 13
REMARK SMILES IDX 12 14 13 15 15 16 16 17 5 18 17 20 14 22
REMARK H PARENT 5 19 17 21 14 23
REMARK Flexibility Score: inf
ROOT
ATOM      1  C   UNL     1     -11.553   9.277  -6.673  1.00  0.00     0.044 C 
ATOM      2  C   UNL     1     -11.699   8.476  -5.414  1.00  0.00    -0.047 A 
ATOM      3  C   UNL     1     -11.716   7.078  -5.467  1.00  0.00     0.016 A 
ATOM      4  C   UNL     1     -11.881   6.320  -4.296  1.00  0.00     0.038 A 
ATOM      5  C   UNL     1     -12.032   6.970  -3.051  1.00  0.00     0.076 A 
ATOM      6  C   UNL     1     -12.099   8.387  -3.015  1.00  0.00     0.127 A 
ATOM      7  C   UNL     1     -11.911   9.121  -4.191  1.00  0.00     0.050 A 
ATOM      8  C   UNL     1     -12.055   6.138  -1.820  1.00  0.00     0.201 C 
ATOM      9  O   UNL     1     -11.622   6.611  -0.735  1.00  0.00    -0.288 OA
ATOM     10  C   UNL     1     -12.410   4.699  -1.910  1.00  0.00     0.076 A 
ATOM     11  C   UNL     1     -12.260   4.050  -3.157  1.00  0.00     0.041 A 
ATOM     12  C   UNL     1     -11.904   4.838  -4.361  1.00  0.00     0.194 C 
ATOM     13  O   UNL     1     -11.648   4.251  -5.448  1.00  0.00    -0.289 OA
ATOM     14  C   UNL     1     -12.454   2.662  -3.250  1.00  0.00     0.059 A 
ATOM     15  C   UNL     1     -12.809   1.918  -2.123  1.00  0.00     0.120 A 
ATOM     16  C   UNL     1     -12.996   2.559  -0.900  1.00  0.00     0.093 A 
ATOM     17  C   UNL     1     -12.830   3.944  -0.784  1.00  0.00     0.131 A 
ENDROOT
BRANCH   6  18
ATOM     18  O   UNL     1     -12.384   9.101  -1.848  1.00  0.00    -0.507 OA
ATOM     19  H   UNL     1     -12.296  10.105  -1.773  1.00  0.00     0.293 HD
ENDBRANCH   6  18
BRANCH  17  20
ATOM     20  O   UNL     1     -13.125   4.527   0.451  1.00  0.00    -0.507 OA
ATOM     21  H   UNL     1     -13.853   4.192   1.067  1.00  0.00     0.293 HD
ENDBRANCH  17  20
BRANCH  15  22
ATOM     22  O   UNL     1     -12.989   0.539  -2.209  1.00  0.00    -0.508 OA
ATOM     23  H   UNL     1     -13.885   0.108  -2.013  1.00  0.00     0.293 HD
ENDBRANCH  15  22
TORSDOF 3
ENDMDL
MODEL 8
REMARK VINA RESULT:    -4.435      1.541      6.322
REMARK INTER + INTRA:          -4.824
REMARK INTER:                  -4.824
REMARK INTRA:                   0.000
REMARK UNBOUND:                 0.000
REMARK SMILES Cc1cc(O)c2c(c1)C(=O)c1cc(O)cc(O)c1C2=O
REMARK SMILES IDX 1 1 2 2 8 3 7 4 6 5 4 6 3 7 19 8 20 9 18 10 11 11 9 12 10 13
REMARK SMILES IDX 12 14 13 15 15 16 16 17 5 18 17 20 14 22
REMARK H PARENT 5 19 17 21 14 23
REMARK Flexibility Score: inf
ROOT
ATOM      1  C   UNL     1     -10.439   6.525   2.210  1.00  0.00     0.044 C 
ATOM      2  C   UNL     1     -10.896   7.342   1.038  1.00  0.00    -0.047 A 
ATOM      3  C   UNL     1     -10.881   6.794  -0.249  1.00  0.00     0.016 A 
ATOM      4  C   UNL     1     -11.280   7.560  -1.357  1.00  0.00     0.038 A 
ATOM      5  C   UNL     1     -11.700   8.896  -1.175  1.00  0.00     0.076 A 
ATOM      6  C   UNL     1     -11.631   9.472   0.120  1.00  0.00     0.127 A 
ATOM      7  C   UNL     1     -11.251   8.684   1.211  1.00  0.00     0.050 A 
ATOM      8  C   UNL     1     -12.254   9.626  -2.345  1.00  0.00     0.201 C 
ATOM      9  O   UNL     1     -13.124  10.521  -2.172  1.00  0.00    -0.288 OA
ATOM     10  C   UNL     1     -11.923   9.173  -3.720  1.00  0.00     0.076 A 
ATOM     11  C   UNL     1     -11.501   7.836  -3.900  1.00  0.00     0.041 A 
ATOM     12  C   UNL     1     -11.256   6.974  -2.720  1.00  0.00     0.194 C 
ATOM     13  O   UNL     1     -11.002   5.748  -2.874  1.00  0.00    -0.289 OA
ATOM     14  C   UNL     1     -11.311   7.332  -5.198  1.00  0.00     0.059 A 
ATOM     15  C   UNL     1     -11.520   8.147  -6.313  1.00  0.00     0.120 A 
ATOM     16  C   UNL     1     -11.898   9.477  -6.139  1.00  0.00     0.093 A 
ATOM     17  C   UNL     1     -12.073  10.010  -4.857  1.00  0.00     0.131 A 
ENDROOT
BRANCH   6  18
ATOM     18  O   UNL     1     -11.895  10.823   0.362  1.00  0.00    -0.507 OA
ATOM     19  H   UNL     1     -11.173  11.525   0.447  1.00  0.00     0.293 HD
ENDBRANCH   6  18
BRANCH  17  20
ATOM     20  O   UNL     1     -12.361  11.373  -4.760  1.00  0.00    -0.507 OA
ATOM     21  H   UNL     1     -11.875  12.004  -4.138  1.00  0.00     0.293 HD
ENDBRANCH  17  20
BRANCH  15  22
ATOM     22  O   UNL     1     -11.346   7.646  -7.602  1.00  0.00    -0.508 OA
ATOM     23  H   UNL     1     -11.835   8.043  -8.395  1.00  0.00     0.293 HD
ENDBRANCH  15  22
TORSDOF 3
ENDMDL
MODEL 9
REMARK VINA RESULT:    -4.327      1.536      6.155
REMARK INTER + INTRA:          -4.706
REMARK INTER:                  -4.706
REMARK INTRA:                   0.000
REMARK UNBOUND:                 0.000
REMARK SMILES Cc1cc(O)c2c(c1)C(=O)c1cc(O)cc(O)c1C2=O
REMARK SMILES IDX 1 1 2 2 8 3 7 4 6 5 4 6 3 7 19 8 20 9 18 10 11 11 9 12 10 13
REMARK SMILES IDX 12 14 13 15 15 16 16 17 5 18 17 20 14 22
REMARK H PARENT 5 19 17 21 14 23
REMARK Flexibility Score: inf
ROOT
ATOM      1  C   UNL     1     -12.273   9.445   3.475  1.00  0.00     0.044 C 
ATOM      2  C   UNL     1     -12.298   9.439   1.975  1.00  0.00    -0.047 A 
ATOM      3  C   UNL     1     -12.102   8.246   1.272  1.00  0.00     0.016 A 
ATOM      4  C   UNL     1     -12.095   8.235  -0.133  1.00  0.00     0.038 A 
ATOM      5  C   UNL     1     -12.287   9.439  -0.847  1.00  0.00     0.076 A 
ATOM      6  C   UNL     1     -12.399  10.658  -0.129  1.00  0.00     0.127 A 
ATOM      7  C   UNL     1     -12.424  10.640   1.269  1.00  0.00     0.050 A 
ATOM      8  C   UNL     1     -12.421   9.367  -2.325  1.00  0.00     0.201 C 
ATOM      9  O   UNL     1     -13.124  10.217  -2.933  1.00  0.00    -0.288 OA
ATOM     10  C   UNL     1     -11.885   8.191  -3.057  1.00  0.00     0.076 A 
ATOM     11  C   UNL     1     -11.692   6.988  -2.340  1.00  0.00     0.041 A 
ATOM     12  C   UNL     1     -11.881   6.966  -0.870  1.00  0.00     0.194 C 
ATOM     13  O   UNL     1     -11.833   5.873  -0.243  1.00  0.00    -0.289 OA
ATOM     14  C   UNL     1     -11.319   5.819  -3.024  1.00  0.00     0.059 A 
ATOM     15  C   UNL     1     -11.120   5.839  -4.407  1.00  0.00     0.120 A 
ATOM     16  C   UNL     1     -11.269   7.032  -5.112  1.00  0.00     0.093 A 
ATOM     17  C   UNL     1     -11.621   8.215  -4.452  1.00  0.00     0.131 A 
ENDROOT
BRANCH   6  18
ATOM     18  O   UNL     1     -12.451  11.904  -0.759  1.00  0.00    -0.507 OA
ATOM     19  H   UNL     1     -11.662  12.533  -0.819  1.00  0.00     0.293 HD
ENDBRANCH   6  18
BRANCH  17  20
ATOM     20  O   UNL     1     -11.662   9.388  -5.209  1.00  0.00    -0.507 OA
ATOM     21  H   UNL     1     -10.837   9.882  -5.519  1.00  0.00     0.293 HD
ENDBRANCH  17  20
BRANCH  15  22
ATOM     22  O   UNL     1     -10.761   4.679  -5.090  1.00  0.00    -0.508 OA
ATOM     23  H   UNL     1      -9.805   4.506  -5.377  1.00  0.00     0.293 HD
ENDBRANCH  15  22
TORSDOF 3
ENDMDL
