MODEL 1
REMARK VINA RESULT:    -4.889      0.000      0.000
REMARK INTER + INTRA:         -10.043
REMARK INTER:                  -9.176
REMARK INTRA:                  -0.868
REMARK UNBOUND:                -0.868
REMARK SMILES O=C([O-])CCCCCCCCCCCCCCC(=O)[O-]
REMARK SMILES IDX 10 1 9 2 8 3 7 4 6 5 5 6 4 7 2 8 1 9 3 10 11 11 12 12 13 13
REMARK SMILES IDX 14 14 15 15 16 16 17 17 18 18 19 19 20 20
REMARK H PARENT
REMARK Flexibility Score: inf
ROOT
ATOM      1  C   UNL     1      -3.804  -0.102   6.043  1.00  0.00     0.000 C 
ENDROOT
BRANCH   1   2
ATOM      2  C   UNL     1      -2.505  -0.345   5.250  1.00  0.00     0.000 C 
BRANCH   2   3
ATOM      3  C   UNL     1      -1.405   0.714   5.460  1.00  0.00     0.000 C 
BRANCH   3   4
ATOM      4  C   UNL     1      -0.428   0.418   6.613  1.00  0.00     0.000 C 
BRANCH   4   5
ATOM      5  C   UNL     1       0.296  -0.926   6.450  1.00  0.00     0.000 C 
BRANCH   5   6
ATOM      6  C   UNL     1       1.010  -1.003   5.092  1.00  0.00     0.006 C 
BRANCH   6   7
ATOM      7  C   UNL     1       2.367  -1.712   5.189  1.00  0.00     0.053 C 
BRANCH   7   8
ATOM      8  C   UNL     1       2.846  -2.180   3.848  1.00  0.00     0.041 C 
ATOM      9  O   UNL     1       2.113  -2.052   2.833  1.00  0.00    -0.550 OA
ATOM     10  O   UNL     1       4.116  -2.727   3.716  1.00  0.00    -0.550 OA
ENDBRANCH   7   8
ENDBRANCH   6   7
ENDBRANCH   5   6
ENDBRANCH   4   5
ENDBRANCH   3   4
ENDBRANCH   2   3
ENDBRANCH   1   2
BRANCH   1  11
ATOM     11  C   UNL     1      -4.901  -1.168   5.839  1.00  0.00     0.000 C 
BRANCH  11  12
ATOM     12  C   UNL     1      -4.387  -2.612   5.698  1.00  0.00     0.000 C 
BRANCH  12  13
ATOM     13  C   UNL     1      -4.828  -3.277   4.387  1.00  0.00     0.000 C 
BRANCH  13  14
ATOM     14  C   UNL     1      -4.751  -2.290   3.214  1.00  0.00     0.000 C 
BRANCH  14  15
ATOM     15  C   UNL     1      -5.375  -2.867   1.924  1.00  0.00     0.000 C 
BRANCH  15  16
ATOM     16  C   UNL     1      -5.314  -4.404   1.848  1.00  0.00     0.006 C 
BRANCH  16  17
ATOM     17  C   UNL     1      -4.732  -4.945   0.533  1.00  0.00     0.053 C 
BRANCH  17  18
ATOM     18  C   UNL     1      -5.802  -5.433  -0.396  1.00  0.00     0.041 C 
ATOM     19  O   UNL     1      -6.979  -5.588   0.021  1.00  0.00    -0.550 OA
ATOM     20  O   UNL     1      -5.499  -5.723  -1.720  1.00  0.00    -0.550 OA
ENDBRANCH  17  18
ENDBRANCH  16  17
ENDBRANCH  15  16
ENDBRANCH  14  15
ENDBRANCH  13  14
ENDBRANCH  12  13
ENDBRANCH  11  12
ENDBRANCH   1  11
TORSDOF 15
ENDMDL
MODEL 2
REMARK VINA RESULT:    -4.685      0.985      7.793
REMARK INTER + INTRA:          -9.661
REMARK INTER:                  -8.664
REMARK INTRA:                  -0.997
REMARK UNBOUND:                -0.868
REMARK SMILES O=C([O-])CCCCCCCCCCCCCCC(=O)[O-]
REMARK SMILES IDX 10 1 9 2 8 3 7 4 6 5 5 6 4 7 2 8 1 9 3 10 11 11 12 12 13 13
REMARK SMILES IDX 14 14 15 15 16 16 17 17 18 18 19 19 20 20
REMARK H PARENT
REMARK Flexibility Score: inf
ROOT
ATOM      1  C   UNL     1      -4.588  -2.230   6.003  1.00  0.00     0.000 C 
ENDROOT
BRANCH   1   2
ATOM      2  C   UNL     1      -4.823  -3.712   5.650  1.00  0.00     0.000 C 
BRANCH   2   3
ATOM      3  C   UNL     1      -5.204  -3.980   4.181  1.00  0.00     0.000 C 
BRANCH   3   4
ATOM      4  C   UNL     1      -5.028  -2.778   3.234  1.00  0.00     0.000 C 
BRANCH   4   5
ATOM      5  C   UNL     1      -4.957  -3.189   1.756  1.00  0.00     0.000 C 
BRANCH   5   6
ATOM      6  C   UNL     1      -4.835  -4.714   1.616  1.00  0.00     0.006 C 
BRANCH   6   7
ATOM      7  C   UNL     1      -4.816  -5.163   0.150  1.00  0.00     0.053 C 
BRANCH   7   8
ATOM      8  C   UNL     1      -6.116  -4.869  -0.537  1.00  0.00     0.041 C 
ATOM      9  O   UNL     1      -6.188  -3.945  -1.389  1.00  0.00    -0.550 OA
ATOM     10  O   UNL     1      -7.238  -5.639  -0.259  1.00  0.00    -0.550 OA
ENDBRANCH   7   8
ENDBRANCH   6   7
ENDBRANCH   5   6
ENDBRANCH   4   5
ENDBRANCH   3   4
ENDBRANCH   2   3
ENDBRANCH   1   2
BRANCH   1  11
ATOM     11  C   UNL     1      -3.349  -1.957   6.880  1.00  0.00     0.000 C 
BRANCH  11  12
ATOM     12  C   UNL     1      -2.787  -0.527   6.786  1.00  0.00     0.000 C 
BRANCH  12  13
ATOM     13  C   UNL     1      -2.409  -0.128   5.352  1.00  0.00     0.000 C 
BRANCH  13  14
ATOM     14  C   UNL     1      -0.892   0.058   5.212  1.00  0.00     0.000 C 
BRANCH  14  15
ATOM     15  C   UNL     1      -0.122  -0.483   6.437  1.00  0.00     0.000 C 
BRANCH  15  16
ATOM     16  C   UNL     1       1.176  -1.226   6.067  1.00  0.00     0.006 C 
BRANCH  16  17
ATOM     17  C   UNL     1       1.639  -0.996   4.620  1.00  0.00     0.053 C 
BRANCH  17  18
ATOM     18  C   UNL     1       2.243  -2.230   4.021  1.00  0.00     0.041 C 
ATOM     19  O   UNL     1       2.655  -3.158   4.765  1.00  0.00    -0.550 OA
ATOM     20  O   UNL     1       2.356  -2.354   2.642  1.00  0.00    -0.550 OA
ENDBRANCH  17  18
ENDBRANCH  16  17
ENDBRANCH  15  16
ENDBRANCH  14  15
ENDBRANCH  13  14
ENDBRANCH  12  13
ENDBRANCH  11  12
ENDBRANCH   1  11
TORSDOF 15
ENDMDL
MODEL 3
REMARK VINA RESULT:    -4.685      1.477      2.823
REMARK INTER + INTRA:          -9.660
REMARK INTER:                  -8.725
REMARK INTRA:                  -0.935
REMARK UNBOUND:                -0.868
REMARK SMILES O=C([O-])CCCCCCCCCCCCCCC(=O)[O-]
REMARK SMILES IDX 10 1 9 2 8 3 7 4 6 5 5 6 4 7 2 8 1 9 3 10 11 11 12 12 13 13
REMARK SMILES IDX 14 14 15 15 16 16 17 17 18 18 19 19 20 20
REMARK H PARENT
REMARK Flexibility Score: inf
ROOT
ATOM      1  C   UNL     1      -0.248  -0.242   5.294  1.00  0.00     0.000 C 
ENDROOT
BRANCH   1   2
ATOM      2  C   UNL     1       0.026  -0.793   6.707  1.00  0.00     0.000 C 
BRANCH   2   3
ATOM      3  C   UNL     1       1.423  -1.414   6.906  1.00  0.00     0.000 C 
BRANCH   3   4
ATOM      4  C   UNL     1       2.370  -1.282   5.698  1.00  0.00     0.000 C 
BRANCH   4   5
ATOM      5  C   UNL     1       2.396  -2.543   4.821  1.00  0.00     0.000 C 
BRANCH   5   6
ATOM      6  C   UNL     1       2.268  -2.179   3.334  1.00  0.00     0.006 C 
BRANCH   6   7
ATOM      7  C   UNL     1       3.391  -1.243   2.867  1.00  0.00     0.053 C 
BRANCH   7   8
ATOM      8  C   UNL     1       4.652  -1.996   2.567  1.00  0.00     0.041 C 
ATOM      9  O   UNL     1       5.653  -1.883   3.323  1.00  0.00    -0.550 OA
ATOM     10  O   UNL     1       4.709  -2.847   1.471  1.00  0.00    -0.550 OA
ENDBRANCH   7   8
ENDBRANCH   6   7
ENDBRANCH   5   6
ENDBRANCH   4   5
ENDBRANCH   3   4
ENDBRANCH   2   3
ENDBRANCH   1   2
BRANCH   1  11
ATOM     11  C   UNL     1      -1.731   0.045   4.982  1.00  0.00     0.000 C 
BRANCH  11  12
ATOM     12  C   UNL     1      -2.676  -0.022   6.196  1.00  0.00     0.000 C 
BRANCH  12  13
ATOM     13  C   UNL     1      -3.632  -1.222   6.143  1.00  0.00     0.000 C 
BRANCH  13  14
ATOM     14  C   UNL     1      -4.078  -1.509   4.702  1.00  0.00     0.000 C 
BRANCH  14  15
ATOM     15  C   UNL     1      -5.299  -2.454   4.646  1.00  0.00     0.000 C 
BRANCH  15  16
ATOM     16  C   UNL     1      -5.055  -3.722   3.806  1.00  0.00     0.006 C 
BRANCH  16  17
ATOM     17  C   UNL     1      -5.063  -3.481   2.289  1.00  0.00     0.053 C 
BRANCH  17  18
ATOM     18  C   UNL     1      -5.418  -4.721   1.526  1.00  0.00     0.041 C 
ATOM     19  O   UNL     1      -6.557  -5.240   1.656  1.00  0.00    -0.550 OA
ATOM     20  O   UNL     1      -4.489  -5.308   0.676  1.00  0.00    -0.550 OA
ENDBRANCH  17  18
ENDBRANCH  16  17
ENDBRANCH  15  16
ENDBRANCH  14  15
ENDBRANCH  13  14
ENDBRANCH  12  13
ENDBRANCH  11  12
ENDBRANCH   1  11
TORSDOF 15
ENDMDL
MODEL 4
REMARK VINA RESULT:    -4.677      5.778      9.108
REMARK INTER + INTRA:          -9.646
REMARK INTER:                  -7.986
REMARK INTRA:                  -1.660
REMARK UNBOUND:                -0.868
REMARK SMILES O=C([O-])CCCCCCCCCCCCCCC(=O)[O-]
REMARK SMILES IDX 10 1 9 2 8 3 7 4 6 5 5 6 4 7 2 8 1 9 3 10 11 11 12 12 13 13
REMARK SMILES IDX 14 14 15 15 16 16 17 17 18 18 19 19 20 20
REMARK H PARENT
REMARK Flexibility Score: inf
ROOT
ATOM      1  C   UNL     1      -5.368  -5.325  -0.451  1.00  0.00     0.000 C 
ENDROOT
BRANCH   1   2
ATOM      2  C   UNL     1      -6.885  -5.509  -0.252  1.00  0.00     0.000 C 
BRANCH   2   3
ATOM      3  C   UNL     1      -7.712  -5.565  -1.552  1.00  0.00     0.000 C 
BRANCH   3   4
ATOM      4  C   UNL     1      -6.889  -5.466  -2.850  1.00  0.00     0.000 C 
BRANCH   4   5
ATOM      5  C   UNL     1      -6.837  -6.790  -3.625  1.00  0.00     0.000 C 
BRANCH   5   6
ATOM      6  C   UNL     1      -5.384  -7.207  -3.901  1.00  0.00     0.006 C 
BRANCH   6   7
ATOM      7  C   UNL     1      -5.036  -7.146  -5.394  1.00  0.00     0.053 C 
BRANCH   7   8
ATOM      8  C   UNL     1      -3.722  -7.806  -5.685  1.00  0.00     0.041 C 
ATOM      9  O   UNL     1      -2.850  -7.207  -6.366  1.00  0.00    -0.550 OA
ATOM     10  O   UNL     1      -3.451  -9.069  -5.175  1.00  0.00    -0.550 OA
ENDBRANCH   7   8
ENDBRANCH   6   7
ENDBRANCH   5   6
ENDBRANCH   4   5
ENDBRANCH   3   4
ENDBRANCH   2   3
ENDBRANCH   1   2
BRANCH   1  11
ATOM     11  C   UNL     1      -4.585  -4.940   0.821  1.00  0.00     0.000 C 
BRANCH  11  12
ATOM     12  C   UNL     1      -5.400  -4.987   2.125  1.00  0.00     0.000 C 
BRANCH  12  13
ATOM     13  C   UNL     1      -5.544  -3.610   2.789  1.00  0.00     0.000 C 
BRANCH  13  14
ATOM     14  C   UNL     1      -4.983  -2.501   1.888  1.00  0.00     0.000 C 
BRANCH  14  15
ATOM     15  C   UNL     1      -6.039  -1.420   1.567  1.00  0.00     0.000 C 
BRANCH  15  16
ATOM     16  C   UNL     1      -6.724  -1.619   0.201  1.00  0.00     0.006 C 
BRANCH  16  17
ATOM     17  C   UNL     1      -5.747  -1.769  -0.975  1.00  0.00     0.053 C 
BRANCH  17  18
ATOM     18  C   UNL     1      -5.785  -0.582  -1.890  1.00  0.00     0.041 C 
ATOM     19  O   UNL     1      -4.793  -0.311  -2.616  1.00  0.00    -0.550 OA
ATOM     20  O   UNL     1      -6.913   0.228  -1.938  1.00  0.00    -0.550 OA
ENDBRANCH  17  18
ENDBRANCH  16  17
ENDBRANCH  15  16
ENDBRANCH  14  15
ENDBRANCH  13  14
ENDBRANCH  12  13
ENDBRANCH  11  12
ENDBRANCH   1  11
TORSDOF 15
ENDMDL
MODEL 5
REMARK VINA RESULT:    -4.648      1.181      7.926
REMARK INTER + INTRA:          -9.591
REMARK INTER:                  -8.764
REMARK INTRA:                  -0.827
REMARK UNBOUND:                -0.868
REMARK SMILES O=C([O-])CCCCCCCCCCCCCCC(=O)[O-]
REMARK SMILES IDX 10 1 9 2 8 3 7 4 6 5 5 6 4 7 2 8 1 9 3 10 11 11 12 12 13 13
REMARK SMILES IDX 14 14 15 15 16 16 17 17 18 18 19 19 20 20
REMARK H PARENT
REMARK Flexibility Score: inf
ROOT
ATOM      1  C   UNL     1      -3.377  -1.412   6.118  1.00  0.00     0.000 C 
ENDROOT
BRANCH   1   2
ATOM      2  C   UNL     1      -4.295  -2.202   5.163  1.00  0.00     0.000 C 
BRANCH   2   3
ATOM      3  C   UNL     1      -4.359  -1.658   3.722  1.00  0.00     0.000 C 
BRANCH   3   4
ATOM      4  C   UNL     1      -4.900  -2.651   2.676  1.00  0.00     0.000 C 
BRANCH   4   5
ATOM      5  C   UNL     1      -5.263  -4.014   3.281  1.00  0.00     0.000 C 
BRANCH   5   6
ATOM      6  C   UNL     1      -5.409  -5.080   2.183  1.00  0.00     0.006 C 
BRANCH   6   7
ATOM      7  C   UNL     1      -6.402  -4.658   1.093  1.00  0.00     0.053 C 
BRANCH   7   8
ATOM      8  C   UNL     1      -5.739  -4.540  -0.246  1.00  0.00     0.041 C 
ATOM      9  O   UNL     1      -5.396  -5.573  -0.877  1.00  0.00    -0.550 OA
ATOM     10  O   UNL     1      -5.531  -3.287  -0.810  1.00  0.00    -0.550 OA
ENDBRANCH   7   8
ENDBRANCH   6   7
ENDBRANCH   5   6
ENDBRANCH   4   5
ENDBRANCH   3   4
ENDBRANCH   2   3
ENDBRANCH   1   2
BRANCH   1  11
ATOM     11  C   UNL     1      -3.126   0.056   5.715  1.00  0.00     0.000 C 
BRANCH  11  12
ATOM     12  C   UNL     1      -1.675   0.383   5.319  1.00  0.00     0.000 C 
BRANCH  12  13
ATOM     13  C   UNL     1      -0.715   0.383   6.517  1.00  0.00     0.000 C 
BRANCH  13  14
ATOM     14  C   UNL     1       0.380  -0.679   6.347  1.00  0.00     0.000 C 
BRANCH  14  15
ATOM     15  C   UNL     1       0.835  -0.819   4.877  1.00  0.00     0.000 C 
BRANCH  15  16
ATOM     16  C   UNL     1       2.090  -1.697   4.705  1.00  0.00     0.006 C 
BRANCH  16  17
ATOM     17  C   UNL     1       2.329  -2.174   3.264  1.00  0.00     0.053 C 
BRANCH  17  18
ATOM     18  C   UNL     1       3.704  -1.827   2.779  1.00  0.00     0.041 C 
ATOM     19  O   UNL     1       4.297  -0.813   3.231  1.00  0.00    -0.550 OA
ATOM     20  O   UNL     1       4.329  -2.619   1.824  1.00  0.00    -0.550 OA
ENDBRANCH  17  18
ENDBRANCH  16  17
ENDBRANCH  15  16
ENDBRANCH  14  15
ENDBRANCH  13  14
ENDBRANCH  12  13
ENDBRANCH  11  12
ENDBRANCH   1  11
TORSDOF 15
ENDMDL
MODEL 6
REMARK VINA RESULT:    -4.583      5.030      8.899
REMARK INTER + INTRA:          -9.469
REMARK INTER:                  -8.170
REMARK INTRA:                  -1.298
REMARK UNBOUND:                -0.868
REMARK SMILES O=C([O-])CCCCCCCCCCCCCCC(=O)[O-]
REMARK SMILES IDX 10 1 9 2 8 3 7 4 6 5 5 6 4 7 2 8 1 9 3 10 11 11 12 12 13 13
REMARK SMILES IDX 14 14 15 15 16 16 17 17 18 18 19 19 20 20
REMARK H PARENT
REMARK Flexibility Score: inf
ROOT
ATOM      1  C   UNL     1      -5.067  -4.919   0.465  1.00  0.00     0.000 C 
ENDROOT
BRANCH   1   2
ATOM      2  C   UNL     1      -6.543  -5.361   0.412  1.00  0.00     0.000 C 
BRANCH   2   3
ATOM      3  C   UNL     1      -7.079  -5.674  -0.999  1.00  0.00     0.000 C 
BRANCH   3   4
ATOM      4  C   UNL     1      -6.014  -5.682  -2.112  1.00  0.00     0.000 C 
BRANCH   4   5
ATOM      5  C   UNL     1      -6.439  -6.505  -3.337  1.00  0.00     0.000 C 
BRANCH   5   6
ATOM      6  C   UNL     1      -5.270  -7.353  -3.861  1.00  0.00     0.006 C 
BRANCH   6   7
ATOM      7  C   UNL     1      -5.017  -7.133  -5.358  1.00  0.00     0.053 C 
BRANCH   7   8
ATOM      8  C   UNL     1      -3.738  -7.772  -5.805  1.00  0.00     0.041 C 
ATOM      9  O   UNL     1      -3.353  -8.852  -5.287  1.00  0.00    -0.550 OA
ATOM     10  O   UNL     1      -2.987  -7.189  -6.818  1.00  0.00    -0.550 OA
ENDBRANCH   7   8
ENDBRANCH   6   7
ENDBRANCH   5   6
ENDBRANCH   4   5
ENDBRANCH   3   4
ENDBRANCH   2   3
ENDBRANCH   1   2
BRANCH   1  11
ATOM     11  C   UNL     1      -4.846  -3.396   0.566  1.00  0.00     0.000 C 
BRANCH  11  12
ATOM     12  C   UNL     1      -6.039  -2.601   1.127  1.00  0.00     0.000 C 
BRANCH  12  13
ATOM     13  C   UNL     1      -5.639  -1.644   2.258  1.00  0.00     0.000 C 
BRANCH  13  14
ATOM     14  C   UNL     1      -4.509  -2.237   3.110  1.00  0.00     0.000 C 
BRANCH  14  15
ATOM     15  C   UNL     1      -4.985  -2.612   4.532  1.00  0.00     0.000 C 
BRANCH  15  16
ATOM     16  C   UNL     1      -5.040  -4.132   4.778  1.00  0.00     0.006 C 
BRANCH  16  17
ATOM     17  C   UNL     1      -6.237  -4.832   4.116  1.00  0.00     0.053 C 
BRANCH  17  18
ATOM     18  C   UNL     1      -6.317  -6.281   4.490  1.00  0.00     0.041 C 
ATOM     19  O   UNL     1      -7.420  -6.788   4.823  1.00  0.00    -0.550 OA
ATOM     20  O   UNL     1      -5.174  -7.070   4.480  1.00  0.00    -0.550 OA
ENDBRANCH  17  18
ENDBRANCH  16  17
ENDBRANCH  15  16
ENDBRANCH  14  15
ENDBRANCH  13  14
ENDBRANCH  12  13
ENDBRANCH  11  12
ENDBRANCH   1  11
TORSDOF 15
ENDMDL
MODEL 7
REMARK VINA RESULT:    -4.572      1.533      7.857
REMARK INTER + INTRA:          -9.448
REMARK INTER:                  -8.566
REMARK INTRA:                  -0.882
REMARK UNBOUND:                -0.868
REMARK SMILES O=C([O-])CCCCCCCCCCCCCCC(=O)[O-]
REMARK SMILES IDX 10 1 9 2 8 3 7 4 6 5 5 6 4 7 2 8 1 9 3 10 11 11 12 12 13 13
REMARK SMILES IDX 14 14 15 15 16 16 17 17 18 18 19 19 20 20
REMARK H PARENT
REMARK Flexibility Score: inf
ROOT
ATOM      1  C   UNL     1      -0.884   0.334   5.750  1.00  0.00     0.000 C 
ENDROOT
BRANCH   1   2
ATOM      2  C   UNL     1      -2.260   0.149   5.079  1.00  0.00     0.000 C 
BRANCH   2   3
ATOM      3  C   UNL     1      -3.140  -0.959   5.692  1.00  0.00     0.000 C 
BRANCH   3   4
ATOM      4  C   UNL     1      -4.221  -1.525   4.752  1.00  0.00     0.000 C 
BRANCH   4   5
ATOM      5  C   UNL     1      -4.542  -3.000   5.033  1.00  0.00     0.000 C 
BRANCH   5   6
ATOM      6  C   UNL     1      -5.279  -3.637   3.845  1.00  0.00     0.006 C 
BRANCH   6   7
ATOM      7  C   UNL     1      -4.956  -2.937   2.519  1.00  0.00     0.053 C 
BRANCH   7   8
ATOM      8  C   UNL     1      -4.839  -3.914   1.389  1.00  0.00     0.041 C 
ATOM      9  O   UNL     1      -4.461  -3.527   0.252  1.00  0.00    -0.550 OA
ATOM     10  O   UNL     1      -5.116  -5.259   1.601  1.00  0.00    -0.550 OA
ENDBRANCH   7   8
ENDBRANCH   6   7
ENDBRANCH   5   6
ENDBRANCH   4   5
ENDBRANCH   3   4
ENDBRANCH   2   3
ENDBRANCH   1   2
BRANCH   1  11
ATOM     11  C   UNL     1      -0.595  -0.628   6.921  1.00  0.00     0.000 C 
BRANCH  11  12
ATOM     12  C   UNL     1       0.642  -0.272   7.765  1.00  0.00     0.000 C 
BRANCH  12  13
ATOM     13  C   UNL     1       1.716  -1.368   7.741  1.00  0.00     0.000 C 
BRANCH  13  14
ATOM     14  C   UNL     1       1.700  -2.128   6.407  1.00  0.00     0.000 C 
BRANCH  14  15
ATOM     15  C   UNL     1       2.488  -1.388   5.304  1.00  0.00     0.000 C 
BRANCH  15  16
ATOM     16  C   UNL     1       2.059  -1.780   3.877  1.00  0.00     0.006 C 
BRANCH  16  17
ATOM     17  C   UNL     1       3.206  -1.782   2.855  1.00  0.00     0.053 C 
BRANCH  17  18
ATOM     18  C   UNL     1       4.508  -2.192   3.474  1.00  0.00     0.041 C 
ATOM     19  O   UNL     1       4.720  -3.399   3.761  1.00  0.00    -0.550 OA
ATOM     20  O   UNL     1       5.485  -1.241   3.741  1.00  0.00    -0.550 OA
ENDBRANCH  17  18
ENDBRANCH  16  17
ENDBRANCH  15  16
ENDBRANCH  14  15
ENDBRANCH  13  14
ENDBRANCH  12  13
ENDBRANCH  11  12
ENDBRANCH   1  11
TORSDOF 15
ENDMDL
MODEL 8
REMARK VINA RESULT:    -4.566      2.923      5.027
REMARK INTER + INTRA:          -9.438
REMARK INTER:                  -7.773
REMARK INTRA:                  -1.665
REMARK UNBOUND:                -0.868
REMARK SMILES O=C([O-])CCCCCCCCCCCCCCC(=O)[O-]
REMARK SMILES IDX 10 1 9 2 8 3 7 4 6 5 5 6 4 7 2 8 1 9 3 10 11 11 12 12 13 13
REMARK SMILES IDX 14 14 15 15 16 16 17 17 18 18 19 19 20 20
REMARK H PARENT
REMARK Flexibility Score: inf
ROOT
ATOM      1  C   UNL     1      -5.961  -1.411   1.344  1.00  0.00     0.000 C 
ENDROOT
BRANCH   1   2
ATOM      2  C   UNL     1      -5.945  -1.729   2.852  1.00  0.00     0.000 C 
BRANCH   2   3
ATOM      3  C   UNL     1      -4.541  -1.866   3.474  1.00  0.00     0.000 C 
BRANCH   3   4
ATOM      4  C   UNL     1      -4.519  -1.979   5.010  1.00  0.00     0.000 C 
BRANCH   4   5
ATOM      5  C   UNL     1      -4.376  -0.617   5.706  1.00  0.00     0.000 C 
BRANCH   5   6
ATOM      6  C   UNL     1      -3.002  -0.488   6.381  1.00  0.00     0.006 C 
BRANCH   6   7
ATOM      7  C   UNL     1      -2.020   0.345   5.546  1.00  0.00     0.053 C 
BRANCH   7   8
ATOM      8  C   UNL     1      -0.599   0.103   5.955  1.00  0.00     0.041 C 
ATOM      9  O   UNL     1      -0.213   0.405   7.114  1.00  0.00    -0.550 OA
ATOM     10  O   UNL     1       0.290  -0.487   5.065  1.00  0.00    -0.550 OA
ENDBRANCH   7   8
ENDBRANCH   6   7
ENDBRANCH   5   6
ENDBRANCH   4   5
ENDBRANCH   3   4
ENDBRANCH   2   3
ENDBRANCH   1   2
BRANCH   1  11
ATOM     11  C   UNL     1      -6.165  -2.631   0.423  1.00  0.00     0.000 C 
BRANCH  11  12
ATOM     12  C   UNL     1      -4.921  -3.515   0.228  1.00  0.00     0.000 C 
BRANCH  12  13
ATOM     13  C   UNL     1      -5.026  -4.863   0.954  1.00  0.00     0.000 C 
BRANCH  13  14
ATOM     14  C   UNL     1      -6.491  -5.222   1.243  1.00  0.00     0.000 C 
BRANCH  14  15
ATOM     15  C   UNL     1      -6.767  -5.376   2.755  1.00  0.00     0.000 C 
BRANCH  15  16
ATOM     16  C   UNL     1      -5.489  -5.373   3.615  1.00  0.00     0.006 C 
BRANCH  16  17
ATOM     17  C   UNL     1      -5.742  -5.583   5.116  1.00  0.00     0.053 C 
BRANCH  17  18
ATOM     18  C   UNL     1      -5.322  -6.949   5.570  1.00  0.00     0.041 C 
ATOM     19  O   UNL     1      -5.170  -7.875   4.732  1.00  0.00    -0.550 OA
ATOM     20  O   UNL     1      -5.105  -7.201   6.919  1.00  0.00    -0.550 OA
ENDBRANCH  17  18
ENDBRANCH  16  17
ENDBRANCH  15  16
ENDBRANCH  14  15
ENDBRANCH  13  14
ENDBRANCH  12  13
ENDBRANCH  11  12
ENDBRANCH   1  11
TORSDOF 15
ENDMDL
MODEL 9
REMARK VINA RESULT:    -4.534      5.054      6.750
REMARK INTER + INTRA:          -9.377
REMARK INTER:                  -7.706
REMARK INTRA:                  -1.670
REMARK UNBOUND:                -0.868
REMARK SMILES O=C([O-])CCCCCCCCCCCCCCC(=O)[O-]
REMARK SMILES IDX 10 1 9 2 8 3 7 4 6 5 5 6 4 7 2 8 1 9 3 10 11 11 12 12 13 13
REMARK SMILES IDX 14 14 15 15 16 16 17 17 18 18 19 19 20 20
REMARK H PARENT
REMARK Flexibility Score: inf
ROOT
ATOM      1  C   UNL     1      -5.688  -2.640   1.107  1.00  0.00     0.000 C 
ENDROOT
BRANCH   1   2
ATOM      2  C   UNL     1      -5.653  -1.768   2.378  1.00  0.00     0.000 C 
BRANCH   2   3
ATOM      3  C   UNL     1      -4.515  -2.098   3.364  1.00  0.00     0.000 C 
BRANCH   3   4
ATOM      4  C   UNL     1      -4.860  -3.163   4.422  1.00  0.00     0.000 C 
BRANCH   4   5
ATOM      5  C   UNL     1      -6.373  -3.374   4.583  1.00  0.00     0.000 C 
BRANCH   5   6
ATOM      6  C   UNL     1      -6.773  -4.800   4.174  1.00  0.00     0.006 C 
BRANCH   6   7
ATOM      7  C   UNL     1      -5.557  -5.722   4.015  1.00  0.00     0.053 C 
BRANCH   7   8
ATOM      8  C   UNL     1      -5.573  -6.839   5.014  1.00  0.00     0.041 C 
ATOM      9  O   UNL     1      -6.202  -6.713   6.096  1.00  0.00    -0.550 OA
ATOM     10  O   UNL     1      -4.919  -8.032   4.731  1.00  0.00    -0.550 OA
ENDBRANCH   7   8
ENDBRANCH   6   7
ENDBRANCH   5   6
ENDBRANCH   4   5
ENDBRANCH   3   4
ENDBRANCH   2   3
ENDBRANCH   1   2
BRANCH   1  11
ATOM     11  C   UNL     1      -4.538  -3.660   0.984  1.00  0.00     0.000 C 
BRANCH  11  12
ATOM     12  C   UNL     1      -4.942  -5.031   0.414  1.00  0.00     0.000 C 
BRANCH  12  13
ATOM     13  C   UNL     1      -6.461  -5.252   0.411  1.00  0.00     0.000 C 
BRANCH  13  14
ATOM     14  C   UNL     1      -6.942  -5.760  -0.956  1.00  0.00     0.000 C 
BRANCH  14  15
ATOM     15  C   UNL     1      -5.818  -5.739  -2.015  1.00  0.00     0.000 C 
BRANCH  15  16
ATOM     16  C   UNL     1      -6.331  -5.911  -3.457  1.00  0.00     0.006 C 
BRANCH  16  17
ATOM     17  C   UNL     1      -6.442  -7.373  -3.914  1.00  0.00     0.053 C 
BRANCH  17  18
ATOM     18  C   UNL     1      -5.190  -7.847  -4.589  1.00  0.00     0.041 C 
ATOM     19  O   UNL     1      -4.925  -9.076  -4.640  1.00  0.00    -0.550 OA
ATOM     20  O   UNL     1      -4.312  -6.931  -5.156  1.00  0.00    -0.550 OA
ENDBRANCH  17  18
ENDBRANCH  16  17
ENDBRANCH  15  16
ENDBRANCH  14  15
ENDBRANCH  13  14
ENDBRANCH  12  13
ENDBRANCH  11  12
ENDBRANCH   1  11
TORSDOF 15
ENDMDL
