MODEL 1
REMARK VINA RESULT:    -1.876      0.000      0.000
REMARK INTER + INTRA:          -1.876
REMARK INTER:                  -1.876
REMARK INTRA:                   0.000
REMARK UNBOUND:                 0.000
REMARK SMILES c1cc[nH]c1
REMARK SMILES IDX 1 1 5 2 4 3 3 4 2 5
REMARK H PARENT 4 6
REMARK Flexibility Score: inf
ROOT
ATOM      1  C   UNL     1       0.605   5.857  -8.404  1.00  0.00     0.019 A 
ATOM      2  C   UNL     1       1.276   5.257  -9.450  1.00  0.00     0.082 A 
ATOM      3  N   UNL     1       0.584   5.417 -10.592  1.00  0.00    -0.368 N 
ATOM      4  C   UNL     1      -0.525   6.114 -10.288  1.00  0.00     0.082 A 
ATOM      5  C   UNL     1      -0.544   6.403  -8.938  1.00  0.00     0.019 A 
ATOM      6  H   UNL     1       0.857   5.067 -11.536  1.00  0.00     0.165 HD
ENDROOT
TORSDOF 0
ENDMDL
MODEL 2
REMARK VINA RESULT:    -1.858      0.124      1.627
REMARK INTER + INTRA:          -1.858
REMARK INTER:                  -1.858
REMARK INTRA:                   0.000
REMARK UNBOUND:                 0.000
REMARK SMILES c1cc[nH]c1
REMARK SMILES IDX 1 1 5 2 4 3 3 4 2 5
REMARK H PARENT 4 6
REMARK Flexibility Score: inf
ROOT
ATOM      1  C   UNL     1      -0.692   6.367  -9.001  1.00  0.00     0.019 A 
ATOM      2  C   UNL     1      -0.606   6.112 -10.354  1.00  0.00     0.082 A 
ATOM      3  N   UNL     1       0.548   5.480 -10.630  1.00  0.00    -0.368 N 
ATOM      4  C   UNL     1       1.204   5.326  -9.466  1.00  0.00     0.082 A 
ATOM      5  C   UNL     1       0.462   5.866  -8.433  1.00  0.00     0.019 A 
ATOM      6  H   UNL     1       0.874   5.167 -11.570  1.00  0.00     0.165 HD
ENDROOT
TORSDOF 0
ENDMDL
MODEL 3
REMARK VINA RESULT:    -1.782      1.007      1.689
REMARK INTER + INTRA:          -1.782
REMARK INTER:                  -1.782
REMARK INTRA:                   0.000
REMARK UNBOUND:                 0.000
REMARK SMILES c1cc[nH]c1
REMARK SMILES IDX 1 1 5 2 4 3 3 4 2 5
REMARK H PARENT 4 6
REMARK Flexibility Score: inf
ROOT
ATOM      1  C   UNL     1       0.723   5.909  -8.301  1.00  0.00     0.019 A 
ATOM      2  C   UNL     1      -0.562   6.405  -8.387  1.00  0.00     0.082 A 
ATOM      3  N   UNL     1      -0.990   6.354  -9.660  1.00  0.00    -0.368 N 
ATOM      4  C   UNL     1       0.009   5.831 -10.393  1.00  0.00     0.082 A 
ATOM      5  C   UNL     1       1.088   5.544  -9.581  1.00  0.00     0.019 A 
ATOM      6  H   UNL     1      -1.922   6.662 -10.014  1.00  0.00     0.165 HD
ENDROOT
TORSDOF 0
ENDMDL
MODEL 4
REMARK VINA RESULT:    -1.754      0.949      1.656
REMARK INTER + INTRA:          -1.754
REMARK INTER:                  -1.754
REMARK INTRA:                   0.000
REMARK UNBOUND:                 0.000
REMARK SMILES c1cc[nH]c1
REMARK SMILES IDX 1 1 5 2 4 3 3 4 2 5
REMARK H PARENT 4 6
REMARK Flexibility Score: inf
ROOT
ATOM      1  C   UNL     1       1.114   5.413  -9.613  1.00  0.00     0.019 A 
ATOM      2  C   UNL     1       0.116   5.780 -10.493  1.00  0.00     0.082 A 
ATOM      3  N   UNL     1      -0.864   6.421  -9.834  1.00  0.00    -0.368 N 
ATOM      4  C   UNL     1      -0.506   6.469  -8.539  1.00  0.00     0.082 A 
ATOM      5  C   UNL     1       0.717   5.851  -8.366  1.00  0.00     0.019 A 
ATOM      6  H   UNL     1      -1.739   6.810 -10.250  1.00  0.00     0.165 HD
ENDROOT
TORSDOF 0
ENDMDL
MODEL 5
REMARK VINA RESULT:    -1.672     15.226     16.123
REMARK INTER + INTRA:          -1.672
REMARK INTER:                  -1.672
REMARK INTRA:                   0.000
REMARK UNBOUND:                 0.000
REMARK SMILES c1cc[nH]c1
REMARK SMILES IDX 1 1 5 2 4 3 3 4 2 5
REMARK H PARENT 4 6
REMARK Flexibility Score: inf
ROOT
ATOM      1  C   UNL     1      12.574  -2.893  -5.875  1.00  0.00     0.019 A 
ATOM      2  C   UNL     1      11.922  -3.301  -7.021  1.00  0.00     0.082 A 
ATOM      3  N   UNL     1      12.749  -4.040  -7.781  1.00  0.00    -0.368 N 
ATOM      4  C   UNL     1      13.925  -4.111  -7.134  1.00  0.00     0.082 A 
ATOM      5  C   UNL     1      13.852  -3.409  -5.947  1.00  0.00     0.019 A 
ATOM      6  H   UNL     1      12.520  -4.478  -8.700  1.00  0.00     0.165 HD
ENDROOT
TORSDOF 0
ENDMDL
MODEL 6
REMARK VINA RESULT:    -0.904     10.779     11.487
REMARK INTER + INTRA:          -0.904
REMARK INTER:                  -0.904
REMARK INTRA:                   0.000
REMARK UNBOUND:                 0.000
REMARK SMILES c1cc[nH]c1
REMARK SMILES IDX 1 1 5 2 4 3 3 4 2 5
REMARK H PARENT 4 6
REMARK Flexibility Score: inf
ROOT
ATOM      1  C   UNL     1      12.320   7.332  -6.956  1.00  0.00     0.019 A 
ATOM      2  C   UNL     1      11.660   6.784  -5.875  1.00  0.00     0.082 A 
ATOM      3  N   UNL     1      10.360   7.126  -5.908  1.00  0.00    -0.368 N 
ATOM      4  C   UNL     1      10.180   7.890  -7.000  1.00  0.00     0.082 A 
ATOM      5  C   UNL     1      11.376   8.039  -7.673  1.00  0.00     0.019 A 
ATOM      6  H   UNL     1       9.629   6.850  -5.217  1.00  0.00     0.165 HD
ENDROOT
TORSDOF 0
ENDMDL
MODEL 7
REMARK VINA RESULT:    -0.457      3.063      3.682
REMARK INTER + INTRA:          -0.457
REMARK INTER:                  -0.457
REMARK INTRA:                   0.000
REMARK UNBOUND:                 0.000
REMARK SMILES c1cc[nH]c1
REMARK SMILES IDX 1 1 5 2 4 3 3 4 2 5
REMARK H PARENT 4 6
REMARK Flexibility Score: inf
ROOT
ATOM      1  C   UNL     1      -1.663   5.658 -11.606  1.00  0.00     0.019 A 
ATOM      2  C   UNL     1      -0.415   5.846 -12.165  1.00  0.00     0.082 A 
ATOM      3  N   UNL     1      -0.397   5.366 -13.420  1.00  0.00    -0.368 N 
ATOM      4  C   UNL     1      -1.621   4.872 -13.673  1.00  0.00     0.082 A 
ATOM      5  C   UNL     1      -2.433   5.036 -12.568  1.00  0.00     0.019 A 
ATOM      6  H   UNL     1       0.415   5.376 -14.076  1.00  0.00     0.165 HD
ENDROOT
TORSDOF 0
ENDMDL
MODEL 8
REMARK VINA RESULT:     0.227     11.194     11.705
REMARK INTER + INTRA:           0.227
REMARK INTER:                   0.227
REMARK INTRA:                   0.000
REMARK UNBOUND:                 0.000
REMARK SMILES c1cc[nH]c1
REMARK SMILES IDX 1 1 5 2 4 3 3 4 2 5
REMARK H PARENT 4 6
REMARK Flexibility Score: inf
ROOT
ATOM      1  C   UNL     1      10.647   8.170  -7.398  1.00  0.00     0.019 A 
ATOM      2  C   UNL     1      11.963   7.909  -7.717  1.00  0.00     0.082 A 
ATOM      3  N   UNL     1      12.511   7.106  -6.788  1.00  0.00    -0.368 N 
ATOM      4  C   UNL     1      11.557   6.850  -5.875  1.00  0.00     0.082 A 
ATOM      5  C   UNL     1      10.387   7.495  -6.223  1.00  0.00     0.019 A 
ATOM      6  H   UNL     1      13.491   6.749  -6.777  1.00  0.00     0.165 HD
ENDROOT
TORSDOF 0
ENDMDL
