MODEL 1
REMARK VINA RESULT:     0.809      0.000      0.000
REMARK INTER + INTRA:           1.639
REMARK INTER:                   1.187
REMARK INTRA:                   0.452
REMARK UNBOUND:                 0.452
REMARK SMILES C=C1C=C[C@H](C(C)C)CCC(C)=CCC1
REMARK SMILES IDX 3 1 4 2 5 3 9 4 10 5 11 6 12 7 13 8 6 10 7 11 8 12 2 13 1 14
REMARK SMILES IDX 15 15 14 16
REMARK H PARENT
REMARK Flexibility Score: 70.00
ROOT
ATOM      1  C   UNL     1     -15.529  -0.878  18.060  1.00  0.00    -0.001 C 
ATOM      2  C   UNL     1     -15.570  -1.929  18.883  1.00  0.00    -0.023 C 
ENDROOT
BRANCH   2   3
ATOM      3  C   UNL     1     -14.325  -2.514  19.503  1.00  0.00     0.014 C 
BRANCH   3   4
ATOM      4  C   UNL     1     -13.117  -2.478  18.513  1.00  0.00     0.012 C 
BRANCH   4   5
ATOM      5  C   UNL     1     -13.145  -3.483  17.331  1.00  0.00     0.031 C 
BRANCH   5   6
ATOM      6  C   UNL     1     -13.321  -2.837  15.965  1.00  0.00    -0.077 C 
ATOM      7  C   UNL     1     -12.084  -2.433  15.204  1.00  0.00     0.039 C 
ATOM      8  C   UNL     1     -14.527  -2.587  15.388  1.00  0.00    -0.028 CG0
ATOM      9  G   UNL     1     -15.902  -2.838  15.985  1.00  0.00     0.000 G0
ENDBRANCH   5   6
ENDBRANCH   4   5
ENDBRANCH   3   4
BRANCH   3  10
ATOM     10  C   UNL     1     -13.994  -1.845  20.872  1.00  0.00    -0.010 C 
ATOM     11  C   UNL     1     -15.006  -2.254  21.958  1.00  0.00     0.008 C 
ATOM     12  C   UNL     1     -12.576  -2.202  21.349  1.00  0.00     0.008 C 
ENDBRANCH   3  10
ENDBRANCH   2   3
BRANCH   1  13
ATOM     13  C   UNL     1     -16.595  -0.625  17.068  1.00  0.00    -0.055 C 
ATOM     14  C   UNL     1     -17.268   0.528  17.130  1.00  0.00     0.012 C 
BRANCH  13  15
ATOM     15  C   UNL     1     -16.815  -1.571  15.899  1.00  0.00     0.039 C 
BRANCH  15  16
ATOM     16  C   UNL     1     -15.913  -2.823  15.978  1.00  0.00     0.032 CG0
ATOM     17  G   UNL     1     -14.528  -2.596  15.397  1.00  0.00     0.000 G0
ENDBRANCH  15  16
ENDBRANCH  13  15
ENDBRANCH   1  13
TORSDOF 1
ENDMDL
MODEL 2
REMARK VINA RESULT:     3.236      0.825      3.217
REMARK INTER + INTRA:           5.201
REMARK INTER:                   3.311
REMARK INTRA:                   1.890
REMARK UNBOUND:                 0.452
REMARK SMILES C=C1C=C[C@H](C(C)C)CCC(C)=CCC1
REMARK SMILES IDX 3 1 4 2 5 3 9 4 10 5 11 6 12 7 13 8 6 10 7 11 8 12 2 13 1 14
REMARK SMILES IDX 15 15 14 16
REMARK H PARENT
REMARK Flexibility Score: 70.00
ROOT
ATOM      1  C   UNL     1     -13.924  -2.952  17.814  1.00  0.00    -0.001 C 
ATOM      2  C   UNL     1     -13.182  -2.366  18.757  1.00  0.00    -0.023 C 
ENDROOT
BRANCH   2   3
ATOM      3  C   UNL     1     -13.797  -1.646  19.933  1.00  0.00     0.014 C 
BRANCH   3   4
ATOM      4  C   UNL     1     -15.212  -1.080  19.585  1.00  0.00     0.012 C 
BRANCH   4   5
ATOM      5  C   UNL     1     -16.055  -1.878  18.556  1.00  0.00     0.031 C 
BRANCH   5   6
ATOM      6  C   UNL     1     -16.377  -1.110  17.282  1.00  0.00    -0.077 C 
ATOM      7  C   UNL     1     -16.883   0.304  17.413  1.00  0.00     0.039 C 
ATOM      8  C   UNL     1     -16.252  -1.624  16.029  1.00  0.00    -0.028 CG0
ATOM      9  G   UNL     1     -15.832  -3.033  15.651  1.00  0.00     0.000 G0
ENDBRANCH   5   6
ENDBRANCH   4   5
ENDBRANCH   3   4
BRANCH   3  10
ATOM     10  C   UNL     1     -13.808  -2.537  21.212  1.00  0.00    -0.010 C 
ATOM     11  C   UNL     1     -12.504  -2.386  22.016  1.00  0.00     0.008 C 
ATOM     12  C   UNL     1     -15.000  -2.201  22.125  1.00  0.00     0.008 C 
ENDBRANCH   3  10
ENDBRANCH   2   3
BRANCH   1  13
ATOM     13  C   UNL     1     -13.405  -3.186  16.450  1.00  0.00    -0.055 C 
ATOM     14  C   UNL     1     -12.136  -3.581  16.306  1.00  0.00     0.012 C 
BRANCH  13  15
ATOM     15  C   UNL     1     -14.330  -3.146  15.245  1.00  0.00     0.039 C 
BRANCH  15  16
ATOM     16  C   UNL     1     -15.817  -3.043  15.648  1.00  0.00     0.032 CG0
ATOM     17  G   UNL     1     -16.233  -1.633  16.031  1.00  0.00     0.000 G0
ENDBRANCH  15  16
ENDBRANCH  13  15
ENDBRANCH   1  13
TORSDOF 1
ENDMDL
