MODEL 1
REMARK VINA RESULT:    -5.283      0.000      0.000
REMARK INTER + INTRA:          -6.018
REMARK INTER:                  -5.592
REMARK INTRA:                  -0.426
REMARK UNBOUND:                -0.426
REMARK SMILES CC1=CC[C@@H]2[C@H]3[C@H](C(C)C)CC[C@]2(C)[C@@H]13
REMARK SMILES IDX 1 1 2 2 3 3 4 4 5 5 6 6 15 7 13 8 12 9 11 10 7 11 14 12 8 13
REMARK SMILES IDX 9 14 10 15
REMARK H PARENT
REMARK Flexibility Score: inf
ROOT
ATOM      1  C   UNL     1     163.653 165.563 199.729  1.00  0.00     0.039 C 
ATOM      2  C   UNL     1     164.140 164.209 199.304  1.00  0.00    -0.073 C 
ATOM      3  C   UNL     1     163.272 163.240 198.915  1.00  0.00    -0.027 C 
ATOM      4  C   UNL     1     163.830 161.883 198.474  1.00  0.00     0.031 C 
ATOM      5  C   UNL     1     165.389 161.867 198.600  1.00  0.00     0.003 C 
ATOM      6  C   UNL     1     165.750 162.460 199.982  1.00  0.00     0.004 C 
ATOM      7  C   UNL     1     165.628 163.853 199.310  1.00  0.00     0.024 C 
ATOM      8  C   UNL     1     166.021 163.143 197.991  1.00  0.00    -0.022 C 
ATOM      9  C   UNL     1     167.568 162.954 197.910  1.00  0.00     0.008 C 
ATOM     10  C   UNL     1     168.215 162.734 199.303  1.00  0.00     0.005 C 
ATOM     11  C   UNL     1     167.225 162.102 200.332  1.00  0.00    -0.005 C 
ATOM     12  C   UNL     1     165.459 163.685 196.656  1.00  0.00     0.012 C 
ENDROOT
BRANCH  11  13
ATOM     13  C   UNL     1     167.569 162.402 201.822  1.00  0.00    -0.014 C 
ATOM     14  C   UNL     1     168.500 163.617 201.954  1.00  0.00     0.007 C 
ATOM     15  C   UNL     1     166.340 162.569 202.732  1.00  0.00     0.007 C 
ENDBRANCH  11  13
TORSDOF 1
ENDMDL
MODEL 2
REMARK VINA RESULT:    -5.282      4.705      6.948
REMARK INTER + INTRA:          -6.017
REMARK INTER:                  -5.590
REMARK INTRA:                  -0.426
REMARK UNBOUND:                -0.426
REMARK SMILES CC1=CC[C@@H]2[C@H]3[C@H](C(C)C)CC[C@]2(C)[C@@H]13
REMARK SMILES IDX 1 1 2 2 3 3 4 4 5 5 6 6 15 7 13 8 12 9 11 10 7 11 14 12 8 13
REMARK SMILES IDX 9 14 10 15
REMARK H PARENT
REMARK Flexibility Score: inf
ROOT
ATOM      1  C   UNL     1     168.304 166.431 199.700  1.00  0.00     0.039 C 
ATOM      2  C   UNL     1     167.820 167.786 199.279  1.00  0.00    -0.073 C 
ATOM      3  C   UNL     1     168.688 168.748 198.871  1.00  0.00    -0.027 C 
ATOM      4  C   UNL     1     168.132 170.108 198.435  1.00  0.00     0.031 C 
ATOM      5  C   UNL     1     166.576 170.135 198.587  1.00  0.00     0.003 C 
ATOM      6  C   UNL     1     166.234 169.549 199.977  1.00  0.00     0.004 C 
ATOM      7  C   UNL     1     166.335 168.153 199.308  1.00  0.00     0.024 C 
ATOM      8  C   UNL     1     165.925 168.861 197.993  1.00  0.00    -0.022 C 
ATOM      9  C   UNL     1     164.378 169.061 197.937  1.00  0.00     0.008 C 
ATOM     10  C   UNL     1     163.756 169.290 199.341  1.00  0.00     0.005 C 
ATOM     11  C   UNL     1     164.767 169.919 200.350  1.00  0.00    -0.005 C 
ATOM     12  C   UNL     1     166.461 168.311 196.651  1.00  0.00     0.012 C 
ENDROOT
BRANCH  11  13
ATOM     13  C   UNL     1     164.446 169.626 201.847  1.00  0.00    -0.014 C 
ATOM     14  C   UNL     1     163.521 168.409 202.000  1.00  0.00     0.007 C 
ATOM     15  C   UNL     1     165.689 169.468 202.740  1.00  0.00     0.007 C 
ENDBRANCH  11  13
TORSDOF 1
ENDMDL
MODEL 3
REMARK VINA RESULT:    -5.281      4.376      6.620
REMARK INTER + INTRA:          -6.016
REMARK INTER:                  -5.599
REMARK INTRA:                  -0.417
REMARK UNBOUND:                -0.426
REMARK SMILES CC1=CC[C@@H]2[C@H]3[C@H](C(C)C)CC[C@]2(C)[C@@H]13
REMARK SMILES IDX 1 1 2 2 3 3 4 4 5 5 6 6 15 7 13 8 12 9 11 10 7 11 14 12 8 13
REMARK SMILES IDX 9 14 10 15
REMARK H PARENT
REMARK Flexibility Score: inf
ROOT
ATOM      1  C   UNL     1     166.842 164.858 199.781  1.00  0.00     0.039 C 
ATOM      2  C   UNL     1     167.397 166.162 200.273  1.00  0.00    -0.073 C 
ATOM      3  C   UNL     1     168.225 166.214 201.348  1.00  0.00    -0.027 C 
ATOM      4  C   UNL     1     168.775 167.572 201.793  1.00  0.00     0.031 C 
ATOM      5  C   UNL     1     168.210 168.713 200.884  1.00  0.00     0.003 C 
ATOM      6  C   UNL     1     166.687 168.483 200.741  1.00  0.00     0.004 C 
ATOM      7  C   UNL     1     167.040 167.490 199.603  1.00  0.00     0.024 C 
ATOM      8  C   UNL     1     168.312 168.346 199.383  1.00  0.00    -0.022 C 
ATOM      9  C   UNL     1     167.982 169.609 198.527  1.00  0.00     0.008 C 
ATOM     10  C   UNL     1     166.546 170.141 198.780  1.00  0.00     0.005 C 
ATOM     11  C   UNL     1     166.014 169.781 200.203  1.00  0.00    -0.005 C 
ATOM     12  C   UNL     1     169.598 167.654 198.874  1.00  0.00     0.012 C 
ENDROOT
BRANCH  11  13
ATOM     13  C   UNL     1     164.460 169.731 200.315  1.00  0.00    -0.014 C 
ATOM     14  C   UNL     1     163.810 169.326 198.983  1.00  0.00     0.007 C 
ATOM     15  C   UNL     1     163.938 168.842 201.456  1.00  0.00     0.007 C 
ENDBRANCH  11  13
TORSDOF 1
ENDMDL
MODEL 4
REMARK VINA RESULT:    -5.277      2.655      5.273
REMARK INTER + INTRA:          -6.011
REMARK INTER:                  -5.584
REMARK INTRA:                  -0.427
REMARK UNBOUND:                -0.426
REMARK SMILES CC1=CC[C@@H]2[C@H]3[C@H](C(C)C)CC[C@]2(C)[C@@H]13
REMARK SMILES IDX 1 1 2 2 3 3 4 4 5 5 6 6 15 7 13 8 12 9 11 10 7 11 14 12 8 13
REMARK SMILES IDX 9 14 10 15
REMARK H PARENT
REMARK Flexibility Score: inf
ROOT
ATOM      1  C   UNL     1     165.933 164.872 197.510  1.00  0.00     0.039 C 
ATOM      2  C   UNL     1     164.586 164.759 198.160  1.00  0.00    -0.073 C 
ATOM      3  C   UNL     1     163.592 164.023 197.598  1.00  0.00    -0.027 C 
ATOM      4  C   UNL     1     162.243 163.930 198.317  1.00  0.00     0.031 C 
ATOM      5  C   UNL     1     162.264 164.785 199.627  1.00  0.00     0.003 C 
ATOM      6  C   UNL     1     162.881 166.159 199.275  1.00  0.00     0.004 C 
ATOM      7  C   UNL     1     164.263 165.482 199.469  1.00  0.00     0.024 C 
ATOM      8  C   UNL     1     163.547 164.525 200.455  1.00  0.00    -0.022 C 
ATOM      9  C   UNL     1     163.392 165.196 201.855  1.00  0.00     0.008 C 
ATOM     10  C   UNL     1     163.203 166.734 201.761  1.00  0.00     0.005 C 
ATOM     11  C   UNL     1     162.560 167.178 200.409  1.00  0.00    -0.005 C 
ATOM     12  C   UNL     1     164.060 163.073 200.591  1.00  0.00     0.012 C 
ENDROOT
BRANCH  11  13
ATOM     13  C   UNL     1     162.885 168.645 199.996  1.00  0.00    -0.014 C 
ATOM     14  C   UNL     1     164.154 169.161 200.691  1.00  0.00     0.007 C 
ATOM     15  C   UNL     1     162.982 168.865 198.476  1.00  0.00     0.007 C 
ENDBRANCH  11  13
TORSDOF 1
ENDMDL
MODEL 5
REMARK VINA RESULT:    -5.265      1.303      2.777
REMARK INTER + INTRA:          -5.999
REMARK INTER:                  -5.578
REMARK INTRA:                  -0.421
REMARK UNBOUND:                -0.426
REMARK SMILES CC1=CC[C@@H]2[C@H]3[C@H](C(C)C)CC[C@]2(C)[C@@H]13
REMARK SMILES IDX 1 1 2 2 3 3 4 4 5 5 6 6 15 7 13 8 12 9 11 10 7 11 14 12 8 13
REMARK SMILES IDX 9 14 10 15
REMARK H PARENT
REMARK Flexibility Score: inf
ROOT
ATOM      1  C   UNL     1     165.165 167.150 199.792  1.00  0.00     0.039 C 
ATOM      2  C   UNL     1     164.635 165.847 200.312  1.00  0.00    -0.073 C 
ATOM      3  C   UNL     1     163.824 165.802 201.401  1.00  0.00    -0.027 C 
ATOM      4  C   UNL     1     163.299 164.443 201.874  1.00  0.00     0.031 C 
ATOM      5  C   UNL     1     163.863 163.296 200.973  1.00  0.00     0.003 C 
ATOM      6  C   UNL     1     165.381 163.542 200.803  1.00  0.00     0.004 C 
ATOM      7  C   UNL     1     164.998 164.514 199.656  1.00  0.00     0.024 C 
ATOM      8  C   UNL     1     163.733 163.639 199.469  1.00  0.00    -0.022 C 
ATOM      9  C   UNL     1     164.065 162.368 198.627  1.00  0.00     0.008 C 
ATOM     10  C   UNL     1     165.512 161.858 198.864  1.00  0.00     0.005 C 
ATOM     11  C   UNL     1     166.061 162.245 200.273  1.00  0.00    -0.005 C 
ATOM     12  C   UNL     1     162.430 164.308 198.970  1.00  0.00     0.012 C 
ENDROOT
BRANCH  11  13
ATOM     13  C   UNL     1     167.616 162.316 200.359  1.00  0.00    -0.014 C 
ATOM     14  C   UNL     1     168.242 162.671 199.001  1.00  0.00     0.007 C 
ATOM     15  C   UNL     1     168.145 163.257 201.454  1.00  0.00     0.007 C 
ENDBRANCH  11  13
TORSDOF 1
ENDMDL
MODEL 6
REMARK VINA RESULT:    -5.250      3.613      5.248
REMARK INTER + INTRA:          -5.983
REMARK INTER:                  -5.556
REMARK INTRA:                  -0.427
REMARK UNBOUND:                -0.426
REMARK SMILES CC1=CC[C@@H]2[C@H]3[C@H](C(C)C)CC[C@]2(C)[C@@H]13
REMARK SMILES IDX 1 1 2 2 3 3 4 4 5 5 6 6 15 7 13 8 12 9 11 10 7 11 14 12 8 13
REMARK SMILES IDX 9 14 10 15
REMARK H PARENT
REMARK Flexibility Score: inf
ROOT
ATOM      1  C   UNL     1     166.083 167.111 197.533  1.00  0.00     0.039 C 
ATOM      2  C   UNL     1     167.416 167.236 198.211  1.00  0.00    -0.073 C 
ATOM      3  C   UNL     1     168.407 167.998 197.679  1.00  0.00    -0.027 C 
ATOM      4  C   UNL     1     169.740 168.102 198.426  1.00  0.00     0.031 C 
ATOM      5  C   UNL     1     169.709 167.225 199.721  1.00  0.00     0.003 C 
ATOM      6  C   UNL     1     169.123 165.847 199.336  1.00  0.00     0.004 C 
ATOM      7  C   UNL     1     167.726 166.497 199.514  1.00  0.00     0.024 C 
ATOM      8  C   UNL     1     168.407 167.450 200.528  1.00  0.00    -0.022 C 
ATOM      9  C   UNL     1     168.546 166.759 201.921  1.00  0.00     0.008 C 
ATOM     10  C   UNL     1     168.764 165.226 201.805  1.00  0.00     0.005 C 
ATOM     11  C   UNL     1     169.439 164.815 200.459  1.00  0.00    -0.005 C 
ATOM     12  C   UNL     1     167.866 168.891 200.678  1.00  0.00     0.012 C 
ENDROOT
BRANCH  11  13
ATOM     13  C   UNL     1     169.148 163.350 200.016  1.00  0.00    -0.014 C 
ATOM     14  C   UNL     1     167.882 162.796 200.688  1.00  0.00     0.007 C 
ATOM     15  C   UNL     1     169.071 163.155 198.492  1.00  0.00     0.007 C 
ENDBRANCH  11  13
TORSDOF 1
ENDMDL
MODEL 7
REMARK VINA RESULT:    -5.205      4.345      6.671
REMARK INTER + INTRA:          -5.935
REMARK INTER:                  -5.511
REMARK INTRA:                  -0.425
REMARK UNBOUND:                -0.426
REMARK SMILES CC1=CC[C@@H]2[C@H]3[C@H](C(C)C)CC[C@]2(C)[C@@H]13
REMARK SMILES IDX 1 1 2 2 3 3 4 4 5 5 6 6 15 7 13 8 12 9 11 10 7 11 14 12 8 13
REMARK SMILES IDX 9 14 10 15
REMARK H PARENT
REMARK Flexibility Score: inf
ROOT
ATOM      1  C   UNL     1     164.028 165.916 197.973  1.00  0.00     0.039 C 
ATOM      2  C   UNL     1     163.947 167.227 198.697  1.00  0.00    -0.073 C 
ATOM      3  C   UNL     1     162.779 167.917 198.776  1.00  0.00    -0.027 C 
ATOM      4  C   UNL     1     162.754 169.241 199.545  1.00  0.00     0.031 C 
ATOM      5  C   UNL     1     164.178 169.579 200.097  1.00  0.00     0.003 C 
ATOM      6  C   UNL     1     165.188 169.350 198.948  1.00  0.00     0.004 C 
ATOM      7  C   UNL     1     165.174 167.854 199.360  1.00  0.00     0.024 C 
ATOM      8  C   UNL     1     164.826 168.352 200.785  1.00  0.00    -0.022 C 
ATOM      9  C   UNL     1     166.115 168.812 201.536  1.00  0.00     0.008 C 
ATOM     10  C   UNL     1     167.174 169.422 200.579  1.00  0.00     0.005 C 
ATOM     11  C   UNL     1     166.538 170.044 199.296  1.00  0.00    -0.005 C 
ATOM     12  C   UNL     1     163.946 167.460 201.693  1.00  0.00     0.012 C 
ENDROOT
BRANCH  11  13
ATOM     13  C   UNL     1     167.500 170.115 198.072  1.00  0.00    -0.014 C 
ATOM     14  C   UNL     1     168.704 169.177 198.244  1.00  0.00     0.007 C 
ATOM     15  C   UNL     1     166.817 169.864 196.717  1.00  0.00     0.007 C 
ENDBRANCH  11  13
TORSDOF 1
ENDMDL
MODEL 8
REMARK VINA RESULT:    -5.167      3.754      6.396
REMARK INTER + INTRA:          -5.896
REMARK INTER:                  -5.468
REMARK INTRA:                  -0.427
REMARK UNBOUND:                -0.426
REMARK SMILES CC1=CC[C@@H]2[C@H]3[C@H](C(C)C)CC[C@]2(C)[C@@H]13
REMARK SMILES IDX 1 1 2 2 3 3 4 4 5 5 6 6 15 7 13 8 12 9 11 10 7 11 14 12 8 13
REMARK SMILES IDX 9 14 10 15
REMARK H PARENT
REMARK Flexibility Score: inf
ROOT
ATOM      1  C   UNL     1     167.407 166.919 201.367  1.00  0.00     0.039 C 
ATOM      2  C   UNL     1     166.166 167.762 201.360  1.00  0.00    -0.073 C 
ATOM      3  C   UNL     1     165.918 168.657 202.352  1.00  0.00    -0.027 C 
ATOM      4  C   UNL     1     164.643 169.503 202.281  1.00  0.00     0.031 C 
ATOM      5  C   UNL     1     163.805 169.122 201.016  1.00  0.00     0.003 C 
ATOM      6  C   UNL     1     163.735 167.578 200.952  1.00  0.00     0.004 C 
ATOM      7  C   UNL     1     165.119 167.639 200.253  1.00  0.00     0.024 C 
ATOM      8  C   UNL     1     164.694 169.041 199.750  1.00  0.00    -0.022 C 
ATOM      9  C   UNL     1     163.777 168.919 198.493  1.00  0.00     0.008 C 
ATOM     10  C   UNL     1     162.893 167.643 198.523  1.00  0.00     0.005 C 
ATOM     11  C   UNL     1     162.600 167.150 199.976  1.00  0.00    -0.005 C 
ATOM     12  C   UNL     1     165.782 170.120 199.537  1.00  0.00     0.012 C 
ENDROOT
BRANCH  11  13
ATOM     13  C   UNL     1     162.270 165.630 200.083  1.00  0.00    -0.014 C 
ATOM     14  C   UNL     1     162.831 164.843 198.889  1.00  0.00     0.007 C 
ATOM     15  C   UNL     1     162.711 164.981 201.406  1.00  0.00     0.007 C 
ENDBRANCH  11  13
TORSDOF 1
ENDMDL
MODEL 9
REMARK VINA RESULT:    -5.102      2.900      4.354
REMARK INTER + INTRA:          -5.827
REMARK INTER:                  -5.400
REMARK INTRA:                  -0.426
REMARK UNBOUND:                -0.426
REMARK SMILES CC1=CC[C@@H]2[C@H]3[C@H](C(C)C)CC[C@]2(C)[C@@H]13
REMARK SMILES IDX 1 1 2 2 3 3 4 4 5 5 6 6 15 7 13 8 12 9 11 10 7 11 14 12 8 13
REMARK SMILES IDX 9 14 10 15
REMARK H PARENT
REMARK Flexibility Score: inf
ROOT
ATOM      1  C   UNL     1     165.786 163.349 200.787  1.00  0.00     0.039 C 
ATOM      2  C   UNL     1     167.172 163.635 200.292  1.00  0.00    -0.073 C 
ATOM      3  C   UNL     1     168.086 162.640 200.144  1.00  0.00    -0.027 C 
ATOM      4  C   UNL     1     169.481 162.991 199.616  1.00  0.00     0.031 C 
ATOM      5  C   UNL     1     169.599 164.530 199.367  1.00  0.00     0.003 C 
ATOM      6  C   UNL     1     169.019 165.248 200.609  1.00  0.00     0.004 C 
ATOM      7  C   UNL     1     167.627 165.056 199.952  1.00  0.00     0.024 C 
ATOM      8  C   UNL     1     168.373 165.076 198.595  1.00  0.00    -0.022 C 
ATOM      9  C   UNL     1     168.665 166.544 198.151  1.00  0.00     0.008 C 
ATOM     10  C   UNL     1     168.915 167.491 199.356  1.00  0.00     0.005 C 
ATOM     11  C   UNL     1     169.471 166.738 200.606  1.00  0.00    -0.005 C 
ATOM     12  C   UNL     1     167.807 164.246 197.419  1.00  0.00     0.012 C 
ENDROOT
BRANCH  11  13
ATOM     13  C   UNL     1     169.181 167.447 201.963  1.00  0.00    -0.014 C 
ATOM     14  C   UNL     1     167.954 168.366 201.871  1.00  0.00     0.007 C 
ATOM     15  C   UNL     1     169.042 166.489 203.158  1.00  0.00     0.007 C 
ENDBRANCH  11  13
TORSDOF 1
ENDMDL
