MODEL 1
REMARK VINA RESULT:    -1.791      0.000      0.000
REMARK INTER + INTRA:          -1.270
REMARK INTER:                  -2.523
REMARK INTRA:                   1.254
REMARK UNBOUND:                 1.254
REMARK SMILES CC1=CCC(=C(C)C)C(=O)CC(C)=CCC1
REMARK SMILES IDX 12 1 14 2 13 3 15 4 16 5 2 6 1 7 3 8 11 10 9 11 10 12 5 13
REMARK SMILES IDX 6 14 7 15 8 16 4 17
REMARK H PARENT
REMARK Flexibility Score: 60.00
ROOT
ATOM      1  C   UNL     1       9.979  -3.741  -5.491  1.00  0.00    -0.070 C 
ATOM      2  C   UNL     1      10.923  -4.445  -4.825  1.00  0.00    -0.027 C 
ATOM      3  C   UNL     1       9.819  -3.989  -6.969  1.00  0.00     0.039 C 
ENDROOT
BRANCH   2   4
ATOM      4  C   UNL     1      11.117  -4.431  -3.330  1.00  0.00     0.032 C 
BRANCH   4   5
ATOM      5  C   UNL     1      10.798  -5.813  -2.750  1.00  0.00     0.034 C 
BRANCH   5   6
ATOM      6  C   UNL     1      10.155  -5.733  -1.380  1.00  0.00    -0.077 C 
ATOM      7  C   UNL     1      10.218  -6.943  -0.481  1.00  0.00     0.039 C 
ATOM      8  C   UNL     1       9.460  -4.655  -0.939  1.00  0.00    -0.023 CG0
ATOM      9  G   UNL     1       9.305  -3.312  -1.631  1.00  0.00     0.000 G0
ENDBRANCH   5   6
ENDBRANCH   4   5
ENDBRANCH   2   4
BRANCH   1  10
ATOM     10  C   UNL     1       9.092  -2.704  -4.831  1.00  0.00     0.111 C 
BRANCH  10  11
ATOM     11  C   UNL     1       8.078  -3.336  -3.908  1.00  0.00     0.163 C 
ATOM     12  O   UNL     1       7.228  -4.107  -4.431  1.00  0.00    -0.294 OA
BRANCH  11  13
ATOM     13  C   UNL     1       8.019  -3.079  -2.431  1.00  0.00    -0.002 C 
ATOM     14  C   UNL     1       6.905  -2.518  -1.865  1.00  0.00    -0.069 C 
ATOM     15  C   UNL     1       6.891  -2.031  -0.434  1.00  0.00     0.039 C 
ATOM     16  C   UNL     1       5.607  -2.399  -2.630  1.00  0.00     0.039 C 
BRANCH  13  17
ATOM     17  C   UNL     1       9.292  -3.291  -1.620  1.00  0.00     0.066 CG0
ATOM     18  G   UNL     1       9.444  -4.639  -0.938  1.00  0.00     0.000 G0
ENDBRANCH  13  17
ENDBRANCH  11  13
ENDBRANCH  10  11
ENDBRANCH   1  10
TORSDOF 0
ENDMDL
MODEL 2
REMARK VINA RESULT:    -1.275      1.514      4.011
REMARK INTER + INTRA:          -0.543
REMARK INTER:                  -2.081
REMARK INTRA:                   1.538
REMARK UNBOUND:                 1.254
REMARK SMILES CC1=CCC(=C(C)C)C(=O)CC(C)=CCC1
REMARK SMILES IDX 12 1 14 2 13 3 15 4 16 5 2 6 1 7 3 8 11 10 9 11 10 12 5 13
REMARK SMILES IDX 6 14 7 15 8 16 4 17
REMARK H PARENT
REMARK Flexibility Score: 60.00
ROOT
ATOM      1  C   UNL     1       7.321  -2.689  -2.742  1.00  0.00    -0.070 C 
ATOM      2  C   UNL     1       6.988  -3.356  -1.612  1.00  0.00    -0.027 C 
ATOM      3  C   UNL     1       6.235  -2.416  -3.750  1.00  0.00     0.039 C 
ENDROOT
BRANCH   2   4
ATOM      4  C   UNL     1       7.909  -3.583  -0.441  1.00  0.00     0.032 C 
BRANCH   4   5
ATOM      5  C   UNL     1       8.775  -4.824  -0.691  1.00  0.00     0.034 C 
BRANCH   5   6
ATOM      6  C   UNL     1      10.212  -4.472  -1.015  1.00  0.00    -0.077 C 
ATOM      7  C   UNL     1      11.117  -4.025   0.107  1.00  0.00     0.039 C 
ATOM      8  C   UNL     1      10.718  -4.465  -2.274  1.00  0.00    -0.023 CG0
ATOM      9  G   UNL     1      10.029  -4.922  -3.547  1.00  0.00     0.000 G0
ENDBRANCH   5   6
ENDBRANCH   4   5
ENDBRANCH   2   4
BRANCH   1  10
ATOM     10  C   UNL     1       8.730  -2.225  -3.051  1.00  0.00     0.111 C 
BRANCH  10  11
ATOM     11  C   UNL     1       9.178  -2.659  -4.426  1.00  0.00     0.163 C 
ATOM     12  O   UNL     1       8.895  -1.895  -5.389  1.00  0.00    -0.294 OA
BRANCH  11  13
ATOM     13  C   UNL     1       9.910  -3.940  -4.700  1.00  0.00    -0.002 C 
ATOM     14  C   UNL     1      10.302  -4.259  -5.972  1.00  0.00    -0.069 C 
ATOM     15  C   UNL     1      10.830  -5.631  -6.328  1.00  0.00     0.039 C 
ATOM     16  C   UNL     1      10.276  -3.237  -7.086  1.00  0.00     0.039 C 
BRANCH  13  17
ATOM     17  C   UNL     1      10.038  -4.944  -3.560  1.00  0.00     0.066 CG0
ATOM     18  G   UNL     1      10.689  -4.441  -2.284  1.00  0.00     0.000 G0
ENDBRANCH  13  17
ENDBRANCH  11  13
ENDBRANCH  10  11
ENDBRANCH   1  10
TORSDOF 0
ENDMDL
MODEL 3
REMARK VINA RESULT:    -0.577     15.993     17.658
REMARK INTER + INTRA:           0.440
REMARK INTER:                  -0.992
REMARK INTRA:                   1.432
REMARK UNBOUND:                 1.254
REMARK SMILES CC1=CCC(=C(C)C)C(=O)CC(C)=CCC1
REMARK SMILES IDX 12 1 14 2 13 3 15 4 16 5 2 6 1 7 3 8 11 10 9 11 10 12 5 13
REMARK SMILES IDX 6 14 7 15 8 16 4 17
REMARK H PARENT
REMARK Flexibility Score: 60.00
ROOT
ATOM      1  C   UNL     1      -8.305  -3.004  -2.797  1.00  0.00    -0.070 C 
ATOM      2  C   UNL     1      -9.065  -2.401  -3.741  1.00  0.00    -0.027 C 
ATOM      3  C   UNL     1      -8.932  -3.291  -1.458  1.00  0.00     0.039 C 
ENDROOT
BRANCH   2   4
ATOM      4  C   UNL     1      -8.647  -2.174  -5.171  1.00  0.00     0.032 C 
BRANCH   4   5
ATOM      5  C   UNL     1      -7.623  -3.236  -5.590  1.00  0.00     0.034 C 
BRANCH   5   6
ATOM      6  C   UNL     1      -8.249  -4.363  -6.386  1.00  0.00    -0.077 C 
ATOM      7  C   UNL     1      -9.125  -4.015  -7.564  1.00  0.00     0.039 C 
ATOM      8  C   UNL     1      -8.125  -5.673  -6.057  1.00  0.00    -0.023 CG0
ATOM      9  G   UNL     1      -7.261  -6.271  -4.961  1.00  0.00     0.000 G0
ENDBRANCH   5   6
ENDBRANCH   4   5
ENDBRANCH   2   4
BRANCH   1  10
ATOM     10  C   UNL     1      -6.853  -3.383  -3.014  1.00  0.00     0.111 C 
BRANCH  10  11
ATOM     11  C   UNL     1      -6.631  -4.869  -2.866  1.00  0.00     0.163 C 
ATOM     12  O   UNL     1      -5.640  -5.235  -2.178  1.00  0.00    -0.294 OA
BRANCH  11  13
ATOM     13  C   UNL     1      -7.503  -5.911  -3.503  1.00  0.00    -0.002 C 
ATOM     14  C   UNL     1      -8.400  -6.623  -2.753  1.00  0.00    -0.069 C 
ATOM     15  C   UNL     1      -9.125  -7.831  -3.302  1.00  0.00     0.039 C 
ATOM     16  C   UNL     1      -8.753  -6.209  -1.342  1.00  0.00     0.039 C 
BRANCH  13  17
ATOM     17  C   UNL     1      -7.232  -6.272  -4.959  1.00  0.00     0.066 CG0
ATOM     18  G   UNL     1      -8.129  -5.622  -5.998  1.00  0.00     0.000 G0
ENDBRANCH  13  17
ENDBRANCH  11  13
ENDBRANCH  10  11
ENDBRANCH   1  10
TORSDOF 0
ENDMDL
MODEL 4
REMARK VINA RESULT:     1.016      2.381      3.995
REMARK INTER + INTRA:           2.686
REMARK INTER:                  -0.360
REMARK INTRA:                   3.045
REMARK UNBOUND:                 1.254
REMARK SMILES CC1=CCC(=C(C)C)C(=O)CC(C)=CCC1
REMARK SMILES IDX 12 1 14 2 13 3 15 4 16 5 2 6 1 7 3 8 11 10 9 11 10 12 5 13
REMARK SMILES IDX 6 14 7 15 8 16 4 17
REMARK H PARENT
REMARK Flexibility Score: 60.00
ROOT
ATOM      1  C   UNL     1       6.566  -2.647  -2.989  1.00  0.00    -0.070 C 
ATOM      2  C   UNL     1       6.113  -1.937  -1.930  1.00  0.00    -0.027 C 
ATOM      3  C   UNL     1       6.388  -2.061  -4.365  1.00  0.00     0.039 C 
ENDROOT
BRANCH   2   4
ATOM      4  C   UNL     1       6.339  -2.301  -0.485  1.00  0.00     0.032 C 
BRANCH   4   5
ATOM      5  C   UNL     1       5.491  -3.524  -0.117  1.00  0.00     0.034 C 
BRANCH   5   6
ATOM      6  C   UNL     1       6.303  -4.803  -0.081  1.00  0.00    -0.077 C 
ATOM      7  C   UNL     1       5.572  -6.123  -0.095  1.00  0.00     0.039 C 
ATOM      8  C   UNL     1       7.654  -4.831   0.036  1.00  0.00    -0.023 CG0
ATOM      9  G   UNL     1       8.606  -3.649   0.014  1.00  0.00     0.000 G0
ENDBRANCH   5   6
ENDBRANCH   4   5
ENDBRANCH   2   4
BRANCH   1  10
ATOM     10  C   UNL     1       7.224  -4.007  -2.860  1.00  0.00     0.111 C 
BRANCH  10  11
ATOM     11  C   UNL     1       8.694  -3.894  -2.540  1.00  0.00     0.163 C 
ATOM     12  O   UNL     1       9.502  -4.406  -3.361  1.00  0.00    -0.294 OA
BRANCH  11  13
ATOM     13  C   UNL     1       9.231  -3.233  -1.303  1.00  0.00    -0.002 C 
ATOM     14  C   UNL     1      10.319  -2.404  -1.373  1.00  0.00    -0.069 C 
ATOM     15  C   UNL     1      11.029  -1.907  -0.134  1.00  0.00     0.039 C 
ATOM     16  C   UNL     1      10.842  -1.899  -2.698  1.00  0.00     0.039 C 
BRANCH  13  17
ATOM     17  C   UNL     1       8.645  -3.654   0.040  1.00  0.00     0.066 CG0
ATOM     18  G   UNL     1       7.661  -4.810   0.018  1.00  0.00     0.000 G0
ENDBRANCH  13  17
ENDBRANCH  11  13
ENDBRANCH  10  11
ENDBRANCH   1  10
TORSDOF 0
ENDMDL
