MODEL 1
REMARK VINA RESULT:     0.000      0.000      0.000
REMARK INTER + INTRA:          -0.399
REMARK INTER:                   0.000
REMARK INTRA:                  -0.399
REMARK UNBOUND:                -0.399
REMARK SMILES CCCCCC(C)=O
REMARK SMILES IDX 4 1 3 2 2 3 1 4 5 5 6 6 8 7 7 8
REMARK H PARENT
REMARK Flexibility Score: inf
ROOT
ATOM      1  C   UNL     1     114.117 119.375 118.050  1.00  0.00     0.008 C 
ENDROOT
BRANCH   1   2
ATOM      2  C   UNL     1     112.672 119.603 117.574  1.00  0.00     0.000 C 
BRANCH   2   3
ATOM      3  C   UNL     1     111.637 119.387 118.687  1.00  0.00    -0.003 C 
ATOM      4  C   UNL     1     110.789 118.147 118.417  1.00  0.00     0.004 C 
ENDBRANCH   2   3
ENDBRANCH   1   2
BRANCH   1   5
ATOM      5  C   UNL     1     114.853 118.219 117.352  1.00  0.00     0.075 C 
BRANCH   5   6
ATOM      6  C   UNL     1     114.224 116.882 117.641  1.00  0.00     0.129 C 
ATOM      7  O   UNL     1     113.725 116.235 116.733  1.00  0.00    -0.300 OA
ATOM      8  C   UNL     1     114.175 116.355 119.044  1.00  0.00     0.087 C 
ENDBRANCH   5   6
ENDBRANCH   1   5
TORSDOF 4
ENDMDL
MODEL 2
REMARK VINA RESULT:     0.000      7.175      8.682
REMARK INTER + INTRA:          -0.399
REMARK INTER:                   0.000
REMARK INTRA:                  -0.399
REMARK UNBOUND:                -0.399
REMARK SMILES CCCCCC(C)=O
REMARK SMILES IDX 4 1 3 2 2 3 1 4 5 5 6 6 8 7 7 8
REMARK H PARENT
REMARK Flexibility Score: inf
ROOT
ATOM      1  C   UNL     1     113.037 108.570 118.453  1.00  0.00     0.008 C 
ENDROOT
BRANCH   1   2
ATOM      2  C   UNL     1     111.642 108.737 117.827  1.00  0.00     0.000 C 
BRANCH   2   3
ATOM      3  C   UNL     1     111.629 109.729 116.656  1.00  0.00    -0.003 C 
ATOM      4  C   UNL     1     110.851 110.992 117.014  1.00  0.00     0.004 C 
ENDBRANCH   2   3
ENDBRANCH   1   2
BRANCH   1   5
ATOM      5  C   UNL     1     113.142 109.008 119.923  1.00  0.00     0.075 C 
BRANCH   5   6
ATOM      6  C   UNL     1     112.905 110.485 120.099  1.00  0.00     0.129 C 
ATOM      7  O   UNL     1     111.942 110.875 120.742  1.00  0.00    -0.300 OA
ATOM      8  C   UNL     1     113.825 111.481 119.461  1.00  0.00     0.087 C 
ENDBRANCH   5   6
ENDBRANCH   1   5
TORSDOF 4
ENDMDL
MODEL 3
REMARK VINA RESULT:     0.000      3.117      4.696
REMARK INTER + INTRA:          -0.399
REMARK INTER:                   0.000
REMARK INTRA:                  -0.399
REMARK UNBOUND:                -0.399
REMARK SMILES CCCCCC(C)=O
REMARK SMILES IDX 4 1 3 2 2 3 1 4 5 5 6 6 8 7 7 8
REMARK H PARENT
REMARK Flexibility Score: inf
ROOT
ATOM      1  C   UNL     1     109.874 120.555 118.943  1.00  0.00     0.008 C 
ENDROOT
BRANCH   1   2
ATOM      2  C   UNL     1     111.217 120.128 118.326  1.00  0.00     0.000 C 
BRANCH   2   3
ATOM      3  C   UNL     1     111.136 118.781 117.594  1.00  0.00    -0.003 C 
ATOM      4  C   UNL     1     111.929 117.706 118.331  1.00  0.00     0.004 C 
ENDBRANCH   2   3
ENDBRANCH   1   2
BRANCH   1   5
ATOM      5  C   UNL     1     109.877 120.678 120.476  1.00  0.00     0.075 C 
BRANCH   5   6
ATOM      6  C   UNL     1     110.117 119.357 121.157  1.00  0.00     0.129 C 
ATOM      7  O   UNL     1     111.123 119.193 121.830  1.00  0.00    -0.300 OA
ATOM      8  C   UNL     1     109.145 118.229 120.985  1.00  0.00     0.087 C 
ENDBRANCH   5   6
ENDBRANCH   1   5
TORSDOF 4
ENDMDL
MODEL 4
REMARK VINA RESULT:     0.000      5.085      6.719
REMARK INTER + INTRA:          -0.399
REMARK INTER:                   0.000
REMARK INTRA:                  -0.399
REMARK UNBOUND:                -0.399
REMARK SMILES CCCCCC(C)=O
REMARK SMILES IDX 4 1 3 2 2 3 1 4 5 5 6 6 8 7 7 8
REMARK H PARENT
REMARK Flexibility Score: inf
ROOT
ATOM      1  C   UNL     1     115.835 111.552 116.975  1.00  0.00     0.008 C 
ENDROOT
BRANCH   1   2
ATOM      2  C   UNL     1     115.873 112.651 115.898  1.00  0.00     0.000 C 
BRANCH   2   3
ATOM      3  C   UNL     1     115.484 114.032 116.443  1.00  0.00    -0.003 C 
ATOM      4  C   UNL     1     114.147 114.492 115.869  1.00  0.00     0.004 C 
ENDBRANCH   2   3
ENDBRANCH   1   2
BRANCH   1   5
ATOM      5  C   UNL     1     114.813 110.432 116.718  1.00  0.00     0.075 C 
BRANCH   5   6
ATOM      6  C   UNL     1     113.394 110.933 116.745  1.00  0.00     0.129 C 
ATOM      7  O   UNL     1     112.710 110.883 115.734  1.00  0.00    -0.300 OA
ATOM      8  C   UNL     1     112.824 111.528 117.998  1.00  0.00     0.087 C 
ENDBRANCH   5   6
ENDBRANCH   1   5
TORSDOF 4
ENDMDL
MODEL 5
REMARK VINA RESULT:     0.000      9.713     10.714
REMARK INTER + INTRA:          -0.399
REMARK INTER:                   0.000
REMARK INTRA:                  -0.399
REMARK UNBOUND:                -0.399
REMARK SMILES CCCCCC(C)=O
REMARK SMILES IDX 4 1 3 2 2 3 1 4 5 5 6 6 8 7 7 8
REMARK H PARENT
REMARK Flexibility Score: inf
ROOT
ATOM      1  C   UNL     1     113.212 111.796 124.680  1.00  0.00     0.008 C 
ENDROOT
BRANCH   1   2
ATOM      2  C   UNL     1     112.820 111.804 126.168  1.00  0.00     0.000 C 
BRANCH   2   3
ATOM      3  C   UNL     1     113.827 112.561 127.045  1.00  0.00    -0.003 C 
ATOM      4  C   UNL     1     114.579 111.606 127.968  1.00  0.00     0.004 C 
ENDBRANCH   2   3
ENDBRANCH   1   2
BRANCH   1   5
ATOM      5  C   UNL     1     113.491 110.403 124.093  1.00  0.00     0.075 C 
BRANCH   5   6
ATOM      6  C   UNL     1     114.690 109.745 124.724  1.00  0.00     0.129 C 
ATOM      7  O   UNL     1     114.551 108.716 125.369  1.00  0.00    -0.300 OA
ATOM      8  C   UNL     1     116.049 110.364 124.596  1.00  0.00     0.087 C 
ENDBRANCH   5   6
ENDBRANCH   1   5
TORSDOF 4
ENDMDL
MODEL 6
REMARK VINA RESULT:     0.000      5.900      7.712
REMARK INTER + INTRA:          -0.399
REMARK INTER:                   0.000
REMARK INTRA:                  -0.399
REMARK UNBOUND:                -0.399
REMARK SMILES CCCCCC(C)=O
REMARK SMILES IDX 4 1 3 2 2 3 1 4 5 5 6 6 8 7 7 8
REMARK H PARENT
REMARK Flexibility Score: inf
ROOT
ATOM      1  C   UNL     1     117.493 115.384 121.673  1.00  0.00     0.008 C 
ENDROOT
BRANCH   1   2
ATOM      2  C   UNL     1     118.566 115.557 122.763  1.00  0.00     0.000 C 
BRANCH   2   3
ATOM      3  C   UNL     1     118.906 114.241 123.477  1.00  0.00    -0.003 C 
ATOM      4  C   UNL     1     118.429 114.262 124.926  1.00  0.00     0.004 C 
ENDBRANCH   2   3
ENDBRANCH   1   2
BRANCH   1   5
ATOM      5  C   UNL     1     116.189 116.161 121.922  1.00  0.00     0.075 C 
BRANCH   5   6
ATOM      6  C   UNL     1     115.457 115.675 123.145  1.00  0.00     0.129 C 
ATOM      7  O   UNL     1     115.306 116.421 124.100  1.00  0.00    -0.300 OA
ATOM      8  C   UNL     1     114.943 114.269 123.211  1.00  0.00     0.087 C 
ENDBRANCH   5   6
ENDBRANCH   1   5
TORSDOF 4
ENDMDL
MODEL 7
REMARK VINA RESULT:     0.000      4.062      5.777
REMARK INTER + INTRA:          -0.399
REMARK INTER:                   0.000
REMARK INTRA:                  -0.399
REMARK UNBOUND:                -0.399
REMARK SMILES CCCCCC(C)=O
REMARK SMILES IDX 4 1 3 2 2 3 1 4 5 5 6 6 8 7 7 8
REMARK H PARENT
REMARK Flexibility Score: inf
ROOT
ATOM      1  C   UNL     1     115.115 118.179 115.283  1.00  0.00     0.008 C 
ENDROOT
BRANCH   1   2
ATOM      2  C   UNL     1     115.778 116.911 114.718  1.00  0.00     0.000 C 
BRANCH   2   3
ATOM      3  C   UNL     1     116.990 117.219 113.827  1.00  0.00    -0.003 C 
ATOM      4  C   UNL     1     116.702 116.874 112.369  1.00  0.00     0.004 C 
ENDBRANCH   2   3
ENDBRANCH   1   2
BRANCH   1   5
ATOM      5  C   UNL     1     113.663 118.405 114.832  1.00  0.00     0.075 C 
BRANCH   5   6
ATOM      6  C   UNL     1     113.554 118.643 113.349  1.00  0.00     0.129 C 
ATOM      7  O   UNL     1     112.949 117.847 112.647  1.00  0.00    -0.300 OA
ATOM      8  C   UNL     1     114.214 119.834 112.722  1.00  0.00     0.087 C 
ENDBRANCH   5   6
ENDBRANCH   1   5
TORSDOF 4
ENDMDL
MODEL 8
REMARK VINA RESULT:     0.000      7.078      8.127
REMARK INTER + INTRA:          -0.399
REMARK INTER:                   0.000
REMARK INTRA:                  -0.399
REMARK UNBOUND:                -0.399
REMARK SMILES CCCCCC(C)=O
REMARK SMILES IDX 4 1 3 2 2 3 1 4 5 5 6 6 8 7 7 8
REMARK H PARENT
REMARK Flexibility Score: inf
ROOT
ATOM      1  C   UNL     1     110.622 118.609 125.721  1.00  0.00     0.008 C 
ENDROOT
BRANCH   1   2
ATOM      2  C   UNL     1     109.430 119.295 126.411  1.00  0.00     0.000 C 
BRANCH   2   3
ATOM      3  C   UNL     1     108.114 118.525 126.229  1.00  0.00    -0.003 C 
ATOM      4  C   UNL     1     107.144 119.297 125.338  1.00  0.00     0.004 C 
ENDBRANCH   2   3
ENDBRANCH   1   2
BRANCH   1   5
ATOM      5  C   UNL     1     111.277 119.429 124.597  1.00  0.00     0.075 C 
BRANCH   5   6
ATOM      6  C   UNL     1     110.346 119.657 123.437  1.00  0.00     0.129 C 
ATOM      7  O   UNL     1     109.990 120.791 123.154  1.00  0.00    -0.300 OA
ATOM      8  C   UNL     1     109.823 118.496 122.646  1.00  0.00     0.087 C 
ENDBRANCH   5   6
ENDBRANCH   1   5
TORSDOF 4
ENDMDL
MODEL 9
REMARK VINA RESULT:     0.000      6.168      7.881
REMARK INTER + INTRA:          -0.399
REMARK INTER:                   0.000
REMARK INTRA:                  -0.399
REMARK UNBOUND:                -0.399
REMARK SMILES CCCCCC(C)=O
REMARK SMILES IDX 4 1 3 2 2 3 1 4 5 5 6 6 8 7 7 8
REMARK H PARENT
REMARK Flexibility Score: inf
ROOT
ATOM      1  C   UNL     1     119.242 112.095 119.100  1.00  0.00     0.008 C 
ENDROOT
BRANCH   1   2
ATOM      2  C   UNL     1     119.318 113.147 117.979  1.00  0.00     0.000 C 
BRANCH   2   3
ATOM      3  C   UNL     1     118.333 114.306 118.182  1.00  0.00    -0.003 C 
ATOM      4  C   UNL     1     117.229 114.281 117.128  1.00  0.00     0.004 C 
ENDBRANCH   2   3
ENDBRANCH   1   2
BRANCH   1   5
ATOM      5  C   UNL     1     118.806 110.693 118.642  1.00  0.00     0.075 C 
BRANCH   5   6
ATOM      6  C   UNL     1     117.396 110.676 118.115  1.00  0.00     0.129 C 
ATOM      7  O   UNL     1     117.187 110.399 116.943  1.00  0.00    -0.300 OA
ATOM      8  C   UNL     1     116.247 111.030 119.011  1.00  0.00     0.087 C 
ENDBRANCH   5   6
ENDBRANCH   1   5
TORSDOF 4
ENDMDL
