MODEL 1
REMARK VINA RESULT:    -4.798      0.000      0.000
REMARK INTER + INTRA:          -4.798
REMARK INTER:                  -4.798
REMARK INTRA:                   0.000
REMARK UNBOUND:                 0.000
REMARK SMILES CC1=CC(=O)[C@@H]2C[C@H]1C2(C)C
REMARK SMILES IDX 1 1 2 2 3 3 4 4 5 5 6 6 7 7 8 8 9 9 10 10 11 11
REMARK H PARENT
REMARK Flexibility Score: inf
ROOT
ATOM      1  C   UNL     1     -25.291   9.882 -27.294  1.00  0.00     0.040 C 
ATOM      2  C   UNL     1     -25.915  10.800 -28.298  1.00  0.00    -0.066 C 
ATOM      3  C   UNL     1     -25.172  11.609 -29.104  1.00  0.00     0.047 C 
ATOM      4  C   UNL     1     -25.937  12.472 -30.062  1.00  0.00     0.159 C 
ATOM      5  O   UNL     1     -25.364  13.230 -30.887  1.00  0.00    -0.295 OA
ATOM      6  C   UNL     1     -27.459  12.366 -29.966  1.00  0.00     0.067 C 
ATOM      7  C   UNL     1     -27.745  12.425 -28.449  1.00  0.00     0.021 C 
ATOM      8  C   UNL     1     -27.448  10.908 -28.423  1.00  0.00     0.022 C 
ATOM      9  C   UNL     1     -27.849  10.861 -29.926  1.00  0.00    -0.019 C 
ATOM     10  C   UNL     1     -27.089   9.876 -30.859  1.00  0.00     0.012 C 
ATOM     11  C   UNL     1     -29.371  10.641 -30.124  1.00  0.00     0.012 C 
ENDROOT
TORSDOF 0
ENDMDL
MODEL 2
REMARK VINA RESULT:    -4.655      8.741     10.614
REMARK INTER + INTRA:          -4.655
REMARK INTER:                  -4.655
REMARK INTRA:                   0.000
REMARK UNBOUND:                 0.000
REMARK SMILES CC1=CC(=O)[C@@H]2C[C@H]1C2(C)C
REMARK SMILES IDX 1 1 2 2 3 3 4 4 5 5 6 6 7 7 8 8 9 9 10 10 11 11
REMARK H PARENT
REMARK Flexibility Score: inf
ROOT
ATOM      1  C   UNL     1     -15.708  12.506 -33.121  1.00  0.00     0.040 C 
ATOM      2  C   UNL     1     -16.413  12.581 -31.803  1.00  0.00    -0.066 C 
ATOM      3  C   UNL     1     -17.768  12.473 -31.695  1.00  0.00     0.047 C 
ATOM      4  C   UNL     1     -18.331  12.566 -30.309  1.00  0.00     0.159 C 
ATOM      5  O   UNL     1     -19.561  12.438 -30.074  1.00  0.00    -0.295 OA
ATOM      6  C   UNL     1     -17.308  12.825 -29.203  1.00  0.00     0.067 C 
ATOM      7  C   UNL     1     -16.418  13.953 -29.770  1.00  0.00     0.021 C 
ATOM      8  C   UNL     1     -15.628  12.843 -30.501  1.00  0.00     0.022 C 
ATOM      9  C   UNL     1     -16.109  11.854 -29.400  1.00  0.00    -0.019 C 
ATOM     10  C   UNL     1     -16.408  10.385 -29.811  1.00  0.00     0.012 C 
ATOM     11  C   UNL     1     -15.161  11.831 -28.174  1.00  0.00     0.012 C 
ENDROOT
TORSDOF 0
ENDMDL
MODEL 3
REMARK VINA RESULT:    -4.648      1.681      2.973
REMARK INTER + INTRA:          -4.648
REMARK INTER:                  -4.648
REMARK INTRA:                   0.000
REMARK UNBOUND:                 0.000
REMARK SMILES CC1=CC(=O)[C@@H]2C[C@H]1C2(C)C
REMARK SMILES IDX 1 1 2 2 3 3 4 4 5 5 6 6 7 7 8 8 9 9 10 10 11 11
REMARK H PARENT
REMARK Flexibility Score: inf
ROOT
ATOM      1  C   UNL     1     -25.193  13.578 -30.378  1.00  0.00     0.040 C 
ATOM      2  C   UNL     1     -25.776  12.330 -29.792  1.00  0.00    -0.066 C 
ATOM      3  C   UNL     1     -25.256  11.735 -28.682  1.00  0.00     0.047 C 
ATOM      4  C   UNL     1     -25.948  10.492 -28.211  1.00  0.00     0.159 C 
ATOM      5  O   UNL     1     -25.590   9.876 -27.174  1.00  0.00    -0.295 OA
ATOM      6  C   UNL     1     -27.119  10.026 -29.077  1.00  0.00     0.067 C 
ATOM      7  C   UNL     1     -26.583  10.132 -30.523  1.00  0.00     0.021 C 
ATOM      8  C   UNL     1     -26.973  11.627 -30.465  1.00  0.00     0.022 C 
ATOM      9  C   UNL     1     -28.027  11.252 -29.383  1.00  0.00    -0.019 C 
ATOM     10  C   UNL     1     -28.302  12.270 -28.240  1.00  0.00     0.012 C 
ATOM     11  C   UNL     1     -29.386  10.838 -30.002  1.00  0.00     0.012 C 
ENDROOT
TORSDOF 0
ENDMDL
MODEL 4
REMARK VINA RESULT:    -4.641      1.862      3.111
REMARK INTER + INTRA:          -4.641
REMARK INTER:                  -4.641
REMARK INTRA:                   0.000
REMARK UNBOUND:                 0.000
REMARK SMILES CC1=CC(=O)[C@@H]2C[C@H]1C2(C)C
REMARK SMILES IDX 1 1 2 2 3 3 4 4 5 5 6 6 7 7 8 8 9 9 10 10 11 11
REMARK H PARENT
REMARK Flexibility Score: inf
ROOT
ATOM      1  C   UNL     1     -25.741  14.198 -30.504  1.00  0.00     0.040 C 
ATOM      2  C   UNL     1     -26.800  13.247 -30.043  1.00  0.00    -0.066 C 
ATOM      3  C   UNL     1     -28.018  13.164 -30.650  1.00  0.00     0.047 C 
ATOM      4  C   UNL     1     -28.976  12.163 -30.077  1.00  0.00     0.159 C 
ATOM      5  O   UNL     1     -30.115  11.963 -30.575  1.00  0.00    -0.295 OA
ATOM      6  C   UNL     1     -28.474  11.405 -28.848  1.00  0.00     0.067 C 
ATOM      7  C   UNL     1     -27.853  12.503 -27.956  1.00  0.00     0.021 C 
ATOM      8  C   UNL     1     -26.573  12.349 -28.809  1.00  0.00     0.022 C 
ATOM      9  C   UNL     1     -27.032  10.898 -29.134  1.00  0.00    -0.019 C 
ATOM     10  C   UNL     1     -26.716  10.326 -30.546  1.00  0.00     0.012 C 
ATOM     11  C   UNL     1     -26.545   9.875 -28.076  1.00  0.00     0.012 C 
ENDROOT
TORSDOF 0
ENDMDL
MODEL 5
REMARK VINA RESULT:    -4.588     11.014     12.657
REMARK INTER + INTRA:          -4.588
REMARK INTER:                  -4.588
REMARK INTRA:                   0.000
REMARK UNBOUND:                 0.000
REMARK SMILES CC1=CC(=O)[C@@H]2C[C@H]1C2(C)C
REMARK SMILES IDX 1 1 2 2 3 3 4 4 5 5 6 6 7 7 8 8 9 9 10 10 11 11
REMARK H PARENT
REMARK Flexibility Score: inf
ROOT
ATOM      1  C   UNL     1     -13.292  15.422 -32.369  1.00  0.00     0.040 C 
ATOM      2  C   UNL     1     -13.878  14.055 -32.200  1.00  0.00    -0.066 C 
ATOM      3  C   UNL     1     -13.194  13.040 -31.599  1.00  0.00     0.047 C 
ATOM      4  C   UNL     1     -13.911  11.728 -31.499  1.00  0.00     0.159 C 
ATOM      5  O   UNL     1     -13.404  10.727 -30.928  1.00  0.00    -0.295 OA
ATOM      6  C   UNL     1     -15.300  11.690 -32.138  1.00  0.00     0.067 C 
ATOM      7  C   UNL     1     -15.104  12.380 -33.506  1.00  0.00     0.021 C 
ATOM      8  C   UNL     1     -15.277  13.721 -32.756  1.00  0.00     0.022 C 
ATOM      9  C   UNL     1     -16.091  12.948 -31.678  1.00  0.00    -0.019 C 
ATOM     10  C   UNL     1     -15.962  13.400 -30.196  1.00  0.00     0.012 C 
ATOM     11  C   UNL     1     -17.598  12.858 -32.029  1.00  0.00     0.012 C 
ENDROOT
TORSDOF 0
ENDMDL
MODEL 6
REMARK VINA RESULT:    -4.574      9.193     10.695
REMARK INTER + INTRA:          -4.574
REMARK INTER:                  -4.574
REMARK INTRA:                   0.000
REMARK UNBOUND:                 0.000
REMARK SMILES CC1=CC(=O)[C@@H]2C[C@H]1C2(C)C
REMARK SMILES IDX 1 1 2 2 3 3 4 4 5 5 6 6 7 7 8 8 9 9 10 10 11 11
REMARK H PARENT
REMARK Flexibility Score: inf
ROOT
ATOM      1  C   UNL     1     -14.638  10.253 -30.806  1.00  0.00     0.040 C 
ATOM      2  C   UNL     1     -15.291  11.556 -30.466  1.00  0.00    -0.066 C 
ATOM      3  C   UNL     1     -14.722  12.756 -30.771  1.00  0.00     0.047 C 
ATOM      4  C   UNL     1     -15.494  13.976 -30.369  1.00  0.00     0.159 C 
ATOM      5  O   UNL     1     -15.095  15.141 -30.633  1.00  0.00    -0.295 OA
ATOM      6  C   UNL     1     -16.798  13.707 -29.618  1.00  0.00     0.067 C 
ATOM      7  C   UNL     1     -16.416  12.635 -28.573  1.00  0.00     0.021 C 
ATOM      8  C   UNL     1     -16.626  11.592 -29.695  1.00  0.00     0.022 C 
ATOM      9  C   UNL     1     -17.590  12.605 -30.379  1.00  0.00    -0.019 C 
ATOM     10  C   UNL     1     -17.620  12.658 -31.932  1.00  0.00     0.012 C 
ATOM     11  C   UNL     1     -19.047  12.468 -29.869  1.00  0.00     0.012 C 
ENDROOT
TORSDOF 0
ENDMDL
MODEL 7
REMARK VINA RESULT:    -4.531     10.699     12.186
REMARK INTER + INTRA:          -4.531
REMARK INTER:                  -4.531
REMARK INTRA:                   0.000
REMARK UNBOUND:                 0.000
REMARK SMILES CC1=CC(=O)[C@@H]2C[C@H]1C2(C)C
REMARK SMILES IDX 1 1 2 2 3 3 4 4 5 5 6 6 7 7 8 8 9 9 10 10 11 11
REMARK H PARENT
REMARK Flexibility Score: inf
ROOT
ATOM      1  C   UNL     1     -13.999  15.895 -30.885  1.00  0.00     0.040 C 
ATOM      2  C   UNL     1     -14.673  14.673 -31.424  1.00  0.00    -0.066 C 
ATOM      3  C   UNL     1     -14.498  14.253 -32.709  1.00  0.00     0.047 C 
ATOM      4  C   UNL     1     -15.237  13.010 -33.105  1.00  0.00     0.159 C 
ATOM      5  O   UNL     1     -15.125  12.499 -34.250  1.00  0.00    -0.295 OA
ATOM      6  C   UNL     1     -16.134  12.409 -32.024  1.00  0.00     0.067 C 
ATOM      7  C   UNL     1     -16.890  13.625 -31.443  1.00  0.00     0.021 C 
ATOM      8  C   UNL     1     -15.649  13.859 -30.550  1.00  0.00     0.022 C 
ATOM      9  C   UNL     1     -15.330  12.342 -30.693  1.00  0.00    -0.019 C 
ATOM     10  C   UNL     1     -13.838  11.908 -30.754  1.00  0.00     0.012 C 
ATOM     11  C   UNL     1     -16.043  11.486 -29.616  1.00  0.00     0.012 C 
ENDROOT
TORSDOF 0
ENDMDL
MODEL 8
REMARK VINA RESULT:    -4.485     11.582     13.156
REMARK INTER + INTRA:          -4.485
REMARK INTER:                  -4.485
REMARK INTRA:                   0.000
REMARK UNBOUND:                 0.000
REMARK SMILES CC1=CC(=O)[C@@H]2C[C@H]1C2(C)C
REMARK SMILES IDX 1 1 2 2 3 3 4 4 5 5 6 6 7 7 8 8 9 9 10 10 11 11
REMARK H PARENT
REMARK Flexibility Score: inf
ROOT
ATOM      1  C   UNL     1     -11.904  12.848 -33.427  1.00  0.00     0.040 C 
ATOM      2  C   UNL     1     -12.925  13.394 -32.479  1.00  0.00    -0.066 C 
ATOM      3  C   UNL     1     -13.003  14.722 -32.179  1.00  0.00     0.047 C 
ATOM      4  C   UNL     1     -14.079  15.121 -31.215  1.00  0.00     0.159 C 
ATOM      5  O   UNL     1     -14.280  16.321 -30.892  1.00  0.00    -0.295 OA
ATOM      6  C   UNL     1     -14.914  13.970 -30.653  1.00  0.00     0.067 C 
ATOM      7  C   UNL     1     -13.868  12.899 -30.270  1.00  0.00     0.021 C 
ATOM      8  C   UNL     1     -13.909  12.456 -31.751  1.00  0.00     0.022 C 
ATOM      9  C   UNL     1     -15.345  13.050 -31.830  1.00  0.00    -0.019 C 
ATOM     10  C   UNL     1     -15.793  13.716 -33.162  1.00  0.00     0.012 C 
ATOM     11  C   UNL     1     -16.431  12.026 -31.411  1.00  0.00     0.012 C 
ENDROOT
TORSDOF 0
ENDMDL
MODEL 9
REMARK VINA RESULT:    -4.415     10.844     12.566
REMARK INTER + INTRA:          -4.415
REMARK INTER:                  -4.415
REMARK INTRA:                   0.000
REMARK UNBOUND:                 0.000
REMARK SMILES CC1=CC(=O)[C@@H]2C[C@H]1C2(C)C
REMARK SMILES IDX 1 1 2 2 3 3 4 4 5 5 6 6 7 7 8 8 9 9 10 10 11 11
REMARK H PARENT
REMARK Flexibility Score: inf
ROOT
ATOM      1  C   UNL     1     -13.640  10.566 -30.518  1.00  0.00     0.040 C 
ATOM      2  C   UNL     1     -14.441  11.560 -31.299  1.00  0.00    -0.066 C 
ATOM      3  C   UNL     1     -15.804  11.552 -31.306  1.00  0.00     0.047 C 
ATOM      4  C   UNL     1     -16.468  12.612 -32.133  1.00  0.00     0.159 C 
ATOM      5  O   UNL     1     -17.719  12.735 -32.187  1.00  0.00    -0.295 OA
ATOM      6  C   UNL     1     -15.519  13.529 -32.906  1.00  0.00     0.067 C 
ATOM      7  C   UNL     1     -14.492  12.563 -33.537  1.00  0.00     0.021 C 
ATOM      8  C   UNL     1     -13.744  12.614 -32.184  1.00  0.00     0.022 C 
ATOM      9  C   UNL     1     -14.396  14.006 -31.941  1.00  0.00    -0.019 C 
ATOM     10  C   UNL     1     -14.787  14.390 -30.485  1.00  0.00     0.012 C 
ATOM     11  C   UNL     1     -13.557  15.163 -32.539  1.00  0.00     0.012 C 
ENDROOT
TORSDOF 0
ENDMDL
