MODEL 1
REMARK VINA RESULT:    -3.720      0.000      0.000
REMARK INTER + INTRA:          -4.932
REMARK INTER:                  -4.590
REMARK INTRA:                  -0.341
REMARK UNBOUND:                -0.341
REMARK SMILES C=CC[C@H](C)C(=O)CC
REMARK SMILES IDX 4 1 5 2 6 3 7 4 8 5 9 6 3 7 2 8 1 9
REMARK H PARENT
REMARK Flexibility Score: inf
ROOT
ATOM      1  C   UNL     1      27.434  11.198  23.917  1.00  0.00     0.057 C 
ATOM      2  C   UNL     1      27.942  11.921  22.661  1.00  0.00     0.016 C 
ENDROOT
BRANCH   1   3
ATOM      3  C   UNL     1      27.376  12.162  25.080  1.00  0.00     0.135 C 
ATOM      4  O   UNL     1      26.444  12.951  25.166  1.00  0.00    -0.299 OA
BRANCH   3   5
ATOM      5  C   UNL     1      28.467  12.142  26.124  1.00  0.00     0.072 C 
ATOM      6  C   UNL     1      29.641  13.060  25.787  1.00  0.00     0.012 C 
ENDBRANCH   3   5
ENDBRANCH   1   3
BRANCH   1   7
ATOM      7  C   UNL     1      28.320   9.988  24.278  1.00  0.00     0.038 C 
BRANCH   7   8
ATOM      8  C   UNL     1      27.510   8.781  24.674  1.00  0.00    -0.034 C 
ATOM      9  C   UNL     1      27.506   8.316  25.926  1.00  0.00     0.004 C 
ENDBRANCH   7   8
ENDBRANCH   1   7
TORSDOF 4
ENDMDL
MODEL 2
REMARK VINA RESULT:    -3.674      1.752      4.102
REMARK INTER + INTRA:          -4.875
REMARK INTER:                  -4.663
REMARK INTRA:                  -0.212
REMARK UNBOUND:                -0.341
REMARK SMILES C=CC[C@H](C)C(=O)CC
REMARK SMILES IDX 4 1 5 2 6 3 7 4 8 5 9 6 3 7 2 8 1 9
REMARK H PARENT
REMARK Flexibility Score: inf
ROOT
ATOM      1  C   UNL     1      27.477  11.326  23.690  1.00  0.00     0.057 C 
ATOM      2  C   UNL     1      27.088  12.354  24.762  1.00  0.00     0.016 C 
ENDROOT
BRANCH   1   3
ATOM      3  C   UNL     1      28.341  10.246  24.301  1.00  0.00     0.135 C 
ATOM      4  O   UNL     1      29.448  10.531  24.737  1.00  0.00    -0.299 OA
BRANCH   3   5
ATOM      5  C   UNL     1      27.828   8.826  24.367  1.00  0.00     0.072 C 
ATOM      6  C   UNL     1      27.422   8.398  25.777  1.00  0.00     0.012 C 
ENDBRANCH   3   5
ENDBRANCH   1   3
BRANCH   1   7
ATOM      7  C   UNL     1      28.213  11.985  22.505  1.00  0.00     0.038 C 
BRANCH   7   8
ATOM      8  C   UNL     1      28.220  13.488  22.599  1.00  0.00    -0.034 C 
ATOM      9  C   UNL     1      29.329  14.202  22.380  1.00  0.00     0.004 C 
ENDBRANCH   7   8
ENDBRANCH   1   7
TORSDOF 4
ENDMDL
MODEL 3
REMARK VINA RESULT:    -3.674      1.832      3.502
REMARK INTER + INTRA:          -4.875
REMARK INTER:                  -4.396
REMARK INTRA:                  -0.479
REMARK UNBOUND:                -0.341
REMARK SMILES C=CC[C@H](C)C(=O)CC
REMARK SMILES IDX 4 1 5 2 6 3 7 4 8 5 9 6 3 7 2 8 1 9
REMARK H PARENT
REMARK Flexibility Score: inf
ROOT
ATOM      1  C   UNL     1      27.447  11.511  23.857  1.00  0.00     0.057 C 
ATOM      2  C   UNL     1      27.911  10.079  24.161  1.00  0.00     0.016 C 
ENDROOT
BRANCH   1   3
ATOM      3  C   UNL     1      28.219  12.064  22.681  1.00  0.00     0.135 C 
ATOM      4  O   UNL     1      28.902  11.313  21.997  1.00  0.00    -0.299 OA
BRANCH   3   5
ATOM      5  C   UNL     1      28.139  13.539  22.360  1.00  0.00     0.072 C 
ATOM      6  C   UNL     1      29.505  14.221  22.317  1.00  0.00     0.012 C 
ENDBRANCH   3   5
ENDBRANCH   1   3
BRANCH   1   7
ATOM      7  C   UNL     1      27.612  12.437  25.080  1.00  0.00     0.038 C 
BRANCH   7   8
ATOM      8  C   UNL     1      28.885  12.165  25.838  1.00  0.00    -0.034 C 
ATOM      9  C   UNL     1      29.914  13.017  25.815  1.00  0.00     0.004 C 
ENDBRANCH   7   8
ENDBRANCH   1   7
TORSDOF 4
ENDMDL
MODEL 4
REMARK VINA RESULT:    -3.611      2.526      4.476
REMARK INTER + INTRA:          -4.797
REMARK INTER:                  -4.546
REMARK INTRA:                  -0.251
REMARK UNBOUND:                -0.341
REMARK SMILES C=CC[C@H](C)C(=O)CC
REMARK SMILES IDX 4 1 5 2 6 3 7 4 8 5 9 6 3 7 2 8 1 9
REMARK H PARENT
REMARK Flexibility Score: inf
ROOT
ATOM      1  C   UNL     1      29.194  12.498  22.817  1.00  0.00     0.057 C 
ATOM      2  C   UNL     1      29.612  11.706  21.570  1.00  0.00     0.016 C 
ENDROOT
BRANCH   1   3
ATOM      3  C   UNL     1      28.080  11.774  23.539  1.00  0.00     0.135 C 
ATOM      4  O   UNL     1      27.829  10.611  23.253  1.00  0.00    -0.299 OA
BRANCH   3   5
ATOM      5  C   UNL     1      27.289  12.492  24.607  1.00  0.00     0.072 C 
ATOM      6  C   UNL     1      28.013  12.558  25.952  1.00  0.00     0.012 C 
ENDBRANCH   3   5
ENDBRANCH   1   3
BRANCH   1   7
ATOM      7  C   UNL     1      28.748  13.932  22.462  1.00  0.00     0.038 C 
BRANCH   7   8
ATOM      8  C   UNL     1      29.888  14.916  22.513  1.00  0.00    -0.034 C 
ATOM      9  C   UNL     1      29.941  15.974  21.699  1.00  0.00     0.004 C 
ENDBRANCH   7   8
ENDBRANCH   1   7
TORSDOF 4
ENDMDL
MODEL 5
REMARK VINA RESULT:    -3.562      1.712      3.982
REMARK INTER + INTRA:          -4.736
REMARK INTER:                  -4.386
REMARK INTRA:                  -0.350
REMARK UNBOUND:                -0.341
REMARK SMILES C=CC[C@H](C)C(=O)CC
REMARK SMILES IDX 4 1 5 2 6 3 7 4 8 5 9 6 3 7 2 8 1 9
REMARK H PARENT
REMARK Flexibility Score: inf
ROOT
ATOM      1  C   UNL     1      28.150  11.755  25.465  1.00  0.00     0.057 C 
ATOM      2  C   UNL     1      29.239  12.739  25.914  1.00  0.00     0.016 C 
ENDROOT
BRANCH   1   3
ATOM      3  C   UNL     1      28.783  10.466  24.990  1.00  0.00     0.135 C 
ATOM      4  O   UNL     1      29.991  10.307  25.106  1.00  0.00    -0.299 OA
BRANCH   3   5
ATOM      5  C   UNL     1      27.919   9.389  24.378  1.00  0.00     0.072 C 
ATOM      6  C   UNL     1      27.309   8.445  25.413  1.00  0.00     0.012 C 
ENDBRANCH   3   5
ENDBRANCH   1   3
BRANCH   1   7
ATOM      7  C   UNL     1      27.264  12.350  24.350  1.00  0.00     0.038 C 
BRANCH   7   8
ATOM      8  C   UNL     1      28.055  13.179  23.371  1.00  0.00    -0.034 C 
ATOM      9  C   UNL     1      28.060  12.907  22.063  1.00  0.00     0.004 C 
ENDBRANCH   7   8
ENDBRANCH   1   7
TORSDOF 4
ENDMDL
MODEL 6
REMARK VINA RESULT:    -3.544      1.007      2.378
REMARK INTER + INTRA:          -4.715
REMARK INTER:                  -4.278
REMARK INTRA:                  -0.436
REMARK UNBOUND:                -0.341
REMARK SMILES C=CC[C@H](C)C(=O)CC
REMARK SMILES IDX 4 1 5 2 6 3 7 4 8 5 9 6 3 7 2 8 1 9
REMARK H PARENT
REMARK Flexibility Score: inf
ROOT
ATOM      1  C   UNL     1      28.381  11.044  25.258  1.00  0.00     0.057 C 
ATOM      2  C   UNL     1      29.296  11.928  26.116  1.00  0.00     0.016 C 
ENDROOT
BRANCH   1   3
ATOM      3  C   UNL     1      27.496  11.909  24.388  1.00  0.00     0.135 C 
ATOM      4  O   UNL     1      26.759  12.736  24.908  1.00  0.00    -0.299 OA
BRANCH   3   5
ATOM      5  C   UNL     1      27.532  11.743  22.887  1.00  0.00     0.072 C 
ATOM      6  C   UNL     1      28.941  11.534  22.337  1.00  0.00     0.012 C 
ENDBRANCH   3   5
ENDBRANCH   1   3
BRANCH   1   7
ATOM      7  C   UNL     1      27.515  10.107  26.125  1.00  0.00     0.038 C 
BRANCH   7   8
ATOM      8  C   UNL     1      27.479   8.700  25.587  1.00  0.00    -0.034 C 
ATOM      9  C   UNL     1      28.164   8.345  24.497  1.00  0.00     0.004 C 
ENDBRANCH   7   8
ENDBRANCH   1   7
TORSDOF 4
ENDMDL
MODEL 7
REMARK VINA RESULT:    -3.542      1.748      3.546
REMARK INTER + INTRA:          -4.712
REMARK INTER:                  -4.301
REMARK INTRA:                  -0.411
REMARK UNBOUND:                -0.341
REMARK SMILES C=CC[C@H](C)C(=O)CC
REMARK SMILES IDX 4 1 5 2 6 3 7 4 8 5 9 6 3 7 2 8 1 9
REMARK H PARENT
REMARK Flexibility Score: inf
ROOT
ATOM      1  C   UNL     1      28.900  11.279  23.889  1.00  0.00     0.057 C 
ATOM      2  C   UNL     1      27.942  11.106  22.702  1.00  0.00     0.016 C 
ENDROOT
BRANCH   1   3
ATOM      3  C   UNL     1      28.844  10.059  24.781  1.00  0.00     0.135 C 
ATOM      4  O   UNL     1      29.592   9.980  25.746  1.00  0.00    -0.299 OA
BRANCH   3   5
ATOM      5  C   UNL     1      27.865   8.951  24.472  1.00  0.00     0.072 C 
ATOM      6  C   UNL     1      27.321   8.261  25.722  1.00  0.00     0.012 C 
ENDBRANCH   3   5
ENDBRANCH   1   3
BRANCH   1   7
ATOM      7  C   UNL     1      28.574  12.546  24.707  1.00  0.00     0.038 C 
BRANCH   7   8
ATOM      8  C   UNL     1      27.092  12.736  24.904  1.00  0.00    -0.034 C 
ATOM      9  C   UNL     1      26.534  12.705  26.118  1.00  0.00     0.004 C 
ENDBRANCH   7   8
ENDBRANCH   1   7
TORSDOF 4
ENDMDL
MODEL 8
REMARK VINA RESULT:    -3.541      1.679      2.760
REMARK INTER + INTRA:          -4.710
REMARK INTER:                  -4.351
REMARK INTRA:                  -0.360
REMARK UNBOUND:                -0.341
REMARK SMILES C=CC[C@H](C)C(=O)CC
REMARK SMILES IDX 4 1 5 2 6 3 7 4 8 5 9 6 3 7 2 8 1 9
REMARK H PARENT
REMARK Flexibility Score: inf
ROOT
ATOM      1  C   UNL     1      28.564  12.339  24.640  1.00  0.00     0.057 C 
ATOM      2  C   UNL     1      27.099  12.582  25.031  1.00  0.00     0.016 C 
ENDROOT
BRANCH   1   3
ATOM      3  C   UNL     1      28.809  12.828  23.231  1.00  0.00     0.135 C 
ATOM      4  O   UNL     1      27.952  13.494  22.663  1.00  0.00    -0.299 OA
BRANCH   3   5
ATOM      5  C   UNL     1      30.108  12.491  22.537  1.00  0.00     0.072 C 
ATOM      6  C   UNL     1      29.912  11.725  21.230  1.00  0.00     0.012 C 
ENDBRANCH   3   5
ENDBRANCH   1   3
BRANCH   1   7
ATOM      7  C   UNL     1      28.948  10.850  24.757  1.00  0.00     0.038 C 
BRANCH   7   8
ATOM      8  C   UNL     1      27.922   9.942  24.130  1.00  0.00    -0.034 C 
ATOM      9  C   UNL     1      27.855   8.642  24.431  1.00  0.00     0.004 C 
ENDBRANCH   7   8
ENDBRANCH   1   7
TORSDOF 4
ENDMDL
MODEL 9
REMARK VINA RESULT:    -3.456      1.797      3.482
REMARK INTER + INTRA:          -4.605
REMARK INTER:                  -4.212
REMARK INTRA:                  -0.393
REMARK UNBOUND:                -0.341
REMARK SMILES C=CC[C@H](C)C(=O)CC
REMARK SMILES IDX 4 1 5 2 6 3 7 4 8 5 9 6 3 7 2 8 1 9
REMARK H PARENT
REMARK Flexibility Score: inf
ROOT
ATOM      1  C   UNL     1      27.751  10.253  24.687  1.00  0.00     0.057 C 
ATOM      2  C   UNL     1      27.856   8.722  24.706  1.00  0.00     0.016 C 
ENDROOT
BRANCH   1   3
ATOM      3  C   UNL     1      28.831  10.834  23.802  1.00  0.00     0.135 C 
ATOM      4  O   UNL     1      29.972  10.940  24.231  1.00  0.00    -0.299 OA
BRANCH   3   5
ATOM      5  C   UNL     1      28.491  11.276  22.398  1.00  0.00     0.072 C 
ATOM      6  C   UNL     1      27.948  12.702  22.330  1.00  0.00     0.012 C 
ENDBRANCH   3   5
ENDBRANCH   1   3
BRANCH   1   7
ATOM      7  C   UNL     1      27.852  10.852  26.105  1.00  0.00     0.038 C 
BRANCH   7   8
ATOM      8  C   UNL     1      27.570  12.332  26.124  1.00  0.00    -0.034 C 
ATOM      9  C   UNL     1      26.381  12.826  25.770  1.00  0.00     0.004 C 
ENDBRANCH   7   8
ENDBRANCH   1   7
TORSDOF 4
ENDMDL
