MODEL 1
REMARK VINA RESULT:    -3.932      0.000      0.000
REMARK INTER + INTRA:          -5.479
REMARK INTER:                  -5.081
REMARK INTRA:                  -0.397
REMARK UNBOUND:                -0.397
REMARK SMILES CCCCCCC(=O)[O-]
REMARK SMILES IDX 5 1 6 2 7 3 8 4 9 5 4 6 3 7 2 8 1 9
REMARK H PARENT
REMARK Flexibility Score: inf
ROOT
ATOM      1  C   UNL     1      22.900  -7.098 -37.149  1.00  0.00     0.006 C 
ENDROOT
BRANCH   1   2
ATOM      2  C   UNL     1      22.010  -6.087 -37.888  1.00  0.00     0.053 C 
BRANCH   2   3
ATOM      3  C   UNL     1      22.032  -6.310 -39.370  1.00  0.00     0.041 C 
ATOM      4  O   UNL     1      22.362  -5.377 -40.148  1.00  0.00    -0.550 OA
ATOM      5  O   UNL     1      21.711  -7.558 -39.890  1.00  0.00    -0.550 OA
ENDBRANCH   2   3
ENDBRANCH   1   2
BRANCH   1   6
ATOM      6  C   UNL     1      24.394  -6.702 -37.140  1.00  0.00     0.000 C 
BRANCH   6   7
ATOM      7  C   UNL     1      25.281  -7.625 -37.992  1.00  0.00    -0.000 C 
BRANCH   7   8
ATOM      8  C   UNL     1      24.592  -8.950 -38.349  1.00  0.00    -0.003 C 
ATOM      9  C   UNL     1      24.904  -9.363 -39.785  1.00  0.00     0.004 C 
ENDBRANCH   7   8
ENDBRANCH   6   7
ENDBRANCH   1   6
TORSDOF 5
ENDMDL
MODEL 2
REMARK VINA RESULT:    -3.900      1.982      3.278
REMARK INTER + INTRA:          -5.437
REMARK INTER:                  -4.962
REMARK INTRA:                  -0.475
REMARK UNBOUND:                -0.397
REMARK SMILES CCCCCCC(=O)[O-]
REMARK SMILES IDX 5 1 6 2 7 3 8 4 9 5 4 6 3 7 2 8 1 9
REMARK H PARENT
REMARK Flexibility Score: inf
ROOT
ATOM      1  C   UNL     1      22.793  -7.540 -38.682  1.00  0.00     0.006 C 
ENDROOT
BRANCH   1   2
ATOM      2  C   UNL     1      21.973  -6.828 -39.769  1.00  0.00     0.053 C 
BRANCH   2   3
ATOM      3  C   UNL     1      22.490  -5.446 -40.036  1.00  0.00     0.041 C 
ATOM      4  O   UNL     1      21.690  -4.502 -40.263  1.00  0.00    -0.550 OA
ATOM      5  O   UNL     1      23.857  -5.199 -40.009  1.00  0.00    -0.550 OA
ENDBRANCH   2   3
ENDBRANCH   1   2
BRANCH   1   6
ATOM      6  C   UNL     1      22.398  -7.122 -37.248  1.00  0.00     0.000 C 
BRANCH   6   7
ATOM      7  C   UNL     1      23.511  -6.377 -36.494  1.00  0.00    -0.000 C 
BRANCH   7   8
ATOM      8  C   UNL     1      23.231  -4.875 -36.350  1.00  0.00    -0.003 C 
ATOM      9  C   UNL     1      21.742  -4.575 -36.501  1.00  0.00     0.004 C 
ENDBRANCH   7   8
ENDBRANCH   6   7
ENDBRANCH   1   6
TORSDOF 5
ENDMDL
MODEL 3
REMARK VINA RESULT:    -3.888      1.842      3.606
REMARK INTER + INTRA:          -5.422
REMARK INTER:                  -5.019
REMARK INTRA:                  -0.403
REMARK UNBOUND:                -0.397
REMARK SMILES CCCCCCC(=O)[O-]
REMARK SMILES IDX 5 1 6 2 7 3 8 4 9 5 4 6 3 7 2 8 1 9
REMARK H PARENT
REMARK Flexibility Score: inf
ROOT
ATOM      1  C   UNL     1      23.371  -6.686 -36.990  1.00  0.00     0.006 C 
ENDROOT
BRANCH   1   2
ATOM      2  C   UNL     1      22.367  -7.705 -37.550  1.00  0.00     0.053 C 
BRANCH   2   3
ATOM      3  C   UNL     1      22.584  -7.950 -39.012  1.00  0.00     0.041 C 
ATOM      4  O   UNL     1      21.775  -7.492 -39.860  1.00  0.00    -0.550 OA
ATOM      5  O   UNL     1      23.696  -8.666 -39.438  1.00  0.00    -0.550 OA
ENDBRANCH   2   3
ENDBRANCH   1   2
BRANCH   1   6
ATOM      6  C   UNL     1      22.796  -5.255 -36.889  1.00  0.00     0.000 C 
BRANCH   6   7
ATOM      7  C   UNL     1      21.271  -5.190 -37.068  1.00  0.00    -0.000 C 
BRANCH   7   8
ATOM      8  C   UNL     1      20.850  -4.386 -38.307  1.00  0.00    -0.003 C 
ATOM      9  C   UNL     1      22.065  -3.937 -39.112  1.00  0.00     0.004 C 
ENDBRANCH   7   8
ENDBRANCH   6   7
ENDBRANCH   1   6
TORSDOF 5
ENDMDL
MODEL 4
REMARK VINA RESULT:    -3.804      1.682      2.604
REMARK INTER + INTRA:          -5.313
REMARK INTER:                  -4.902
REMARK INTRA:                  -0.411
REMARK UNBOUND:                -0.397
REMARK SMILES CCCCCCC(=O)[O-]
REMARK SMILES IDX 5 1 6 2 7 3 8 4 9 5 4 6 3 7 2 8 1 9
REMARK H PARENT
REMARK Flexibility Score: inf
ROOT
ATOM      1  C   UNL     1      21.117  -5.061 -37.615  1.00  0.00     0.006 C 
ENDROOT
BRANCH   1   2
ATOM      2  C   UNL     1      21.260  -4.088 -38.794  1.00  0.00     0.053 C 
BRANCH   2   3
ATOM      3  C   UNL     1      22.275  -4.567 -39.787  1.00  0.00     0.041 C 
ATOM      4  O   UNL     1      22.003  -5.519 -40.564  1.00  0.00    -0.550 OA
ATOM      5  O   UNL     1      23.514  -3.944 -39.870  1.00  0.00    -0.550 OA
ENDBRANCH   2   3
ENDBRANCH   1   2
BRANCH   1   6
ATOM      6  C   UNL     1      22.347  -5.071 -36.679  1.00  0.00     0.000 C 
BRANCH   6   7
ATOM      7  C   UNL     1      23.179  -6.361 -36.770  1.00  0.00    -0.000 C 
BRANCH   7   8
ATOM      8  C   UNL     1      22.399  -7.532 -37.382  1.00  0.00    -0.003 C 
ATOM      9  C   UNL     1      23.227  -8.252 -38.442  1.00  0.00     0.004 C 
ENDBRANCH   7   8
ENDBRANCH   6   7
ENDBRANCH   1   6
TORSDOF 5
ENDMDL
MODEL 5
REMARK VINA RESULT:    -3.784      2.449      4.624
REMARK INTER + INTRA:          -5.287
REMARK INTER:                  -4.959
REMARK INTRA:                  -0.328
REMARK UNBOUND:                -0.397
REMARK SMILES CCCCCCC(=O)[O-]
REMARK SMILES IDX 5 1 6 2 7 3 8 4 9 5 4 6 3 7 2 8 1 9
REMARK H PARENT
REMARK Flexibility Score: inf
ROOT
ATOM      1  C   UNL     1      21.159  -5.332 -37.293  1.00  0.00     0.006 C 
ENDROOT
BRANCH   1   2
ATOM      2  C   UNL     1      22.338  -6.244 -37.666  1.00  0.00     0.053 C 
BRANCH   2   3
ATOM      3  C   UNL     1      22.415  -6.473 -39.145  1.00  0.00     0.041 C 
ATOM      4  O   UNL     1      23.057  -5.676 -39.878  1.00  0.00    -0.550 OA
ATOM      5  O   UNL     1      21.797  -7.581 -39.710  1.00  0.00    -0.550 OA
ENDBRANCH   2   3
ENDBRANCH   1   2
BRANCH   1   6
ATOM      6  C   UNL     1      21.596  -3.910 -36.877  1.00  0.00     0.000 C 
BRANCH   6   7
ATOM      7  C   UNL     1      21.333  -2.844 -37.953  1.00  0.00    -0.000 C 
BRANCH   7   8
ATOM      8  C   UNL     1      20.382  -3.332 -39.055  1.00  0.00    -0.003 C 
ATOM      9  C   UNL     1      19.100  -2.505 -39.083  1.00  0.00     0.004 C 
ENDBRANCH   7   8
ENDBRANCH   6   7
ENDBRANCH   1   6
TORSDOF 5
ENDMDL
MODEL 6
REMARK VINA RESULT:    -3.739      2.091      3.386
REMARK INTER + INTRA:          -5.229
REMARK INTER:                  -4.807
REMARK INTRA:                  -0.422
REMARK UNBOUND:                -0.397
REMARK SMILES CCCCCCC(=O)[O-]
REMARK SMILES IDX 5 1 6 2 7 3 8 4 9 5 4 6 3 7 2 8 1 9
REMARK H PARENT
REMARK Flexibility Score: inf
ROOT
ATOM      1  C   UNL     1      24.702  -6.004 -37.435  1.00  0.00     0.006 C 
ENDROOT
BRANCH   1   2
ATOM      2  C   UNL     1      25.759  -7.113 -37.548  1.00  0.00     0.053 C 
BRANCH   2   3
ATOM      3  C   UNL     1      25.445  -8.064 -38.663  1.00  0.00     0.041 C 
ATOM      4  O   UNL     1      25.622  -7.721 -39.861  1.00  0.00    -0.550 OA
ATOM      5  O   UNL     1      24.978  -9.341 -38.376  1.00  0.00    -0.550 OA
ENDBRANCH   2   3
ENDBRANCH   1   2
BRANCH   1   6
ATOM      6  C   UNL     1      23.526  -6.375 -36.503  1.00  0.00     0.000 C 
BRANCH   6   7
ATOM      7  C   UNL     1      22.290  -6.900 -37.250  1.00  0.00    -0.000 C 
BRANCH   7   8
ATOM      8  C   UNL     1      22.183  -6.357 -38.682  1.00  0.00    -0.003 C 
ATOM      9  C   UNL     1      22.000  -7.489 -39.688  1.00  0.00     0.004 C 
ENDBRANCH   7   8
ENDBRANCH   6   7
ENDBRANCH   1   6
TORSDOF 5
ENDMDL
MODEL 7
REMARK VINA RESULT:    -3.724      2.370      4.429
REMARK INTER + INTRA:          -5.210
REMARK INTER:                  -5.075
REMARK INTRA:                  -0.135
REMARK UNBOUND:                -0.397
REMARK SMILES CCCCCCC(=O)[O-]
REMARK SMILES IDX 5 1 6 2 7 3 8 4 9 5 4 6 3 7 2 8 1 9
REMARK H PARENT
REMARK Flexibility Score: inf
ROOT
ATOM      1  C   UNL     1      22.657  -7.032 -37.218  1.00  0.00     0.006 C 
ENDROOT
BRANCH   1   2
ATOM      2  C   UNL     1      22.644  -8.353 -38.002  1.00  0.00     0.053 C 
BRANCH   2   3
ATOM      3  C   UNL     1      23.949  -8.598 -38.697  1.00  0.00     0.041 C 
ATOM      4  O   UNL     1      25.029  -8.225 -38.170  1.00  0.00    -0.550 OA
ATOM      5  O   UNL     1      23.972  -9.261 -39.917  1.00  0.00    -0.550 OA
ENDBRANCH   2   3
ENDBRANCH   1   2
BRANCH   1   6
ATOM      6  C   UNL     1      22.044  -5.851 -38.005  1.00  0.00     0.000 C 
BRANCH   6   7
ATOM      7  C   UNL     1      21.259  -4.865 -37.124  1.00  0.00    -0.000 C 
BRANCH   7   8
ATOM      8  C   UNL     1      22.115  -4.252 -36.007  1.00  0.00    -0.003 C 
ATOM      9  C   UNL     1      21.755  -2.787 -35.779  1.00  0.00     0.004 C 
ENDBRANCH   7   8
ENDBRANCH   6   7
ENDBRANCH   1   6
TORSDOF 5
ENDMDL
MODEL 8
REMARK VINA RESULT:    -3.720      1.993      3.020
REMARK INTER + INTRA:          -5.205
REMARK INTER:                  -4.933
REMARK INTRA:                  -0.272
REMARK UNBOUND:                -0.397
REMARK SMILES CCCCCCC(=O)[O-]
REMARK SMILES IDX 5 1 6 2 7 3 8 4 9 5 4 6 3 7 2 8 1 9
REMARK H PARENT
REMARK Flexibility Score: inf
ROOT
ATOM      1  C   UNL     1      22.669  -6.331 -37.213  1.00  0.00     0.006 C 
ENDROOT
BRANCH   1   2
ATOM      2  C   UNL     1      22.411  -7.801 -37.579  1.00  0.00     0.053 C 
BRANCH   2   3
ATOM      3  C   UNL     1      22.503  -8.027 -39.058  1.00  0.00     0.041 C 
ATOM      4  O   UNL     1      21.673  -7.487 -39.835  1.00  0.00    -0.550 OA
ATOM      5  O   UNL     1      23.521  -8.816 -39.578  1.00  0.00    -0.550 OA
ENDBRANCH   2   3
ENDBRANCH   1   2
BRANCH   1   6
ATOM      6  C   UNL     1      24.151  -6.033 -36.893  1.00  0.00     0.000 C 
BRANCH   6   7
ATOM      7  C   UNL     1      24.732  -4.861 -37.700  1.00  0.00    -0.000 C 
BRANCH   7   8
ATOM      8  C   UNL     1      24.000  -4.632 -39.030  1.00  0.00    -0.003 C 
ATOM      9  C   UNL     1      24.409  -3.305 -39.663  1.00  0.00     0.004 C 
ENDBRANCH   7   8
ENDBRANCH   6   7
ENDBRANCH   1   6
TORSDOF 5
ENDMDL
MODEL 9
REMARK VINA RESULT:    -3.705      1.889      2.699
REMARK INTER + INTRA:          -5.185
REMARK INTER:                  -4.847
REMARK INTRA:                  -0.338
REMARK UNBOUND:                -0.397
REMARK SMILES CCCCCCC(=O)[O-]
REMARK SMILES IDX 5 1 6 2 7 3 8 4 9 5 4 6 3 7 2 8 1 9
REMARK H PARENT
REMARK Flexibility Score: inf
ROOT
ATOM      1  C   UNL     1      22.370  -7.795 -38.841  1.00  0.00     0.006 C 
ENDROOT
BRANCH   1   2
ATOM      2  C   UNL     1      22.393  -7.520 -37.330  1.00  0.00     0.053 C 
BRANCH   2   3
ATOM      3  C   UNL     1      22.307  -6.053 -37.033  1.00  0.00     0.041 C 
ATOM      4  O   UNL     1      23.252  -5.468 -36.443  1.00  0.00    -0.550 OA
ATOM      5  O   UNL     1      21.191  -5.328 -37.431  1.00  0.00    -0.550 OA
ENDBRANCH   2   3
ENDBRANCH   1   2
BRANCH   1   6
ATOM      6  C   UNL     1      23.578  -8.627 -39.328  1.00  0.00     0.000 C 
BRANCH   6   7
ATOM      7  C   UNL     1      24.762  -8.626 -38.347  1.00  0.00    -0.000 C 
BRANCH   7   8
ATOM      8  C   UNL     1      25.780  -7.516 -38.643  1.00  0.00    -0.003 C 
ATOM      9  C   UNL     1      26.353  -6.936 -37.353  1.00  0.00     0.004 C 
ENDBRANCH   7   8
ENDBRANCH   6   7
ENDBRANCH   1   6
TORSDOF 5
ENDMDL
