MODEL 1
REMARK VINA RESULT:    37.151      0.000      0.000
REMARK INTER + INTRA:          66.023
REMARK INTER:                  61.042
REMARK INTRA:                   4.981
REMARK UNBOUND:                 4.981
REMARK SMILES C[C@@H]1O[C@H](OC[C@@H]2O[C@@H](Oc3c(-c4ccc(O)c(O)c4)oc4cc(O)cc(O)c4c3=O)[C@@H](O)[C@@H](O)[C@H]2O)[C@@H](O)[C@H](O)[C@H]1O
REMARK SMILES IDX 7 1 36 2 34 3 32 4 9 5 8 6 6 7 5 8 4 9 1 10 2 11 42 12 3 13
REMARK SMILES IDX 40 14 38 15 43 16 41 18 39 20 37 22 35 24 10 26 11 27 12 28
REMARK SMILES IDX 30 29 21 30 29 31 31 32 22 33 27 34 23 35 26 36 24 37 13 38
REMARK SMILES IDX 20 39 14 40 18 41 15 42 16 43 19 44 17 46 28 48 25 50 33 52
REMARK H PARENT 43 17 41 19 39 21 37 23 35 25 19 45 17 47 28 49 25 51 33 53
REMARK Flexibility Score: inf
ROOT
ATOM      1  C   UNL     1      -9.515 -26.563 -10.094  1.00  0.00     0.180 C 
ATOM      2  C   UNL     1      -8.931 -25.273 -10.722  1.00  0.00     0.177 C 
ATOM      3  C   UNL     1      -9.284 -25.217 -12.224  1.00  0.00     0.180 C 
ATOM      4  C   UNL     1      -8.876 -26.527 -12.907  1.00  0.00     0.214 C 
ATOM      5  C   UNL     1      -9.426 -27.743 -12.130  1.00  0.00     0.339 C 
ATOM      6  O   UNL     1      -9.023 -27.710 -10.770  1.00  0.00    -0.332 OA
ENDROOT
BRANCH   1   7
ATOM      7  C   UNL     1      -9.148 -26.719  -8.607  1.00  0.00     0.198 C 
BRANCH   7   8
ATOM      8  O   UNL     1      -9.104 -25.453  -7.969  1.00  0.00    -0.347 OA
BRANCH   8   9
ATOM      9  C   UNL     1     -10.395 -24.889  -7.774  1.00  0.00     0.281 C 
ATOM     10  C   UNL     1      -9.344 -26.226  -4.946  1.00  0.00     0.041 C 
ATOM     11  C   UNL     1     -10.134 -24.994  -5.398  1.00  0.00     0.150 C 
ATOM     12  C   UNL     1      -9.218 -23.748  -5.572  1.00  0.00     0.174 C 
ATOM     13  O   UNL     1     -10.936 -25.317  -6.533  1.00  0.00    -0.344 OA
ATOM     14  C   UNL     1      -9.920 -22.715  -6.468  1.00  0.00     0.179 C 
ATOM     15  C   UNL     1     -10.306 -23.340  -7.835  1.00  0.00     0.202 C 
BRANCH  12  16
ATOM     16  O   UNL     1      -8.876 -23.190  -4.328  1.00  0.00    -0.388 OA
ATOM     17  H   UNL     1      -8.244 -23.814  -3.878  1.00  0.00     0.211 HD
ENDBRANCH  12  16
BRANCH  14  18
ATOM     18  O   UNL     1      -9.121 -21.573  -6.650  1.00  0.00    -0.387 OA
ATOM     19  H   UNL     1      -9.107 -21.073  -5.791  1.00  0.00     0.211 HD
ENDBRANCH  14  18
BRANCH  15  20
ATOM     20  O   UNL     1     -11.513 -22.784  -8.297  1.00  0.00    -0.385 OA
ATOM     21  H   UNL     1     -11.476 -21.806  -8.129  1.00  0.00     0.211 HD
ENDBRANCH  15  20
ENDBRANCH   8   9
ENDBRANCH   7   8
ENDBRANCH   1   7
BRANCH   2  22
ATOM     22  O   UNL     1      -9.446 -24.135 -10.080  1.00  0.00    -0.387 OA
ATOM     23  H   UNL     1      -8.905 -23.998  -9.258  1.00  0.00     0.211 HD
ENDBRANCH   2  22
BRANCH   3  24
ATOM     24  O   UNL     1     -10.664 -24.998 -12.399  1.00  0.00    -0.387 OA
ATOM     25  H   UNL     1     -10.898 -24.192 -11.867  1.00  0.00     0.211 HD
ENDBRANCH   3  24
BRANCH   5  26
ATOM     26  O   UNL     1     -10.855 -27.824 -12.234  1.00  0.00    -0.454 OA
BRANCH  26  27
ATOM     27  C   UNL     1     -11.511 -28.809 -12.982  1.00  0.00     0.214 A 
ATOM     28  C   UNL     1     -12.178 -28.508 -14.187  1.00  0.00     0.180 A 
ATOM     29  C   UNL     1     -11.528 -30.125 -12.509  1.00  0.00     0.239 A 
ATOM     30  O   UNL     1     -12.904 -29.443 -14.786  1.00  0.00    -0.452 OA
ATOM     31  C   UNL     1     -12.246 -31.120 -13.214  1.00  0.00     0.111 A 
ATOM     32  O   UNL     1     -10.939 -30.382 -11.425  1.00  0.00    -0.285 OA
ATOM     33  C   UNL     1     -12.983 -30.695 -14.351  1.00  0.00     0.146 A 
ATOM     34  C   UNL     1     -12.313 -32.493 -12.831  1.00  0.00     0.134 A 
ATOM     35  C   UNL     1     -13.801 -31.592 -15.040  1.00  0.00     0.094 A 
ATOM     36  C   UNL     1     -13.172 -33.359 -13.518  1.00  0.00     0.093 A 
ATOM     37  C   UNL     1     -13.908 -32.917 -14.621  1.00  0.00     0.123 A 
BRANCH  28  38
ATOM     38  C   UNL     1     -12.091 -27.173 -14.820  1.00  0.00     0.025 A 
ATOM     39  C   UNL     1     -13.262 -26.439 -15.062  1.00  0.00     0.062 A 
ATOM     40  C   UNL     1     -10.851 -26.641 -15.213  1.00  0.00     0.016 A 
ATOM     41  C   UNL     1     -13.193 -25.165 -15.645  1.00  0.00     0.158 A 
ATOM     42  C   UNL     1     -10.782 -25.375 -15.802  1.00  0.00     0.051 A 
ATOM     43  C   UNL     1     -11.946 -24.631 -16.016  1.00  0.00     0.157 A 
BRANCH  41  44
ATOM     44  O   UNL     1     -14.358 -24.428 -15.854  1.00  0.00    -0.504 OA
ATOM     45  H   UNL     1     -14.847 -23.982 -15.086  1.00  0.00     0.293 HD
ENDBRANCH  41  44
BRANCH  43  46
ATOM     46  O   UNL     1     -11.847 -23.369 -16.599  1.00  0.00    -0.504 OA
ATOM     47  H   UNL     1     -12.640 -22.740 -16.656  1.00  0.00     0.293 HD
ENDBRANCH  43  46
ENDBRANCH  28  38
BRANCH  34  48
ATOM     48  O   UNL     1     -11.539 -33.055 -11.813  1.00  0.00    -0.507 OA
ATOM     49  H   UNL     1     -10.637 -33.490 -11.955  1.00  0.00     0.293 HD
ENDBRANCH  34  48
BRANCH  37  50
ATOM     50  O   UNL     1     -14.743 -33.792 -15.311  1.00  0.00    -0.508 OA
ATOM     51  H   UNL     1     -15.752 -33.733 -15.235  1.00  0.00     0.293 HD
ENDBRANCH  37  50
ENDBRANCH  26  27
ENDBRANCH   5  26
BRANCH   4  52
ATOM     52  O   UNL     1      -9.339 -26.536 -14.233  1.00  0.00    -0.384 OA
ATOM     53  H   UNL     1     -10.070 -25.866 -14.285  1.00  0.00     0.211 HD
ENDBRANCH   4  52
TORSDOF 16
ENDMDL
MODEL 2
REMARK VINA RESULT:    37.558      3.106      9.960
REMARK INTER + INTRA:          66.691
REMARK INTER:                  64.709
REMARK INTRA:                   1.982
REMARK UNBOUND:                 4.981
REMARK SMILES C[C@@H]1O[C@H](OC[C@@H]2O[C@@H](Oc3c(-c4ccc(O)c(O)c4)oc4cc(O)cc(O)c4c3=O)[C@@H](O)[C@@H](O)[C@H]2O)[C@@H](O)[C@H](O)[C@H]1O
REMARK SMILES IDX 7 1 36 2 34 3 32 4 9 5 8 6 6 7 5 8 4 9 1 10 2 11 42 12 3 13
REMARK SMILES IDX 40 14 38 15 43 16 41 18 39 20 37 22 35 24 10 26 11 27 12 28
REMARK SMILES IDX 30 29 21 30 29 31 31 32 22 33 27 34 23 35 26 36 24 37 13 38
REMARK SMILES IDX 20 39 14 40 18 41 15 42 16 43 19 44 17 46 28 48 25 50 33 52
REMARK H PARENT 43 17 41 19 39 21 37 23 35 25 19 45 17 47 28 49 25 51 33 53
REMARK Flexibility Score: inf
ROOT
ATOM      1  C   UNL     1     -14.195 -32.585 -13.962  1.00  0.00     0.180 C 
ATOM      2  C   UNL     1     -13.359 -33.651 -13.209  1.00  0.00     0.177 C 
ATOM      3  C   UNL     1     -11.985 -33.061 -12.827  1.00  0.00     0.180 C 
ATOM      4  C   UNL     1     -11.315 -32.449 -14.062  1.00  0.00     0.214 C 
ATOM      5  C   UNL     1     -12.282 -31.489 -14.788  1.00  0.00     0.339 C 
ATOM      6  O   UNL     1     -13.501 -32.136 -15.117  1.00  0.00    -0.332 OA
ENDROOT
BRANCH   1   7
ATOM      7  C   UNL     1     -15.558 -33.124 -14.433  1.00  0.00     0.198 C 
BRANCH   7   8
ATOM      8  O   UNL     1     -15.948 -34.243 -13.654  1.00  0.00    -0.347 OA
BRANCH   8   9
ATOM      9  C   UNL     1     -15.767 -35.478 -14.334  1.00  0.00     0.281 C 
ATOM     10  C   UNL     1     -15.475 -35.965 -11.083  1.00  0.00     0.041 C 
ATOM     11  C   UNL     1     -16.055 -36.698 -12.296  1.00  0.00     0.150 C 
ATOM     12  C   UNL     1     -17.571 -36.402 -12.483  1.00  0.00     0.174 C 
ATOM     13  O   UNL     1     -15.246 -36.457 -13.446  1.00  0.00    -0.344 OA
ATOM     14  C   UNL     1     -17.985 -36.731 -13.927  1.00  0.00     0.179 C 
ATOM     15  C   UNL     1     -17.116 -35.945 -14.945  1.00  0.00     0.202 C 
BRANCH  12  16
ATOM     16  O   UNL     1     -18.349 -37.120 -11.558  1.00  0.00    -0.388 OA
ATOM     17  H   UNL     1     -18.437 -38.052 -11.894  1.00  0.00     0.211 HD
ENDBRANCH  12  16
BRANCH  14  18
ATOM     18  O   UNL     1     -19.351 -36.475 -14.135  1.00  0.00    -0.387 OA
ATOM     19  H   UNL     1     -19.637 -35.796 -13.469  1.00  0.00     0.211 HD
ENDBRANCH  14  18
BRANCH  15  20
ATOM     20  O   UNL     1     -16.904 -36.720 -16.100  1.00  0.00    -0.385 OA
ATOM     21  H   UNL     1     -17.584 -37.444 -16.103  1.00  0.00     0.211 HD
ENDBRANCH  15  20
ENDBRANCH   8   9
ENDBRANCH   7   8
ENDBRANCH   1   7
BRANCH   2  22
ATOM     22  O   UNL     1     -14.027 -34.069 -12.046  1.00  0.00    -0.387 OA
ATOM     23  H   UNL     1     -13.328 -34.364 -11.404  1.00  0.00     0.211 HD
ENDBRANCH   2  22
BRANCH   3  24
ATOM     24  O   UNL     1     -12.130 -32.079 -11.828  1.00  0.00    -0.387 OA
ATOM     25  H   UNL     1     -11.217 -31.741 -11.622  1.00  0.00     0.211 HD
ENDBRANCH   3  24
BRANCH   5  26
ATOM     26  O   UNL     1     -12.528 -30.309 -14.009  1.00  0.00    -0.454 OA
BRANCH  26  27
ATOM     27  C   UNL     1     -12.783 -29.056 -14.580  1.00  0.00     0.214 A 
ATOM     28  C   UNL     1     -12.333 -27.861 -13.985  1.00  0.00     0.180 A 
ATOM     29  C   UNL     1     -13.528 -28.987 -15.762  1.00  0.00     0.239 A 
ATOM     30  O   UNL     1     -12.719 -26.694 -14.484  1.00  0.00    -0.452 OA
ATOM     31  C   UNL     1     -13.856 -27.726 -16.315  1.00  0.00     0.111 A 
ATOM     32  O   UNL     1     -13.936 -30.059 -16.280  1.00  0.00    -0.285 OA
ATOM     33  C   UNL     1     -13.459 -26.578 -15.580  1.00  0.00     0.146 A 
ATOM     34  C   UNL     1     -14.594 -27.541 -17.523  1.00  0.00     0.134 A 
ATOM     35  C   UNL     1     -13.836 -25.302 -16.002  1.00  0.00     0.094 A 
ATOM     36  C   UNL     1     -14.988 -26.252 -17.899  1.00  0.00     0.093 A 
ATOM     37  C   UNL     1     -14.609 -25.136 -17.150  1.00  0.00     0.123 A 
BRANCH  28  38
ATOM     38  C   UNL     1     -11.428 -27.859 -12.813  1.00  0.00     0.025 A 
ATOM     39  C   UNL     1     -10.896 -26.649 -12.345  1.00  0.00     0.062 A 
ATOM     40  C   UNL     1     -11.067 -29.061 -12.180  1.00  0.00     0.016 A 
ATOM     41  C   UNL     1     -10.052 -26.630 -11.225  1.00  0.00     0.158 A 
ATOM     42  C   UNL     1     -10.220 -29.044 -11.068  1.00  0.00     0.051 A 
ATOM     43  C   UNL     1      -9.713 -27.834 -10.583  1.00  0.00     0.157 A 
BRANCH  41  44
ATOM     44  O   UNL     1      -9.553 -25.419 -10.746  1.00  0.00    -0.504 OA
ATOM     45  H   UNL     1      -9.420 -25.257  -9.754  1.00  0.00     0.293 HD
ENDBRANCH  41  44
BRANCH  43  46
ATOM     46  O   UNL     1      -8.876 -27.847  -9.470  1.00  0.00    -0.504 OA
ATOM     47  H   UNL     1      -7.927 -27.492  -9.506  1.00  0.00     0.293 HD
ENDBRANCH  43  46
ENDBRANCH  28  38
BRANCH  34  48
ATOM     48  O   UNL     1     -14.930 -28.580 -18.396  1.00  0.00    -0.507 OA
ATOM     49  H   UNL     1     -15.633 -29.281 -18.205  1.00  0.00     0.293 HD
ENDBRANCH  34  48
BRANCH  37  50
ATOM     50  O   UNL     1     -14.989 -23.855 -17.544  1.00  0.00    -0.508 OA
ATOM     51  H   UNL     1     -15.632 -23.299 -16.992  1.00  0.00     0.293 HD
ENDBRANCH  37  50
ENDBRANCH  26  27
ENDBRANCH   5  26
BRANCH   4  52
ATOM     52  O   UNL     1     -10.142 -31.777 -13.683  1.00  0.00    -0.384 OA
ATOM     53  H   UNL     1     -10.421 -31.012 -13.114  1.00  0.00     0.211 HD
ENDBRANCH   4  52
TORSDOF 16
ENDMDL
MODEL 3
REMARK VINA RESULT:    38.098      4.393      9.249
REMARK INTER + INTRA:          67.579
REMARK INTER:                  66.572
REMARK INTRA:                   1.007
REMARK UNBOUND:                 4.981
REMARK SMILES C[C@@H]1O[C@H](OC[C@@H]2O[C@@H](Oc3c(-c4ccc(O)c(O)c4)oc4cc(O)cc(O)c4c3=O)[C@@H](O)[C@@H](O)[C@H]2O)[C@@H](O)[C@H](O)[C@H]1O
REMARK SMILES IDX 7 1 36 2 34 3 32 4 9 5 8 6 6 7 5 8 4 9 1 10 2 11 42 12 3 13
REMARK SMILES IDX 40 14 38 15 43 16 41 18 39 20 37 22 35 24 10 26 11 27 12 28
REMARK SMILES IDX 30 29 21 30 29 31 31 32 22 33 27 34 23 35 26 36 24 37 13 38
REMARK SMILES IDX 20 39 14 40 18 41 15 42 16 43 19 44 17 46 28 48 25 50 33 52
REMARK H PARENT 43 17 41 19 39 21 37 23 35 25 19 45 17 47 28 49 25 51 33 53
REMARK Flexibility Score: inf
ROOT
ATOM      1  C   UNL     1     -13.051 -31.941 -13.780  1.00  0.00     0.180 C 
ATOM      2  C   UNL     1     -12.580 -32.210 -15.231  1.00  0.00     0.177 C 
ATOM      3  C   UNL     1     -13.006 -33.629 -15.665  1.00  0.00     0.180 C 
ATOM      4  C   UNL     1     -12.548 -34.654 -14.622  1.00  0.00     0.214 C 
ATOM      5  C   UNL     1     -12.983 -34.223 -13.204  1.00  0.00     0.339 C 
ATOM      6  O   UNL     1     -12.519 -32.918 -12.897  1.00  0.00    -0.332 OA
ENDROOT
BRANCH   1   7
ATOM      7  C   UNL     1     -12.605 -30.564 -13.256  1.00  0.00     0.198 C 
BRANCH   7   8
ATOM      8  O   UNL     1     -12.488 -29.639 -14.324  1.00  0.00    -0.347 OA
BRANCH   8   9
ATOM      9  C   UNL     1     -13.353 -28.519 -14.181  1.00  0.00     0.281 C 
ATOM     10  C   UNL     1     -10.736 -28.142 -12.206  1.00  0.00     0.041 C 
ATOM     11  C   UNL     1     -11.630 -27.267 -13.089  1.00  0.00     0.150 C 
ATOM     12  C   UNL     1     -11.036 -27.085 -14.516  1.00  0.00     0.174 C 
ATOM     13  O   UNL     1     -12.974 -27.746 -13.051  1.00  0.00    -0.344 OA
ATOM     14  C   UNL     1     -12.148 -26.646 -15.483  1.00  0.00     0.179 C 
ATOM     15  C   UNL     1     -13.321 -27.662 -15.475  1.00  0.00     0.202 C 
BRANCH  12  16
ATOM     16  O   UNL     1      -9.975 -26.162 -14.513  1.00  0.00    -0.388 OA
ATOM     17  H   UNL     1      -9.678 -26.038 -15.454  1.00  0.00     0.211 HD
ENDBRANCH  12  16
BRANCH  14  18
ATOM     18  O   UNL     1     -11.649 -26.472 -16.786  1.00  0.00    -0.387 OA
ATOM     19  H   UNL     1     -10.954 -27.165 -16.940  1.00  0.00     0.211 HD
ENDBRANCH  14  18
BRANCH  15  20
ATOM     20  O   UNL     1     -14.543 -26.991 -15.664  1.00  0.00    -0.385 OA
ATOM     21  H   UNL     1     -14.425 -26.363 -16.425  1.00  0.00     0.211 HD
ENDBRANCH  15  20
ENDBRANCH   8   9
ENDBRANCH   7   8
ENDBRANCH   1   7
BRANCH   2  22
ATOM     22  O   UNL     1     -13.136 -31.267 -16.112  1.00  0.00    -0.387 OA
ATOM     23  H   UNL     1     -14.107 -31.221 -15.908  1.00  0.00     0.211 HD
ENDBRANCH   2  22
BRANCH   3  24
ATOM     24  O   UNL     1     -14.404 -33.699 -15.820  1.00  0.00    -0.387 OA
ATOM     25  H   UNL     1     -14.741 -32.763 -15.821  1.00  0.00     0.211 HD
ENDBRANCH   3  24
BRANCH   5  26
ATOM     26  O   UNL     1     -14.407 -34.306 -13.048  1.00  0.00    -0.454 OA
BRANCH  26  27
ATOM     27  C   UNL     1     -15.021 -34.988 -11.991  1.00  0.00     0.214 A 
ATOM     28  C   UNL     1     -16.141 -35.820 -12.193  1.00  0.00     0.180 A 
ATOM     29  C   UNL     1     -14.525 -34.820 -10.694  1.00  0.00     0.239 A 
ATOM     30  O   UNL     1     -16.775 -36.332 -11.145  1.00  0.00    -0.452 OA
ATOM     31  C   UNL     1     -15.176 -35.445  -9.604  1.00  0.00     0.111 A 
ATOM     32  O   UNL     1     -13.532 -34.066 -10.522  1.00  0.00    -0.285 OA
ATOM     33  C   UNL     1     -16.365 -36.166  -9.893  1.00  0.00     0.146 A 
ATOM     34  C   UNL     1     -14.746 -35.356  -8.246  1.00  0.00     0.134 A 
ATOM     35  C   UNL     1     -17.124 -36.723  -8.862  1.00  0.00     0.094 A 
ATOM     36  C   UNL     1     -15.547 -35.891  -7.232  1.00  0.00     0.093 A 
ATOM     37  C   UNL     1     -16.727 -36.577  -7.533  1.00  0.00     0.123 A 
BRANCH  28  38
ATOM     38  C   UNL     1     -16.638 -36.154 -13.546  1.00  0.00     0.025 A 
ATOM     39  C   UNL     1     -15.817 -35.942 -14.663  1.00  0.00     0.062 A 
ATOM     40  C   UNL     1     -17.939 -36.653 -13.732  1.00  0.00     0.016 A 
ATOM     41  C   UNL     1     -16.270 -36.271 -15.949  1.00  0.00     0.158 A 
ATOM     42  C   UNL     1     -18.394 -36.974 -15.014  1.00  0.00     0.051 A 
ATOM     43  C   UNL     1     -17.564 -36.790 -16.125  1.00  0.00     0.157 A 
BRANCH  41  44
ATOM     44  O   UNL     1     -15.436 -36.087 -17.051  1.00  0.00    -0.504 OA
ATOM     45  H   UNL     1     -15.070 -35.172 -17.292  1.00  0.00     0.293 HD
ENDBRANCH  41  44
BRANCH  43  46
ATOM     46  O   UNL     1     -18.041 -37.125 -17.390  1.00  0.00    -0.504 OA
ATOM     47  H   UNL     1     -18.887 -36.718 -17.771  1.00  0.00     0.293 HD
ENDBRANCH  43  46
ENDBRANCH  28  38
BRANCH  34  48
ATOM     48  O   UNL     1     -13.532 -34.786  -7.851  1.00  0.00    -0.507 OA
ATOM     49  H   UNL     1     -12.864 -35.233  -7.237  1.00  0.00     0.293 HD
ENDBRANCH  34  48
BRANCH  37  50
ATOM     50  O   UNL     1     -17.508 -37.125  -6.518  1.00  0.00    -0.508 OA
ATOM     51  H   UNL     1     -17.437 -38.103  -6.264  1.00  0.00     0.293 HD
ENDBRANCH  37  50
ENDBRANCH  26  27
ENDBRANCH   5  26
BRANCH   4  52
ATOM     52  O   UNL     1     -13.072 -35.919 -14.937  1.00  0.00    -0.384 OA
ATOM     53  H   UNL     1     -14.057 -35.812 -15.005  1.00  0.00     0.211 HD
ENDBRANCH   4  52
TORSDOF 16
ENDMDL
MODEL 4
REMARK VINA RESULT:    38.207      3.150      9.911
REMARK INTER + INTRA:          67.758
REMARK INTER:                  66.210
REMARK INTRA:                   1.549
REMARK UNBOUND:                 4.981
REMARK SMILES C[C@@H]1O[C@H](OC[C@@H]2O[C@@H](Oc3c(-c4ccc(O)c(O)c4)oc4cc(O)cc(O)c4c3=O)[C@@H](O)[C@@H](O)[C@H]2O)[C@@H](O)[C@H](O)[C@H]1O
REMARK SMILES IDX 7 1 36 2 34 3 32 4 9 5 8 6 6 7 5 8 4 9 1 10 2 11 42 12 3 13
REMARK SMILES IDX 40 14 38 15 43 16 41 18 39 20 37 22 35 24 10 26 11 27 12 28
REMARK SMILES IDX 30 29 21 30 29 31 31 32 22 33 27 34 23 35 26 36 24 37 13 38
REMARK SMILES IDX 20 39 14 40 18 41 15 42 16 43 19 44 17 46 28 48 25 50 33 52
REMARK H PARENT 43 17 41 19 39 21 37 23 35 25 19 45 17 47 28 49 25 51 33 53
REMARK Flexibility Score: inf
ROOT
ATOM      1  C   UNL     1     -14.053 -32.608 -14.381  1.00  0.00     0.180 C 
ATOM      2  C   UNL     1     -13.321 -33.674 -13.529  1.00  0.00     0.177 C 
ATOM      3  C   UNL     1     -12.078 -33.046 -12.861  1.00  0.00     0.180 C 
ATOM      4  C   UNL     1     -11.218 -32.340 -13.916  1.00  0.00     0.214 C 
ATOM      5  C   UNL     1     -12.078 -31.385 -14.772  1.00  0.00     0.339 C 
ATOM      6  O   UNL     1     -13.176 -32.067 -15.359  1.00  0.00    -0.332 OA
ENDROOT
BRANCH   1   7
ATOM      7  C   UNL     1     -15.270 -33.179 -15.130  1.00  0.00     0.198 C 
BRANCH   7   8
ATOM      8  O   UNL     1     -14.892 -34.297 -15.916  1.00  0.00    -0.347 OA
BRANCH   8   9
ATOM      9  C   UNL     1     -15.925 -35.268 -16.027  1.00  0.00     0.281 C 
ATOM     10  C   UNL     1     -13.025 -36.794 -15.637  1.00  0.00     0.041 C 
ATOM     11  C   UNL     1     -14.476 -36.976 -15.185  1.00  0.00     0.150 C 
ATOM     12  C   UNL     1     -14.736 -36.330 -13.793  1.00  0.00     0.174 C 
ATOM     13  O   UNL     1     -15.367 -36.560 -16.219  1.00  0.00    -0.344 OA
ATOM     14  C   UNL     1     -16.244 -36.100 -13.606  1.00  0.00     0.179 C 
ATOM     15  C   UNL     1     -16.818 -35.233 -14.758  1.00  0.00     0.202 C 
BRANCH  12  16
ATOM     16  O   UNL     1     -14.213 -37.124 -12.757  1.00  0.00    -0.388 OA
ATOM     17  H   UNL     1     -13.636 -37.822 -13.171  1.00  0.00     0.211 HD
ENDBRANCH  12  16
BRANCH  14  18
ATOM     18  O   UNL     1     -16.518 -35.515 -12.357  1.00  0.00    -0.387 OA
ATOM     19  H   UNL     1     -17.373 -35.897 -12.025  1.00  0.00     0.211 HD
ENDBRANCH  14  18
BRANCH  15  20
ATOM     20  O   UNL     1     -18.133 -35.634 -15.056  1.00  0.00    -0.385 OA
ATOM     21  H   UNL     1     -18.087 -36.260 -15.826  1.00  0.00     0.211 HD
ENDBRANCH  15  20
ENDBRANCH   8   9
ENDBRANCH   7   8
ENDBRANCH   1   7
BRANCH   2  22
ATOM     22  O   UNL     1     -14.175 -34.182 -12.536  1.00  0.00    -0.387 OA
ATOM     23  H   UNL     1     -13.595 -34.544 -11.815  1.00  0.00     0.211 HD
ENDBRANCH   2  22
BRANCH   3  24
ATOM     24  O   UNL     1     -12.464 -32.126 -11.867  1.00  0.00    -0.387 OA
ATOM     25  H   UNL     1     -13.128 -31.514 -12.283  1.00  0.00     0.211 HD
ENDBRANCH   3  24
BRANCH   5  26
ATOM     26  O   UNL     1     -12.531 -30.261 -14.004  1.00  0.00    -0.454 OA
BRANCH  26  27
ATOM     27  C   UNL     1     -12.778 -29.002 -14.566  1.00  0.00     0.214 A 
ATOM     28  C   UNL     1     -12.324 -27.814 -13.959  1.00  0.00     0.180 A 
ATOM     29  C   UNL     1     -13.519 -28.919 -15.749  1.00  0.00     0.239 A 
ATOM     30  O   UNL     1     -12.703 -26.641 -14.450  1.00  0.00    -0.452 OA
ATOM     31  C   UNL     1     -13.840 -27.653 -16.293  1.00  0.00     0.111 A 
ATOM     32  O   UNL     1     -13.931 -29.985 -16.277  1.00  0.00    -0.285 OA
ATOM     33  C   UNL     1     -13.439 -26.513 -15.547  1.00  0.00     0.146 A 
ATOM     34  C   UNL     1     -14.572 -27.454 -17.502  1.00  0.00     0.134 A 
ATOM     35  C   UNL     1     -13.808 -25.231 -15.960  1.00  0.00     0.094 A 
ATOM     36  C   UNL     1     -14.959 -26.160 -17.869  1.00  0.00     0.093 A 
ATOM     37  C   UNL     1     -14.576 -25.052 -17.109  1.00  0.00     0.123 A 
BRANCH  28  38
ATOM     38  C   UNL     1     -11.423 -27.826 -12.785  1.00  0.00     0.025 A 
ATOM     39  C   UNL     1     -10.602 -26.719 -12.525  1.00  0.00     0.062 A 
ATOM     40  C   UNL     1     -11.355 -28.948 -11.941  1.00  0.00     0.016 A 
ATOM     41  C   UNL     1      -9.757 -26.710 -11.406  1.00  0.00     0.158 A 
ATOM     42  C   UNL     1     -10.508 -28.943 -10.829  1.00  0.00     0.051 A 
ATOM     43  C   UNL     1      -9.710 -27.827 -10.554  1.00  0.00     0.157 A 
BRANCH  41  44
ATOM     44  O   UNL     1      -8.967 -25.593 -11.136  1.00  0.00    -0.504 OA
ATOM     45  H   UNL     1      -9.332 -24.651 -11.226  1.00  0.00     0.293 HD
ENDBRANCH  41  44
BRANCH  43  46
ATOM     46  O   UNL     1      -8.879 -27.847  -9.435  1.00  0.00    -0.504 OA
ATOM     47  H   UNL     1      -8.750 -27.032  -8.847  1.00  0.00     0.293 HD
ENDBRANCH  43  46
ENDBRANCH  28  38
BRANCH  34  48
ATOM     48  O   UNL     1     -14.911 -28.484 -18.385  1.00  0.00    -0.507 OA
ATOM     49  H   UNL     1     -15.829 -28.609 -18.789  1.00  0.00     0.293 HD
ENDBRANCH  34  48
BRANCH  37  50
ATOM     50  O   UNL     1     -14.949 -23.766 -17.494  1.00  0.00    -0.508 OA
ATOM     51  H   UNL     1     -14.265 -23.026 -17.603  1.00  0.00     0.293 HD
ENDBRANCH  37  50
ENDBRANCH  26  27
ENDBRANCH   5  26
BRANCH   4  52
ATOM     52  O   UNL     1     -10.177 -31.637 -13.287  1.00  0.00    -0.384 OA
ATOM     53  H   UNL     1      -9.464 -32.299 -13.090  1.00  0.00     0.211 HD
ENDBRANCH   4  52
TORSDOF 16
ENDMDL
MODEL 5
REMARK VINA RESULT:    38.453      3.014     10.002
REMARK INTER + INTRA:          68.161
REMARK INTER:                  64.704
REMARK INTRA:                   3.458
REMARK UNBOUND:                 4.981
REMARK SMILES C[C@@H]1O[C@H](OC[C@@H]2O[C@@H](Oc3c(-c4ccc(O)c(O)c4)oc4cc(O)cc(O)c4c3=O)[C@@H](O)[C@@H](O)[C@H]2O)[C@@H](O)[C@H](O)[C@H]1O
REMARK SMILES IDX 7 1 36 2 34 3 32 4 9 5 8 6 6 7 5 8 4 9 1 10 2 11 42 12 3 13
REMARK SMILES IDX 40 14 38 15 43 16 41 18 39 20 37 22 35 24 10 26 11 27 12 28
REMARK SMILES IDX 30 29 21 30 29 31 31 32 22 33 27 34 23 35 26 36 24 37 13 38
REMARK SMILES IDX 20 39 14 40 18 41 15 42 16 43 19 44 17 46 28 48 25 50 33 52
REMARK H PARENT 43 17 41 19 39 21 37 23 35 25 19 45 17 47 28 49 25 51 33 53
REMARK Flexibility Score: inf
ROOT
ATOM      1  C   UNL     1     -14.122 -32.492 -13.696  1.00  0.00     0.180 C 
ATOM      2  C   UNL     1     -13.305 -33.580 -12.955  1.00  0.00     0.177 C 
ATOM      3  C   UNL     1     -11.906 -33.033 -12.599  1.00  0.00     0.180 C 
ATOM      4  C   UNL     1     -11.241 -32.444 -13.848  1.00  0.00     0.214 C 
ATOM      5  C   UNL     1     -12.191 -31.457 -14.560  1.00  0.00     0.339 C 
ATOM      6  O   UNL     1     -13.435 -32.067 -14.864  1.00  0.00    -0.332 OA
ENDROOT
BRANCH   1   7
ATOM      7  C   UNL     1     -15.509 -32.989 -14.140  1.00  0.00     0.198 C 
BRANCH   7   8
ATOM      8  O   UNL     1     -15.811 -34.234 -13.531  1.00  0.00    -0.347 OA
BRANCH   8   9
ATOM      9  C   UNL     1     -14.848 -35.239 -13.823  1.00  0.00     0.281 C 
ATOM     10  C   UNL     1     -17.676 -36.666 -12.899  1.00  0.00     0.041 C 
ATOM     11  C   UNL     1     -16.554 -36.915 -13.910  1.00  0.00     0.150 C 
ATOM     12  C   UNL     1     -16.889 -36.318 -15.308  1.00  0.00     0.174 C 
ATOM     13  O   UNL     1     -15.302 -36.504 -13.362  1.00  0.00    -0.344 OA
ATOM     14  C   UNL     1     -15.594 -36.149 -16.119  1.00  0.00     0.179 C 
ATOM     15  C   UNL     1     -14.570 -35.272 -15.350  1.00  0.00     0.202 C 
BRANCH  12  16
ATOM     16  O   UNL     1     -17.816 -37.121 -15.996  1.00  0.00    -0.388 OA
ATOM     17  H   UNL     1     -17.934 -37.961 -15.476  1.00  0.00     0.211 HD
ENDBRANCH  12  16
BRANCH  14  18
ATOM     18  O   UNL     1     -15.856 -35.611 -17.390  1.00  0.00    -0.387 OA
ATOM     19  H   UNL     1     -16.808 -35.324 -17.407  1.00  0.00     0.211 HD
ENDBRANCH  14  18
BRANCH  15  20
ATOM     20  O   UNL     1     -13.260 -35.714 -15.614  1.00  0.00    -0.385 OA
ATOM     21  H   UNL     1     -12.663 -35.299 -14.937  1.00  0.00     0.211 HD
ENDBRANCH  15  20
ENDBRANCH   8   9
ENDBRANCH   7   8
ENDBRANCH   1   7
BRANCH   2  22
ATOM     22  O   UNL     1     -13.964 -33.975 -11.779  1.00  0.00    -0.387 OA
ATOM     23  H   UNL     1     -13.275 -34.021 -11.065  1.00  0.00     0.211 HD
ENDBRANCH   2  22
BRANCH   3  24
ATOM     24  O   UNL     1     -12.003 -32.044 -11.601  1.00  0.00    -0.387 OA
ATOM     25  H   UNL     1     -11.155 -31.525 -11.626  1.00  0.00     0.211 HD
ENDBRANCH   3  24
BRANCH   5  26
ATOM     26  O   UNL     1     -12.386 -30.268 -13.779  1.00  0.00    -0.454 OA
BRANCH  26  27
ATOM     27  C   UNL     1     -12.657 -29.018 -14.348  1.00  0.00     0.214 A 
ATOM     28  C   UNL     1     -12.246 -27.817 -13.737  1.00  0.00     0.180 A 
ATOM     29  C   UNL     1     -13.380 -28.957 -15.544  1.00  0.00     0.239 A 
ATOM     30  O   UNL     1     -12.648 -26.655 -14.237  1.00  0.00    -0.452 OA
ATOM     31  C   UNL     1     -13.725 -27.700 -16.097  1.00  0.00     0.111 A 
ATOM     32  O   UNL     1     -13.754 -30.035 -16.077  1.00  0.00    -0.285 OA
ATOM     33  C   UNL     1     -13.369 -26.549 -15.346  1.00  0.00     0.146 A 
ATOM     34  C   UNL     1     -14.442 -27.524 -17.318  1.00  0.00     0.134 A 
ATOM     35  C   UNL     1     -13.765 -25.278 -15.768  1.00  0.00     0.094 A 
ATOM     36  C   UNL     1     -14.858 -26.242 -17.694  1.00  0.00     0.093 A 
ATOM     37  C   UNL     1     -14.518 -25.122 -16.931  1.00  0.00     0.123 A 
BRANCH  28  38
ATOM     38  C   UNL     1     -11.365 -27.802 -12.547  1.00  0.00     0.025 A 
ATOM     39  C   UNL     1     -10.722 -26.614 -12.170  1.00  0.00     0.062 A 
ATOM     40  C   UNL     1     -11.138 -28.974 -11.805  1.00  0.00     0.016 A 
ATOM     41  C   UNL     1      -9.899 -26.582 -11.035  1.00  0.00     0.158 A 
ATOM     42  C   UNL     1     -10.311 -28.944 -10.678  1.00  0.00     0.051 A 
ATOM     43  C   UNL     1      -9.694 -27.753 -10.285  1.00  0.00     0.157 A 
BRANCH  41  44
ATOM     44  O   UNL     1      -9.288 -25.389 -10.648  1.00  0.00    -0.504 OA
ATOM     45  H   UNL     1      -9.756 -24.729 -10.036  1.00  0.00     0.293 HD
ENDBRANCH  41  44
BRANCH  43  46
ATOM     46  O   UNL     1      -8.880 -27.751  -9.154  1.00  0.00    -0.504 OA
ATOM     47  H   UNL     1      -7.913 -28.052  -9.186  1.00  0.00     0.293 HD
ENDBRANCH  43  46
ENDBRANCH  28  38
BRANCH  34  48
ATOM     48  O   UNL     1     -14.738 -28.564 -18.204  1.00  0.00    -0.507 OA
ATOM     49  H   UNL     1     -15.443 -28.515 -18.927  1.00  0.00     0.293 HD
ENDBRANCH  34  48
BRANCH  37  50
ATOM     50  O   UNL     1     -14.918 -23.847 -17.325  1.00  0.00    -0.508 OA
ATOM     51  H   UNL     1     -14.933 -23.071 -16.674  1.00  0.00     0.293 HD
ENDBRANCH  37  50
ENDBRANCH  26  27
ENDBRANCH   5  26
BRANCH   4  52
ATOM     52  O   UNL     1     -10.041 -31.807 -13.492  1.00  0.00    -0.384 OA
ATOM     53  H   UNL     1      -9.605 -32.380 -12.808  1.00  0.00     0.211 HD
ENDBRANCH   4  52
TORSDOF 16
ENDMDL
MODEL 6
REMARK VINA RESULT:    38.886      4.408      9.360
REMARK INTER + INTRA:          68.873
REMARK INTER:                  69.553
REMARK INTRA:                  -0.680
REMARK UNBOUND:                 4.981
REMARK SMILES C[C@@H]1O[C@H](OC[C@@H]2O[C@@H](Oc3c(-c4ccc(O)c(O)c4)oc4cc(O)cc(O)c4c3=O)[C@@H](O)[C@@H](O)[C@H]2O)[C@@H](O)[C@H](O)[C@H]1O
REMARK SMILES IDX 7 1 36 2 34 3 32 4 9 5 8 6 6 7 5 8 4 9 1 10 2 11 42 12 3 13
REMARK SMILES IDX 40 14 38 15 43 16 41 18 39 20 37 22 35 24 10 26 11 27 12 28
REMARK SMILES IDX 30 29 21 30 29 31 31 32 22 33 27 34 23 35 26 36 24 37 13 38
REMARK SMILES IDX 20 39 14 40 18 41 15 42 16 43 19 44 17 46 28 48 25 50 33 52
REMARK H PARENT 43 17 41 19 39 21 37 23 35 25 19 45 17 47 28 49 25 51 33 53
REMARK Flexibility Score: inf
ROOT
ATOM      1  C   UNL     1     -13.127 -31.840 -14.690  1.00  0.00     0.180 C 
ATOM      2  C   UNL     1     -12.535 -31.692 -13.266  1.00  0.00     0.177 C 
ATOM      3  C   UNL     1     -12.611 -33.044 -12.525  1.00  0.00     0.180 C 
ATOM      4  C   UNL     1     -14.039 -33.598 -12.592  1.00  0.00     0.214 C 
ATOM      5  C   UNL     1     -14.559 -33.595 -14.046  1.00  0.00     0.339 C 
ATOM      6  O   UNL     1     -14.468 -32.303 -14.623  1.00  0.00    -0.332 OA
ENDROOT
BRANCH   1   7
ATOM      7  C   UNL     1     -13.142 -30.513 -15.468  1.00  0.00     0.198 C 
BRANCH   7   8
ATOM      8  O   UNL     1     -12.607 -29.465 -14.677  1.00  0.00    -0.347 OA
BRANCH   8   9
ATOM      9  C   UNL     1     -13.480 -28.347 -14.578  1.00  0.00     0.281 C 
ATOM     10  C   UNL     1     -11.094 -28.077 -12.315  1.00  0.00     0.041 C 
ATOM     11  C   UNL     1     -11.885 -27.157 -13.249  1.00  0.00     0.150 C 
ATOM     12  C   UNL     1     -11.138 -26.915 -14.593  1.00  0.00     0.174 C 
ATOM     13  O   UNL     1     -13.225 -27.628 -13.379  1.00  0.00    -0.344 OA
ATOM     14  C   UNL     1     -12.137 -26.425 -15.655  1.00  0.00     0.179 C 
ATOM     15  C   UNL     1     -13.306 -27.432 -15.820  1.00  0.00     0.202 C 
BRANCH  12  16
ATOM     16  O   UNL     1     -10.083 -26.000 -14.432  1.00  0.00    -0.388 OA
ATOM     17  H   UNL     1     -10.273 -25.212 -15.009  1.00  0.00     0.211 HD
ENDBRANCH  12  16
BRANCH  14  18
ATOM     18  O   UNL     1     -11.498 -26.196 -16.886  1.00  0.00    -0.387 OA
ATOM     19  H   UNL     1     -11.578 -27.025 -17.428  1.00  0.00     0.211 HD
ENDBRANCH  14  18
BRANCH  15  20
ATOM     20  O   UNL     1     -14.499 -26.745 -16.111  1.00  0.00    -0.385 OA
ATOM     21  H   UNL     1     -15.083 -27.364 -16.623  1.00  0.00     0.211 HD
ENDBRANCH  15  20
ENDBRANCH   8   9
ENDBRANCH   7   8
ENDBRANCH   1   7
BRANCH   2  22
ATOM     22  O   UNL     1     -11.196 -31.272 -13.331  1.00  0.00    -0.387 OA
ATOM     23  H   UNL     1     -10.809 -31.667 -14.157  1.00  0.00     0.211 HD
ENDBRANCH   2  22
BRANCH   3  24
ATOM     24  O   UNL     1     -11.715 -33.970 -13.093  1.00  0.00    -0.387 OA
ATOM     25  H   UNL     1     -10.848 -33.859 -12.620  1.00  0.00     0.211 HD
ENDBRANCH   3  24
BRANCH   5  26
ATOM     26  O   UNL     1     -13.863 -34.560 -14.849  1.00  0.00    -0.454 OA
BRANCH  26  27
ATOM     27  C   UNL     1     -14.318 -34.977 -16.106  1.00  0.00     0.214 A 
ATOM     28  C   UNL     1     -15.449 -35.805 -16.251  1.00  0.00     0.180 A 
ATOM     29  C   UNL     1     -13.616 -34.581 -17.249  1.00  0.00     0.239 A 
ATOM     30  O   UNL     1     -15.758 -36.290 -17.447  1.00  0.00    -0.452 OA
ATOM     31  C   UNL     1     -14.019 -35.051 -18.522  1.00  0.00     0.111 A 
ATOM     32  O   UNL     1     -12.600 -33.851 -17.109  1.00  0.00    -0.285 OA
ATOM     33  C   UNL     1     -15.096 -35.975 -18.555  1.00  0.00     0.146 A 
ATOM     34  C   UNL     1     -13.387 -34.696 -19.752  1.00  0.00     0.134 A 
ATOM     35  C   UNL     1     -15.486 -36.566 -19.758  1.00  0.00     0.094 A 
ATOM     36  C   UNL     1     -13.775 -35.334 -20.935  1.00  0.00     0.093 A 
ATOM     37  C   UNL     1     -14.822 -36.259 -20.945  1.00  0.00     0.123 A 
BRANCH  28  38
ATOM     38  C   UNL     1     -16.320 -36.154 -15.106  1.00  0.00     0.025 A 
ATOM     39  C   UNL     1     -15.747 -36.499 -13.874  1.00  0.00     0.062 A 
ATOM     40  C   UNL     1     -17.719 -36.175 -15.246  1.00  0.00     0.016 A 
ATOM     41  C   UNL     1     -16.561 -36.813 -12.776  1.00  0.00     0.158 A 
ATOM     42  C   UNL     1     -18.531 -36.496 -14.155  1.00  0.00     0.051 A 
ATOM     43  C   UNL     1     -17.960 -36.811 -12.918  1.00  0.00     0.157 A 
BRANCH  41  44
ATOM     44  O   UNL     1     -15.985 -37.124 -11.545  1.00  0.00    -0.504 OA
ATOM     45  H   UNL     1     -16.492 -36.999 -10.675  1.00  0.00     0.293 HD
ENDBRANCH  41  44
BRANCH  43  46
ATOM     46  O   UNL     1     -18.794 -37.121 -11.845  1.00  0.00    -0.504 OA
ATOM     47  H   UNL     1     -18.723 -38.000 -11.346  1.00  0.00     0.293 HD
ENDBRANCH  43  46
ENDBRANCH  28  38
BRANCH  34  48
ATOM     48  O   UNL     1     -12.405 -33.707 -19.865  1.00  0.00    -0.507 OA
ATOM     49  H   UNL     1     -11.804 -33.411 -19.108  1.00  0.00     0.293 HD
ENDBRANCH  34  48
BRANCH  37  50
ATOM     50  O   UNL     1     -15.215 -36.873 -22.131  1.00  0.00    -0.508 OA
ATOM     51  H   UNL     1     -15.109 -36.411 -23.027  1.00  0.00     0.293 HD
ENDBRANCH  37  50
ENDBRANCH  26  27
ENDBRANCH   5  26
BRANCH   4  52
ATOM     52  O   UNL     1     -14.071 -34.896 -12.057  1.00  0.00    -0.384 OA
ATOM     53  H   UNL     1     -13.551 -35.473 -12.676  1.00  0.00     0.211 HD
ENDBRANCH   4  52
TORSDOF 16
ENDMDL
MODEL 7
REMARK VINA RESULT:    39.293      2.454      9.364
REMARK INTER + INTRA:          69.542
REMARK INTER:                  63.819
REMARK INTRA:                   5.723
REMARK UNBOUND:                 4.981
REMARK SMILES C[C@@H]1O[C@H](OC[C@@H]2O[C@@H](Oc3c(-c4ccc(O)c(O)c4)oc4cc(O)cc(O)c4c3=O)[C@@H](O)[C@@H](O)[C@H]2O)[C@@H](O)[C@H](O)[C@H]1O
REMARK SMILES IDX 7 1 36 2 34 3 32 4 9 5 8 6 6 7 5 8 4 9 1 10 2 11 42 12 3 13
REMARK SMILES IDX 40 14 38 15 43 16 41 18 39 20 37 22 35 24 10 26 11 27 12 28
REMARK SMILES IDX 30 29 21 30 29 31 31 32 22 33 27 34 23 35 26 36 24 37 13 38
REMARK SMILES IDX 20 39 14 40 18 41 15 42 16 43 19 44 17 46 28 48 25 50 33 52
REMARK H PARENT 43 17 41 19 39 21 37 23 35 25 19 45 17 47 28 49 25 51 33 53
REMARK Flexibility Score: inf
ROOT
ATOM      1  C   UNL     1     -13.208 -28.755 -15.616  1.00  0.00     0.180 C 
ATOM      2  C   UNL     1     -14.272 -27.650 -15.836  1.00  0.00     0.177 C 
ATOM      3  C   UNL     1     -13.754 -26.307 -15.278  1.00  0.00     0.180 C 
ATOM      4  C   UNL     1     -13.281 -26.489 -13.831  1.00  0.00     0.214 C 
ATOM      5  C   UNL     1     -12.311 -27.685 -13.720  1.00  0.00     0.339 C 
ATOM      6  O   UNL     1     -12.893 -28.871 -14.235  1.00  0.00    -0.332 OA
ENDROOT
BRANCH   1   7
ATOM      7  C   UNL     1     -13.682 -30.140 -16.091  1.00  0.00     0.198 C 
BRANCH   7   8
ATOM      8  O   UNL     1     -13.490 -31.109 -15.074  1.00  0.00    -0.347 OA
BRANCH   8   9
ATOM      9  C   UNL     1     -12.966 -32.334 -15.572  1.00  0.00     0.281 C 
ATOM     10  C   UNL     1     -11.951 -31.890 -12.463  1.00  0.00     0.041 C 
ATOM     11  C   UNL     1     -12.403 -33.048 -13.358  1.00  0.00     0.150 C 
ATOM     12  C   UNL     1     -13.923 -33.341 -13.204  1.00  0.00     0.174 C 
ATOM     13  O   UNL     1     -11.962 -32.831 -14.698  1.00  0.00    -0.344 OA
ATOM     14  C   UNL     1     -14.421 -34.130 -14.426  1.00  0.00     0.179 C 
ATOM     15  C   UNL     1     -14.113 -33.366 -15.742  1.00  0.00     0.202 C 
BRANCH  12  16
ATOM     16  O   UNL     1     -14.190 -34.035 -12.011  1.00  0.00    -0.388 OA
ATOM     17  H   UNL     1     -13.317 -34.264 -11.591  1.00  0.00     0.211 HD
ENDBRANCH  12  16
BRANCH  14  18
ATOM     18  O   UNL     1     -15.794 -34.414 -14.324  1.00  0.00    -0.387 OA
ATOM     19  H   UNL     1     -16.071 -34.876 -15.158  1.00  0.00     0.211 HD
ENDBRANCH  14  18
BRANCH  15  20
ATOM     20  O   UNL     1     -13.823 -34.276 -16.774  1.00  0.00    -0.385 OA
ATOM     21  H   UNL     1     -14.608 -34.300 -17.381  1.00  0.00     0.211 HD
ENDBRANCH  15  20
ENDBRANCH   8   9
ENDBRANCH   7   8
ENDBRANCH   1   7
BRANCH   2  22
ATOM     22  O   UNL     1     -14.557 -27.507 -17.204  1.00  0.00    -0.387 OA
ATOM     23  H   UNL     1     -14.682 -26.536 -17.372  1.00  0.00     0.211 HD
ENDBRANCH   2  22
BRANCH   3  24
ATOM     24  O   UNL     1     -12.694 -25.820 -16.068  1.00  0.00    -0.387 OA
ATOM     25  H   UNL     1     -12.270 -26.610 -16.497  1.00  0.00     0.211 HD
ENDBRANCH   3  24
BRANCH   5  26
ATOM     26  O   UNL     1     -11.063 -27.406 -14.373  1.00  0.00    -0.454 OA
BRANCH  26  27
ATOM     27  C   UNL     1     -10.506 -26.123 -14.438  1.00  0.00     0.214 A 
ATOM     28  C   UNL     1      -9.879 -25.526 -13.325  1.00  0.00     0.180 A 
ATOM     29  C   UNL     1     -10.595 -25.403 -15.633  1.00  0.00     0.239 A 
ATOM     30  O   UNL     1      -9.493 -24.258 -13.392  1.00  0.00    -0.452 OA
ATOM     31  C   UNL     1     -10.101 -24.078 -15.697  1.00  0.00     0.111 A 
ATOM     32  O   UNL     1     -11.167 -25.940 -16.618  1.00  0.00    -0.285 OA
ATOM     33  C   UNL     1      -9.595 -23.522 -14.492  1.00  0.00     0.146 A 
ATOM     34  C   UNL     1     -10.125 -23.262 -16.868  1.00  0.00     0.134 A 
ATOM     35  C   UNL     1      -9.187 -22.188 -14.445  1.00  0.00     0.094 A 
ATOM     36  C   UNL     1      -9.745 -21.918 -16.779  1.00  0.00     0.093 A 
ATOM     37  C   UNL     1      -9.272 -21.381 -15.579  1.00  0.00     0.123 A 
BRANCH  28  38
ATOM     38  C   UNL     1      -9.626 -26.272 -12.072  1.00  0.00     0.025 A 
ATOM     39  C   UNL     1      -9.395 -25.572 -10.879  1.00  0.00     0.062 A 
ATOM     40  C   UNL     1      -9.582 -27.677 -12.067  1.00  0.00     0.016 A 
ATOM     41  C   UNL     1      -9.172 -26.267  -9.681  1.00  0.00     0.158 A 
ATOM     42  C   UNL     1      -9.352 -28.370 -10.875  1.00  0.00     0.051 A 
ATOM     43  C   UNL     1      -9.151 -27.672  -9.679  1.00  0.00     0.157 A 
BRANCH  41  44
ATOM     44  O   UNL     1      -8.974 -25.564  -8.492  1.00  0.00    -0.504 OA
ATOM     45  H   UNL     1      -9.752 -25.302  -7.897  1.00  0.00     0.293 HD
ENDBRANCH  41  44
BRANCH  43  46
ATOM     46  O   UNL     1      -8.930 -28.389  -8.505  1.00  0.00    -0.504 OA
ATOM     47  H   UNL     1      -8.170 -29.053  -8.416  1.00  0.00     0.293 HD
ENDBRANCH  43  46
ENDBRANCH  28  38
BRANCH  34  48
ATOM     48  O   UNL     1     -10.480 -23.731 -18.136  1.00  0.00    -0.507 OA
ATOM     49  H   UNL     1     -11.357 -24.184 -18.352  1.00  0.00     0.293 HD
ENDBRANCH  34  48
BRANCH  37  50
ATOM     50  O   UNL     1      -8.876 -20.048 -15.506  1.00  0.00    -0.508 OA
ATOM     51  H   UNL     1      -8.662 -19.512 -16.339  1.00  0.00     0.293 HD
ENDBRANCH  37  50
ENDBRANCH  26  27
ENDBRANCH   5  26
BRANCH   4  52
ATOM     52  O   UNL     1     -12.666 -25.309 -13.381  1.00  0.00    -0.384 OA
ATOM     53  H   UNL     1     -12.069 -25.000 -14.111  1.00  0.00     0.211 HD
ENDBRANCH   4  52
TORSDOF 16
ENDMDL
