MODEL 1
REMARK VINA RESULT:    -4.440      0.000      0.000
REMARK INTER + INTRA:          -7.102
REMARK INTER:                  -6.257
REMARK INTRA:                  -0.845
REMARK UNBOUND:                -0.845
REMARK SMILES O=C(C=Cc1ccc(O)cc1)CC(=O)C=Cc1ccc(O)cc1
REMARK SMILES IDX 12 1 2 2 1 3 3 4 4 5 5 6 6 7 7 8 8 9 11 10 10 11 9 12 13 14
REMARK SMILES IDX 14 15 15 16 16 17 17 18 18 19 23 20 19 21 22 22 20 23 21 24
REMARK H PARENT 9 13 21 25
REMARK Flexibility Score: inf
ROOT
ATOM      1  C   UNL     1     -26.490  -4.585 -29.882  1.00  0.00     0.160 C 
ENDROOT
BRANCH   1   2
ATOM      2  C   UNL     1     -26.995  -5.373 -28.707  1.00  0.00     0.163 C 
ATOM      3  O   UNL     1     -26.734  -4.972 -27.540  1.00  0.00    -0.294 OA
BRANCH   2   4
ATOM      4  C   UNL     1     -27.691  -6.660 -28.931  1.00  0.00     0.048 C 
ATOM      5  C   UNL     1     -29.023  -6.829 -28.971  1.00  0.00     0.012 C 
BRANCH   5   6
ATOM      6  C   UNL     1     -30.024  -5.742 -28.983  1.00  0.00    -0.025 A 
ATOM      7  C   UNL     1     -30.872  -5.577 -27.878  1.00  0.00     0.012 A 
ATOM      8  C   UNL     1     -31.857  -4.586 -27.886  1.00  0.00     0.047 A 
ATOM      9  C   UNL     1     -32.020  -3.763 -29.010  1.00  0.00     0.115 A 
ATOM     10  C   UNL     1     -30.210  -4.934 -30.120  1.00  0.00     0.012 A 
ATOM     11  C   UNL     1     -31.196  -3.943 -30.125  1.00  0.00     0.047 A 
BRANCH   9  12
ATOM     12  O   UNL     1     -32.997  -2.770 -29.029  1.00  0.00    -0.508 OA
ATOM     13  H   UNL     1     -33.343  -2.386 -29.900  1.00  0.00     0.293 HD
ENDBRANCH   9  12
ENDBRANCH   5   6
ENDBRANCH   2   4
ENDBRANCH   1   2
BRANCH   1  14
ATOM     14  C   UNL     1     -24.981  -4.554 -29.952  1.00  0.00     0.163 C 
ATOM     15  O   UNL     1     -24.335  -5.624 -30.125  1.00  0.00    -0.294 OA
BRANCH  14  16
ATOM     16  C   UNL     1     -24.217  -3.294 -29.832  1.00  0.00     0.048 C 
ATOM     17  C   UNL     1     -23.874  -2.749 -28.654  1.00  0.00     0.012 C 
BRANCH  17  18
ATOM     18  C   UNL     1     -23.117  -1.479 -28.528  1.00  0.00    -0.025 A 
ATOM     19  C   UNL     1     -22.028  -1.330 -27.646  1.00  0.00     0.012 A 
ATOM     20  C   UNL     1     -23.528  -0.372 -29.290  1.00  0.00     0.012 A 
ATOM     21  C   UNL     1     -21.353  -0.107 -27.554  1.00  0.00     0.047 A 
ATOM     22  C   UNL     1     -22.852   0.848 -29.196  1.00  0.00     0.047 A 
ATOM     23  C   UNL     1     -21.761   0.983 -28.329  1.00  0.00     0.115 A 
BRANCH  23  24
ATOM     24  O   UNL     1     -21.079   2.192 -28.227  1.00  0.00    -0.508 OA
ATOM     25  H   UNL     1     -20.462   2.389 -27.447  1.00  0.00     0.293 HD
ENDBRANCH  23  24
ENDBRANCH  17  18
ENDBRANCH  14  16
ENDBRANCH   1  14
TORSDOF 8
ENDMDL
MODEL 2
REMARK VINA RESULT:    -4.153      2.292      8.754
REMARK INTER + INTRA:          -6.698
REMARK INTER:                  -6.895
REMARK INTRA:                   0.196
REMARK UNBOUND:                -0.845
REMARK SMILES O=C(C=Cc1ccc(O)cc1)CC(=O)C=Cc1ccc(O)cc1
REMARK SMILES IDX 12 1 2 2 1 3 3 4 4 5 5 6 6 7 7 8 8 9 11 10 10 11 9 12 13 14
REMARK SMILES IDX 14 15 15 16 16 17 17 18 18 19 23 20 19 21 22 22 20 23 21 24
REMARK H PARENT 9 13 21 25
REMARK Flexibility Score: inf
ROOT
ATOM      1  C   UNL     1     -23.556  -4.625 -30.125  1.00  0.00     0.160 C 
ENDROOT
BRANCH   1   2
ATOM      2  C   UNL     1     -24.534  -3.608 -29.607  1.00  0.00     0.163 C 
ATOM      3  O   UNL     1     -25.447  -3.979 -28.821  1.00  0.00    -0.294 OA
BRANCH   2   4
ATOM      4  C   UNL     1     -24.481  -2.217 -30.110  1.00  0.00     0.048 C 
ATOM      5  C   UNL     1     -23.790  -1.212 -29.550  1.00  0.00     0.012 C 
BRANCH   5   6
ATOM      6  C   UNL     1     -22.817  -1.352 -28.445  1.00  0.00    -0.025 A 
ATOM      7  C   UNL     1     -23.280  -1.661 -27.158  1.00  0.00     0.012 A 
ATOM      8  C   UNL     1     -22.385  -1.753 -26.089  1.00  0.00     0.047 A 
ATOM      9  C   UNL     1     -21.018  -1.515 -26.292  1.00  0.00     0.115 A 
ATOM     10  C   UNL     1     -21.450  -1.085 -28.639  1.00  0.00     0.012 A 
ATOM     11  C   UNL     1     -20.556  -1.178 -27.568  1.00  0.00     0.047 A 
BRANCH   9  12
ATOM     12  O   UNL     1     -20.116  -1.606 -25.235  1.00  0.00    -0.508 OA
ATOM     13  H   UNL     1     -20.331  -2.138 -24.400  1.00  0.00     0.293 HD
ENDBRANCH   9  12
ENDBRANCH   5   6
ENDBRANCH   2   4
ENDBRANCH   1   2
BRANCH   1  14
ATOM     14  C   UNL     1     -24.081  -6.038 -30.019  1.00  0.00     0.163 C 
ATOM     15  O   UNL     1     -23.280  -6.997 -29.841  1.00  0.00    -0.294 OA
BRANCH  14  16
ATOM     16  C   UNL     1     -25.524  -6.346 -30.109  1.00  0.00     0.048 C 
ATOM     17  C   UNL     1     -26.230  -6.877 -29.098  1.00  0.00     0.012 C 
BRANCH  17  18
ATOM     18  C   UNL     1     -27.676  -7.198 -29.187  1.00  0.00    -0.025 A 
ATOM     19  C   UNL     1     -28.148  -8.473 -29.557  1.00  0.00     0.012 A 
ATOM     20  C   UNL     1     -28.609  -6.178 -28.929  1.00  0.00     0.012 A 
ATOM     21  C   UNL     1     -29.522  -8.723 -29.639  1.00  0.00     0.047 A 
ATOM     22  C   UNL     1     -29.981  -6.432 -29.012  1.00  0.00     0.047 A 
ATOM     23  C   UNL     1     -30.441  -7.707 -29.365  1.00  0.00     0.115 A 
BRANCH  23  24
ATOM     24  O   UNL     1     -31.806  -7.972 -29.450  1.00  0.00    -0.508 OA
ATOM     25  H   UNL     1     -32.238  -8.704 -28.899  1.00  0.00     0.293 HD
ENDBRANCH  23  24
ENDBRANCH  17  18
ENDBRANCH  14  16
ENDBRANCH   1  14
TORSDOF 8
ENDMDL
MODEL 3
REMARK VINA RESULT:    -4.124      8.704     10.857
REMARK INTER + INTRA:          -6.657
REMARK INTER:                  -6.494
REMARK INTRA:                  -0.163
REMARK UNBOUND:                -0.845
REMARK SMILES O=C(C=Cc1ccc(O)cc1)CC(=O)C=Cc1ccc(O)cc1
REMARK SMILES IDX 12 1 2 2 1 3 3 4 4 5 5 6 6 7 7 8 8 9 11 10 10 11 9 12 13 14
REMARK SMILES IDX 14 15 15 16 16 17 17 18 18 19 23 20 19 21 22 22 20 23 21 24
REMARK H PARENT 9 13 21 25
REMARK Flexibility Score: inf
ROOT
ATOM      1  C   UNL     1     -21.359  -4.207 -21.097  1.00  0.00     0.160 C 
ENDROOT
BRANCH   1   2
ATOM      2  C   UNL     1     -21.330  -5.248 -20.014  1.00  0.00     0.163 C 
ATOM      3  O   UNL     1     -20.266  -5.426 -19.361  1.00  0.00    -0.294 OA
BRANCH   2   4
ATOM      4  C   UNL     1     -22.506  -6.122 -19.804  1.00  0.00     0.048 C 
ATOM      5  C   UNL     1     -23.055  -6.417 -18.615  1.00  0.00     0.012 C 
BRANCH   5   6
ATOM      6  C   UNL     1     -22.702  -5.782 -17.327  1.00  0.00    -0.025 A 
ATOM      7  C   UNL     1     -21.572  -6.229 -16.628  1.00  0.00     0.012 A 
ATOM      8  C   UNL     1     -21.245  -5.676 -15.387  1.00  0.00     0.047 A 
ATOM      9  C   UNL     1     -22.059  -4.684 -14.822  1.00  0.00     0.115 A 
ATOM     10  C   UNL     1     -23.532  -4.808 -16.743  1.00  0.00     0.012 A 
ATOM     11  C   UNL     1     -23.203  -4.256 -15.501  1.00  0.00     0.047 A 
BRANCH   9  12
ATOM     12  O   UNL     1     -21.742  -4.123 -13.586  1.00  0.00    -0.508 OA
ATOM     13  H   UNL     1     -22.387  -3.508 -13.104  1.00  0.00     0.293 HD
ENDBRANCH   9  12
ENDBRANCH   5   6
ENDBRANCH   2   4
ENDBRANCH   1   2
BRANCH   1  14
ATOM     14  C   UNL     1     -20.584  -4.627 -22.324  1.00  0.00     0.163 C 
ATOM     15  O   UNL     1     -19.876  -5.671 -22.297  1.00  0.00    -0.294 OA
BRANCH  14  16
ATOM     16  C   UNL     1     -20.631  -3.852 -23.582  1.00  0.00     0.048 C 
ATOM     17  C   UNL     1     -21.702  -3.144 -23.974  1.00  0.00     0.012 C 
BRANCH  17  18
ATOM     18  C   UNL     1     -21.757  -2.374 -25.241  1.00  0.00    -0.025 A 
ATOM     19  C   UNL     1     -20.601  -1.888 -25.885  1.00  0.00     0.012 A 
ATOM     20  C   UNL     1     -23.015  -2.086 -25.798  1.00  0.00     0.012 A 
ATOM     21  C   UNL     1     -20.707  -1.156 -27.072  1.00  0.00     0.047 A 
ATOM     22  C   UNL     1     -23.117  -1.353 -26.985  1.00  0.00     0.047 A 
ATOM     23  C   UNL     1     -21.962  -0.889 -27.627  1.00  0.00     0.115 A 
BRANCH  23  24
ATOM     24  O   UNL     1     -22.050  -0.160 -28.809  1.00  0.00    -0.508 OA
ATOM     25  H   UNL     1     -22.529   0.733 -28.847  1.00  0.00     0.293 HD
ENDBRANCH  23  24
ENDBRANCH  17  18
ENDBRANCH  14  16
ENDBRANCH   1  14
TORSDOF 8
ENDMDL
MODEL 4
REMARK VINA RESULT:    -3.269     11.018     13.639
REMARK INTER + INTRA:          -5.451
REMARK INTER:                  -4.688
REMARK INTRA:                  -0.764
REMARK UNBOUND:                -0.845
REMARK SMILES O=C(C=Cc1ccc(O)cc1)CC(=O)C=Cc1ccc(O)cc1
REMARK SMILES IDX 12 1 2 2 1 3 3 4 4 5 5 6 6 7 7 8 8 9 11 10 10 11 9 12 13 14
REMARK SMILES IDX 14 15 15 16 16 17 17 18 18 19 23 20 19 21 22 22 20 23 21 24
REMARK H PARENT 9 13 21 25
REMARK Flexibility Score: inf
ROOT
ATOM      1  C   UNL     1     -21.929  -4.941 -19.371  1.00  0.00     0.160 C 
ENDROOT
BRANCH   1   2
ATOM      2  C   UNL     1     -21.504  -5.833 -18.239  1.00  0.00     0.163 C 
ATOM      3  O   UNL     1     -20.274  -6.013 -18.027  1.00  0.00    -0.294 OA
BRANCH   2   4
ATOM      4  C   UNL     1     -22.525  -6.572 -17.462  1.00  0.00     0.048 C 
ATOM      5  C   UNL     1     -22.650  -6.556 -16.126  1.00  0.00     0.012 C 
BRANCH   5   6
ATOM      6  C   UNL     1     -21.913  -5.661 -15.208  1.00  0.00    -0.025 A 
ATOM      7  C   UNL     1     -20.777  -6.144 -14.543  1.00  0.00     0.012 A 
ATOM      8  C   UNL     1     -20.092  -5.332 -13.635  1.00  0.00     0.047 A 
ATOM      9  C   UNL     1     -20.551  -4.035 -13.365  1.00  0.00     0.115 A 
ATOM     10  C   UNL     1     -22.387  -4.370 -14.911  1.00  0.00     0.012 A 
ATOM     11  C   UNL     1     -21.700  -3.560 -14.003  1.00  0.00     0.047 A 
BRANCH   9  12
ATOM     12  O   UNL     1     -19.875  -3.215 -12.464  1.00  0.00    -0.508 OA
ATOM     13  H   UNL     1     -20.219  -3.070 -11.521  1.00  0.00     0.293 HD
ENDBRANCH   9  12
ENDBRANCH   5   6
ENDBRANCH   2   4
ENDBRANCH   1   2
BRANCH   1  14
ATOM     14  C   UNL     1     -20.876  -4.833 -20.449  1.00  0.00     0.163 C 
ATOM     15  O   UNL     1     -20.079  -3.854 -20.456  1.00  0.00    -0.294 OA
BRANCH  14  16
ATOM     16  C   UNL     1     -20.734  -5.852 -21.510  1.00  0.00     0.048 C 
ATOM     17  C   UNL     1     -21.609  -6.853 -21.693  1.00  0.00     0.012 C 
BRANCH  17  18
ATOM     18  C   UNL     1     -21.465  -7.885 -22.750  1.00  0.00    -0.025 A 
ATOM     19  C   UNL     1     -20.273  -8.061 -23.481  1.00  0.00     0.012 A 
ATOM     20  C   UNL     1     -22.574  -8.692 -23.057  1.00  0.00     0.012 A 
ATOM     21  C   UNL     1     -20.191  -9.040 -24.477  1.00  0.00     0.047 A 
ATOM     22  C   UNL     1     -22.488  -9.670 -24.053  1.00  0.00     0.047 A 
ATOM     23  C   UNL     1     -21.294  -9.848 -24.764  1.00  0.00     0.115 A 
BRANCH  23  24
ATOM     24  O   UNL     1     -21.196 -10.819 -25.757  1.00  0.00    -0.508 OA
ATOM     25  H   UNL     1     -20.801 -10.609 -26.666  1.00  0.00     0.293 HD
ENDBRANCH  23  24
ENDBRANCH  17  18
ENDBRANCH  14  16
ENDBRANCH   1  14
TORSDOF 8
ENDMDL
MODEL 5
REMARK VINA RESULT:    -2.685     11.337     13.768
REMARK INTER + INTRA:          -4.628
REMARK INTER:                  -5.286
REMARK INTRA:                   0.657
REMARK UNBOUND:                -0.845
REMARK SMILES O=C(C=Cc1ccc(O)cc1)CC(=O)C=Cc1ccc(O)cc1
REMARK SMILES IDX 12 1 2 2 1 3 3 4 4 5 5 6 6 7 7 8 8 9 11 10 10 11 9 12 13 14
REMARK SMILES IDX 14 15 15 16 16 17 17 18 18 19 23 20 19 21 22 22 20 23 21 24
REMARK H PARENT 9 13 21 25
REMARK Flexibility Score: inf
ROOT
ATOM      1  C   UNL     1     -22.494  -6.140 -17.442  1.00  0.00     0.160 C 
ENDROOT
BRANCH   1   2
ATOM      2  C   UNL     1     -21.020  -6.155 -17.155  1.00  0.00     0.163 C 
ATOM      3  O   UNL     1     -20.220  -5.716 -18.025  1.00  0.00    -0.294 OA
BRANCH   2   4
ATOM      4  C   UNL     1     -20.520  -6.783 -15.910  1.00  0.00     0.048 C 
ATOM      5  C   UNL     1     -20.606  -6.250 -14.681  1.00  0.00     0.012 C 
BRANCH   5   6
ATOM      6  C   UNL     1     -21.371  -5.036 -14.324  1.00  0.00    -0.025 A 
ATOM      7  C   UNL     1     -20.992  -4.292 -13.198  1.00  0.00     0.012 A 
ATOM      8  C   UNL     1     -21.729  -3.168 -12.815  1.00  0.00     0.047 A 
ATOM      9  C   UNL     1     -22.866  -2.789 -13.541  1.00  0.00     0.115 A 
ATOM     10  C   UNL     1     -22.530  -4.671 -15.033  1.00  0.00     0.012 A 
ATOM     11  C   UNL     1     -23.265  -3.545 -14.648  1.00  0.00     0.047 A 
BRANCH   9  12
ATOM     12  O   UNL     1     -23.607  -1.669 -13.170  1.00  0.00    -0.508 OA
ATOM     13  H   UNL     1     -24.027  -1.060 -13.863  1.00  0.00     0.293 HD
ENDBRANCH   9  12
ENDBRANCH   5   6
ENDBRANCH   2   4
ENDBRANCH   1   2
BRANCH   1  14
ATOM     14  C   UNL     1     -22.802  -5.752 -18.870  1.00  0.00     0.163 C 
ATOM     15  O   UNL     1     -23.220  -4.591 -19.131  1.00  0.00    -0.294 OA
BRANCH  14  16
ATOM     16  C   UNL     1     -22.620  -6.694 -19.994  1.00  0.00     0.048 C 
ATOM     17  C   UNL     1     -21.752  -6.488 -20.997  1.00  0.00     0.012 C 
BRANCH  17  18
ATOM     18  C   UNL     1     -21.574  -7.426 -22.133  1.00  0.00    -0.025 A 
ATOM     19  C   UNL     1     -22.608  -8.267 -22.591  1.00  0.00     0.012 A 
ATOM     20  C   UNL     1     -20.314  -7.503 -22.750  1.00  0.00     0.012 A 
ATOM     21  C   UNL     1     -22.387  -9.144 -23.659  1.00  0.00     0.047 A 
ATOM     22  C   UNL     1     -20.096  -8.380 -23.818  1.00  0.00     0.047 A 
ATOM     23  C   UNL     1     -21.134  -9.201 -24.276  1.00  0.00     0.115 A 
BRANCH  23  24
ATOM     24  O   UNL     1     -20.930 -10.077 -25.338  1.00  0.00    -0.508 OA
ATOM     25  H   UNL     1     -21.678 -10.316 -25.980  1.00  0.00     0.293 HD
ENDBRANCH  23  24
ENDBRANCH  17  18
ENDBRANCH  14  16
ENDBRANCH   1  14
TORSDOF 8
ENDMDL
MODEL 6
REMARK VINA RESULT:    -2.540      6.738     10.466
REMARK INTER + INTRA:          -4.424
REMARK INTER:                  -4.570
REMARK INTRA:                   0.145
REMARK UNBOUND:                -0.845
REMARK SMILES O=C(C=Cc1ccc(O)cc1)CC(=O)C=Cc1ccc(O)cc1
REMARK SMILES IDX 12 1 2 2 1 3 3 4 4 5 5 6 6 7 7 8 8 9 11 10 10 11 9 12 13 14
REMARK SMILES IDX 14 15 15 16 16 17 17 18 18 19 23 20 19 21 22 22 20 23 21 24
REMARK H PARENT 9 13 21 25
REMARK Flexibility Score: inf
ROOT
ATOM      1  C   UNL     1     -21.651  -2.789 -23.828  1.00  0.00     0.160 C 
ENDROOT
BRANCH   1   2
ATOM      2  C   UNL     1     -21.410  -2.374 -25.252  1.00  0.00     0.163 C 
ATOM      3  O   UNL     1     -20.435  -1.620 -25.516  1.00  0.00    -0.294 OA
BRANCH   2   4
ATOM      4  C   UNL     1     -22.378  -2.762 -26.303  1.00  0.00     0.048 C 
ATOM      5  C   UNL     1     -22.646  -2.056 -27.413  1.00  0.00     0.012 C 
BRANCH   5   6
ATOM      6  C   UNL     1     -21.897  -0.868 -27.875  1.00  0.00    -0.025 A 
ATOM      7  C   UNL     1     -22.503   0.395 -27.810  1.00  0.00     0.012 A 
ATOM      8  C   UNL     1     -21.832   1.525 -28.284  1.00  0.00     0.047 A 
ATOM      9  C   UNL     1     -20.555   1.401 -28.849  1.00  0.00     0.115 A 
ATOM     10  C   UNL     1     -20.628  -0.992 -28.470  1.00  0.00     0.012 A 
ATOM     11  C   UNL     1     -19.959   0.140 -28.943  1.00  0.00     0.047 A 
BRANCH   9  12
ATOM     12  O   UNL     1     -19.875   2.521 -29.322  1.00  0.00    -0.508 OA
ATOM     13  H   UNL     1     -19.605   2.603 -30.296  1.00  0.00     0.293 HD
ENDBRANCH   9  12
ENDBRANCH   5   6
ENDBRANCH   2   4
ENDBRANCH   1   2
BRANCH   1  14
ATOM     14  C   UNL     1     -20.666  -3.835 -23.356  1.00  0.00     0.163 C 
ATOM     15  O   UNL     1     -19.897  -4.396 -24.184  1.00  0.00    -0.294 OA
BRANCH  14  16
ATOM     16  C   UNL     1     -20.562  -4.227 -21.935  1.00  0.00     0.048 C 
ATOM     17  C   UNL     1     -21.501  -4.943 -21.296  1.00  0.00     0.012 C 
BRANCH  17  18
ATOM     18  C   UNL     1     -21.406  -5.329 -19.866  1.00  0.00    -0.025 A 
ATOM     19  C   UNL     1     -20.180  -5.374 -19.173  1.00  0.00     0.012 A 
ATOM     20  C   UNL     1     -22.581  -5.701 -19.191  1.00  0.00     0.012 A 
ATOM     21  C   UNL     1     -20.141  -5.757 -17.827  1.00  0.00     0.047 A 
ATOM     22  C   UNL     1     -22.539  -6.083 -17.846  1.00  0.00     0.047 A 
ATOM     23  C   UNL     1     -21.318  -6.109 -17.161  1.00  0.00     0.115 A 
BRANCH  23  24
ATOM     24  O   UNL     1     -21.263  -6.487 -15.822  1.00  0.00    -0.508 OA
ATOM     25  H   UNL     1     -21.161  -5.801 -15.081  1.00  0.00     0.293 HD
ENDBRANCH  23  24
ENDBRANCH  17  18
ENDBRANCH  14  16
ENDBRANCH   1  14
TORSDOF 8
ENDMDL
MODEL 7
REMARK VINA RESULT:    -2.479      1.664      8.636
REMARK INTER + INTRA:          -4.338
REMARK INTER:                  -4.080
REMARK INTRA:                  -0.258
REMARK UNBOUND:                -0.845
REMARK SMILES O=C(C=Cc1ccc(O)cc1)CC(=O)C=Cc1ccc(O)cc1
REMARK SMILES IDX 12 1 2 2 1 3 3 4 4 5 5 6 6 7 7 8 8 9 11 10 10 11 9 12 13 14
REMARK SMILES IDX 14 15 15 16 16 17 17 18 18 19 23 20 19 21 22 22 20 23 21 24
REMARK H PARENT 9 13 21 25
REMARK Flexibility Score: inf
ROOT
ATOM      1  C   UNL     1     -25.398  -5.259 -30.081  1.00  0.00     0.160 C 
ENDROOT
BRANCH   1   2
ATOM      2  C   UNL     1     -24.455  -4.106 -29.886  1.00  0.00     0.163 C 
ATOM      3  O   UNL     1     -23.301  -4.326 -29.428  1.00  0.00    -0.294 OA
BRANCH   2   4
ATOM      4  C   UNL     1     -24.927  -2.723 -30.125  1.00  0.00     0.048 C 
ATOM      5  C   UNL     1     -24.542  -1.638 -29.434  1.00  0.00     0.012 C 
BRANCH   5   6
ATOM      6  C   UNL     1     -23.449  -1.600 -28.439  1.00  0.00    -0.025 A 
ATOM      7  C   UNL     1     -22.164  -1.212 -28.845  1.00  0.00     0.012 A 
ATOM      8  C   UNL     1     -21.106  -1.213 -27.934  1.00  0.00     0.047 A 
ATOM      9  C   UNL     1     -21.316  -1.623 -26.610  1.00  0.00     0.115 A 
ATOM     10  C   UNL     1     -23.649  -2.040 -27.118  1.00  0.00     0.012 A 
ATOM     11  C   UNL     1     -22.588  -2.039 -26.207  1.00  0.00     0.047 A 
BRANCH   9  12
ATOM     12  O   UNL     1     -20.269  -1.626 -25.691  1.00  0.00    -0.508 OA
ATOM     13  H   UNL     1     -19.310  -1.476 -25.982  1.00  0.00     0.293 HD
ENDBRANCH   9  12
ENDBRANCH   5   6
ENDBRANCH   2   4
ENDBRANCH   1   2
BRANCH   1  14
ATOM     14  C   UNL     1     -26.537  -5.249 -29.088  1.00  0.00     0.163 C 
ATOM     15  O   UNL     1     -26.333  -5.587 -27.890  1.00  0.00    -0.294 OA
BRANCH  14  16
ATOM     16  C   UNL     1     -27.906  -4.844 -29.472  1.00  0.00     0.048 C 
ATOM     17  C   UNL     1     -28.886  -4.620 -28.582  1.00  0.00     0.012 C 
BRANCH  17  18
ATOM     18  C   UNL     1     -30.264  -4.223 -28.962  1.00  0.00    -0.025 A 
ATOM     19  C   UNL     1     -30.532  -3.126 -29.805  1.00  0.00     0.012 A 
ATOM     20  C   UNL     1     -31.344  -4.948 -28.429  1.00  0.00     0.012 A 
ATOM     21  C   UNL     1     -31.851  -2.784 -30.125  1.00  0.00     0.047 A 
ATOM     22  C   UNL     1     -32.661  -4.604 -28.751  1.00  0.00     0.047 A 
ATOM     23  C   UNL     1     -32.917  -3.522 -29.602  1.00  0.00     0.115 A 
BRANCH  23  24
ATOM     24  O   UNL     1     -34.223  -3.170 -29.931  1.00  0.00    -0.508 OA
ATOM     25  H   UNL     1     -34.426  -2.545 -30.703  1.00  0.00     0.293 HD
ENDBRANCH  23  24
ENDBRANCH  17  18
ENDBRANCH  14  16
ENDBRANCH   1  14
TORSDOF 8
ENDMDL
