MODEL 1
REMARK VINA RESULT:    -7.439      0.000      0.000
REMARK INTER + INTRA:         -11.282
REMARK INTER:                 -10.266
REMARK INTRA:                  -1.016
REMARK UNBOUND:                -1.016
REMARK SMILES CC[C@H](CC[C@H](C)[C@H]1CC[C@@H]2[C@H]3CC=C4C[C@@H](O)CC[C@]4(C)[C@H]3CC[C@@]21C)C(C)C
REMARK SMILES IDX 5 1 4 2 3 3 2 4 1 5 28 6 29 7 30 8 6 9 7 10 8 11 9 12 26 13
REMARK SMILES IDX 10 14 11 15 25 16 27 17 12 18 24 19 23 20 13 21 21 22 14 23
REMARK SMILES IDX 15 24 20 25 22 26 16 27 19 28 17 29 18 30
REMARK H PARENT 18 31
REMARK Flexibility Score: inf
ROOT
ATOM      1  C   UNL     1     -24.594 -17.735 -13.167  1.00  0.00     0.004 C 
ENDROOT
BRANCH   1   2
ATOM      2  C   UNL     1     -24.920 -16.791 -14.343  1.00  0.00     0.004 C 
BRANCH   2   3
ATOM      3  C   UNL     1     -23.998 -15.527 -14.421  1.00  0.00    -0.009 C 
BRANCH   3   4
ATOM      4  C   UNL     1     -22.509 -15.874 -14.726  1.00  0.00     0.000 C 
ATOM      5  C   UNL     1     -21.504 -14.728 -14.529  1.00  0.00     0.004 C 
ENDBRANCH   3   4
BRANCH   3   6
ATOM      6  C   UNL     1     -24.544 -14.366 -15.323  1.00  0.00    -0.014 C 
ATOM      7  C   UNL     1     -25.931 -13.875 -14.873  1.00  0.00     0.007 C 
ATOM      8  C   UNL     1     -24.560 -14.676 -16.832  1.00  0.00     0.007 C 
ENDBRANCH   3   6
ENDBRANCH   2   3
ENDBRANCH   1   2
BRANCH   1   9
ATOM      9  C   UNL     1     -24.126 -19.179 -13.559  1.00  0.00    -0.011 C 
ATOM     10  C   UNL     1     -23.779 -19.220 -15.065  1.00  0.00     0.008 C 
BRANCH   9  11
ATOM     11  C   UNL     1     -25.240 -20.231 -13.196  1.00  0.00    -0.002 C 
ATOM     12  C   UNL     1     -25.502 -21.263 -14.290  1.00  0.00     0.005 C 
ATOM     13  C   UNL     1     -25.059 -21.079 -11.862  1.00  0.00    -0.026 C 
ATOM     14  C   UNL     1     -26.262 -22.369 -13.597  1.00  0.00     0.005 C 
ATOM     15  C   UNL     1     -25.563 -22.520 -12.250  1.00  0.00    -0.001 C 
ATOM     16  C   UNL     1     -25.858 -20.403 -10.703  1.00  0.00     0.007 C 
ATOM     17  C   UNL     1     -23.568 -21.207 -11.435  1.00  0.00     0.012 C 
ATOM     18  C   UNL     1     -26.434 -23.322 -11.220  1.00  0.00     0.000 C 
ATOM     19  C   UNL     1     -26.408 -21.370  -9.670  1.00  0.00     0.005 C 
ATOM     20  C   UNL     1     -27.338 -22.408 -10.365  1.00  0.00     0.003 C 
ATOM     21  C   UNL     1     -25.566 -24.252 -10.326  1.00  0.00     0.031 C 
ATOM     22  C   UNL     1     -28.243 -23.253  -9.386  1.00  0.00    -0.008 C 
ATOM     23  C   UNL     1     -26.281 -24.776  -9.100  1.00  0.00    -0.027 C 
ATOM     24  C   UNL     1     -27.414 -24.251  -8.579  1.00  0.00    -0.065 C 
ATOM     25  C   UNL     1     -29.266 -24.146 -10.172  1.00  0.00     0.014 C 
ATOM     26  C   UNL     1     -29.090 -22.289  -8.494  1.00  0.00     0.016 C 
ATOM     27  C   UNL     1     -28.166 -25.080  -7.562  1.00  0.00     0.063 C 
ATOM     28  C   UNL     1     -30.123 -25.033  -9.233  1.00  0.00     0.033 C 
ATOM     29  C   UNL     1     -29.266 -25.899  -8.279  1.00  0.00     0.118 C 
BRANCH  29  30
ATOM     30  O   UNL     1     -30.112 -26.484  -7.327  1.00  0.00    -0.393 OA
ATOM     31  H   UNL     1     -30.515 -27.292  -7.749  1.00  0.00     0.210 HD
ENDBRANCH  29  30
ENDBRANCH   9  11
ENDBRANCH   1   9
TORSDOF 7
ENDMDL
MODEL 2
REMARK VINA RESULT:    -6.707      0.605      1.466
REMARK INTER + INTRA:         -10.271
REMARK INTER:                  -9.525
REMARK INTRA:                  -0.747
REMARK UNBOUND:                -1.016
REMARK SMILES CC[C@H](CC[C@H](C)[C@H]1CC[C@@H]2[C@H]3CC=C4C[C@@H](O)CC[C@]4(C)[C@H]3CC[C@@]21C)C(C)C
REMARK SMILES IDX 5 1 4 2 3 3 2 4 1 5 28 6 29 7 30 8 6 9 7 10 8 11 9 12 26 13
REMARK SMILES IDX 10 14 11 15 25 16 27 17 12 18 24 19 23 20 13 21 21 22 14 23
REMARK SMILES IDX 15 24 20 25 22 26 16 27 19 28 17 29 18 30
REMARK H PARENT 18 31
REMARK Flexibility Score: inf
ROOT
ATOM      1  C   UNL     1     -25.139 -17.931 -13.774  1.00  0.00     0.004 C 
ENDROOT
BRANCH   1   2
ATOM      2  C   UNL     1     -24.238 -16.709 -13.496  1.00  0.00     0.004 C 
BRANCH   2   3
ATOM      3  C   UNL     1     -23.820 -15.919 -14.783  1.00  0.00    -0.009 C 
BRANCH   3   4
ATOM      4  C   UNL     1     -25.039 -15.381 -15.593  1.00  0.00     0.000 C 
ATOM      5  C   UNL     1     -25.755 -14.161 -14.990  1.00  0.00     0.004 C 
ENDBRANCH   3   4
BRANCH   3   6
ATOM      6  C   UNL     1     -22.716 -14.829 -14.559  1.00  0.00    -0.014 C 
ATOM      7  C   UNL     1     -22.579 -13.875 -15.758  1.00  0.00     0.007 C 
ATOM      8  C   UNL     1     -21.333 -15.385 -14.168  1.00  0.00     0.007 C 
ENDBRANCH   3   6
ENDBRANCH   2   3
ENDBRANCH   1   2
BRANCH   1   9
ATOM      9  C   UNL     1     -24.429 -19.328 -13.726  1.00  0.00    -0.011 C 
ATOM     10  C   UNL     1     -23.784 -19.629 -15.098  1.00  0.00     0.008 C 
BRANCH   9  11
ATOM     11  C   UNL     1     -25.456 -20.448 -13.314  1.00  0.00    -0.002 C 
ATOM     12  C   UNL     1     -25.529 -21.617 -14.294  1.00  0.00     0.005 C 
ATOM     13  C   UNL     1     -25.295 -21.119 -11.881  1.00  0.00    -0.026 C 
ATOM     14  C   UNL     1     -26.225 -22.716 -13.526  1.00  0.00     0.005 C 
ATOM     15  C   UNL     1     -25.621 -22.640 -12.128  1.00  0.00    -0.001 C 
ATOM     16  C   UNL     1     -26.245 -20.409 -10.864  1.00  0.00     0.007 C 
ATOM     17  C   UNL     1     -23.836 -21.036 -11.346  1.00  0.00     0.012 C 
ATOM     18  C   UNL     1     -26.484 -23.413 -11.069  1.00  0.00     0.000 C 
ATOM     19  C   UNL     1     -26.773 -21.310  -9.763  1.00  0.00     0.005 C 
ATOM     20  C   UNL     1     -27.538 -22.513 -10.389  1.00  0.00     0.003 C 
ATOM     21  C   UNL     1     -25.598 -24.138 -10.017  1.00  0.00     0.031 C 
ATOM     22  C   UNL     1     -28.426 -23.338  -9.378  1.00  0.00    -0.008 C 
ATOM     23  C   UNL     1     -26.349 -24.598  -8.787  1.00  0.00    -0.027 C 
ATOM     24  C   UNL     1     -27.566 -24.144  -8.407  1.00  0.00    -0.065 C 
ATOM     25  C   UNL     1     -29.291 -24.417 -10.117  1.00  0.00     0.014 C 
ATOM     26  C   UNL     1     -29.431 -22.378  -8.662  1.00  0.00     0.016 C 
ATOM     27  C   UNL     1     -28.307 -24.933  -7.349  1.00  0.00     0.063 C 
ATOM     28  C   UNL     1     -30.125 -25.283  -9.138  1.00  0.00     0.033 C 
ATOM     29  C   UNL     1     -29.261 -25.940  -8.034  1.00  0.00     0.118 C 
BRANCH  29  30
ATOM     30  O   UNL     1     -30.115 -26.505  -7.077  1.00  0.00    -0.393 OA
ATOM     31  H   UNL     1     -29.627 -27.269  -6.663  1.00  0.00     0.210 HD
ENDBRANCH  29  30
ENDBRANCH   9  11
ENDBRANCH   1   9
TORSDOF 7
ENDMDL
MODEL 3
REMARK VINA RESULT:    -6.157      3.992      7.747
REMARK INTER + INTRA:          -9.513
REMARK INTER:                  -8.549
REMARK INTRA:                  -0.964
REMARK UNBOUND:                -1.016
REMARK SMILES CC[C@H](CC[C@H](C)[C@H]1CC[C@@H]2[C@H]3CC=C4C[C@@H](O)CC[C@]4(C)[C@H]3CC[C@@]21C)C(C)C
REMARK SMILES IDX 5 1 4 2 3 3 2 4 1 5 28 6 29 7 30 8 6 9 7 10 8 11 9 12 26 13
REMARK SMILES IDX 10 14 11 15 25 16 27 17 12 18 24 19 23 20 13 21 21 22 14 23
REMARK SMILES IDX 15 24 20 25 22 26 16 27 19 28 17 29 18 30
REMARK H PARENT 18 31
REMARK Flexibility Score: inf
ROOT
ATOM      1  C   UNL     1     -29.529 -20.063  -8.678  1.00  0.00     0.004 C 
ENDROOT
BRANCH   1   2
ATOM      2  C   UNL     1     -30.125 -19.837  -7.272  1.00  0.00     0.004 C 
BRANCH   2   3
ATOM      3  C   UNL     1     -29.512 -20.759  -6.164  1.00  0.00    -0.009 C 
BRANCH   3   4
ATOM      4  C   UNL     1     -28.819 -22.032  -6.741  1.00  0.00     0.000 C 
ATOM      5  C   UNL     1     -29.753 -23.051  -7.414  1.00  0.00     0.004 C 
ENDBRANCH   3   4
BRANCH   3   6
ATOM      6  C   UNL     1     -28.626 -20.018  -5.104  1.00  0.00    -0.014 C 
ATOM      7  C   UNL     1     -28.991 -20.403  -3.660  1.00  0.00     0.007 C 
ATOM      8  C   UNL     1     -28.598 -18.484  -5.248  1.00  0.00     0.007 C 
ENDBRANCH   3   6
ENDBRANCH   2   3
ENDBRANCH   1   2
BRANCH   1   9
ATOM      9  C   UNL     1     -28.255 -19.219  -9.024  1.00  0.00    -0.011 C 
ATOM     10  C   UNL     1     -28.618 -17.716  -9.048  1.00  0.00     0.008 C 
BRANCH   9  11
ATOM     11  C   UNL     1     -27.647 -19.686 -10.400  1.00  0.00    -0.002 C 
ATOM     12  C   UNL     1     -26.555 -18.767 -10.942  1.00  0.00     0.005 C 
ATOM     13  C   UNL     1     -27.036 -21.152 -10.486  1.00  0.00    -0.026 C 
ATOM     14  C   UNL     1     -25.855 -19.590 -11.998  1.00  0.00     0.005 C 
ATOM     15  C   UNL     1     -25.754 -20.983 -11.386  1.00  0.00    -0.001 C 
ATOM     16  C   UNL     1     -28.108 -22.130 -11.063  1.00  0.00     0.007 C 
ATOM     17  C   UNL     1     -26.566 -21.684  -9.101  1.00  0.00     0.012 C 
ATOM     18  C   UNL     1     -25.432 -22.078 -12.462  1.00  0.00     0.000 C 
ATOM     19  C   UNL     1     -27.539 -23.276 -11.881  1.00  0.00     0.005 C 
ATOM     20  C   UNL     1     -26.704 -22.711 -13.067  1.00  0.00     0.003 C 
ATOM     21  C   UNL     1     -24.468 -23.167 -11.911  1.00  0.00     0.031 C 
ATOM     22  C   UNL     1     -26.342 -23.762 -14.188  1.00  0.00    -0.008 C 
ATOM     23  C   UNL     1     -24.399 -24.418 -12.759  1.00  0.00    -0.027 C 
ATOM     24  C   UNL     1     -25.310 -24.773 -13.694  1.00  0.00    -0.065 C 
ATOM     25  C   UNL     1     -25.654 -23.077 -15.420  1.00  0.00     0.014 C 
ATOM     26  C   UNL     1     -27.651 -24.426 -14.723  1.00  0.00     0.016 C 
ATOM     27  C   UNL     1     -24.926 -25.869 -14.664  1.00  0.00     0.063 C 
ATOM     28  C   UNL     1     -25.231 -24.099 -16.507  1.00  0.00     0.033 C 
ATOM     29  C   UNL     1     -24.341 -25.235 -15.948  1.00  0.00     0.118 C 
BRANCH  29  30
ATOM     30  O   UNL     1     -24.202 -26.219 -16.937  1.00  0.00    -0.393 OA
ATOM     31  H   UNL     1     -23.574 -25.860 -17.622  1.00  0.00     0.210 HD
ENDBRANCH  29  30
ENDBRANCH   9  11
ENDBRANCH   1   9
TORSDOF 7
ENDMDL
MODEL 4
REMARK VINA RESULT:    -5.174      1.744      3.627
REMARK INTER + INTRA:          -8.155
REMARK INTER:                  -7.703
REMARK INTRA:                  -0.453
REMARK UNBOUND:                -1.016
REMARK SMILES CC[C@H](CC[C@H](C)[C@H]1CC[C@@H]2[C@H]3CC=C4C[C@@H](O)CC[C@]4(C)[C@H]3CC[C@@]21C)C(C)C
REMARK SMILES IDX 5 1 4 2 3 3 2 4 1 5 28 6 29 7 30 8 6 9 7 10 8 11 9 12 26 13
REMARK SMILES IDX 10 14 11 15 25 16 27 17 12 18 24 19 23 20 13 21 21 22 14 23
REMARK SMILES IDX 15 24 20 25 22 26 16 27 19 28 17 29 18 30
REMARK H PARENT 18 31
REMARK Flexibility Score: inf
ROOT
ATOM      1  C   UNL     1     -22.970 -16.283 -13.802  1.00  0.00     0.004 C 
ENDROOT
BRANCH   1   2
ATOM      2  C   UNL     1     -21.606 -16.493 -14.493  1.00  0.00     0.004 C 
BRANCH   2   3
ATOM      3  C   UNL     1     -20.635 -15.269 -14.372  1.00  0.00    -0.009 C 
BRANCH   3   4
ATOM      4  C   UNL     1     -21.357 -13.897 -14.535  1.00  0.00     0.000 C 
ATOM      5  C   UNL     1     -22.531 -13.875 -15.527  1.00  0.00     0.004 C 
ENDBRANCH   3   4
BRANCH   3   6
ATOM      6  C   UNL     1     -19.680 -15.305 -13.129  1.00  0.00    -0.014 C 
ATOM      7  C   UNL     1     -19.478 -13.915 -12.502  1.00  0.00     0.007 C 
ATOM      8  C   UNL     1     -18.314 -15.970 -13.386  1.00  0.00     0.007 C 
ENDBRANCH   3   6
ENDBRANCH   2   3
ENDBRANCH   1   2
BRANCH   1   9
ATOM      9  C   UNL     1     -24.188 -17.022 -14.456  1.00  0.00    -0.011 C 
ATOM     10  C   UNL     1     -25.143 -15.985 -15.091  1.00  0.00     0.008 C 
BRANCH   9  11
ATOM     11  C   UNL     1     -24.928 -17.907 -13.385  1.00  0.00    -0.002 C 
ATOM     12  C   UNL     1     -26.451 -17.788 -13.423  1.00  0.00     0.005 C 
ATOM     13  C   UNL     1     -24.636 -19.470 -13.377  1.00  0.00    -0.026 C 
ATOM     14  C   UNL     1     -26.946 -18.981 -12.639  1.00  0.00     0.005 C 
ATOM     15  C   UNL     1     -26.037 -20.124 -13.077  1.00  0.00    -0.001 C 
ATOM     16  C   UNL     1     -23.533 -19.789 -12.317  1.00  0.00     0.007 C 
ATOM     17  C   UNL     1     -24.164 -19.996 -14.764  1.00  0.00     0.012 C 
ATOM     18  C   UNL     1     -26.111 -21.346 -12.095  1.00  0.00     0.000 C 
ATOM     19  C   UNL     1     -23.664 -21.152 -11.662  1.00  0.00     0.005 C 
ATOM     20  C   UNL     1     -25.055 -21.271 -10.972  1.00  0.00     0.003 C 
ATOM     21  C   UNL     1     -26.035 -22.703 -12.851  1.00  0.00     0.031 C 
ATOM     22  C   UNL     1     -25.200 -22.482  -9.970  1.00  0.00    -0.008 C 
ATOM     23  C   UNL     1     -25.748 -23.892 -11.961  1.00  0.00    -0.027 C 
ATOM     24  C   UNL     1     -25.239 -23.818 -10.709  1.00  0.00    -0.065 C 
ATOM     25  C   UNL     1     -26.562 -22.429  -9.193  1.00  0.00     0.014 C 
ATOM     26  C   UNL     1     -24.071 -22.406  -8.891  1.00  0.00     0.016 C 
ATOM     27  C   UNL     1     -25.318 -25.060  -9.848  1.00  0.00     0.063 C 
ATOM     28  C   UNL     1     -26.755 -23.644  -8.249  1.00  0.00     0.033 C 
ATOM     29  C   UNL     1     -26.596 -25.001  -8.978  1.00  0.00     0.118 C 
BRANCH  29  30
ATOM     30  O   UNL     1     -26.558 -26.020  -8.016  1.00  0.00    -0.393 OA
ATOM     31  H   UNL     1     -27.104 -25.713  -7.241  1.00  0.00     0.210 HD
ENDBRANCH  29  30
ENDBRANCH   9  11
ENDBRANCH   1   9
TORSDOF 7
ENDMDL
MODEL 5
REMARK VINA RESULT:    -5.129      1.757      2.746
REMARK INTER + INTRA:          -8.094
REMARK INTER:                  -7.419
REMARK INTRA:                  -0.675
REMARK UNBOUND:                -1.016
REMARK SMILES CC[C@H](CC[C@H](C)[C@H]1CC[C@@H]2[C@H]3CC=C4C[C@@H](O)CC[C@]4(C)[C@H]3CC[C@@]21C)C(C)C
REMARK SMILES IDX 5 1 4 2 3 3 2 4 1 5 28 6 29 7 30 8 6 9 7 10 8 11 9 12 26 13
REMARK SMILES IDX 10 14 11 15 25 16 27 17 12 18 24 19 23 20 13 21 21 22 14 23
REMARK SMILES IDX 15 24 20 25 22 26 16 27 19 28 17 29 18 30
REMARK H PARENT 18 31
REMARK Flexibility Score: inf
ROOT
ATOM      1  C   UNL     1     -24.132 -16.250 -13.429  1.00  0.00     0.004 C 
ENDROOT
BRANCH   1   2
ATOM      2  C   UNL     1     -22.829 -15.886 -14.173  1.00  0.00     0.004 C 
BRANCH   2   3
ATOM      3  C   UNL     1     -22.780 -14.407 -14.687  1.00  0.00    -0.009 C 
BRANCH   3   4
ATOM      4  C   UNL     1     -21.327 -13.879 -14.892  1.00  0.00     0.000 C 
ATOM      5  C   UNL     1     -20.315 -14.275 -13.805  1.00  0.00     0.004 C 
ENDBRANCH   3   4
BRANCH   3   6
ATOM      6  C   UNL     1     -23.712 -14.102 -15.911  1.00  0.00    -0.014 C 
ATOM      7  C   UNL     1     -25.175 -13.875 -15.493  1.00  0.00     0.007 C 
ATOM      8  C   UNL     1     -23.643 -15.140 -17.047  1.00  0.00     0.007 C 
ENDBRANCH   3   6
ENDBRANCH   2   3
ENDBRANCH   1   2
BRANCH   1   9
ATOM      9  C   UNL     1     -24.985 -17.399 -14.066  1.00  0.00    -0.011 C 
ATOM     10  C   UNL     1     -26.117 -16.790 -14.924  1.00  0.00     0.008 C 
BRANCH   9  11
ATOM     11  C   UNL     1     -25.558 -18.342 -12.941  1.00  0.00    -0.002 C 
ATOM     12  C   UNL     1     -27.077 -18.281 -12.792  1.00  0.00     0.005 C 
ATOM     13  C   UNL     1     -25.212 -19.892 -13.019  1.00  0.00    -0.026 C 
ATOM     14  C   UNL     1     -27.430 -19.512 -11.992  1.00  0.00     0.005 C 
ATOM     15  C   UNL     1     -26.542 -20.608 -12.573  1.00  0.00    -0.001 C 
ATOM     16  C   UNL     1     -23.977 -20.196 -12.111  1.00  0.00     0.007 C 
ATOM     17  C   UNL     1     -24.895 -20.360 -14.469  1.00  0.00     0.012 C 
ATOM     18  C   UNL     1     -26.453 -21.857 -11.628  1.00  0.00     0.000 C 
ATOM     19  C   UNL     1     -23.980 -21.580 -11.488  1.00  0.00     0.005 C 
ATOM     20  C   UNL     1     -25.270 -21.772 -10.639  1.00  0.00     0.003 C 
ATOM     21  C   UNL     1     -26.422 -23.189 -12.430  1.00  0.00     0.031 C 
ATOM     22  C   UNL     1     -25.249 -23.015  -9.666  1.00  0.00    -0.008 C 
ATOM     23  C   UNL     1     -25.987 -24.390 -11.619  1.00  0.00    -0.027 C 
ATOM     24  C   UNL     1     -25.331 -24.331 -10.437  1.00  0.00    -0.065 C 
ATOM     25  C   UNL     1     -26.507 -23.036  -8.729  1.00  0.00     0.014 C 
ATOM     26  C   UNL     1     -24.001 -22.924  -8.730  1.00  0.00     0.016 C 
ATOM     27  C   UNL     1     -25.261 -25.598  -9.612  1.00  0.00     0.063 C 
ATOM     28  C   UNL     1     -26.541 -24.282  -7.808  1.00  0.00     0.033 C 
ATOM     29  C   UNL     1     -26.425 -25.611  -8.592  1.00  0.00     0.118 C 
BRANCH  29  30
ATOM     30  O   UNL     1     -26.234 -26.655  -7.676  1.00  0.00    -0.393 OA
ATOM     31  H   UNL     1     -26.689 -27.459  -8.048  1.00  0.00     0.210 HD
ENDBRANCH  29  30
ENDBRANCH   9  11
ENDBRANCH   1   9
TORSDOF 7
ENDMDL
MODEL 6
REMARK VINA RESULT:    -4.952      3.297      8.901
REMARK INTER + INTRA:          -7.849
REMARK INTER:                  -6.427
REMARK INTRA:                  -1.422
REMARK UNBOUND:                -1.016
REMARK SMILES CC[C@H](CC[C@H](C)[C@H]1CC[C@@H]2[C@H]3CC=C4C[C@@H](O)CC[C@]4(C)[C@H]3CC[C@@]21C)C(C)C
REMARK SMILES IDX 5 1 4 2 3 3 2 4 1 5 28 6 29 7 30 8 6 9 7 10 8 11 9 12 26 13
REMARK SMILES IDX 10 14 11 15 25 16 27 17 12 18 24 19 23 20 13 21 21 22 14 23
REMARK SMILES IDX 15 24 20 25 22 26 16 27 19 28 17 29 18 30
REMARK H PARENT 18 31
REMARK Flexibility Score: inf
ROOT
ATOM      1  C   UNL     1     -25.554 -23.188  -9.262  1.00  0.00     0.004 C 
ENDROOT
BRANCH   1   2
ATOM      2  C   UNL     1     -26.792 -23.920  -8.702  1.00  0.00     0.004 C 
BRANCH   2   3
ATOM      3  C   UNL     1     -28.120 -23.095  -8.804  1.00  0.00    -0.009 C 
BRANCH   3   4
ATOM      4  C   UNL     1     -29.321 -23.777  -8.079  1.00  0.00     0.000 C 
ATOM      5  C   UNL     1     -29.116 -25.251  -7.692  1.00  0.00     0.004 C 
ENDBRANCH   3   4
BRANCH   3   6
ATOM      6  C   UNL     1     -27.983 -21.575  -8.445  1.00  0.00    -0.014 C 
ATOM      7  C   UNL     1     -28.539 -21.248  -7.049  1.00  0.00     0.007 C 
ATOM      8  C   UNL     1     -28.579 -20.611  -9.488  1.00  0.00     0.007 C 
ENDBRANCH   3   6
ENDBRANCH   2   3
ENDBRANCH   1   2
BRANCH   1   9
ATOM      9  C   UNL     1     -24.941 -23.787 -10.574  1.00  0.00    -0.011 C 
ATOM     10  C   UNL     1     -23.864 -24.835 -10.211  1.00  0.00     0.008 C 
BRANCH   9  11
ATOM     11  C   UNL     1     -24.347 -22.639 -11.473  1.00  0.00    -0.002 C 
ATOM     12  C   UNL     1     -23.494 -23.138 -12.638  1.00  0.00     0.005 C 
ATOM     13  C   UNL     1     -25.361 -21.597 -12.118  1.00  0.00    -0.026 C 
ATOM     14  C   UNL     1     -23.386 -21.951 -13.566  1.00  0.00     0.005 C 
ATOM     15  C   UNL     1     -24.782 -21.338 -13.561  1.00  0.00    -0.001 C 
ATOM     16  C   UNL     1     -25.445 -20.324 -11.216  1.00  0.00     0.007 C 
ATOM     17  C   UNL     1     -26.791 -22.185 -12.290  1.00  0.00     0.012 C 
ATOM     18  C   UNL     1     -24.787 -19.875 -14.129  1.00  0.00     0.000 C 
ATOM     19  C   UNL     1     -25.706 -19.034 -11.971  1.00  0.00     0.005 C 
ATOM     20  C   UNL     1     -24.588 -18.809 -13.031  1.00  0.00     0.003 C 
ATOM     21  C   UNL     1     -26.060 -19.585 -14.973  1.00  0.00     0.031 C 
ATOM     22  C   UNL     1     -24.536 -17.356 -13.648  1.00  0.00    -0.008 C 
ATOM     23  C   UNL     1     -26.298 -18.118 -15.250  1.00  0.00    -0.027 C 
ATOM     24  C   UNL     1     -25.727 -17.097 -14.569  1.00  0.00    -0.065 C 
ATOM     25  C   UNL     1     -23.283 -17.166 -14.571  1.00  0.00     0.014 C 
ATOM     26  C   UNL     1     -24.404 -16.305 -12.498  1.00  0.00     0.016 C 
ATOM     27  C   UNL     1     -25.817 -15.714 -15.176  1.00  0.00     0.063 C 
ATOM     28  C   UNL     1     -23.244 -15.768 -15.240  1.00  0.00     0.033 C 
ATOM     29  C   UNL     1     -24.545 -15.435 -16.011  1.00  0.00     0.118 C 
BRANCH  29  30
ATOM     30  O   UNL     1     -24.511 -14.083 -16.380  1.00  0.00    -0.393 OA
ATOM     31  H   UNL     1     -24.474 -14.052 -17.375  1.00  0.00     0.210 HD
ENDBRANCH  29  30
ENDBRANCH   9  11
ENDBRANCH   1   9
TORSDOF 7
ENDMDL
MODEL 7
REMARK VINA RESULT:    -4.875      3.254      5.368
REMARK INTER + INTRA:          -7.744
REMARK INTER:                  -8.174
REMARK INTRA:                   0.431
REMARK UNBOUND:                -1.016
REMARK SMILES CC[C@H](CC[C@H](C)[C@H]1CC[C@@H]2[C@H]3CC=C4C[C@@H](O)CC[C@]4(C)[C@H]3CC[C@@]21C)C(C)C
REMARK SMILES IDX 5 1 4 2 3 3 2 4 1 5 28 6 29 7 30 8 6 9 7 10 8 11 9 12 26 13
REMARK SMILES IDX 10 14 11 15 25 16 27 17 12 18 24 19 23 20 13 21 21 22 14 23
REMARK SMILES IDX 15 24 20 25 22 26 16 27 19 28 17 29 18 30
REMARK H PARENT 18 31
REMARK Flexibility Score: inf
ROOT
ATOM      1  C   UNL     1     -24.293 -24.658 -13.632  1.00  0.00     0.004 C 
ENDROOT
BRANCH   1   2
ATOM      2  C   UNL     1     -24.039 -23.471 -14.584  1.00  0.00     0.004 C 
BRANCH   2   3
ATOM      3  C   UNL     1     -23.978 -22.079 -13.867  1.00  0.00    -0.009 C 
BRANCH   3   4
ATOM      4  C   UNL     1     -22.523 -21.617 -13.550  1.00  0.00     0.000 C 
ATOM      5  C   UNL     1     -21.406 -22.558 -14.028  1.00  0.00     0.004 C 
ENDBRANCH   3   4
BRANCH   3   6
ATOM      6  C   UNL     1     -24.836 -20.952 -14.539  1.00  0.00    -0.014 C 
ATOM      7  C   UNL     1     -25.225 -21.294 -15.987  1.00  0.00     0.007 C 
ATOM      8  C   UNL     1     -24.211 -19.546 -14.480  1.00  0.00     0.007 C 
ENDBRANCH   3   6
ENDBRANCH   2   3
ENDBRANCH   1   2
BRANCH   1   9
ATOM      9  C   UNL     1     -25.761 -24.809 -13.105  1.00  0.00    -0.011 C 
ATOM     10  C   UNL     1     -26.743 -24.178 -14.118  1.00  0.00     0.008 C 
BRANCH   9  11
ATOM     11  C   UNL     1     -25.900 -24.149 -11.681  1.00  0.00    -0.002 C 
ATOM     12  C   UNL     1     -24.573 -23.700 -11.071  1.00  0.00     0.005 C 
ATOM     13  C   UNL     1     -26.870 -22.898 -11.530  1.00  0.00    -0.026 C 
ATOM     14  C   UNL     1     -24.966 -22.761  -9.955  1.00  0.00     0.005 C 
ATOM     15  C   UNL     1     -26.109 -21.938 -10.539  1.00  0.00    -0.001 C 
ATOM     16  C   UNL     1     -28.266 -23.381 -11.021  1.00  0.00     0.007 C 
ATOM     17  C   UNL     1     -27.063 -22.128 -12.868  1.00  0.00     0.012 C 
ATOM     18  C   UNL     1     -26.927 -21.192  -9.427  1.00  0.00     0.000 C 
ATOM     19  C   UNL     1     -28.998 -22.378 -10.147  1.00  0.00     0.005 C 
ATOM     20  C   UNL     1     -28.123 -22.021  -8.910  1.00  0.00     0.003 C 
ATOM     21  C   UNL     1     -27.380 -19.778  -9.890  1.00  0.00     0.031 C 
ATOM     22  C   UNL     1     -28.883 -21.265  -7.751  1.00  0.00    -0.008 C 
ATOM     23  C   UNL     1     -28.452 -19.157  -9.023  1.00  0.00    -0.027 C 
ATOM     24  C   UNL     1     -29.236 -19.835  -8.153  1.00  0.00    -0.065 C 
ATOM     25  C   UNL     1     -27.979 -21.098  -6.480  1.00  0.00     0.014 C 
ATOM     26  C   UNL     1     -30.123 -22.106  -7.305  1.00  0.00     0.016 C 
ATOM     27  C   UNL     1     -30.021 -19.027  -7.142  1.00  0.00     0.063 C 
ATOM     28  C   UNL     1     -28.683 -20.303  -5.351  1.00  0.00     0.033 C 
ATOM     29  C   UNL     1     -29.213 -18.928  -5.826  1.00  0.00     0.118 C 
BRANCH  29  30
ATOM     30  O   UNL     1     -30.023 -18.390  -4.817  1.00  0.00    -0.393 OA
ATOM     31  H   UNL     1     -30.110 -17.414  -5.000  1.00  0.00     0.210 HD
ENDBRANCH  29  30
ENDBRANCH   9  11
ENDBRANCH   1   9
TORSDOF 7
ENDMDL
MODEL 8
REMARK VINA RESULT:    -4.693      3.192      8.311
REMARK INTER + INTRA:          -7.492
REMARK INTER:                  -6.025
REMARK INTRA:                  -1.466
REMARK UNBOUND:                -1.016
REMARK SMILES CC[C@H](CC[C@H](C)[C@H]1CC[C@@H]2[C@H]3CC=C4C[C@@H](O)CC[C@]4(C)[C@H]3CC[C@@]21C)C(C)C
REMARK SMILES IDX 5 1 4 2 3 3 2 4 1 5 28 6 29 7 30 8 6 9 7 10 8 11 9 12 26 13
REMARK SMILES IDX 10 14 11 15 25 16 27 17 12 18 24 19 23 20 13 21 21 22 14 23
REMARK SMILES IDX 15 24 20 25 22 26 16 27 19 28 17 29 18 30
REMARK H PARENT 18 31
REMARK Flexibility Score: inf
ROOT
ATOM      1  C   UNL     1     -28.472 -24.830  -8.124  1.00  0.00     0.004 C 
ENDROOT
BRANCH   1   2
ATOM      2  C   UNL     1     -29.556 -23.968  -8.805  1.00  0.00     0.004 C 
BRANCH   2   3
ATOM      3  C   UNL     1     -29.624 -22.494  -8.278  1.00  0.00    -0.009 C 
BRANCH   3   4
ATOM      4  C   UNL     1     -28.505 -22.162  -7.244  1.00  0.00     0.000 C 
ATOM      5  C   UNL     1     -28.823 -21.025  -6.260  1.00  0.00     0.004 C 
ENDBRANCH   3   4
BRANCH   3   6
ATOM      6  C   UNL     1     -29.761 -21.400  -9.392  1.00  0.00    -0.014 C 
ATOM      7  C   UNL     1     -30.125 -21.998 -10.762  1.00  0.00     0.007 C 
ATOM      8  C   UNL     1     -28.542 -20.468  -9.532  1.00  0.00     0.007 C 
ENDBRANCH   3   6
ENDBRANCH   2   3
ENDBRANCH   1   2
BRANCH   1   9
ATOM      9  C   UNL     1     -27.146 -25.026  -8.937  1.00  0.00    -0.011 C 
ATOM     10  C   UNL     1     -26.164 -25.901  -8.125  1.00  0.00     0.008 C 
BRANCH   9  11
ATOM     11  C   UNL     1     -26.512 -23.628  -9.293  1.00  0.00    -0.002 C 
ATOM     12  C   UNL     1     -25.312 -23.251  -8.427  1.00  0.00     0.005 C 
ATOM     13  C   UNL     1     -26.035 -23.385 -10.790  1.00  0.00    -0.026 C 
ATOM     14  C   UNL     1     -24.636 -22.130  -9.181  1.00  0.00     0.005 C 
ATOM     15  C   UNL     1     -24.697 -22.566 -10.641  1.00  0.00    -0.001 C 
ATOM     16  C   UNL     1     -27.161 -22.646 -11.581  1.00  0.00     0.007 C 
ATOM     17  C   UNL     1     -25.691 -24.710 -11.529  1.00  0.00     0.012 C 
ATOM     18  C   UNL     1     -24.422 -21.376 -11.625  1.00  0.00     0.000 C 
ATOM     19  C   UNL     1     -26.659 -21.715 -12.670  1.00  0.00     0.005 C 
ATOM     20  C   UNL     1     -25.713 -20.645 -12.051  1.00  0.00     0.003 C 
ATOM     21  C   UNL     1     -23.594 -21.826 -12.862  1.00  0.00     0.031 C 
ATOM     22  C   UNL     1     -25.391 -19.417 -12.990  1.00  0.00    -0.008 C 
ATOM     23  C   UNL     1     -23.596 -20.832 -14.002  1.00  0.00    -0.027 C 
ATOM     24  C   UNL     1     -24.485 -19.823 -14.151  1.00  0.00    -0.065 C 
ATOM     25  C   UNL     1     -24.578 -18.309 -12.233  1.00  0.00     0.014 C 
ATOM     26  C   UNL     1     -26.726 -18.749 -13.452  1.00  0.00     0.016 C 
ATOM     27  C   UNL     1     -24.153 -18.739 -15.154  1.00  0.00     0.063 C 
ATOM     28  C   UNL     1     -24.194 -17.121 -13.152  1.00  0.00     0.033 C 
ATOM     29  C   UNL     1     -23.444 -17.570 -14.430  1.00  0.00     0.118 C 
BRANCH  29  30
ATOM     30  O   UNL     1     -23.345 -16.472 -15.297  1.00  0.00    -0.393 OA
ATOM     31  H   UNL     1     -23.525 -15.654 -14.756  1.00  0.00     0.210 HD
ENDBRANCH  29  30
ENDBRANCH   9  11
ENDBRANCH   1   9
TORSDOF 7
ENDMDL
MODEL 9
REMARK VINA RESULT:    -4.624      3.339      8.936
REMARK INTER + INTRA:          -7.397
REMARK INTER:                  -6.051
REMARK INTRA:                  -1.346
REMARK UNBOUND:                -1.016
REMARK SMILES CC[C@H](CC[C@H](C)[C@H]1CC[C@@H]2[C@H]3CC=C4C[C@@H](O)CC[C@]4(C)[C@H]3CC[C@@]21C)C(C)C
REMARK SMILES IDX 5 1 4 2 3 3 2 4 1 5 28 6 29 7 30 8 6 9 7 10 8 11 9 12 26 13
REMARK SMILES IDX 10 14 11 15 25 16 27 17 12 18 24 19 23 20 13 21 21 22 14 23
REMARK SMILES IDX 15 24 20 25 22 26 16 27 19 28 17 29 18 30
REMARK H PARENT 18 31
REMARK Flexibility Score: inf
ROOT
ATOM      1  C   UNL     1     -25.336 -22.931  -9.254  1.00  0.00     0.004 C 
ENDROOT
BRANCH   1   2
ATOM      2  C   UNL     1     -26.479 -23.673  -8.531  1.00  0.00     0.004 C 
BRANCH   2   3
ATOM      3  C   UNL     1     -27.708 -22.766  -8.182  1.00  0.00    -0.009 C 
BRANCH   3   4
ATOM      4  C   UNL     1     -27.605 -21.334  -8.791  1.00  0.00     0.000 C 
ATOM      5  C   UNL     1     -28.538 -20.279  -8.175  1.00  0.00     0.004 C 
ENDBRANCH   3   4
BRANCH   3   6
ATOM      6  C   UNL     1     -29.108 -23.428  -8.428  1.00  0.00    -0.014 C 
ATOM      7  C   UNL     1     -29.129 -24.918  -8.048  1.00  0.00     0.007 C 
ATOM      8  C   UNL     1     -29.667 -23.239  -9.851  1.00  0.00     0.007 C 
ENDBRANCH   3   6
ENDBRANCH   2   3
ENDBRANCH   1   2
BRANCH   1   9
ATOM      9  C   UNL     1     -24.882 -23.543 -10.624  1.00  0.00    -0.011 C 
ATOM     10  C   UNL     1     -23.835 -24.652 -10.375  1.00  0.00     0.008 C 
BRANCH   9  11
ATOM     11  C   UNL     1     -24.315 -22.415 -11.565  1.00  0.00    -0.002 C 
ATOM     12  C   UNL     1     -23.544 -22.942 -12.774  1.00  0.00     0.005 C 
ATOM     13  C   UNL     1     -25.339 -21.352 -12.158  1.00  0.00    -0.026 C 
ATOM     14  C   UNL     1     -23.461 -21.763 -13.715  1.00  0.00     0.005 C 
ATOM     15  C   UNL     1     -24.839 -21.116 -13.633  1.00  0.00    -0.001 C 
ATOM     16  C   UNL     1     -25.339 -20.073 -11.262  1.00  0.00     0.007 C 
ATOM     17  C   UNL     1     -26.791 -21.906 -12.241  1.00  0.00     0.012 C 
ATOM     18  C   UNL     1     -24.841 -19.657 -14.212  1.00  0.00     0.000 C 
ATOM     19  C   UNL     1     -25.613 -18.780 -12.010  1.00  0.00     0.005 C 
ATOM     20  C   UNL     1     -24.553 -18.590 -13.135  1.00  0.00     0.003 C 
ATOM     21  C   UNL     1     -26.155 -19.341 -14.982  1.00  0.00     0.031 C 
ATOM     22  C   UNL     1     -24.502 -17.143 -13.764  1.00  0.00    -0.008 C 
ATOM     23  C   UNL     1     -26.373 -17.870 -15.255  1.00  0.00    -0.027 C 
ATOM     24  C   UNL     1     -25.738 -16.860 -14.616  1.00  0.00    -0.065 C 
ATOM     25  C   UNL     1     -23.301 -16.989 -14.761  1.00  0.00     0.014 C 
ATOM     26  C   UNL     1     -24.278 -16.088 -12.632  1.00  0.00     0.016 C 
ATOM     27  C   UNL     1     -25.830 -15.478 -15.227  1.00  0.00     0.063 C 
ATOM     28  C   UNL     1     -23.267 -15.596 -15.440  1.00  0.00     0.033 C 
ATOM     29  C   UNL     1     -24.602 -15.236 -16.137  1.00  0.00     0.118 C 
BRANCH  29  30
ATOM     30  O   UNL     1     -24.558 -13.888 -16.517  1.00  0.00    -0.393 OA
ATOM     31  H   UNL     1     -25.216 -13.401 -15.949  1.00  0.00     0.210 HD
ENDBRANCH  29  30
ENDBRANCH   9  11
ENDBRANCH   1   9
TORSDOF 7
ENDMDL
