MODEL 1
REMARK VINA RESULT:    -5.919      0.000      0.000
REMARK INTER + INTRA:          -7.962
REMARK INTER:                  -7.303
REMARK INTRA:                  -0.659
REMARK UNBOUND:                -0.659
REMARK SMILES CC(C)=CCC[C@@H](C)c1ccc(C)cc1
REMARK SMILES IDX 6 1 7 2 8 3 9 4 13 5 12 6 11 7 14 8 10 9 15 10 5 11 4 12
REMARK SMILES IDX 2 13 1 14 3 15
REMARK H PARENT
REMARK Flexibility Score: inf
ROOT
ATOM      1  C   UNL     1     162.246 173.392 138.990  1.00  0.00     0.012 C 
ENDROOT
BRANCH   1   2
ATOM      2  C   UNL     1     163.344 174.366 138.505  1.00  0.00     0.016 C 
ATOM      3  C   UNL     1     164.718 174.040 139.110  1.00  0.00     0.013 C 
BRANCH   2   4
ATOM      4  C   UNL     1     163.423 174.362 136.989  1.00  0.00    -0.045 A 
ATOM      5  C   UNL     1     163.635 174.387 132.674  1.00  0.00     0.044 C 
ATOM      6  C   UNL     1     163.544 174.353 134.171  1.00  0.00    -0.051 A 
ATOM      7  C   UNL     1     162.532 175.062 134.834  1.00  0.00     0.004 A 
ATOM      8  C   UNL     1     164.510 173.668 134.923  1.00  0.00     0.004 A 
ATOM      9  C   UNL     1     162.467 175.061 136.230  1.00  0.00     0.004 A 
ATOM     10  C   UNL     1     164.448 173.667 136.319  1.00  0.00     0.004 A 
ENDBRANCH   2   4
ENDBRANCH   1   2
BRANCH   1  11
ATOM     11  C   UNL     1     162.727 172.472 140.123  1.00  0.00     0.028 C 
BRANCH  11  12
ATOM     12  C   UNL     1     163.117 171.119 139.581  1.00  0.00    -0.028 C 
ATOM     13  C   UNL     1     164.197 170.416 139.987  1.00  0.00    -0.080 C 
ATOM     14  C   UNL     1     164.482 169.093 139.326  1.00  0.00     0.039 C 
ATOM     15  C   UNL     1     165.107 170.910 141.088  1.00  0.00     0.039 C 
ENDBRANCH  11  12
ENDBRANCH   1  11
TORSDOF 4
ENDMDL
MODEL 2
REMARK VINA RESULT:    -5.452      8.332     11.400
REMARK INTER + INTRA:          -7.387
REMARK INTER:                  -5.905
REMARK INTRA:                  -1.482
REMARK UNBOUND:                -0.659
REMARK SMILES CC(C)=CCC[C@@H](C)c1ccc(C)cc1
REMARK SMILES IDX 6 1 7 2 8 3 9 4 13 5 12 6 11 7 14 8 10 9 15 10 5 11 4 12
REMARK SMILES IDX 2 13 1 14 3 15
REMARK H PARENT
REMARK Flexibility Score: inf
ROOT
ATOM      1  C   UNL     1     160.498 162.280 133.050  1.00  0.00     0.012 C 
ENDROOT
BRANCH   1   2
ATOM      2  C   UNL     1     161.112 161.529 134.252  1.00  0.00     0.016 C 
ATOM      3  C   UNL     1     161.557 160.105 133.884  1.00  0.00     0.013 C 
BRANCH   2   4
ATOM      4  C   UNL     1     162.281 162.312 134.825  1.00  0.00    -0.045 A 
ATOM      5  C   UNL     1     165.610 164.557 136.418  1.00  0.00     0.044 C 
ATOM      6  C   UNL     1     164.468 163.752 135.872  1.00  0.00    -0.051 A 
ATOM      7  C   UNL     1     164.444 163.386 134.518  1.00  0.00     0.004 A 
ATOM      8  C   UNL     1     163.383 163.416 136.695  1.00  0.00     0.004 A 
ATOM      9  C   UNL     1     163.364 162.667 134.001  1.00  0.00     0.004 A 
ATOM     10  C   UNL     1     162.302 162.697 136.178  1.00  0.00     0.004 A 
ENDBRANCH   2   4
ENDBRANCH   1   2
BRANCH   1  11
ATOM     11  C   UNL     1     159.978 163.676 133.426  1.00  0.00     0.028 C 
BRANCH  11  12
ATOM     12  C   UNL     1     160.592 164.730 132.538  1.00  0.00    -0.028 C 
ATOM     13  C   UNL     1     161.326 165.773 132.984  1.00  0.00    -0.080 C 
ATOM     14  C   UNL     1     161.843 166.769 131.979  1.00  0.00     0.039 C 
ATOM     15  C   UNL     1     161.655 165.952 134.448  1.00  0.00     0.039 C 
ENDBRANCH  11  12
ENDBRANCH   1  11
TORSDOF 4
ENDMDL
MODEL 3
REMARK VINA RESULT:    -5.411      8.394     10.756
REMARK INTER + INTRA:          -7.335
REMARK INTER:                  -5.797
REMARK INTRA:                  -1.538
REMARK UNBOUND:                -0.659
REMARK SMILES CC(C)=CCC[C@@H](C)c1ccc(C)cc1
REMARK SMILES IDX 6 1 7 2 8 3 9 4 13 5 12 6 11 7 14 8 10 9 15 10 5 11 4 12
REMARK SMILES IDX 2 13 1 14 3 15
REMARK H PARENT
REMARK Flexibility Score: inf
ROOT
ATOM      1  C   UNL     1     163.202 166.015 134.264  1.00  0.00     0.012 C 
ENDROOT
BRANCH   1   2
ATOM      2  C   UNL     1     161.795 166.142 133.638  1.00  0.00     0.016 C 
ATOM      3  C   UNL     1     161.852 166.419 132.128  1.00  0.00     0.013 C 
BRANCH   2   4
ATOM      4  C   UNL     1     160.979 164.892 133.912  1.00  0.00    -0.045 A 
ATOM      5  C   UNL     1     158.643 161.349 134.723  1.00  0.00     0.044 C 
ATOM      6  C   UNL     1     159.479 162.562 134.439  1.00  0.00    -0.051 A 
ATOM      7  C   UNL     1     160.038 163.298 135.495  1.00  0.00     0.004 A 
ATOM      8  C   UNL     1     159.653 163.008 133.121  1.00  0.00     0.004 A 
ATOM      9  C   UNL     1     160.786 164.449 135.233  1.00  0.00     0.004 A 
ATOM     10  C   UNL     1     160.400 164.159 132.859  1.00  0.00     0.004 A 
ENDBRANCH   2   4
ENDBRANCH   1   2
BRANCH   1  11
ATOM     11  C   UNL     1     164.031 164.885 133.632  1.00  0.00     0.028 C 
BRANCH  11  12
ATOM     12  C   UNL     1     164.508 163.920 134.689  1.00  0.00    -0.028 C 
ATOM     13  C   UNL     1     164.117 162.630 134.779  1.00  0.00    -0.080 C 
ATOM     14  C   UNL     1     164.650 161.795 135.913  1.00  0.00     0.039 C 
ATOM     15  C   UNL     1     163.182 162.005 133.769  1.00  0.00     0.039 C 
ENDBRANCH  11  12
ENDBRANCH   1  11
TORSDOF 4
ENDMDL
MODEL 4
REMARK VINA RESULT:    -5.306      8.425     10.670
REMARK INTER + INTRA:          -7.206
REMARK INTER:                  -5.797
REMARK INTRA:                  -1.409
REMARK UNBOUND:                -0.659
REMARK SMILES CC(C)=CCC[C@@H](C)c1ccc(C)cc1
REMARK SMILES IDX 6 1 7 2 8 3 9 4 13 5 12 6 11 7 14 8 10 9 15 10 5 11 4 12
REMARK SMILES IDX 2 13 1 14 3 15
REMARK H PARENT
REMARK Flexibility Score: inf
ROOT
ATOM      1  C   UNL     1     162.317 166.088 134.648  1.00  0.00     0.012 C 
ENDROOT
BRANCH   1   2
ATOM      2  C   UNL     1     161.448 165.781 133.408  1.00  0.00     0.016 C 
ATOM      3  C   UNL     1     161.993 166.448 132.135  1.00  0.00     0.013 C 
BRANCH   2   4
ATOM      4  C   UNL     1     161.329 164.281 133.204  1.00  0.00    -0.045 A 
ATOM      5  C   UNL     1     160.964 160.020 132.593  1.00  0.00     0.044 C 
ATOM      6  C   UNL     1     161.081 161.496 132.834  1.00  0.00    -0.051 A 
ATOM      7  C   UNL     1     160.000 162.345 132.557  1.00  0.00     0.004 A 
ATOM      8  C   UNL     1     162.294 162.046 133.273  1.00  0.00     0.004 A 
ATOM      9  C   UNL     1     160.120 163.725 132.746  1.00  0.00     0.004 A 
ATOM     10  C   UNL     1     162.415 163.425 133.462  1.00  0.00     0.004 A 
ENDBRANCH   2   4
ENDBRANCH   1   2
BRANCH   1  11
ATOM     11  C   UNL     1     161.523 166.014 135.961  1.00  0.00     0.028 C 
BRANCH  11  12
ATOM     12  C   UNL     1     161.886 164.770 136.734  1.00  0.00    -0.028 C 
ATOM     13  C   UNL     1     161.049 163.730 136.947  1.00  0.00    -0.080 C 
ATOM     14  C   UNL     1     161.541 162.571 137.772  1.00  0.00     0.039 C 
ATOM     15  C   UNL     1     159.654 163.694 136.367  1.00  0.00     0.039 C 
ENDBRANCH  11  12
ENDBRANCH   1  11
TORSDOF 4
ENDMDL
MODEL 5
REMARK VINA RESULT:    -5.183      8.223     10.927
REMARK INTER + INTRA:          -7.055
REMARK INTER:                  -6.264
REMARK INTRA:                  -0.790
REMARK UNBOUND:                -0.659
REMARK SMILES CC(C)=CCC[C@@H](C)c1ccc(C)cc1
REMARK SMILES IDX 6 1 7 2 8 3 9 4 13 5 12 6 11 7 14 8 10 9 15 10 5 11 4 12
REMARK SMILES IDX 2 13 1 14 3 15
REMARK H PARENT
REMARK Flexibility Score: inf
ROOT
ATOM      1  C   UNL     1     163.406 165.463 135.399  1.00  0.00     0.012 C 
ENDROOT
BRANCH   1   2
ATOM      2  C   UNL     1     163.882 164.067 134.937  1.00  0.00     0.016 C 
ATOM      3  C   UNL     1     164.384 164.074 133.484  1.00  0.00     0.013 C 
BRANCH   2   4
ATOM      4  C   UNL     1     164.966 163.545 135.863  1.00  0.00    -0.045 A 
ATOM      5  C   UNL     1     168.044 162.089 138.522  1.00  0.00     0.044 C 
ATOM      6  C   UNL     1     166.995 162.594 137.576  1.00  0.00    -0.051 A 
ATOM      7  C   UNL     1     166.786 163.973 137.423  1.00  0.00     0.004 A 
ATOM      8  C   UNL     1     166.170 161.693 136.888  1.00  0.00     0.004 A 
ATOM      9  C   UNL     1     165.785 164.444 136.569  1.00  0.00     0.004 A 
ATOM     10  C   UNL     1     165.168 162.163 136.035  1.00  0.00     0.004 A 
ENDBRANCH   2   4
ENDBRANCH   1   2
BRANCH   1  11
ATOM     11  C   UNL     1     161.894 165.664 135.214  1.00  0.00     0.028 C 
BRANCH  11  12
ATOM     12  C   UNL     1     161.604 166.362 133.909  1.00  0.00    -0.028 C 
ATOM     13  C   UNL     1     161.057 165.765 132.827  1.00  0.00    -0.080 C 
ATOM     14  C   UNL     1     160.862 166.583 131.577  1.00  0.00     0.039 C 
ATOM     15  C   UNL     1     160.622 164.318 132.846  1.00  0.00     0.039 C 
ENDBRANCH  11  12
ENDBRANCH   1  11
TORSDOF 4
ENDMDL
MODEL 6
REMARK VINA RESULT:    -5.133      8.659     11.455
REMARK INTER + INTRA:          -6.992
REMARK INTER:                  -5.524
REMARK INTRA:                  -1.468
REMARK UNBOUND:                -0.659
REMARK SMILES CC(C)=CCC[C@@H](C)c1ccc(C)cc1
REMARK SMILES IDX 6 1 7 2 8 3 9 4 13 5 12 6 11 7 14 8 10 9 15 10 5 11 4 12
REMARK SMILES IDX 2 13 1 14 3 15
REMARK H PARENT
REMARK Flexibility Score: inf
ROOT
ATOM      1  C   UNL     1     161.026 164.920 132.766  1.00  0.00     0.012 C 
ENDROOT
BRANCH   1   2
ATOM      2  C   UNL     1     162.089 165.468 133.744  1.00  0.00     0.016 C 
ATOM      3  C   UNL     1     161.465 166.302 134.874  1.00  0.00     0.013 C 
BRANCH   2   4
ATOM      4  C   UNL     1     162.910 164.330 134.325  1.00  0.00    -0.045 A 
ATOM      5  C   UNL     1     165.219 161.087 136.003  1.00  0.00     0.044 C 
ATOM      6  C   UNL     1     164.441 162.232 135.425  1.00  0.00    -0.051 A 
ATOM      7  C   UNL     1     163.614 163.012 136.247  1.00  0.00     0.004 A 
ATOM      8  C   UNL     1     164.481 162.489 134.047  1.00  0.00     0.004 A 
ATOM      9  C   UNL     1     162.861 164.056 135.703  1.00  0.00     0.004 A 
ATOM     10  C   UNL     1     163.727 163.533 133.502  1.00  0.00     0.004 A 
ENDBRANCH   2   4
ENDBRANCH   1   2
BRANCH   1  11
ATOM     11  C   UNL     1     160.222 163.752 133.357  1.00  0.00     0.028 C 
BRANCH  11  12
ATOM     12  C   UNL     1     160.355 162.522 132.493  1.00  0.00    -0.028 C 
ATOM     13  C   UNL     1     160.734 161.307 132.946  1.00  0.00    -0.080 C 
ATOM     14  C   UNL     1     160.859 160.179 131.956  1.00  0.00     0.039 C 
ATOM     15  C   UNL     1     161.013 161.049 134.409  1.00  0.00     0.039 C 
ENDBRANCH  11  12
ENDBRANCH   1  11
TORSDOF 4
ENDMDL
MODEL 7
REMARK VINA RESULT:    -5.127      7.660     10.103
REMARK INTER + INTRA:          -6.985
REMARK INTER:                  -5.545
REMARK INTRA:                  -1.440
REMARK UNBOUND:                -0.659
REMARK SMILES CC(C)=CCC[C@@H](C)c1ccc(C)cc1
REMARK SMILES IDX 6 1 7 2 8 3 9 4 13 5 12 6 11 7 14 8 10 9 15 10 5 11 4 12
REMARK SMILES IDX 2 13 1 14 3 15
REMARK H PARENT
REMARK Flexibility Score: inf
ROOT
ATOM      1  C   UNL     1     160.391 164.357 132.879  1.00  0.00     0.012 C 
ENDROOT
BRANCH   1   2
ATOM      2  C   UNL     1     161.568 165.349 132.748  1.00  0.00     0.016 C 
ATOM      3  C   UNL     1     161.108 166.741 132.285  1.00  0.00     0.013 C 
BRANCH   2   4
ATOM      4  C   UNL     1     162.320 165.456 134.062  1.00  0.00    -0.045 A 
ATOM      5  C   UNL     1     164.430 165.742 137.821  1.00  0.00     0.044 C 
ATOM      6  C   UNL     1     163.699 165.673 136.513  1.00  0.00    -0.051 A 
ATOM      7  C   UNL     1     162.297 165.715 136.483  1.00  0.00     0.004 A 
ATOM      8  C   UNL     1     164.408 165.499 135.316  1.00  0.00     0.004 A 
ATOM      9  C   UNL     1     161.614 165.614 135.268  1.00  0.00     0.004 A 
ATOM     10  C   UNL     1     163.725 165.397 134.100  1.00  0.00     0.004 A 
ENDBRANCH   2   4
ENDBRANCH   1   2
BRANCH   1  11
ATOM     11  C   UNL     1     160.844 162.890 132.825  1.00  0.00     0.028 C 
BRANCH  11  12
ATOM     12  C   UNL     1     160.547 162.191 134.128  1.00  0.00    -0.028 C 
ATOM     13  C   UNL     1     161.488 161.733 134.983  1.00  0.00    -0.080 C 
ATOM     14  C   UNL     1     161.040 161.020 136.231  1.00  0.00     0.039 C 
ATOM     15  C   UNL     1     162.965 161.934 134.729  1.00  0.00     0.039 C 
ENDBRANCH  11  12
ENDBRANCH   1  11
TORSDOF 4
ENDMDL
MODEL 8
REMARK VINA RESULT:    -5.078      8.155     10.225
REMARK INTER + INTRA:          -6.925
REMARK INTER:                  -5.444
REMARK INTRA:                  -1.481
REMARK UNBOUND:                -0.659
REMARK SMILES CC(C)=CCC[C@@H](C)c1ccc(C)cc1
REMARK SMILES IDX 6 1 7 2 8 3 9 4 13 5 12 6 11 7 14 8 10 9 15 10 5 11 4 12
REMARK SMILES IDX 2 13 1 14 3 15
REMARK H PARENT
REMARK Flexibility Score: inf
ROOT
ATOM      1  C   UNL     1     164.158 162.418 135.860  1.00  0.00     0.012 C 
ENDROOT
BRANCH   1   2
ATOM      2  C   UNL     1     164.161 163.926 136.197  1.00  0.00     0.016 C 
ATOM      3  C   UNL     1     165.583 164.497 136.303  1.00  0.00     0.013 C 
BRANCH   2   4
ATOM      4  C   UNL     1     163.361 164.700 135.163  1.00  0.00    -0.045 A 
ATOM      5  C   UNL     1     161.092 166.874 132.198  1.00  0.00     0.044 C 
ATOM      6  C   UNL     1     161.899 166.143 133.230  1.00  0.00    -0.051 A 
ATOM      7  C   UNL     1     162.946 165.295 132.839  1.00  0.00     0.004 A 
ATOM      8  C   UNL     1     161.570 166.248 134.589  1.00  0.00     0.004 A 
ATOM      9  C   UNL     1     163.675 164.586 133.797  1.00  0.00     0.004 A 
ATOM     10  C   UNL     1     162.298 165.538 135.548  1.00  0.00     0.004 A 
ENDBRANCH   2   4
ENDBRANCH   1   2
BRANCH   1  11
ATOM     11  C   UNL     1     162.744 161.818 135.839  1.00  0.00     0.028 C 
BRANCH  11  12
ATOM     12  C   UNL     1     162.395 161.324 134.457  1.00  0.00    -0.028 C 
ATOM     13  C   UNL     1     161.299 161.703 133.763  1.00  0.00    -0.080 C 
ATOM     14  C   UNL     1     161.063 161.095 132.406  1.00  0.00     0.039 C 
ATOM     15  C   UNL     1     160.326 162.727 134.300  1.00  0.00     0.039 C 
ENDBRANCH  11  12
ENDBRANCH   1  11
TORSDOF 4
ENDMDL
MODEL 9
REMARK VINA RESULT:    -5.070      7.759     10.149
REMARK INTER + INTRA:          -6.915
REMARK INTER:                  -5.328
REMARK INTRA:                  -1.587
REMARK UNBOUND:                -0.659
REMARK SMILES CC(C)=CCC[C@@H](C)c1ccc(C)cc1
REMARK SMILES IDX 6 1 7 2 8 3 9 4 13 5 12 6 11 7 14 8 10 9 15 10 5 11 4 12
REMARK SMILES IDX 2 13 1 14 3 15
REMARK H PARENT
REMARK Flexibility Score: inf
ROOT
ATOM      1  C   UNL     1     163.992 162.555 135.782  1.00  0.00     0.012 C 
ENDROOT
BRANCH   1   2
ATOM      2  C   UNL     1     163.260 162.116 134.494  1.00  0.00     0.016 C 
ATOM      3  C   UNL     1     162.237 161.000 134.756  1.00  0.00     0.013 C 
BRANCH   2   4
ATOM      4  C   UNL     1     162.582 163.306 133.838  1.00  0.00    -0.045 A 
ATOM      5  C   UNL     1     160.687 166.704 131.960  1.00  0.00     0.044 C 
ATOM      6  C   UNL     1     161.334 165.533 132.639  1.00  0.00    -0.051 A 
ATOM      7  C   UNL     1     162.647 165.632 133.121  1.00  0.00     0.004 A 
ATOM      8  C   UNL     1     160.655 164.309 132.737  1.00  0.00     0.004 A 
ATOM      9  C   UNL     1     163.264 164.531 133.722  1.00  0.00     0.004 A 
ATOM     10  C   UNL     1     161.271 163.207 133.336  1.00  0.00     0.004 A 
ENDBRANCH   2   4
ENDBRANCH   1   2
BRANCH   1  11
ATOM     11  C   UNL     1     163.038 162.733 136.973  1.00  0.00     0.028 C 
BRANCH  11  12
ATOM     12  C   UNL     1     162.716 164.191 137.185  1.00  0.00    -0.028 C 
ATOM     13  C   UNL     1     161.484 164.730 137.050  1.00  0.00    -0.080 C 
ATOM     14  C   UNL     1     161.322 166.213 137.256  1.00  0.00     0.039 C 
ATOM     15  C   UNL     1     160.274 163.887 136.718  1.00  0.00     0.039 C 
ENDBRANCH  11  12
ENDBRANCH   1  11
TORSDOF 4
ENDMDL
