MODEL 1
REMARK VINA RESULT:    -4.665      0.000      0.000
REMARK INTER + INTRA:          -4.665
REMARK INTER:                  -4.665
REMARK INTRA:                   0.000
REMARK UNBOUND:                 0.000
REMARK SMILES O=c1ccc2ccccc2o1
REMARK SMILES IDX 7 1 8 2 9 3 10 4 5 5 6 6 4 7 3 8 2 9 1 10 11 11
REMARK H PARENT
REMARK Flexibility Score: inf
ROOT
ATOM      1  C   UNL     1       9.737  15.913 -19.981  1.00  0.00     0.001 A 
ATOM      2  C   UNL     1      10.757  15.391 -19.177  1.00  0.00     0.004 A 
ATOM      3  C   UNL     1      10.454  14.489 -18.152  1.00  0.00     0.048 A 
ATOM      4  C   UNL     1       9.128  14.103 -17.927  1.00  0.00     0.138 A 
ATOM      5  C   UNL     1       8.097  14.630 -18.739  1.00  0.00     0.018 A 
ATOM      6  C   UNL     1       8.408  15.534 -19.765  1.00  0.00     0.012 A 
ATOM      7  C   UNL     1       6.782  14.227 -18.491  1.00  0.00     0.019 A 
ATOM      8  C   UNL     1       6.526  13.324 -17.459  1.00  0.00     0.094 A 
ATOM      9  C   UNL     1       7.596  12.845 -16.695  1.00  0.00     0.336 A 
ATOM     10  O   UNL     1       7.385  12.031 -15.759  1.00  0.00    -0.246 OA
ATOM     11  O   UNL     1       8.840  13.245 -16.952  1.00  0.00    -0.423 OA
ENDROOT
TORSDOF 0
ENDMDL
MODEL 2
REMARK VINA RESULT:    -4.406      2.545      4.296
REMARK INTER + INTRA:          -4.406
REMARK INTER:                  -4.406
REMARK INTRA:                   0.000
REMARK UNBOUND:                 0.000
REMARK SMILES O=c1ccc2ccccc2o1
REMARK SMILES IDX 7 1 8 2 9 3 10 4 5 5 6 6 4 7 3 8 2 9 1 10 11 11
REMARK H PARENT
REMARK Flexibility Score: inf
ROOT
ATOM      1  C   UNL     1       6.971  14.680 -17.337  1.00  0.00     0.001 A 
ATOM      2  C   UNL     1       6.582  15.563 -18.350  1.00  0.00     0.004 A 
ATOM      3  C   UNL     1       7.378  15.724 -19.489  1.00  0.00     0.048 A 
ATOM      4  C   UNL     1       8.569  15.000 -19.619  1.00  0.00     0.138 A 
ATOM      5  C   UNL     1       8.963  14.107 -18.596  1.00  0.00     0.018 A 
ATOM      6  C   UNL     1       8.159  13.951 -17.457  1.00  0.00     0.012 A 
ATOM      7  C   UNL     1      10.156  13.397 -18.754  1.00  0.00     0.019 A 
ATOM      8  C   UNL     1      10.919  13.588 -19.906  1.00  0.00     0.094 A 
ATOM      9  C   UNL     1      10.467  14.489 -20.877  1.00  0.00     0.336 A 
ATOM     10  O   UNL     1      11.141  14.675 -21.924  1.00  0.00    -0.246 OA
ATOM     11  O   UNL     1       9.326  15.152 -20.703  1.00  0.00    -0.423 OA
ENDROOT
TORSDOF 0
ENDMDL
MODEL 3
REMARK VINA RESULT:    -4.239      1.662      3.824
REMARK INTER + INTRA:          -4.239
REMARK INTER:                  -4.239
REMARK INTRA:                   0.000
REMARK UNBOUND:                 0.000
REMARK SMILES O=c1ccc2ccccc2o1
REMARK SMILES IDX 7 1 8 2 9 3 10 4 5 5 6 6 4 7 3 8 2 9 1 10 11 11
REMARK H PARENT
REMARK Flexibility Score: inf
ROOT
ATOM      1  C   UNL     1       6.628  12.720 -16.599  1.00  0.00     0.001 A 
ATOM      2  C   UNL     1       7.903  12.286 -16.220  1.00  0.00     0.004 A 
ATOM      3  C   UNL     1       9.038  12.788 -16.864  1.00  0.00     0.048 A 
ATOM      4  C   UNL     1       8.903  13.729 -17.891  1.00  0.00     0.138 A 
ATOM      5  C   UNL     1       7.615  14.168 -18.275  1.00  0.00     0.018 A 
ATOM      6  C   UNL     1       6.480  13.660 -17.625  1.00  0.00     0.012 A 
ATOM      7  C   UNL     1       7.510  15.108 -19.305  1.00  0.00     0.019 A 
ATOM      8  C   UNL     1       8.669  15.582 -19.919  1.00  0.00     0.094 A 
ATOM      9  C   UNL     1       9.911  15.102 -19.487  1.00  0.00     0.336 A 
ATOM     10  O   UNL     1      10.968  15.518 -20.029  1.00  0.00    -0.246 OA
ATOM     11  O   UNL     1       9.983  14.207 -18.504  1.00  0.00    -0.423 OA
ENDROOT
TORSDOF 0
ENDMDL
MODEL 4
REMARK VINA RESULT:    -3.931      2.084      2.683
REMARK INTER + INTRA:          -3.931
REMARK INTER:                  -3.931
REMARK INTRA:                   0.000
REMARK UNBOUND:                 0.000
REMARK SMILES O=c1ccc2ccccc2o1
REMARK SMILES IDX 7 1 8 2 9 3 10 4 5 5 6 6 4 7 3 8 2 9 1 10 11 11
REMARK H PARENT
REMARK Flexibility Score: inf
ROOT
ATOM      1  C   UNL     1      11.148  13.886 -20.241  1.00  0.00     0.001 A 
ATOM      2  C   UNL     1      10.808  15.112 -20.824  1.00  0.00     0.004 A 
ATOM      3  C   UNL     1       9.667  15.801 -20.399  1.00  0.00     0.048 A 
ATOM      4  C   UNL     1       8.862  15.266 -19.387  1.00  0.00     0.138 A 
ATOM      5  C   UNL     1       9.205  14.028 -18.798  1.00  0.00     0.018 A 
ATOM      6  C   UNL     1      10.350  13.342 -19.229  1.00  0.00     0.012 A 
ATOM      7  C   UNL     1       8.382  13.519 -17.790  1.00  0.00     0.019 A 
ATOM      8  C   UNL     1       7.254  14.240 -17.397  1.00  0.00     0.094 A 
ATOM      9  C   UNL     1       6.976  15.459 -18.026  1.00  0.00     0.336 A 
ATOM     10  O   UNL     1       5.963  16.125 -17.686  1.00  0.00    -0.246 OA
ATOM     11  O   UNL     1       7.777  15.922 -18.984  1.00  0.00    -0.423 OA
ENDROOT
TORSDOF 0
ENDMDL
MODEL 5
REMARK VINA RESULT:    -3.227      1.134      2.096
REMARK INTER + INTRA:          -3.227
REMARK INTER:                  -3.227
REMARK INTRA:                   0.000
REMARK UNBOUND:                 0.000
REMARK SMILES O=c1ccc2ccccc2o1
REMARK SMILES IDX 7 1 8 2 9 3 10 4 5 5 6 6 4 7 3 8 2 9 1 10 11 11
REMARK H PARENT
REMARK Flexibility Score: inf
ROOT
ATOM      1  C   UNL     1       9.720  15.108 -20.002  1.00  0.00     0.001 A 
ATOM      2  C   UNL     1       8.483  15.758 -19.937  1.00  0.00     0.004 A 
ATOM      3  C   UNL     1       7.531  15.366 -18.989  1.00  0.00     0.048 A 
ATOM      4  C   UNL     1       7.815  14.322 -18.101  1.00  0.00     0.138 A 
ATOM      5  C   UNL     1       9.065  13.665 -18.167  1.00  0.00     0.018 A 
ATOM      6  C   UNL     1      10.014  14.063 -19.120  1.00  0.00     0.012 A 
ATOM      7  C   UNL     1       9.320  12.626 -17.268  1.00  0.00     0.019 A 
ATOM      8  C   UNL     1       8.343  12.269 -16.339  1.00  0.00     0.094 A 
ATOM      9  C   UNL     1       7.127  12.964 -16.333  1.00  0.00     0.336 A 
ATOM     10  O   UNL     1       6.233  12.656 -15.502  1.00  0.00    -0.246 OA
ATOM     11  O   UNL     1       6.910  13.950 -17.200  1.00  0.00    -0.423 OA
ENDROOT
TORSDOF 0
ENDMDL
MODEL 6
REMARK VINA RESULT:    -2.995      1.980      4.119
REMARK INTER + INTRA:          -2.995
REMARK INTER:                  -2.995
REMARK INTRA:                   0.000
REMARK UNBOUND:                 0.000
REMARK SMILES O=c1ccc2ccccc2o1
REMARK SMILES IDX 7 1 8 2 9 3 10 4 5 5 6 6 4 7 3 8 2 9 1 10 11 11
REMARK H PARENT
REMARK Flexibility Score: inf
ROOT
ATOM      1  C   UNL     1       8.725  11.872 -15.904  1.00  0.00     0.001 A 
ATOM      2  C   UNL     1       7.330  11.941 -15.826  1.00  0.00     0.004 A 
ATOM      3  C   UNL     1       6.616  12.769 -16.698  1.00  0.00     0.048 A 
ATOM      4  C   UNL     1       7.296  13.533 -17.654  1.00  0.00     0.138 A 
ATOM      5  C   UNL     1       8.706  13.463 -17.733  1.00  0.00     0.018 A 
ATOM      6  C   UNL     1       9.415  12.631 -16.855  1.00  0.00     0.012 A 
ATOM      7  C   UNL     1       9.357  14.237 -18.698  1.00  0.00     0.019 A 
ATOM      8  C   UNL     1       8.605  15.049 -19.547  1.00  0.00     0.094 A 
ATOM      9  C   UNL     1       7.212  15.067 -19.410  1.00  0.00     0.336 A 
ATOM     10  O   UNL     1       6.517  15.793 -20.167  1.00  0.00    -0.246 OA
ATOM     11  O   UNL     1       6.616  14.320 -18.483  1.00  0.00    -0.423 OA
ENDROOT
TORSDOF 0
ENDMDL
MODEL 7
REMARK VINA RESULT:    -2.556      1.436      3.501
REMARK INTER + INTRA:          -2.556
REMARK INTER:                  -2.556
REMARK INTRA:                   0.000
REMARK UNBOUND:                 0.000
REMARK SMILES O=c1ccc2ccccc2o1
REMARK SMILES IDX 7 1 8 2 9 3 10 4 5 5 6 6 4 7 3 8 2 9 1 10 11 11
REMARK H PARENT
REMARK Flexibility Score: inf
ROOT
ATOM      1  C   UNL     1       6.422  14.617 -19.597  1.00  0.00     0.001 A 
ATOM      2  C   UNL     1       6.303  14.037 -18.330  1.00  0.00     0.004 A 
ATOM      3  C   UNL     1       7.402  14.004 -17.465  1.00  0.00     0.048 A 
ATOM      4  C   UNL     1       8.626  14.552 -17.865  1.00  0.00     0.138 A 
ATOM      5  C   UNL     1       8.746  15.139 -19.146  1.00  0.00     0.018 A 
ATOM      6  C   UNL     1       7.640  15.169 -20.008  1.00  0.00     0.012 A 
ATOM      7  C   UNL     1       9.981  15.679 -19.518  1.00  0.00     0.019 A 
ATOM      8  C   UNL     1      11.049  15.624 -18.623  1.00  0.00     0.094 A 
ATOM      9  C   UNL     1      10.857  15.028 -17.372  1.00  0.00     0.336 A 
ATOM     10  O   UNL     1      11.809  14.969 -16.551  1.00  0.00    -0.246 OA
ATOM     11  O   UNL     1       9.670  14.521 -17.042  1.00  0.00    -0.423 OA
ENDROOT
TORSDOF 0
ENDMDL
MODEL 8
REMARK VINA RESULT:    -2.100     23.144     24.308
REMARK INTER + INTRA:          -2.100
REMARK INTER:                  -2.100
REMARK INTRA:                   0.000
REMARK UNBOUND:                 0.000
REMARK SMILES O=c1ccc2ccccc2o1
REMARK SMILES IDX 7 1 8 2 9 3 10 4 5 5 6 6 4 7 3 8 2 9 1 10 11 11
REMARK H PARENT
REMARK Flexibility Score: inf
ROOT
ATOM      1  C   UNL     1      26.089   2.617 -25.510  1.00  0.00     0.001 A 
ATOM      2  C   UNL     1      26.112   1.376 -24.864  1.00  0.00     0.004 A 
ATOM      3  C   UNL     1      26.124   0.194 -25.610  1.00  0.00     0.048 A 
ATOM      4  C   UNL     1      26.113   0.248 -27.009  1.00  0.00     0.138 A 
ATOM      5  C   UNL     1      26.089   1.501 -27.662  1.00  0.00     0.018 A 
ATOM      6  C   UNL     1      26.078   2.683 -26.907  1.00  0.00     0.012 A 
ATOM      7  C   UNL     1      26.078   1.524 -29.060  1.00  0.00     0.019 A 
ATOM      8  C   UNL     1      26.091   0.320 -29.764  1.00  0.00     0.094 A 
ATOM      9  C   UNL     1      26.113  -0.884 -29.050  1.00  0.00     0.336 A 
ATOM     10  O   UNL     1      26.125  -1.980 -29.668  1.00  0.00    -0.246 OA
ATOM     11  O   UNL     1      26.124  -0.877 -27.719  1.00  0.00    -0.423 OA
ENDROOT
TORSDOF 0
ENDMDL
MODEL 9
REMARK VINA RESULT:    -1.950     22.823     23.968
REMARK INTER + INTRA:          -1.950
REMARK INTER:                  -1.950
REMARK INTRA:                   0.000
REMARK UNBOUND:                 0.000
REMARK SMILES O=c1ccc2ccccc2o1
REMARK SMILES IDX 7 1 8 2 9 3 10 4 5 5 6 6 4 7 3 8 2 9 1 10 11 11
REMARK H PARENT
REMARK Flexibility Score: inf
ROOT
ATOM      1  C   UNL     1      26.120  -0.319 -29.700  1.00  0.00     0.001 A 
ATOM      2  C   UNL     1      26.124  -1.357 -28.761  1.00  0.00     0.004 A 
ATOM      3  C   UNL     1      26.125  -1.069 -27.393  1.00  0.00     0.048 A 
ATOM      4  C   UNL     1      26.122   0.261 -26.956  1.00  0.00     0.138 A 
ATOM      5  C   UNL     1      26.118   1.310 -27.904  1.00  0.00     0.018 A 
ATOM      6  C   UNL     1      26.118   1.013 -29.275  1.00  0.00     0.012 A 
ATOM      7  C   UNL     1      26.116   2.628 -27.439  1.00  0.00     0.019 A 
ATOM      8  C   UNL     1      26.116   2.869 -26.065  1.00  0.00     0.094 A 
ATOM      9  C   UNL     1      26.120   1.780 -25.185  1.00  0.00     0.336 A 
ATOM     10  O   UNL     1      26.121   1.977 -23.942  1.00  0.00    -0.246 OA
ATOM     11  O   UNL     1      26.122   0.534 -25.654  1.00  0.00    -0.423 OA
ENDROOT
TORSDOF 0
ENDMDL
