MODEL 1
REMARK VINA RESULT:    -4.824      0.000      0.000
REMARK INTER + INTRA:         -11.127
REMARK INTER:                  -9.054
REMARK INTRA:                  -2.073
REMARK UNBOUND:                -2.073
REMARK SMILES O=C([O-])CCCCCCCCCCCCCCC(=O)[O-]
REMARK SMILES IDX 10 1 9 2 8 3 7 4 6 5 5 6 4 7 2 8 1 9 3 10 11 11 12 12 13 13
REMARK SMILES IDX 14 14 15 15 16 16 17 17 18 18 19 19 20 20
REMARK H PARENT
REMARK Flexibility Score: inf
ROOT
ATOM      1  C   UNL     1      18.745 -33.888  20.554  1.00  0.00     0.000 C 
ENDROOT
BRANCH   1   2
ATOM      2  C   UNL     1      17.788 -34.001  19.358  1.00  0.00     0.000 C 
BRANCH   2   3
ATOM      3  C   UNL     1      17.029 -35.337  19.331  1.00  0.00     0.000 C 
BRANCH   3   4
ATOM      4  C   UNL     1      15.724 -35.293  20.146  1.00  0.00     0.000 C 
BRANCH   4   5
ATOM      5  C   UNL     1      15.013 -33.935  20.048  1.00  0.00     0.000 C 
BRANCH   5   6
ATOM      6  C   UNL     1      14.697 -33.332  21.428  1.00  0.00     0.006 C 
BRANCH   6   7
ATOM      7  C   UNL     1      15.401 -34.084  22.565  1.00  0.00     0.053 C 
BRANCH   7   8
ATOM      8  C   UNL     1      15.289 -33.350  23.867  1.00  0.00     0.041 C 
ATOM      9  O   UNL     1      16.326 -33.010  24.495  1.00  0.00    -0.550 OA
ATOM     10  O   UNL     1      14.039 -33.013  24.369  1.00  0.00    -0.550 OA
ENDBRANCH   7   8
ENDBRANCH   6   7
ENDBRANCH   5   6
ENDBRANCH   4   5
ENDBRANCH   3   4
ENDBRANCH   2   3
ENDBRANCH   1   2
BRANCH   1  11
ATOM     11  C   UNL     1      19.129 -32.424  20.813  1.00  0.00     0.000 C 
BRANCH  11  12
ATOM     12  C   UNL     1      17.934 -31.465  20.691  1.00  0.00     0.000 C 
BRANCH  12  13
ATOM     13  C   UNL     1      17.489 -30.896  22.050  1.00  0.00     0.000 C 
BRANCH  13  14
ATOM     14  C   UNL     1      16.608 -29.644  21.904  1.00  0.00     0.000 C 
BRANCH  14  15
ATOM     15  C   UNL     1      15.534 -29.547  23.001  1.00  0.00     0.000 C 
BRANCH  15  16
ATOM     16  C   UNL     1      14.141 -29.968  22.504  1.00  0.00     0.006 C 
BRANCH  16  17
ATOM     17  C   UNL     1      13.051 -29.776  23.566  1.00  0.00     0.053 C 
BRANCH  17  18
ATOM     18  C   UNL     1      11.742 -29.452  22.917  1.00  0.00     0.041 C 
ATOM     19  O   UNL     1      11.274 -30.205  22.022  1.00  0.00    -0.550 OA
ATOM     20  O   UNL     1      11.017 -28.342  23.332  1.00  0.00    -0.550 OA
ENDBRANCH  17  18
ENDBRANCH  16  17
ENDBRANCH  15  16
ENDBRANCH  14  15
ENDBRANCH  13  14
ENDBRANCH  12  13
ENDBRANCH  11  12
ENDBRANCH   1  11
TORSDOF 15
ENDMDL
MODEL 2
REMARK VINA RESULT:    -4.713      2.127      5.738
REMARK INTER + INTRA:         -10.920
REMARK INTER:                  -8.947
REMARK INTRA:                  -1.973
REMARK UNBOUND:                -2.073
REMARK SMILES O=C([O-])CCCCCCCCCCCCCCC(=O)[O-]
REMARK SMILES IDX 10 1 9 2 8 3 7 4 6 5 5 6 4 7 2 8 1 9 3 10 11 11 12 12 13 13
REMARK SMILES IDX 14 14 15 15 16 16 17 17 18 18 19 19 20 20
REMARK H PARENT
REMARK Flexibility Score: inf
ROOT
ATOM      1  C   UNL     1      15.154 -33.342  23.493  1.00  0.00     0.000 C 
ENDROOT
BRANCH   1   2
ATOM      2  C   UNL     1      15.134 -34.121  22.169  1.00  0.00     0.000 C 
BRANCH   2   3
ATOM      3  C   UNL     1      15.084 -33.199  20.940  1.00  0.00     0.000 C 
BRANCH   3   4
ATOM      4  C   UNL     1      13.744 -32.452  20.815  1.00  0.00     0.000 C 
BRANCH   4   5
ATOM      5  C   UNL     1      13.809 -31.026  21.383  1.00  0.00     0.000 C 
BRANCH   5   6
ATOM      6  C   UNL     1      12.657 -30.727  22.359  1.00  0.00     0.006 C 
BRANCH   6   7
ATOM      7  C   UNL     1      13.136 -29.983  23.612  1.00  0.00     0.053 C 
BRANCH   7   8
ATOM      8  C   UNL     1      12.293 -28.777  23.896  1.00  0.00     0.041 C 
ATOM      9  O   UNL     1      11.162 -28.653  23.358  1.00  0.00    -0.550 OA
ATOM     10  O   UNL     1      12.744 -27.806  24.781  1.00  0.00    -0.550 OA
ENDBRANCH   7   8
ENDBRANCH   6   7
ENDBRANCH   5   6
ENDBRANCH   4   5
ENDBRANCH   3   4
ENDBRANCH   2   3
ENDBRANCH   1   2
BRANCH   1  11
ATOM     11  C   UNL     1      16.573 -32.854  23.821  1.00  0.00     0.000 C 
BRANCH  11  12
ATOM     12  C   UNL     1      16.740 -31.338  23.626  1.00  0.00     0.000 C 
BRANCH  12  13
ATOM     13  C   UNL     1      17.981 -30.981  22.788  1.00  0.00     0.000 C 
BRANCH  13  14
ATOM     14  C   UNL     1      17.872 -31.475  21.336  1.00  0.00     0.000 C 
BRANCH  14  15
ATOM     15  C   UNL     1      19.060 -32.362  20.925  1.00  0.00     0.000 C 
BRANCH  15  16
ATOM     16  C   UNL     1      18.760 -33.862  21.083  1.00  0.00     0.006 C 
BRANCH  16  17
ATOM     17  C   UNL     1      18.269 -34.508  19.782  1.00  0.00     0.053 C 
BRANCH  17  18
ATOM     18  C   UNL     1      17.764 -35.893  20.045  1.00  0.00     0.041 C 
ATOM     19  O   UNL     1      17.473 -36.654  19.084  1.00  0.00    -0.550 OA
ATOM     20  O   UNL     1      17.657 -36.358  21.349  1.00  0.00    -0.550 OA
ENDBRANCH  17  18
ENDBRANCH  16  17
ENDBRANCH  15  16
ENDBRANCH  14  15
ENDBRANCH  13  14
ENDBRANCH  12  13
ENDBRANCH  11  12
ENDBRANCH   1  11
TORSDOF 15
ENDMDL
MODEL 3
REMARK VINA RESULT:    -4.669      1.720      4.296
REMARK INTER + INTRA:         -10.837
REMARK INTER:                  -8.545
REMARK INTRA:                  -2.293
REMARK UNBOUND:                -2.073
REMARK SMILES O=C([O-])CCCCCCCCCCCCCCC(=O)[O-]
REMARK SMILES IDX 10 1 9 2 8 3 7 4 6 5 5 6 4 7 2 8 1 9 3 10 11 11 12 12 13 13
REMARK SMILES IDX 14 14 15 15 16 16 17 17 18 18 19 19 20 20
REMARK H PARENT
REMARK Flexibility Score: inf
ROOT
ATOM      1  C   UNL     1      18.251 -33.306  20.795  1.00  0.00     0.000 C 
ENDROOT
BRANCH   1   2
ATOM      2  C   UNL     1      18.087 -34.014  19.441  1.00  0.00     0.000 C 
BRANCH   2   3
ATOM      3  C   UNL     1      16.738 -34.740  19.313  1.00  0.00     0.000 C 
BRANCH   3   4
ATOM      4  C   UNL     1      15.846 -34.555  20.553  1.00  0.00     0.000 C 
BRANCH   4   5
ATOM      5  C   UNL     1      14.650 -33.628  20.287  1.00  0.00     0.000 C 
BRANCH   5   6
ATOM      6  C   UNL     1      14.265 -32.792  21.520  1.00  0.00     0.006 C 
BRANCH   6   7
ATOM      7  C   UNL     1      13.493 -31.521  21.141  1.00  0.00     0.053 C 
BRANCH   7   8
ATOM      8  C   UNL     1      12.765 -30.945  22.318  1.00  0.00     0.041 C 
ATOM      9  O   UNL     1      11.665 -30.354  22.156  1.00  0.00    -0.550 OA
ATOM     10  O   UNL     1      13.287 -31.089  23.597  1.00  0.00    -0.550 OA
ENDBRANCH   7   8
ENDBRANCH   6   7
ENDBRANCH   5   6
ENDBRANCH   4   5
ENDBRANCH   3   4
ENDBRANCH   2   3
ENDBRANCH   1   2
BRANCH   1  11
ATOM     11  C   UNL     1      19.286 -32.175  20.700  1.00  0.00     0.000 C 
BRANCH  11  12
ATOM     12  C   UNL     1      18.874 -30.924  21.492  1.00  0.00     0.000 C 
BRANCH  12  13
ATOM     13  C   UNL     1      17.365 -30.635  21.402  1.00  0.00     0.000 C 
BRANCH  13  14
ATOM     14  C   UNL     1      16.722 -30.432  22.784  1.00  0.00     0.000 C 
BRANCH  14  15
ATOM     15  C   UNL     1      17.469 -31.184  23.898  1.00  0.00     0.000 C 
BRANCH  15  16
ATOM     16  C   UNL     1      16.901 -32.592  24.144  1.00  0.00     0.006 C 
BRANCH  16  17
ATOM     17  C   UNL     1      17.997 -33.642  24.365  1.00  0.00     0.053 C 
BRANCH  17  18
ATOM     18  C   UNL     1      17.429 -35.022  24.252  1.00  0.00     0.041 C 
ATOM     19  O   UNL     1      16.593 -35.435  25.099  1.00  0.00    -0.550 OA
ATOM     20  O   UNL     1      17.789 -35.836  23.186  1.00  0.00    -0.550 OA
ENDBRANCH  17  18
ENDBRANCH  16  17
ENDBRANCH  15  16
ENDBRANCH  14  15
ENDBRANCH  13  14
ENDBRANCH  12  13
ENDBRANCH  11  12
ENDBRANCH   1  11
TORSDOF 15
ENDMDL
MODEL 4
REMARK VINA RESULT:    -4.636      2.235      3.988
REMARK INTER + INTRA:         -10.775
REMARK INTER:                  -8.115
REMARK INTRA:                  -2.660
REMARK UNBOUND:                -2.073
REMARK SMILES O=C([O-])CCCCCCCCCCCCCCC(=O)[O-]
REMARK SMILES IDX 10 1 9 2 8 3 7 4 6 5 5 6 4 7 2 8 1 9 3 10 11 11 12 12 13 13
REMARK SMILES IDX 14 14 15 15 16 16 17 17 18 18 19 19 20 20
REMARK H PARENT
REMARK Flexibility Score: inf
ROOT
ATOM      1  C   UNL     1      17.564 -36.415  20.734  1.00  0.00     0.000 C 
ENDROOT
BRANCH   1   2
ATOM      2  C   UNL     1      18.716 -36.095  21.699  1.00  0.00     0.000 C 
BRANCH   2   3
ATOM      3  C   UNL     1      18.242 -35.365  22.965  1.00  0.00     0.000 C 
BRANCH   3   4
ATOM      4  C   UNL     1      18.397 -33.837  22.860  1.00  0.00     0.000 C 
BRANCH   4   5
ATOM      5  C   UNL     1      19.604 -33.424  22.004  1.00  0.00     0.000 C 
BRANCH   5   6
ATOM      6  C   UNL     1      19.228 -32.425  20.896  1.00  0.00     0.006 C 
BRANCH   6   7
ATOM      7  C   UNL     1      18.015 -31.566  21.276  1.00  0.00     0.053 C 
BRANCH   7   8
ATOM      8  C   UNL     1      18.359 -30.107  21.309  1.00  0.00     0.041 C 
ATOM      9  O   UNL     1      19.506 -29.718  20.964  1.00  0.00    -0.550 OA
ATOM     10  O   UNL     1      17.402 -29.176  21.691  1.00  0.00    -0.550 OA
ENDBRANCH   7   8
ENDBRANCH   6   7
ENDBRANCH   5   6
ENDBRANCH   4   5
ENDBRANCH   3   4
ENDBRANCH   2   3
ENDBRANCH   1   2
BRANCH   1  11
ATOM     11  C   UNL     1      17.590 -35.477  19.518  1.00  0.00     0.000 C 
BRANCH  11  12
ATOM     12  C   UNL     1      16.398 -34.507  19.489  1.00  0.00     0.000 C 
BRANCH  12  13
ATOM     13  C   UNL     1      15.391 -34.770  20.623  1.00  0.00     0.000 C 
BRANCH  13  14
ATOM     14  C   UNL     1      14.925 -33.475  21.308  1.00  0.00     0.000 C 
BRANCH  14  15
ATOM     15  C   UNL     1      14.908 -33.593  22.842  1.00  0.00     0.000 C 
BRANCH  15  16
ATOM     16  C   UNL     1      14.956 -32.224  23.540  1.00  0.00     0.006 C 
BRANCH  16  17
ATOM     17  C   UNL     1      14.522 -31.075  22.622  1.00  0.00     0.053 C 
BRANCH  17  18
ATOM     18  C   UNL     1      13.136 -30.626  22.966  1.00  0.00     0.041 C 
ATOM     19  O   UNL     1      12.936 -29.916  23.988  1.00  0.00    -0.550 OA
ATOM     20  O   UNL     1      12.073 -30.954  22.136  1.00  0.00    -0.550 OA
ENDBRANCH  17  18
ENDBRANCH  16  17
ENDBRANCH  15  16
ENDBRANCH  14  15
ENDBRANCH  13  14
ENDBRANCH  12  13
ENDBRANCH  11  12
ENDBRANCH   1  11
TORSDOF 15
ENDMDL
MODEL 5
REMARK VINA RESULT:    -4.631      3.201      5.987
REMARK INTER + INTRA:         -10.765
REMARK INTER:                  -8.854
REMARK INTRA:                  -1.911
REMARK UNBOUND:                -2.073
REMARK SMILES O=C([O-])CCCCCCCCCCCCCCC(=O)[O-]
REMARK SMILES IDX 10 1 9 2 8 3 7 4 6 5 5 6 4 7 2 8 1 9 3 10 11 11 12 12 13 13
REMARK SMILES IDX 14 14 15 15 16 16 17 17 18 18 19 19 20 20
REMARK H PARENT
REMARK Flexibility Score: inf
ROOT
ATOM      1  C   UNL     1      16.530 -30.682  23.285  1.00  0.00     0.000 C 
ENDROOT
BRANCH   1   2
ATOM      2  C   UNL     1      17.856 -31.003  22.579  1.00  0.00     0.000 C 
BRANCH   2   3
ATOM      3  C   UNL     1      17.658 -31.452  21.122  1.00  0.00     0.000 C 
BRANCH   3   4
ATOM      4  C   UNL     1      18.892 -32.175  20.553  1.00  0.00     0.000 C 
BRANCH   4   5
ATOM      5  C   UNL     1      20.130 -32.024  21.450  1.00  0.00     0.000 C 
BRANCH   5   6
ATOM      6  C   UNL     1      21.139 -31.003  20.897  1.00  0.00     0.006 C 
BRANCH   6   7
ATOM      7  C   UNL     1      21.196 -29.725  21.745  1.00  0.00     0.053 C 
BRANCH   7   8
ATOM      8  C   UNL     1      20.675 -28.538  20.992  1.00  0.00     0.041 C 
ATOM      9  O   UNL     1      19.439 -28.408  20.789  1.00  0.00    -0.550 OA
ATOM     10  O   UNL     1      21.552 -27.560  20.544  1.00  0.00    -0.550 OA
ENDBRANCH   7   8
ENDBRANCH   6   7
ENDBRANCH   5   6
ENDBRANCH   4   5
ENDBRANCH   3   4
ENDBRANCH   2   3
ENDBRANCH   1   2
BRANCH   1  11
ATOM     11  C   UNL     1      15.950 -29.351  22.784  1.00  0.00     0.000 C 
BRANCH  11  12
ATOM     12  C   UNL     1      14.420 -29.384  22.641  1.00  0.00     0.000 C 
BRANCH  12  13
ATOM     13  C   UNL     1      13.754 -30.370  23.617  1.00  0.00     0.000 C 
BRANCH  13  14
ATOM     14  C   UNL     1      13.273 -31.653  22.920  1.00  0.00     0.000 C 
BRANCH  14  15
ATOM     15  C   UNL     1      13.464 -31.603  21.394  1.00  0.00     0.000 C 
BRANCH  15  16
ATOM     16  C   UNL     1      14.208 -32.833  20.850  1.00  0.00     0.006 C 
BRANCH  16  17
ATOM     17  C   UNL     1      14.879 -33.656  21.957  1.00  0.00     0.053 C 
BRANCH  17  18
ATOM     18  C   UNL     1      15.790 -34.685  21.364  1.00  0.00     0.041 C 
ATOM     19  O   UNL     1      16.747 -35.150  22.039  1.00  0.00    -0.550 OA
ATOM     20  O   UNL     1      15.556 -35.164  20.082  1.00  0.00    -0.550 OA
ENDBRANCH  17  18
ENDBRANCH  16  17
ENDBRANCH  15  16
ENDBRANCH  14  15
ENDBRANCH  13  14
ENDBRANCH  12  13
ENDBRANCH  11  12
ENDBRANCH   1  11
TORSDOF 15
ENDMDL
MODEL 6
REMARK VINA RESULT:    -4.591      2.452      5.444
REMARK INTER + INTRA:         -10.690
REMARK INTER:                  -8.171
REMARK INTRA:                  -2.519
REMARK UNBOUND:                -2.073
REMARK SMILES O=C([O-])CCCCCCCCCCCCCCC(=O)[O-]
REMARK SMILES IDX 10 1 9 2 8 3 7 4 6 5 5 6 4 7 2 8 1 9 3 10 11 11 12 12 13 13
REMARK SMILES IDX 14 14 15 15 16 16 17 17 18 18 19 19 20 20
REMARK H PARENT
REMARK Flexibility Score: inf
ROOT
ATOM      1  C   UNL     1      17.904 -32.677  24.790  1.00  0.00     0.000 C 
ENDROOT
BRANCH   1   2
ATOM      2  C   UNL     1      17.963 -34.015  24.037  1.00  0.00     0.000 C 
BRANCH   2   3
ATOM      3  C   UNL     1      16.577 -34.653  23.854  1.00  0.00     0.000 C 
BRANCH   3   4
ATOM      4  C   UNL     1      15.453 -33.822  24.497  1.00  0.00     0.000 C 
BRANCH   4   5
ATOM      5  C   UNL     1      14.519 -33.187  23.456  1.00  0.00     0.000 C 
BRANCH   5   6
ATOM      6  C   UNL     1      13.782 -31.950  23.999  1.00  0.00     0.006 C 
BRANCH   6   7
ATOM      7  C   UNL     1      13.366 -30.985  22.881  1.00  0.00     0.053 C 
BRANCH   7   8
ATOM      8  C   UNL     1      13.379 -29.561  23.347  1.00  0.00     0.041 C 
ATOM      9  O   UNL     1      14.169 -28.730  22.825  1.00  0.00    -0.550 OA
ATOM     10  O   UNL     1      12.496 -29.144  24.334  1.00  0.00    -0.550 OA
ENDBRANCH   7   8
ENDBRANCH   6   7
ENDBRANCH   5   6
ENDBRANCH   4   5
ENDBRANCH   3   4
ENDBRANCH   2   3
ENDBRANCH   1   2
BRANCH   1  11
ATOM     11  C   UNL     1      18.346 -31.518  23.885  1.00  0.00     0.000 C 
BRANCH  11  12
ATOM     12  C   UNL     1      17.172 -30.637  23.430  1.00  0.00     0.000 C 
BRANCH  12  13
ATOM     13  C   UNL     1      17.068 -30.530  21.898  1.00  0.00     0.000 C 
BRANCH  13  14
ATOM     14  C   UNL     1      16.962 -31.905  21.219  1.00  0.00     0.000 C 
BRANCH  14  15
ATOM     15  C   UNL     1      18.251 -32.297  20.476  1.00  0.00     0.000 C 
BRANCH  15  16
ATOM     16  C   UNL     1      18.351 -33.811  20.225  1.00  0.00     0.006 C 
BRANCH  16  17
ATOM     17  C   UNL     1      16.985 -34.508  20.254  1.00  0.00     0.053 C 
BRANCH  17  18
ATOM     18  C   UNL     1      17.156 -35.994  20.212  1.00  0.00     0.041 C 
ATOM     19  O   UNL     1      16.838 -36.640  19.178  1.00  0.00    -0.550 OA
ATOM     20  O   UNL     1      17.707 -36.661  21.299  1.00  0.00    -0.550 OA
ENDBRANCH  17  18
ENDBRANCH  16  17
ENDBRANCH  15  16
ENDBRANCH  14  15
ENDBRANCH  13  14
ENDBRANCH  12  13
ENDBRANCH  11  12
ENDBRANCH   1  11
TORSDOF 15
ENDMDL
MODEL 7
REMARK VINA RESULT:    -4.568      2.441      5.662
REMARK INTER + INTRA:         -10.647
REMARK INTER:                  -8.179
REMARK INTRA:                  -2.468
REMARK UNBOUND:                -2.073
REMARK SMILES O=C([O-])CCCCCCCCCCCCCCC(=O)[O-]
REMARK SMILES IDX 10 1 9 2 8 3 7 4 6 5 5 6 4 7 2 8 1 9 3 10 11 11 12 12 13 13
REMARK SMILES IDX 14 14 15 15 16 16 17 17 18 18 19 19 20 20
REMARK H PARENT
REMARK Flexibility Score: inf
ROOT
ATOM      1  C   UNL     1      19.170 -32.173  22.931  1.00  0.00     0.000 C 
ENDROOT
BRANCH   1   2
ATOM      2  C   UNL     1      18.911 -32.366  21.429  1.00  0.00     0.000 C 
BRANCH   2   3
ATOM      3  C   UNL     1      17.871 -31.379  20.876  1.00  0.00     0.000 C 
BRANCH   3   4
ATOM      4  C   UNL     1      17.598 -30.207  21.835  1.00  0.00     0.000 C 
BRANCH   4   5
ATOM      5  C   UNL     1      16.143 -29.720  21.774  1.00  0.00     0.000 C 
BRANCH   5   6
ATOM      6  C   UNL     1      15.319 -30.165  22.995  1.00  0.00     0.006 C 
BRANCH   6   7
ATOM      7  C   UNL     1      14.059 -29.311  23.187  1.00  0.00     0.053 C 
BRANCH   7   8
ATOM      8  C   UNL     1      12.810 -30.110  22.966  1.00  0.00     0.041 C 
ATOM      9  O   UNL     1      12.854 -31.368  22.962  1.00  0.00    -0.550 OA
ATOM     10  O   UNL     1      11.593 -29.464  22.797  1.00  0.00    -0.550 OA
ENDBRANCH   7   8
ENDBRANCH   6   7
ENDBRANCH   5   6
ENDBRANCH   4   5
ENDBRANCH   3   4
ENDBRANCH   2   3
ENDBRANCH   1   2
BRANCH   1  11
ATOM     11  C   UNL     1      18.636 -33.366  23.737  1.00  0.00     0.000 C 
BRANCH  11  12
ATOM     12  C   UNL     1      17.598 -32.954  24.794  1.00  0.00     0.000 C 
BRANCH  12  13
ATOM     13  C   UNL     1      16.165 -33.357  24.406  1.00  0.00     0.000 C 
BRANCH  13  14
ATOM     14  C   UNL     1      16.131 -34.383  23.261  1.00  0.00     0.000 C 
BRANCH  14  15
ATOM     15  C   UNL     1      15.285 -33.907  22.068  1.00  0.00     0.000 C 
BRANCH  15  16
ATOM     16  C   UNL     1      15.717 -34.556  20.742  1.00  0.00     0.006 C 
BRANCH  16  17
ATOM     17  C   UNL     1      16.887 -35.532  20.913  1.00  0.00     0.053 C 
BRANCH  17  18
ATOM     18  C   UNL     1      17.554 -35.785  19.597  1.00  0.00     0.041 C 
ATOM     19  O   UNL     1      17.443 -36.908  19.036  1.00  0.00    -0.550 OA
ATOM     20  O   UNL     1      18.260 -34.768  18.970  1.00  0.00    -0.550 OA
ENDBRANCH  17  18
ENDBRANCH  16  17
ENDBRANCH  15  16
ENDBRANCH  14  15
ENDBRANCH  13  14
ENDBRANCH  12  13
ENDBRANCH  11  12
ENDBRANCH   1  11
TORSDOF 15
ENDMDL
MODEL 8
REMARK VINA RESULT:    -4.499      3.218      5.686
REMARK INTER + INTRA:         -10.517
REMARK INTER:                  -8.380
REMARK INTRA:                  -2.137
REMARK UNBOUND:                -2.073
REMARK SMILES O=C([O-])CCCCCCCCCCCCCCC(=O)[O-]
REMARK SMILES IDX 10 1 9 2 8 3 7 4 6 5 5 6 4 7 2 8 1 9 3 10 11 11 12 12 13 13
REMARK SMILES IDX 14 14 15 15 16 16 17 17 18 18 19 19 20 20
REMARK H PARENT
REMARK Flexibility Score: inf
ROOT
ATOM      1  C   UNL     1      15.930 -29.890  22.874  1.00  0.00     0.000 C 
ENDROOT
BRANCH   1   2
ATOM      2  C   UNL     1      17.293 -30.583  22.735  1.00  0.00     0.000 C 
BRANCH   2   3
ATOM      3  C   UNL     1      17.957 -30.318  21.374  1.00  0.00     0.000 C 
BRANCH   3   4
ATOM      4  C   UNL     1      18.947 -31.426  20.973  1.00  0.00     0.000 C 
BRANCH   4   5
ATOM      5  C   UNL     1      18.368 -32.835  21.172  1.00  0.00     0.000 C 
BRANCH   5   6
ATOM      6  C   UNL     1      17.670 -33.371  19.909  1.00  0.00     0.006 C 
BRANCH   6   7
ATOM      7  C   UNL     1      18.095 -34.807  19.577  1.00  0.00     0.053 C 
BRANCH   7   8
ATOM      8  C   UNL     1      17.033 -35.797  19.948  1.00  0.00     0.041 C 
ATOM      9  O   UNL     1      15.825 -35.446  19.992  1.00  0.00    -0.550 OA
ATOM     10  O   UNL     1      17.376 -37.117  20.214  1.00  0.00    -0.550 OA
ENDBRANCH   7   8
ENDBRANCH   6   7
ENDBRANCH   5   6
ENDBRANCH   4   5
ENDBRANCH   3   4
ENDBRANCH   2   3
ENDBRANCH   1   2
BRANCH   1  11
ATOM     11  C   UNL     1      15.012 -30.243  21.694  1.00  0.00     0.000 C 
BRANCH  11  12
ATOM     12  C   UNL     1      14.282 -31.582  21.888  1.00  0.00     0.000 C 
BRANCH  12  13
ATOM     13  C   UNL     1      13.746 -31.764  23.319  1.00  0.00     0.000 C 
BRANCH  13  14
ATOM     14  C   UNL     1      14.390 -32.960  24.040  1.00  0.00     0.000 C 
BRANCH  14  15
ATOM     15  C   UNL     1      15.128 -33.903  23.075  1.00  0.00     0.000 C 
BRANCH  15  16
ATOM     16  C   UNL     1      16.450 -34.430  23.659  1.00  0.00     0.006 C 
BRANCH  16  17
ATOM     17  C   UNL     1      16.674 -33.987  25.110  1.00  0.00     0.053 C 
BRANCH  17  18
ATOM     18  C   UNL     1      18.129 -34.042  25.454  1.00  0.00     0.041 C 
ATOM     19  O   UNL     1      18.816 -35.053  25.145  1.00  0.00    -0.550 OA
ATOM     20  O   UNL     1      18.738 -32.961  26.077  1.00  0.00    -0.550 OA
ENDBRANCH  17  18
ENDBRANCH  16  17
ENDBRANCH  15  16
ENDBRANCH  14  15
ENDBRANCH  13  14
ENDBRANCH  12  13
ENDBRANCH  11  12
ENDBRANCH   1  11
TORSDOF 15
ENDMDL
MODEL 9
REMARK VINA RESULT:    -4.488      4.739      7.493
REMARK INTER + INTRA:         -10.497
REMARK INTER:                  -9.221
REMARK INTRA:                  -1.277
REMARK UNBOUND:                -2.073
REMARK SMILES O=C([O-])CCCCCCCCCCCCCCC(=O)[O-]
REMARK SMILES IDX 10 1 9 2 8 3 7 4 6 5 5 6 4 7 2 8 1 9 3 10 11 11 12 12 13 13
REMARK SMILES IDX 14 14 15 15 16 16 17 17 18 18 19 19 20 20
REMARK H PARENT
REMARK Flexibility Score: inf
ROOT
ATOM      1  C   UNL     1      16.677 -29.890  22.538  1.00  0.00     0.000 C 
ENDROOT
BRANCH   1   2
ATOM      2  C   UNL     1      17.305 -30.801  21.473  1.00  0.00     0.000 C 
BRANCH   2   3
ATOM      3  C   UNL     1      18.658 -30.277  20.968  1.00  0.00     0.000 C 
BRANCH   3   4
ATOM      4  C   UNL     1      18.748 -28.741  21.003  1.00  0.00     0.000 C 
BRANCH   4   5
ATOM      5  C   UNL     1      20.199 -28.235  20.980  1.00  0.00     0.000 C 
BRANCH   5   6
ATOM      6  C   UNL     1      20.331 -26.852  20.317  1.00  0.00     0.006 C 
BRANCH   6   7
ATOM      7  C   UNL     1      21.460 -26.018  20.935  1.00  0.00     0.053 C 
BRANCH   7   8
ATOM      8  C   UNL     1      22.625 -25.886  20.002  1.00  0.00     0.041 C 
ATOM      9  O   UNL     1      22.912 -24.768  19.499  1.00  0.00    -0.550 OA
ATOM     10  O   UNL     1      23.413 -26.993  19.713  1.00  0.00    -0.550 OA
ENDBRANCH   7   8
ENDBRANCH   6   7
ENDBRANCH   5   6
ENDBRANCH   4   5
ENDBRANCH   3   4
ENDBRANCH   2   3
ENDBRANCH   1   2
BRANCH   1  11
ATOM     11  C   UNL     1      15.237 -29.514  22.159  1.00  0.00     0.000 C 
BRANCH  11  12
ATOM     12  C   UNL     1      14.200 -30.034  23.168  1.00  0.00     0.000 C 
BRANCH  12  13
ATOM     13  C   UNL     1      13.705 -31.451  22.833  1.00  0.00     0.000 C 
BRANCH  13  14
ATOM     14  C   UNL     1      13.887 -32.431  24.004  1.00  0.00     0.000 C 
BRANCH  14  15
ATOM     15  C   UNL     1      15.005 -33.456  23.746  1.00  0.00     0.000 C 
BRANCH  15  16
ATOM     16  C   UNL     1      15.128 -33.837  22.261  1.00  0.00     0.006 C 
BRANCH  16  17
ATOM     17  C   UNL     1      16.507 -34.406  21.908  1.00  0.00     0.053 C 
BRANCH  17  18
ATOM     18  C   UNL     1      16.618 -34.628  20.432  1.00  0.00     0.041 C 
ATOM     19  O   UNL     1      17.273 -33.823  19.717  1.00  0.00    -0.550 OA
ATOM     20  O   UNL     1      16.035 -35.747  19.852  1.00  0.00    -0.550 OA
ENDBRANCH  17  18
ENDBRANCH  16  17
ENDBRANCH  15  16
ENDBRANCH  14  15
ENDBRANCH  13  14
ENDBRANCH  12  13
ENDBRANCH  11  12
ENDBRANCH   1  11
TORSDOF 15
ENDMDL
