MODEL 1
REMARK VINA RESULT:    -3.587      0.000      0.000
REMARK INTER + INTRA:          -4.370
REMARK INTER:                  -4.217
REMARK INTRA:                  -0.153
REMARK UNBOUND:                -0.153
REMARK SMILES O=C([O-])CCC(=O)[O-]
REMARK SMILES IDX 4 1 2 2 1 3 3 4 5 5 6 6 7 7 8 8
REMARK H PARENT
REMARK Flexibility Score: inf
ROOT
ATOM      1  C   UNL     1      60.380  30.056  11.778  1.00  0.00     0.059 C 
ENDROOT
BRANCH   1   2
ATOM      2  C   UNL     1      60.184  28.857  12.655  1.00  0.00     0.042 C 
ATOM      3  O   UNL     1      61.099  28.488  13.437  1.00  0.00    -0.550 OA
ATOM      4  O   UNL     1      58.975  28.173  12.638  1.00  0.00    -0.550 OA
ENDBRANCH   1   2
BRANCH   1   5
ATOM      5  C   UNL     1      60.270  29.694  10.293  1.00  0.00     0.059 C 
BRANCH   5   6
ATOM      6  C   UNL     1      61.367  28.766   9.869  1.00  0.00     0.042 C 
ATOM      7  O   UNL     1      61.120  27.800   9.101  1.00  0.00    -0.550 OA
ATOM      8  O   UNL     1      62.672  28.993  10.290  1.00  0.00    -0.550 OA
ENDBRANCH   5   6
ENDBRANCH   1   5
TORSDOF 3
ENDMDL
MODEL 2
REMARK VINA RESULT:    -3.585      0.068      3.551
REMARK INTER + INTRA:          -4.367
REMARK INTER:                  -4.212
REMARK INTRA:                  -0.155
REMARK UNBOUND:                -0.153
REMARK SMILES O=C([O-])CCC(=O)[O-]
REMARK SMILES IDX 4 1 2 2 1 3 3 4 5 5 6 6 7 7 8 8
REMARK H PARENT
REMARK Flexibility Score: inf
ROOT
ATOM      1  C   UNL     1      60.310  29.732  10.336  1.00  0.00     0.059 C 
ENDROOT
BRANCH   1   2
ATOM      2  C   UNL     1      61.388  28.784   9.906  1.00  0.00     0.042 C 
ATOM      3  O   UNL     1      61.119  27.830   9.128  1.00  0.00    -0.550 OA
ATOM      4  O   UNL     1      62.696  28.977  10.332  1.00  0.00    -0.550 OA
ENDBRANCH   1   2
BRANCH   1   5
ATOM      5  C   UNL     1      60.390  30.036  11.836  1.00  0.00     0.059 C 
BRANCH   5   6
ATOM      6  C   UNL     1      60.162  28.806  12.661  1.00  0.00     0.042 C 
ATOM      7  O   UNL     1      61.073  28.367  13.411  1.00  0.00    -0.550 OA
ATOM      8  O   UNL     1      58.927  28.169  12.631  1.00  0.00    -0.550 OA
ENDBRANCH   5   6
ENDBRANCH   1   5
TORSDOF 3
ENDMDL
MODEL 3
REMARK VINA RESULT:    -3.528      0.228      3.417
REMARK INTER + INTRA:          -4.300
REMARK INTER:                  -4.161
REMARK INTRA:                  -0.138
REMARK UNBOUND:                -0.153
REMARK SMILES O=C([O-])CCC(=O)[O-]
REMARK SMILES IDX 4 1 2 2 1 3 3 4 5 5 6 6 7 7 8 8
REMARK H PARENT
REMARK Flexibility Score: inf
ROOT
ATOM      1  C   UNL     1      60.363  29.762  10.274  1.00  0.00     0.059 C 
ENDROOT
BRANCH   1   2
ATOM      2  C   UNL     1      61.440  28.810   9.848  1.00  0.00     0.042 C 
ATOM      3  O   UNL     1      61.169  27.854   9.075  1.00  0.00    -0.550 OA
ATOM      4  O   UNL     1      62.748  29.005  10.272  1.00  0.00    -0.550 OA
ENDBRANCH   1   2
BRANCH   1   5
ATOM      5  C   UNL     1      60.543  30.202  11.730  1.00  0.00     0.059 C 
BRANCH   5   6
ATOM      6  C   UNL     1      60.248  29.087  12.685  1.00  0.00     0.042 C 
ATOM      7  O   UNL     1      59.207  28.392  12.548  1.00  0.00    -0.550 OA
ATOM      8  O   UNL     1      61.144  28.788  13.705  1.00  0.00    -0.550 OA
ENDBRANCH   5   6
ENDBRANCH   1   5
TORSDOF 3
ENDMDL
MODEL 4
REMARK VINA RESULT:    -3.520     14.242     16.077
REMARK INTER + INTRA:          -4.291
REMARK INTER:                  -4.199
REMARK INTRA:                  -0.092
REMARK UNBOUND:                -0.153
REMARK SMILES O=C([O-])CCC(=O)[O-]
REMARK SMILES IDX 4 1 2 2 1 3 3 4 5 5 6 6 7 7 8 8
REMARK H PARENT
REMARK Flexibility Score: inf
ROOT
ATOM      1  C   UNL     1      61.486  27.114  26.982  1.00  0.00     0.059 C 
ENDROOT
BRANCH   1   2
ATOM      2  C   UNL     1      60.742  27.367  25.706  1.00  0.00     0.042 C 
ATOM      3  O   UNL     1      61.154  28.239  24.896  1.00  0.00    -0.550 OA
ATOM      4  O   UNL     1      59.619  26.612  25.394  1.00  0.00    -0.550 OA
ENDBRANCH   1   2
BRANCH   1   5
ATOM      5  C   UNL     1      62.571  28.169  27.223  1.00  0.00     0.059 C 
BRANCH   5   6
ATOM      6  C   UNL     1      62.134  29.191  28.227  1.00  0.00     0.042 C 
ATOM      7  O   UNL     1      61.142  28.969  28.969  1.00  0.00    -0.550 OA
ATOM      8  O   UNL     1      62.849  30.374  28.370  1.00  0.00    -0.550 OA
ENDBRANCH   5   6
ENDBRANCH   1   5
TORSDOF 3
ENDMDL
MODEL 5
REMARK VINA RESULT:    -3.498     14.196     15.938
REMARK INTER + INTRA:          -4.265
REMARK INTER:                  -4.174
REMARK INTRA:                  -0.091
REMARK UNBOUND:                -0.153
REMARK SMILES O=C([O-])CCC(=O)[O-]
REMARK SMILES IDX 4 1 2 2 1 3 3 4 5 5 6 6 7 7 8 8
REMARK H PARENT
REMARK Flexibility Score: inf
ROOT
ATOM      1  C   UNL     1      62.591  28.214  27.242  1.00  0.00     0.059 C 
ENDROOT
BRANCH   1   2
ATOM      2  C   UNL     1      62.104  29.208  28.253  1.00  0.00     0.042 C 
ATOM      3  O   UNL     1      61.071  28.967  28.932  1.00  0.00    -0.550 OA
ATOM      4  O   UNL     1      62.815  30.381  28.474  1.00  0.00    -0.550 OA
ENDBRANCH   1   2
BRANCH   1   5
ATOM      5  C   UNL     1      61.542  27.132  26.964  1.00  0.00     0.059 C 
BRANCH   5   6
ATOM      6  C   UNL     1      60.835  27.370  25.666  1.00  0.00     0.042 C 
ATOM      7  O   UNL     1      61.291  28.201  24.837  1.00  0.00    -0.550 OA
ATOM      8  O   UNL     1      59.692  26.644  25.353  1.00  0.00    -0.550 OA
ENDBRANCH   5   6
ENDBRANCH   1   5
TORSDOF 3
ENDMDL
MODEL 6
REMARK VINA RESULT:    -3.453     14.228     15.863
REMARK INTER + INTRA:          -4.211
REMARK INTER:                  -4.114
REMARK INTRA:                  -0.097
REMARK UNBOUND:                -0.153
REMARK SMILES O=C([O-])CCC(=O)[O-]
REMARK SMILES IDX 4 1 2 2 1 3 3 4 5 5 6 6 7 7 8 8
REMARK H PARENT
REMARK Flexibility Score: inf
ROOT
ATOM      1  C   UNL     1      62.701  28.156  27.222  1.00  0.00     0.059 C 
ENDROOT
BRANCH   1   2
ATOM      2  C   UNL     1      62.203  29.223  28.149  1.00  0.00     0.042 C 
ATOM      3  O   UNL     1      62.787  30.338  28.204  1.00  0.00    -0.550 OA
ATOM      4  O   UNL     1      61.070  29.000  28.921  1.00  0.00    -0.550 OA
ENDBRANCH   1   2
BRANCH   1   5
ATOM      5  C   UNL     1      61.639  27.080  26.977  1.00  0.00     0.059 C 
BRANCH   5   6
ATOM      6  C   UNL     1      60.856  27.350  25.729  1.00  0.00     0.042 C 
ATOM      7  O   UNL     1      59.787  26.724  25.502  1.00  0.00    -0.550 OA
ATOM      8  O   UNL     1      61.287  28.322  24.834  1.00  0.00    -0.550 OA
ENDBRANCH   5   6
ENDBRANCH   1   5
TORSDOF 3
ENDMDL
MODEL 7
REMARK VINA RESULT:    -3.437      1.403      3.661
REMARK INTER + INTRA:          -4.193
REMARK INTER:                  -4.080
REMARK INTRA:                  -0.112
REMARK UNBOUND:                -0.153
REMARK SMILES O=C([O-])CCC(=O)[O-]
REMARK SMILES IDX 4 1 2 2 1 3 3 4 5 5 6 6 7 7 8 8
REMARK H PARENT
REMARK Flexibility Score: inf
ROOT
ATOM      1  C   UNL     1      60.474  29.331  11.015  1.00  0.00     0.059 C 
ENDROOT
BRANCH   1   2
ATOM      2  C   UNL     1      61.427  28.686  10.055  1.00  0.00     0.042 C 
ATOM      3  O   UNL     1      61.000  27.887   9.180  1.00  0.00    -0.550 OA
ATOM      4  O   UNL     1      62.780  28.998  10.102  1.00  0.00    -0.550 OA
ENDBRANCH   1   2
BRANCH   1   5
ATOM      5  C   UNL     1      60.459  28.610  12.367  1.00  0.00     0.059 C 
BRANCH   5   6
ATOM      6  C   UNL     1      61.453  29.200  13.319  1.00  0.00     0.042 C 
ATOM      7  O   UNL     1      62.597  28.688  13.441  1.00  0.00    -0.550 OA
ATOM      8  O   UNL     1      61.129  30.341  14.044  1.00  0.00    -0.550 OA
ENDBRANCH   5   6
ENDBRANCH   1   5
TORSDOF 3
ENDMDL
MODEL 8
REMARK VINA RESULT:    -3.391      1.479      1.961
REMARK INTER + INTRA:          -4.139
REMARK INTER:                  -4.056
REMARK INTRA:                  -0.083
REMARK UNBOUND:                -0.153
REMARK SMILES O=C([O-])CCC(=O)[O-]
REMARK SMILES IDX 4 1 2 2 1 3 3 4 5 5 6 6 7 7 8 8
REMARK H PARENT
REMARK Flexibility Score: inf
ROOT
ATOM      1  C   UNL     1      60.478  28.789  12.537  1.00  0.00     0.059 C 
ENDROOT
BRANCH   1   2
ATOM      2  C   UNL     1      60.825  30.022  13.316  1.00  0.00     0.042 C 
ATOM      3  O   UNL     1      61.526  29.936  14.358  1.00  0.00    -0.550 OA
ATOM      4  O   UNL     1      60.406  31.269  12.867  1.00  0.00    -0.550 OA
ENDBRANCH   1   2
BRANCH   1   5
ATOM      5  C   UNL     1      60.218  29.108  11.061  1.00  0.00     0.059 C 
BRANCH   5   6
ATOM      6  C   UNL     1      61.336  28.627  10.188  1.00  0.00     0.042 C 
ATOM      7  O   UNL     1      62.532  28.880  10.490  1.00  0.00    -0.550 OA
ATOM      8  O   UNL     1      61.059  27.863   9.061  1.00  0.00    -0.550 OA
ENDBRANCH   5   6
ENDBRANCH   1   5
TORSDOF 3
ENDMDL
MODEL 9
REMARK VINA RESULT:    -3.291      1.831      1.960
REMARK INTER + INTRA:          -4.021
REMARK INTER:                  -3.901
REMARK INTRA:                  -0.120
REMARK UNBOUND:                -0.153
REMARK SMILES O=C([O-])CCC(=O)[O-]
REMARK SMILES IDX 4 1 2 2 1 3 3 4 5 5 6 6 7 7 8 8
REMARK H PARENT
REMARK Flexibility Score: inf
ROOT
ATOM      1  C   UNL     1      60.374  29.702  12.029  1.00  0.00     0.059 C 
ENDROOT
BRANCH   1   2
ATOM      2  C   UNL     1      60.830  31.010  12.599  1.00  0.00     0.042 C 
ATOM      3  O   UNL     1      61.945  31.491  12.266  1.00  0.00    -0.550 OA
ATOM      4  O   UNL     1      60.007  31.716  13.467  1.00  0.00    -0.550 OA
ENDBRANCH   1   2
BRANCH   1   5
ATOM      5  C   UNL     1      60.384  29.719  10.497  1.00  0.00     0.059 C 
BRANCH   5   6
ATOM      6  C   UNL     1      61.410  28.781   9.940  1.00  0.00     0.042 C 
ATOM      7  O   UNL     1      61.071  27.873   9.137  1.00  0.00    -0.550 OA
ATOM      8  O   UNL     1      62.750  28.936  10.278  1.00  0.00    -0.550 OA
ENDBRANCH   5   6
ENDBRANCH   1   5
TORSDOF 3
ENDMDL
