MODEL 1
REMARK VINA RESULT:    -8.102      0.000      0.000
REMARK INTER + INTRA:         -10.101
REMARK INTER:                  -9.760
REMARK INTRA:                  -0.341
REMARK UNBOUND:                -0.341
REMARK SMILES O=c1c(O)c(-c2ccc(O)cc2O)oc2cc(O)cc(O)c12
REMARK SMILES IDX 5 1 3 2 2 3 1 4 22 5 20 6 19 7 17 8 16 9 15 10 14 11 6 12
REMARK SMILES IDX 8 13 7 14 9 15 11 16 12 17 10 18 13 20 4 22 21 24 18 26
REMARK H PARENT 10 19 13 21 4 23 21 25 18 27
REMARK Flexibility Score: inf
ROOT
ATOM      1  C   UNL     1      -1.670   0.236   4.427  1.00  0.00     0.184 A 
ATOM      2  C   UNL     1      -1.465   0.864   3.184  1.00  0.00     0.208 A 
ATOM      3  C   UNL     1      -1.183   2.239   3.157  1.00  0.00     0.238 A 
ATOM      4  O   UNL     1      -1.006   2.814   2.049  1.00  0.00    -0.285 OA
ATOM      5  C   UNL     1      -1.093   2.956   4.369  1.00  0.00     0.111 A 
ATOM      6  C   UNL     1      -0.808   4.341   4.429  1.00  0.00     0.134 A 
ATOM      7  C   UNL     1      -0.728   4.981   5.675  1.00  0.00     0.093 A 
ATOM      8  C   UNL     1      -0.927   4.262   6.860  1.00  0.00     0.123 A 
ATOM      9  C   UNL     1      -1.209   2.896   6.804  1.00  0.00     0.094 A 
ATOM     10  C   UNL     1      -1.293   2.241   5.573  1.00  0.00     0.146 A 
ATOM     11  O   UNL     1      -1.567   0.941   5.550  1.00  0.00    -0.451 OA
ENDROOT
BRANCH   1  12
ATOM     12  C   UNL     1      -1.990  -1.206   4.529  1.00  0.00     0.063 A 
ATOM     13  C   UNL     1      -3.431  -3.091   3.984  1.00  0.00     0.047 A 
ATOM     14  C   UNL     1      -3.113  -1.737   3.867  1.00  0.00     0.020 A 
ATOM     15  C   UNL     1      -2.640  -3.934   4.773  1.00  0.00     0.119 A 
ATOM     16  C   UNL     1      -1.530  -3.415   5.446  1.00  0.00     0.093 A 
ATOM     17  C   UNL     1      -1.201  -2.056   5.332  1.00  0.00     0.130 A 
BRANCH  15  18
ATOM     18  O   UNL     1      -2.948  -5.287   4.898  1.00  0.00    -0.508 OA
ATOM     19  H   UNL     1      -3.822  -5.665   4.550  1.00  0.00     0.293 HD
ENDBRANCH  15  18
BRANCH  17  20
ATOM     20  O   UNL     1      -0.087  -1.552   6.004  1.00  0.00    -0.507 OA
ATOM     21  H   UNL     1       0.203  -1.921   6.902  1.00  0.00     0.293 HD
ENDBRANCH  17  20
ENDBRANCH   1  12
BRANCH   2  22
ATOM     22  O   UNL     1      -1.521   0.122   2.002  1.00  0.00    -0.502 OA
ATOM     23  H   UNL     1      -2.141  -0.670   1.887  1.00  0.00     0.293 HD
ENDBRANCH   2  22
BRANCH   6  24
ATOM     24  O   UNL     1      -0.605   5.084   3.266  1.00  0.00    -0.507 OA
ATOM     25  H   UNL     1      -0.297   6.049   3.296  1.00  0.00     0.293 HD
ENDBRANCH   6  24
BRANCH   8  26
ATOM     26  O   UNL     1      -0.847   4.897   8.096  1.00  0.00    -0.508 OA
ATOM     27  H   UNL     1      -1.600   5.481   8.442  1.00  0.00     0.293 HD
ENDBRANCH   8  26
TORSDOF 6
ENDMDL
MODEL 2
REMARK VINA RESULT:    -7.982      1.649      7.150
REMARK INTER + INTRA:          -9.956
REMARK INTER:                  -9.875
REMARK INTRA:                  -0.081
REMARK UNBOUND:                -0.341
REMARK SMILES O=c1c(O)c(-c2ccc(O)cc2O)oc2cc(O)cc(O)c12
REMARK SMILES IDX 5 1 3 2 2 3 1 4 22 5 20 6 19 7 17 8 16 9 15 10 14 11 6 12
REMARK SMILES IDX 8 13 7 14 9 15 11 16 12 17 10 18 13 20 4 22 21 24 18 26
REMARK H PARENT 10 19 13 21 4 23 21 25 18 27
REMARK Flexibility Score: inf
ROOT
ATOM      1  C   UNL     1      -1.386  -0.247   4.879  1.00  0.00     0.184 A 
ATOM      2  C   UNL     1      -0.934  -0.791   6.096  1.00  0.00     0.208 A 
ATOM      3  C   UNL     1      -0.993  -2.182   6.281  1.00  0.00     0.238 A 
ATOM      4  O   UNL     1      -0.598  -2.680   7.369  1.00  0.00    -0.285 OA
ATOM      5  C   UNL     1      -1.484  -3.002   5.244  1.00  0.00     0.111 A 
ATOM      6  C   UNL     1      -1.572  -4.411   5.348  1.00  0.00     0.134 A 
ATOM      7  C   UNL     1      -2.067  -5.159   4.268  1.00  0.00     0.093 A 
ATOM      8  C   UNL     1      -2.473  -4.524   3.088  1.00  0.00     0.123 A 
ATOM      9  C   UNL     1      -2.388  -3.135   2.983  1.00  0.00     0.094 A 
ATOM     10  C   UNL     1      -1.900  -2.372   4.047  1.00  0.00     0.146 A 
ATOM     11  O   UNL     1      -1.834  -1.052   3.920  1.00  0.00    -0.451 OA
ENDROOT
BRANCH   1  12
ATOM     12  C   UNL     1      -1.371   1.212   4.624  1.00  0.00     0.063 A 
ATOM     13  C   UNL     1      -1.753   3.491   5.387  1.00  0.00     0.047 A 
ATOM     14  C   UNL     1      -1.741   2.117   5.635  1.00  0.00     0.020 A 
ATOM     15  C   UNL     1      -1.407   3.981   4.122  1.00  0.00     0.119 A 
ATOM     16  C   UNL     1      -1.051   3.089   3.106  1.00  0.00     0.093 A 
ATOM     17  C   UNL     1      -1.034   1.707   3.347  1.00  0.00     0.130 A 
BRANCH  15  18
ATOM     18  O   UNL     1      -1.416   5.350   3.863  1.00  0.00    -0.508 OA
ATOM     19  H   UNL     1      -0.647   5.802   3.382  1.00  0.00     0.293 HD
ENDBRANCH  15  18
BRANCH  17  20
ATOM     20  O   UNL     1      -0.672   0.829   2.326  1.00  0.00    -0.507 OA
ATOM     21  H   UNL     1      -0.641   1.124   1.357  1.00  0.00     0.293 HD
ENDBRANCH  17  20
ENDBRANCH   1  12
BRANCH   2  22
ATOM     22  O   UNL     1      -0.415   0.041   7.090  1.00  0.00    -0.502 OA
ATOM     23  H   UNL     1       0.295  -0.269   7.742  1.00  0.00     0.293 HD
ENDBRANCH   2  22
BRANCH   6  24
ATOM     24  O   UNL     1      -1.175  -5.072   6.510  1.00  0.00    -0.507 OA
ATOM     25  H   UNL     1      -1.693  -4.985   7.377  1.00  0.00     0.293 HD
ENDBRANCH   6  24
BRANCH   8  26
ATOM     26  O   UNL     1      -2.963  -5.266   2.016  1.00  0.00    -0.508 OA
ATOM     27  H   UNL     1      -2.455  -6.061   1.645  1.00  0.00     0.293 HD
ENDBRANCH   8  26
TORSDOF 6
ENDMDL
MODEL 3
REMARK VINA RESULT:    -7.693      1.971      6.864
REMARK INTER + INTRA:          -9.608
REMARK INTER:                  -9.292
REMARK INTRA:                  -0.316
REMARK UNBOUND:                -0.341
REMARK SMILES O=c1c(O)c(-c2ccc(O)cc2O)oc2cc(O)cc(O)c12
REMARK SMILES IDX 5 1 3 2 2 3 1 4 22 5 20 6 19 7 17 8 16 9 15 10 14 11 6 12
REMARK SMILES IDX 8 13 7 14 9 15 11 16 12 17 10 18 13 20 4 22 21 24 18 26
REMARK H PARENT 10 19 13 21 4 23 21 25 18 27
REMARK Flexibility Score: inf
ROOT
ATOM      1  C   UNL     1      -2.403  -0.704   4.785  1.00  0.00     0.184 A 
ATOM      2  C   UNL     1      -2.085  -1.590   3.740  1.00  0.00     0.208 A 
ATOM      3  C   UNL     1      -2.456  -2.939   3.858  1.00  0.00     0.238 A 
ATOM      4  O   UNL     1      -2.170  -3.744   2.931  1.00  0.00    -0.285 OA
ATOM      5  C   UNL     1      -3.150  -3.373   5.006  1.00  0.00     0.111 A 
ATOM      6  C   UNL     1      -3.564  -4.713   5.200  1.00  0.00     0.134 A 
ATOM      7  C   UNL     1      -4.258  -5.064   6.368  1.00  0.00     0.093 A 
ATOM      8  C   UNL     1      -4.545  -4.102   7.343  1.00  0.00     0.123 A 
ATOM      9  C   UNL     1      -4.138  -2.780   7.155  1.00  0.00     0.094 A 
ATOM     10  C   UNL     1      -3.446  -2.410   5.999  1.00  0.00     0.146 A 
ATOM     11  O   UNL     1      -3.068  -1.146   5.849  1.00  0.00    -0.451 OA
ENDROOT
BRANCH   1  12
ATOM     12  C   UNL     1      -2.026   0.728   4.736  1.00  0.00     0.063 A 
ATOM     13  C   UNL     1      -0.713   2.594   5.585  1.00  0.00     0.047 A 
ATOM     14  C   UNL     1      -1.050   1.239   5.612  1.00  0.00     0.020 A 
ATOM     15  C   UNL     1      -1.353   3.461   4.692  1.00  0.00     0.119 A 
ATOM     16  C   UNL     1      -2.334   2.966   3.827  1.00  0.00     0.093 A 
ATOM     17  C   UNL     1      -2.677   1.605   3.846  1.00  0.00     0.130 A 
BRANCH  15  18
ATOM     18  O   UNL     1      -1.026   4.814   4.657  1.00  0.00    -0.508 OA
ATOM     19  H   UNL     1      -0.977   5.324   3.782  1.00  0.00     0.293 HD
ENDBRANCH  15  18
BRANCH  17  20
ATOM     20  O   UNL     1      -3.653   1.124   2.973  1.00  0.00    -0.507 OA
ATOM     21  H   UNL     1      -3.972   1.668   2.180  1.00  0.00     0.293 HD
ENDBRANCH  17  20
ENDBRANCH   1  12
BRANCH   2  22
ATOM     22  O   UNL     1      -1.432  -1.125   2.595  1.00  0.00    -0.502 OA
ATOM     23  H   UNL     1      -1.748  -0.311   2.083  1.00  0.00     0.293 HD
ENDBRANCH   2  22
BRANCH   6  24
ATOM     24  O   UNL     1      -3.292  -5.694   4.247  1.00  0.00    -0.507 OA
ATOM     25  H   UNL     1      -3.242  -6.676   4.491  1.00  0.00     0.293 HD
ENDBRANCH   6  24
BRANCH   8  26
ATOM     26  O   UNL     1      -5.234  -4.450   8.502  1.00  0.00    -0.508 OA
ATOM     27  H   UNL     1      -6.197  -4.764   8.472  1.00  0.00     0.293 HD
ENDBRANCH   8  26
TORSDOF 6
ENDMDL
MODEL 4
REMARK VINA RESULT:    -7.411      1.903      7.195
REMARK INTER + INTRA:          -9.268
REMARK INTER:                  -9.342
REMARK INTRA:                   0.074
REMARK UNBOUND:                -0.341
REMARK SMILES O=c1c(O)c(-c2ccc(O)cc2O)oc2cc(O)cc(O)c12
REMARK SMILES IDX 5 1 3 2 2 3 1 4 22 5 20 6 19 7 17 8 16 9 15 10 14 11 6 12
REMARK SMILES IDX 8 13 7 14 9 15 11 16 12 17 10 18 13 20 4 22 21 24 18 26
REMARK H PARENT 10 19 13 21 4 23 21 25 18 27
REMARK Flexibility Score: inf
ROOT
ATOM      1  C   UNL     1      -2.583  -0.253   5.070  1.00  0.00     0.184 A 
ATOM      2  C   UNL     1      -3.549  -0.347   6.088  1.00  0.00     0.208 A 
ATOM      3  C   UNL     1      -4.103  -1.603   6.384  1.00  0.00     0.238 A 
ATOM      4  O   UNL     1      -4.975  -1.698   7.290  1.00  0.00    -0.285 OA
ATOM      5  C   UNL     1      -3.670  -2.740   5.672  1.00  0.00     0.111 A 
ATOM      6  C   UNL     1      -4.174  -4.041   5.911  1.00  0.00     0.134 A 
ATOM      7  C   UNL     1      -3.687  -5.124   5.164  1.00  0.00     0.093 A 
ATOM      8  C   UNL     1      -2.706  -4.930   4.183  1.00  0.00     0.123 A 
ATOM      9  C   UNL     1      -2.208  -3.649   3.944  1.00  0.00     0.094 A 
ATOM     10  C   UNL     1      -2.681  -2.557   4.677  1.00  0.00     0.146 A 
ATOM     11  O   UNL     1      -2.191  -1.348   4.425  1.00  0.00    -0.451 OA
ENDROOT
BRANCH   1  12
ATOM     12  C   UNL     1      -1.971   1.042   4.692  1.00  0.00     0.063 A 
ATOM     13  C   UNL     1      -1.203   3.270   5.302  1.00  0.00     0.047 A 
ATOM     14  C   UNL     1      -1.755   2.039   5.662  1.00  0.00     0.020 A 
ATOM     15  C   UNL     1      -0.869   3.529   3.968  1.00  0.00     0.119 A 
ATOM     16  C   UNL     1      -1.093   2.551   2.995  1.00  0.00     0.093 A 
ATOM     17  C   UNL     1      -1.644   1.310   3.347  1.00  0.00     0.130 A 
BRANCH  15  18
ATOM     18  O   UNL     1      -0.319   4.754   3.597  1.00  0.00    -0.508 OA
ATOM     19  H   UNL     1      -0.813   5.392   2.984  1.00  0.00     0.293 HD
ENDBRANCH  15  18
BRANCH  17  20
ATOM     20  O   UNL     1      -1.857   0.341   2.366  1.00  0.00    -0.507 OA
ATOM     21  H   UNL     1      -1.705  -0.644   2.551  1.00  0.00     0.293 HD
ENDBRANCH  17  20
ENDBRANCH   1  12
BRANCH   2  22
ATOM     22  O   UNL     1      -3.930   0.790   6.806  1.00  0.00    -0.502 OA
ATOM     23  H   UNL     1      -4.071   1.689   6.363  1.00  0.00     0.293 HD
ENDBRANCH   2  22
BRANCH   6  24
ATOM     24  O   UNL     1      -5.151  -4.266   6.881  1.00  0.00    -0.507 OA
ATOM     25  H   UNL     1      -4.911  -4.453   7.848  1.00  0.00     0.293 HD
ENDBRANCH   6  24
BRANCH   8  26
ATOM     26  O   UNL     1      -2.222  -6.005   3.442  1.00  0.00    -0.508 OA
ATOM     27  H   UNL     1      -2.395  -6.963   3.723  1.00  0.00     0.293 HD
ENDBRANCH   8  26
TORSDOF 6
ENDMDL
MODEL 5
REMARK VINA RESULT:    -7.337     11.384     13.804
REMARK INTER + INTRA:          -9.180
REMARK INTER:                  -8.771
REMARK INTRA:                  -0.409
REMARK UNBOUND:                -0.341
REMARK SMILES O=c1c(O)c(-c2ccc(O)cc2O)oc2cc(O)cc(O)c12
REMARK SMILES IDX 5 1 3 2 2 3 1 4 22 5 20 6 19 7 17 8 16 9 15 10 14 11 6 12
REMARK SMILES IDX 8 13 7 14 9 15 11 16 12 17 10 18 13 20 4 22 21 24 18 26
REMARK H PARENT 10 19 13 21 4 23 21 25 18 27
REMARK Flexibility Score: inf
ROOT
ATOM      1  C   UNL     1      -7.554  -3.121  -5.775  1.00  0.00     0.184 A 
ATOM      2  C   UNL     1      -7.526  -4.389  -6.383  1.00  0.00     0.208 A 
ATOM      3  C   UNL     1      -7.905  -5.512  -5.631  1.00  0.00     0.238 A 
ATOM      4  O   UNL     1      -7.875  -6.654  -6.163  1.00  0.00    -0.285 OA
ATOM      5  C   UNL     1      -8.321  -5.346  -4.294  1.00  0.00     0.111 A 
ATOM      6  C   UNL     1      -8.722  -6.424  -3.469  1.00  0.00     0.134 A 
ATOM      7  C   UNL     1      -9.130  -6.175  -2.149  1.00  0.00     0.093 A 
ATOM      8  C   UNL     1      -9.144  -4.871  -1.641  1.00  0.00     0.123 A 
ATOM      9  C   UNL     1      -8.747  -3.806  -2.451  1.00  0.00     0.094 A 
ATOM     10  C   UNL     1      -8.337  -4.033  -3.768  1.00  0.00     0.146 A 
ATOM     11  O   UNL     1      -7.962  -3.001  -4.515  1.00  0.00    -0.451 OA
ENDROOT
BRANCH   1  12
ATOM     12  C   UNL     1      -7.150  -1.896  -6.503  1.00  0.00     0.063 A 
ATOM     13  C   UNL     1      -7.521  -0.285  -8.290  1.00  0.00     0.047 A 
ATOM     14  C   UNL     1      -7.916  -1.424  -7.585  1.00  0.00     0.020 A 
ATOM     15  C   UNL     1      -6.349   0.393  -7.933  1.00  0.00     0.119 A 
ATOM     16  C   UNL     1      -5.574  -0.077  -6.868  1.00  0.00     0.093 A 
ATOM     17  C   UNL     1      -5.964  -1.219  -6.153  1.00  0.00     0.130 A 
BRANCH  15  18
ATOM     18  O   UNL     1      -5.945   1.529  -8.629  1.00  0.00    -0.508 OA
ATOM     19  H   UNL     1      -5.151   2.082  -8.325  1.00  0.00     0.293 HD
ENDBRANCH  15  18
BRANCH  17  20
ATOM     20  O   UNL     1      -5.184  -1.672  -5.090  1.00  0.00    -0.507 OA
ATOM     21  H   UNL     1      -5.489  -1.577  -4.128  1.00  0.00     0.293 HD
ENDBRANCH  17  20
ENDBRANCH   1  12
BRANCH   2  22
ATOM     22  O   UNL     1      -7.148  -4.520  -7.722  1.00  0.00    -0.502 OA
ATOM     23  H   UNL     1      -6.180  -4.608  -8.007  1.00  0.00     0.293 HD
ENDBRANCH   2  22
BRANCH   6  24
ATOM     24  O   UNL     1      -8.720  -7.734  -3.946  1.00  0.00    -0.507 OA
ATOM     25  H   UNL     1      -8.080  -8.037  -4.672  1.00  0.00     0.293 HD
ENDBRANCH   6  24
BRANCH   8  26
ATOM     26  O   UNL     1      -9.549  -4.624  -0.332  1.00  0.00    -0.508 OA
ATOM     27  H   UNL     1     -10.243  -3.918  -0.116  1.00  0.00     0.293 HD
ENDBRANCH   8  26
TORSDOF 6
ENDMDL
MODEL 6
REMARK VINA RESULT:    -7.325      1.664      1.699
REMARK INTER + INTRA:          -9.165
REMARK INTER:                  -8.750
REMARK INTRA:                  -0.415
REMARK UNBOUND:                -0.341
REMARK SMILES O=c1c(O)c(-c2ccc(O)cc2O)oc2cc(O)cc(O)c12
REMARK SMILES IDX 5 1 3 2 2 3 1 4 22 5 20 6 19 7 17 8 16 9 15 10 14 11 6 12
REMARK SMILES IDX 8 13 7 14 9 15 11 16 12 17 10 18 13 20 4 22 21 24 18 26
REMARK H PARENT 10 19 13 21 4 23 21 25 18 27
REMARK Flexibility Score: inf
ROOT
ATOM      1  C   UNL     1      -2.370  -0.306   4.310  1.00  0.00     0.184 A 
ATOM      2  C   UNL     1      -1.606   0.442   3.394  1.00  0.00     0.208 A 
ATOM      3  C   UNL     1      -1.645   1.843   3.463  1.00  0.00     0.238 A 
ATOM      4  O   UNL     1      -0.971   2.524   2.643  1.00  0.00    -0.285 OA
ATOM      5  C   UNL     1      -2.430   2.470   4.452  1.00  0.00     0.111 A 
ATOM      6  C   UNL     1      -2.521   3.876   4.592  1.00  0.00     0.134 A 
ATOM      7  C   UNL     1      -3.319   4.424   5.609  1.00  0.00     0.093 A 
ATOM      8  C   UNL     1      -4.026   3.593   6.485  1.00  0.00     0.123 A 
ATOM      9  C   UNL     1      -3.940   2.207   6.350  1.00  0.00     0.094 A 
ATOM     10  C   UNL     1      -3.151   1.642   5.344  1.00  0.00     0.146 A 
ATOM     11  O   UNL     1      -3.091   0.319   5.236  1.00  0.00    -0.451 OA
ENDROOT
BRANCH   1  12
ATOM     12  C   UNL     1      -2.390  -1.787   4.283  1.00  0.00     0.063 A 
ATOM     13  C   UNL     1      -3.411  -3.869   3.543  1.00  0.00     0.047 A 
ATOM     14  C   UNL     1      -3.374  -2.473   3.547  1.00  0.00     0.020 A 
ATOM     15  C   UNL     1      -2.474  -4.600   4.282  1.00  0.00     0.119 A 
ATOM     16  C   UNL     1      -1.501  -3.928   5.027  1.00  0.00     0.093 A 
ATOM     17  C   UNL     1      -1.455  -2.525   5.035  1.00  0.00     0.130 A 
BRANCH  15  18
ATOM     18  O   UNL     1      -2.501  -5.993   4.286  1.00  0.00    -0.508 OA
ATOM     19  H   UNL     1      -2.458  -6.521   5.150  1.00  0.00     0.293 HD
ENDBRANCH  15  18
BRANCH  17  20
ATOM     20  O   UNL     1      -0.475  -1.868   5.779  1.00  0.00    -0.507 OA
ATOM     21  H   UNL     1      -0.125  -0.956   5.508  1.00  0.00     0.293 HD
ENDBRANCH  17  20
ENDBRANCH   1  12
BRANCH   2  22
ATOM     22  O   UNL     1      -0.805  -0.206   2.450  1.00  0.00    -0.502 OA
ATOM     23  H   UNL     1      -1.143  -0.448   1.526  1.00  0.00     0.293 HD
ENDBRANCH   2  22
BRANCH   6  24
ATOM     24  O   UNL     1      -1.828   4.730   3.734  1.00  0.00    -0.507 OA
ATOM     25  H   UNL     1      -1.109   5.359   4.072  1.00  0.00     0.293 HD
ENDBRANCH   6  24
BRANCH   8  26
ATOM     26  O   UNL     1      -4.818   4.136   7.494  1.00  0.00    -0.508 OA
ATOM     27  H   UNL     1      -5.193   5.076   7.425  1.00  0.00     0.293 HD
ENDBRANCH   8  26
TORSDOF 6
ENDMDL
MODEL 7
REMARK VINA RESULT:    -7.315      1.558      6.501
REMARK INTER + INTRA:          -9.153
REMARK INTER:                  -8.982
REMARK INTRA:                  -0.171
REMARK UNBOUND:                -0.341
REMARK SMILES O=c1c(O)c(-c2ccc(O)cc2O)oc2cc(O)cc(O)c12
REMARK SMILES IDX 5 1 3 2 2 3 1 4 22 5 20 6 19 7 17 8 16 9 15 10 14 11 6 12
REMARK SMILES IDX 8 13 7 14 9 15 11 16 12 17 10 18 13 20 4 22 21 24 18 26
REMARK H PARENT 10 19 13 21 4 23 21 25 18 27
REMARK Flexibility Score: inf
ROOT
ATOM      1  C   UNL     1      -1.729   0.424   4.805  1.00  0.00     0.184 A 
ATOM      2  C   UNL     1      -2.668  -0.292   4.040  1.00  0.00     0.208 A 
ATOM      3  C   UNL     1      -2.851  -1.660   4.296  1.00  0.00     0.238 A 
ATOM      4  O   UNL     1      -3.685  -2.313   3.612  1.00  0.00    -0.285 OA
ATOM      5  C   UNL     1      -2.107  -2.282   5.319  1.00  0.00     0.111 A 
ATOM      6  C   UNL     1      -2.235  -3.654   5.644  1.00  0.00     0.134 A 
ATOM      7  C   UNL     1      -1.463  -4.198   6.683  1.00  0.00     0.093 A 
ATOM      8  C   UNL     1      -0.569  -3.397   7.401  1.00  0.00     0.123 A 
ATOM      9  C   UNL     1      -0.439  -2.044   7.083  1.00  0.00     0.094 A 
ATOM     10  C   UNL     1      -1.198  -1.483   6.052  1.00  0.00     0.146 A 
ATOM     11  O   UNL     1      -1.052  -0.194   5.769  1.00  0.00    -0.451 OA
ENDROOT
BRANCH   1  12
ATOM     12  C   UNL     1      -1.471   1.864   4.576  1.00  0.00     0.063 A 
ATOM     13  C   UNL     1      -1.524   4.168   5.361  1.00  0.00     0.047 A 
ATOM     14  C   UNL     1      -1.741   2.807   5.585  1.00  0.00     0.020 A 
ATOM     15  C   UNL     1      -1.045   4.609   4.122  1.00  0.00     0.119 A 
ATOM     16  C   UNL     1      -0.787   3.683   3.108  1.00  0.00     0.093 A 
ATOM     17  C   UNL     1      -1.000   2.313   3.325  1.00  0.00     0.130 A 
BRANCH  15  18
ATOM     18  O   UNL     1      -0.825   5.965   3.887  1.00  0.00    -0.508 OA
ATOM     19  H   UNL     1      -1.307   6.458   3.144  1.00  0.00     0.293 HD
ENDBRANCH  15  18
BRANCH  17  20
ATOM     20  O   UNL     1      -0.732   1.399   2.306  1.00  0.00    -0.507 OA
ATOM     21  H   UNL     1      -0.700   1.682   1.333  1.00  0.00     0.293 HD
ENDBRANCH  17  20
ENDBRANCH   1  12
BRANCH   2  22
ATOM     22  O   UNL     1      -3.421   0.359   3.059  1.00  0.00    -0.502 OA
ATOM     23  H   UNL     1      -4.429   0.437   3.111  1.00  0.00     0.293 HD
ENDBRANCH   2  22
BRANCH   6  24
ATOM     24  O   UNL     1      -3.118  -4.479   4.947  1.00  0.00    -0.507 OA
ATOM     25  H   UNL     1      -4.030  -4.719   5.317  1.00  0.00     0.293 HD
ENDBRANCH   6  24
BRANCH   8  26
ATOM     26  O   UNL     1       0.197  -3.936   8.431  1.00  0.00    -0.508 OA
ATOM     27  H   UNL     1       0.669  -3.345   9.106  1.00  0.00     0.293 HD
ENDBRANCH   8  26
TORSDOF 6
ENDMDL
MODEL 8
REMARK VINA RESULT:    -7.313      2.784      4.845
REMARK INTER + INTRA:          -9.151
REMARK INTER:                  -8.750
REMARK INTRA:                  -0.401
REMARK UNBOUND:                -0.341
REMARK SMILES O=c1c(O)c(-c2ccc(O)cc2O)oc2cc(O)cc(O)c12
REMARK SMILES IDX 5 1 3 2 2 3 1 4 22 5 20 6 19 7 17 8 16 9 15 10 14 11 6 12
REMARK SMILES IDX 8 13 7 14 9 15 11 16 12 17 10 18 13 20 4 22 21 24 18 26
REMARK H PARENT 10 19 13 21 4 23 21 25 18 27
REMARK Flexibility Score: inf
ROOT
ATOM      1  C   UNL     1      -2.512  -3.404   5.564  1.00  0.00     0.184 A 
ATOM      2  C   UNL     1      -3.517  -2.767   6.317  1.00  0.00     0.208 A 
ATOM      3  C   UNL     1      -3.799  -1.415   6.066  1.00  0.00     0.238 A 
ATOM      4  O   UNL     1      -4.691  -0.833   6.740  1.00  0.00    -0.285 OA
ATOM      5  C   UNL     1      -3.087  -0.730   5.060  1.00  0.00     0.111 A 
ATOM      6  C   UNL     1      -3.313   0.631   4.742  1.00  0.00     0.134 A 
ATOM      7  C   UNL     1      -2.567   1.240   3.721  1.00  0.00     0.093 A 
ATOM      8  C   UNL     1      -1.602   0.514   3.014  1.00  0.00     0.123 A 
ATOM      9  C   UNL     1      -1.375  -0.828   3.325  1.00  0.00     0.094 A 
ATOM     10  C   UNL     1      -2.107  -1.452   4.339  1.00  0.00     0.146 A 
ATOM     11  O   UNL     1      -1.868  -2.729   4.616  1.00  0.00    -0.451 OA
ENDROOT
BRANCH   1  12
ATOM     12  C   UNL     1      -2.150  -4.822   5.788  1.00  0.00     0.063 A 
ATOM     13  C   UNL     1      -2.546  -7.190   5.384  1.00  0.00     0.047 A 
ATOM     14  C   UNL     1      -2.869  -5.851   5.153  1.00  0.00     0.020 A 
ATOM     15  C   UNL     1      -1.507  -7.521   6.262  1.00  0.00     0.119 A 
ATOM     16  C   UNL     1      -0.795  -6.507   6.908  1.00  0.00     0.093 A 
ATOM     17  C   UNL     1      -1.112  -5.159   6.680  1.00  0.00     0.130 A 
BRANCH  15  18
ATOM     18  O   UNL     1      -1.176  -8.853   6.501  1.00  0.00    -0.508 OA
ATOM     19  H   UNL     1      -1.002  -9.500   5.740  1.00  0.00     0.293 HD
ENDBRANCH  15  18
BRANCH  17  20
ATOM     20  O   UNL     1      -0.389  -4.157   7.327  1.00  0.00    -0.507 OA
ATOM     21  H   UNL     1       0.553  -4.316   7.667  1.00  0.00     0.293 HD
ENDBRANCH  17  20
ENDBRANCH   1  12
BRANCH   2  22
ATOM     22  O   UNL     1      -4.234  -3.481   7.280  1.00  0.00    -0.502 OA
ATOM     23  H   UNL     1      -4.574  -4.421   7.118  1.00  0.00     0.293 HD
ENDBRANCH   2  22
BRANCH   6  24
ATOM     24  O   UNL     1      -4.268   1.380   5.430  1.00  0.00    -0.507 OA
ATOM     25  H   UNL     1      -4.633   1.086   6.328  1.00  0.00     0.293 HD
ENDBRANCH   6  24
BRANCH   8  26
ATOM     26  O   UNL     1      -0.862   1.118   2.001  1.00  0.00    -0.508 OA
ATOM     27  H   UNL     1      -0.156   1.816   2.204  1.00  0.00     0.293 HD
ENDBRANCH   8  26
TORSDOF 6
ENDMDL
MODEL 9
REMARK VINA RESULT:    -7.174     11.575     12.930
REMARK INTER + INTRA:          -8.983
REMARK INTER:                  -8.566
REMARK INTRA:                  -0.417
REMARK UNBOUND:                -0.341
REMARK SMILES O=c1c(O)c(-c2ccc(O)cc2O)oc2cc(O)cc(O)c12
REMARK SMILES IDX 5 1 3 2 2 3 1 4 22 5 20 6 19 7 17 8 16 9 15 10 14 11 6 12
REMARK SMILES IDX 8 13 7 14 9 15 11 16 12 17 10 18 13 20 4 22 21 24 18 26
REMARK H PARENT 10 19 13 21 4 23 21 25 18 27
REMARK Flexibility Score: inf
ROOT
ATOM      1  C   UNL     1      -8.053  -3.323  -5.361  1.00  0.00     0.184 A 
ATOM      2  C   UNL     1      -8.936  -3.067  -6.427  1.00  0.00     0.208 A 
ATOM      3  C   UNL     1      -8.590  -2.092  -7.375  1.00  0.00     0.238 A 
ATOM      4  O   UNL     1      -9.376  -1.848  -8.330  1.00  0.00    -0.285 OA
ATOM      5  C   UNL     1      -7.365  -1.404  -7.252  1.00  0.00     0.111 A 
ATOM      6  C   UNL     1      -6.940  -0.410  -8.166  1.00  0.00     0.134 A 
ATOM      7  C   UNL     1      -5.702   0.225  -7.978  1.00  0.00     0.093 A 
ATOM      8  C   UNL     1      -4.884  -0.116  -6.895  1.00  0.00     0.123 A 
ATOM      9  C   UNL     1      -5.300  -1.094  -5.991  1.00  0.00     0.094 A 
ATOM     10  C   UNL     1      -6.530  -1.738  -6.160  1.00  0.00     0.146 A 
ATOM     11  O   UNL     1      -6.902  -2.662  -5.282  1.00  0.00    -0.451 OA
ENDROOT
BRANCH   1  12
ATOM     12  C   UNL     1      -8.363  -4.325  -4.315  1.00  0.00     0.063 A 
ATOM     13  C   UNL     1      -8.424  -6.639  -3.562  1.00  0.00     0.047 A 
ATOM     14  C   UNL     1      -8.108  -5.691  -4.537  1.00  0.00     0.020 A 
ATOM     15  C   UNL     1      -9.011  -6.239  -2.356  1.00  0.00     0.119 A 
ATOM     16  C   UNL     1      -9.281  -4.886  -2.131  1.00  0.00     0.093 A 
ATOM     17  C   UNL     1      -8.964  -3.926  -3.104  1.00  0.00     0.130 A 
BRANCH  15  18
ATOM     18  O   UNL     1      -9.331  -7.176  -1.377  1.00  0.00    -0.508 OA
ATOM     19  H   UNL     1      -8.767  -7.283  -0.541  1.00  0.00     0.293 HD
ENDBRANCH  15  18
BRANCH  17  20
ATOM     20  O   UNL     1      -9.234  -2.579  -2.863  1.00  0.00    -0.507 OA
ATOM     21  H   UNL     1      -9.233  -2.196  -1.925  1.00  0.00     0.293 HD
ENDBRANCH  17  20
ENDBRANCH   1  12
BRANCH   2  22
ATOM     22  O   UNL     1     -10.124  -3.792  -6.548  1.00  0.00    -0.502 OA
ATOM     23  H   UNL     1     -10.189  -4.642  -7.094  1.00  0.00     0.293 HD
ENDBRANCH   2  22
BRANCH   6  24
ATOM     24  O   UNL     1      -7.733  -0.049  -9.255  1.00  0.00    -0.507 OA
ATOM     25  H   UNL     1      -8.248   0.823  -9.275  1.00  0.00     0.293 HD
ENDBRANCH   6  24
BRANCH   8  26
ATOM     26  O   UNL     1      -3.656   0.513  -6.708  1.00  0.00    -0.508 OA
ATOM     27  H   UNL     1      -3.565   1.335  -6.121  1.00  0.00     0.293 HD
ENDBRANCH   8  26
TORSDOF 6
ENDMDL
