MODEL 1
REMARK VINA RESULT:    -4.838      0.000      0.000
REMARK INTER + INTRA:          -5.634
REMARK INTER:                  -5.404
REMARK INTRA:                  -0.230
REMARK UNBOUND:                -0.230
REMARK SMILES O=C([O-])c1ccccc1C(=O)[O-]
REMARK SMILES IDX 4 1 9 2 5 3 8 4 6 5 7 6 2 7 1 8 3 9 10 10 11 11 12 12
REMARK H PARENT
REMARK Flexibility Score: inf
ROOT
ATOM      1  C   UNL     1      36.684  18.408  10.785  1.00  0.00     0.006 A 
ATOM      2  C   UNL     1      37.307  18.817   9.571  1.00  0.00     0.006 A 
ATOM      3  C   UNL     1      35.346  18.775  11.023  1.00  0.00     0.010 A 
ATOM      4  C   UNL     1      36.591  19.631   8.675  1.00  0.00     0.010 A 
ATOM      5  C   UNL     1      34.648  19.564  10.108  1.00  0.00     0.001 A 
ATOM      6  C   UNL     1      35.273  20.001   8.943  1.00  0.00     0.001 A 
ENDROOT
BRANCH   1   7
ATOM      7  C   UNL     1      37.398  17.666  11.849  1.00  0.00     0.072 C 
ATOM      8  O   UNL     1      37.383  16.408  11.879  1.00  0.00    -0.545 OA
ATOM      9  O   UNL     1      38.154  18.354  12.791  1.00  0.00    -0.545 OA
ENDBRANCH   1   7
BRANCH   2  10
ATOM     10  C   UNL     1      38.660  18.370   9.168  1.00  0.00     0.072 C 
ATOM     11  O   UNL     1      39.675  19.071   9.425  1.00  0.00    -0.545 OA
ATOM     12  O   UNL     1      38.833  17.133   8.557  1.00  0.00    -0.545 OA
ENDBRANCH   2  10
TORSDOF 2
ENDMDL
MODEL 2
REMARK VINA RESULT:    -4.836      2.016      2.633
REMARK INTER + INTRA:          -5.632
REMARK INTER:                  -5.467
REMARK INTRA:                  -0.165
REMARK UNBOUND:                -0.230
REMARK SMILES O=C([O-])c1ccccc1C(=O)[O-]
REMARK SMILES IDX 4 1 9 2 5 3 8 4 6 5 7 6 2 7 1 8 3 9 10 10 11 11 12 12
REMARK H PARENT
REMARK Flexibility Score: inf
ROOT
ATOM      1  C   UNL     1      35.606  18.849  10.614  1.00  0.00     0.006 A 
ATOM      2  C   UNL     1      35.194  19.543   9.440  1.00  0.00     0.006 A 
ATOM      3  C   UNL     1      34.997  19.163  11.842  1.00  0.00     0.010 A 
ATOM      4  C   UNL     1      34.238  20.569   9.553  1.00  0.00     0.010 A 
ATOM      5  C   UNL     1      34.035  20.170  11.926  1.00  0.00     0.001 A 
ATOM      6  C   UNL     1      33.665  20.879  10.786  1.00  0.00     0.001 A 
ENDROOT
BRANCH   1   7
ATOM      7  C   UNL     1      36.700  17.850  10.619  1.00  0.00     0.072 C 
ATOM      8  O   UNL     1      36.447  16.617  10.575  1.00  0.00    -0.545 OA
ATOM      9  O   UNL     1      38.025  18.267  10.601  1.00  0.00    -0.545 OA
ENDBRANCH   1   7
BRANCH   2  10
ATOM     10  C   UNL     1      35.675  19.192   8.084  1.00  0.00     0.072 C 
ATOM     11  O   UNL     1      34.907  18.644   7.249  1.00  0.00    -0.545 OA
ATOM     12  O   UNL     1      36.967  19.527   7.694  1.00  0.00    -0.545 OA
ENDBRANCH   2  10
TORSDOF 2
ENDMDL
MODEL 3
REMARK VINA RESULT:    -4.823      1.622      3.031
REMARK INTER + INTRA:          -5.617
REMARK INTER:                  -5.466
REMARK INTRA:                  -0.150
REMARK UNBOUND:                -0.230
REMARK SMILES O=C([O-])c1ccccc1C(=O)[O-]
REMARK SMILES IDX 4 1 9 2 5 3 8 4 6 5 7 6 2 7 1 8 3 9 10 10 11 11 12 12
REMARK H PARENT
REMARK Flexibility Score: inf
ROOT
ATOM      1  C   UNL     1      35.785  18.796  10.455  1.00  0.00     0.006 A 
ATOM      2  C   UNL     1      37.113  18.286  10.516  1.00  0.00     0.006 A 
ATOM      3  C   UNL     1      35.316  19.337   9.244  1.00  0.00     0.010 A 
ATOM      4  C   UNL     1      37.942  18.399   9.384  1.00  0.00     0.010 A 
ATOM      5  C   UNL     1      36.148  19.418   8.128  1.00  0.00     0.001 A 
ATOM      6  C   UNL     1      37.461  18.960   8.201  1.00  0.00     0.001 A 
ENDROOT
BRANCH   1   7
ATOM      7  C   UNL     1      34.885  18.846  11.631  1.00  0.00     0.072 C 
ATOM      8  O   UNL     1      34.573  19.946  12.157  1.00  0.00    -0.545 OA
ATOM      9  O   UNL     1      34.317  17.677  12.124  1.00  0.00    -0.545 OA
ENDBRANCH   1   7
BRANCH   2  10
ATOM     10  C   UNL     1      37.653  17.576  11.699  1.00  0.00     0.072 C 
ATOM     11  O   UNL     1      37.395  16.359  11.894  1.00  0.00    -0.545 OA
ATOM     12  O   UNL     1      38.509  18.234  12.576  1.00  0.00    -0.545 OA
ENDBRANCH   2  10
TORSDOF 2
ENDMDL
MODEL 4
REMARK VINA RESULT:    -4.813      1.647      3.277
REMARK INTER + INTRA:          -5.605
REMARK INTER:                  -5.434
REMARK INTRA:                  -0.171
REMARK UNBOUND:                -0.230
REMARK SMILES O=C([O-])c1ccccc1C(=O)[O-]
REMARK SMILES IDX 4 1 9 2 5 3 8 4 6 5 7 6 2 7 1 8 3 9 10 10 11 11 12 12
REMARK H PARENT
REMARK Flexibility Score: inf
ROOT
ATOM      1  C   UNL     1      37.069  18.292  10.566  1.00  0.00     0.006 A 
ATOM      2  C   UNL     1      35.749  18.817  10.473  1.00  0.00     0.006 A 
ATOM      3  C   UNL     1      37.921  18.384   9.449  1.00  0.00     0.010 A 
ATOM      4  C   UNL     1      35.310  19.351   9.247  1.00  0.00     0.010 A 
ATOM      5  C   UNL     1      37.471  18.939   8.251  1.00  0.00     0.001 A 
ATOM      6  C   UNL     1      36.165  19.410   8.147  1.00  0.00     0.001 A 
ENDROOT
BRANCH   1   7
ATOM      7  C   UNL     1      37.576  17.590  11.767  1.00  0.00     0.072 C 
ATOM      8  O   UNL     1      38.206  18.214  12.661  1.00  0.00    -0.545 OA
ATOM      9  O   UNL     1      37.299  16.241  11.954  1.00  0.00    -0.545 OA
ENDBRANCH   1   7
BRANCH   2  10
ATOM     10  C   UNL     1      34.826  18.891  11.629  1.00  0.00     0.072 C 
ATOM     11  O   UNL     1      34.528  20.000  12.147  1.00  0.00    -0.545 OA
ATOM     12  O   UNL     1      34.224  17.736  12.115  1.00  0.00    -0.545 OA
ENDBRANCH   2  10
TORSDOF 2
ENDMDL
MODEL 5
REMARK VINA RESULT:    -4.804      1.853      3.515
REMARK INTER + INTRA:          -5.596
REMARK INTER:                  -5.452
REMARK INTRA:                  -0.144
REMARK UNBOUND:                -0.230
REMARK SMILES O=C([O-])c1ccccc1C(=O)[O-]
REMARK SMILES IDX 4 1 9 2 5 3 8 4 6 5 7 6 2 7 1 8 3 9 10 10 11 11 12 12
REMARK H PARENT
REMARK Flexibility Score: inf
ROOT
ATOM      1  C   UNL     1      35.348  19.499   9.614  1.00  0.00     0.006 A 
ATOM      2  C   UNL     1      35.621  18.771  10.807  1.00  0.00     0.006 A 
ATOM      3  C   UNL     1      34.411  20.549   9.654  1.00  0.00     0.010 A 
ATOM      4  C   UNL     1      34.899  19.077  11.975  1.00  0.00     0.010 A 
ATOM      5  C   UNL     1      33.724  20.849  10.830  1.00  0.00     0.001 A 
ATOM      6  C   UNL     1      33.959  20.108  11.984  1.00  0.00     0.001 A 
ENDROOT
BRANCH   1   7
ATOM      7  C   UNL     1      35.955  19.162   8.306  1.00  0.00     0.072 C 
ATOM      8  O   UNL     1      35.247  18.729   7.358  1.00  0.00    -0.545 OA
ATOM      9  O   UNL     1      37.309  19.387   8.087  1.00  0.00    -0.545 OA
ENDBRANCH   1   7
BRANCH   2  10
ATOM     10  C   UNL     1      36.683  17.743  10.900  1.00  0.00     0.072 C 
ATOM     11  O   UNL     1      36.427  16.530  10.677  1.00  0.00    -0.545 OA
ATOM     12  O   UNL     1      37.994  18.117  11.172  1.00  0.00    -0.545 OA
ENDBRANCH   2  10
TORSDOF 2
ENDMDL
MODEL 6
REMARK VINA RESULT:    -4.795      0.162      3.016
REMARK INTER + INTRA:          -5.586
REMARK INTER:                  -5.362
REMARK INTRA:                  -0.224
REMARK UNBOUND:                -0.230
REMARK SMILES O=C([O-])c1ccccc1C(=O)[O-]
REMARK SMILES IDX 4 1 9 2 5 3 8 4 6 5 7 6 2 7 1 8 3 9 10 10 11 11 12 12
REMARK H PARENT
REMARK Flexibility Score: inf
ROOT
ATOM      1  C   UNL     1      37.226  18.751   9.603  1.00  0.00     0.006 A 
ATOM      2  C   UNL     1      36.611  18.334  10.818  1.00  0.00     0.006 A 
ATOM      3  C   UNL     1      36.516  19.601   8.735  1.00  0.00     0.010 A 
ATOM      4  C   UNL     1      35.287  18.728  11.085  1.00  0.00     0.010 A 
ATOM      5  C   UNL     1      35.212  19.998   9.032  1.00  0.00     0.001 A 
ATOM      6  C   UNL     1      34.595  19.552  10.198  1.00  0.00     0.001 A 
ENDROOT
BRANCH   1   7
ATOM      7  C   UNL     1      38.561  18.279   9.171  1.00  0.00     0.072 C 
ATOM      8  O   UNL     1      39.594  18.959   9.409  1.00  0.00    -0.545 OA
ATOM      9  O   UNL     1      38.697  17.040   8.555  1.00  0.00    -0.545 OA
ENDBRANCH   1   7
BRANCH   2  10
ATOM     10  C   UNL     1      37.322  17.553  11.857  1.00  0.00     0.072 C 
ATOM     11  O   UNL     1      37.967  18.133  12.771  1.00  0.00    -0.545 OA
ATOM     12  O   UNL     1      37.231  16.166  11.871  1.00  0.00    -0.545 OA
ENDBRANCH   2  10
TORSDOF 2
ENDMDL
MODEL 7
REMARK VINA RESULT:    -4.735      1.518      2.210
REMARK INTER + INTRA:          -5.518
REMARK INTER:                  -5.564
REMARK INTRA:                   0.045
REMARK UNBOUND:                -0.230
REMARK SMILES O=C([O-])c1ccccc1C(=O)[O-]
REMARK SMILES IDX 4 1 9 2 5 3 8 4 6 5 7 6 2 7 1 8 3 9 10 10 11 11 12 12
REMARK H PARENT
REMARK Flexibility Score: inf
ROOT
ATOM      1  C   UNL     1      35.339  18.994  11.648  1.00  0.00     0.006 A 
ATOM      2  C   UNL     1      35.822  18.862  10.315  1.00  0.00     0.006 A 
ATOM      3  C   UNL     1      34.313  19.920  11.915  1.00  0.00     0.010 A 
ATOM      4  C   UNL     1      35.309  19.709   9.315  1.00  0.00     0.010 A 
ATOM      5  C   UNL     1      33.803  20.732  10.902  1.00  0.00     0.001 A 
ATOM      6  C   UNL     1      34.309  20.635   9.608  1.00  0.00     0.001 A 
ENDROOT
BRANCH   1   7
ATOM      7  C   UNL     1      35.910  18.246  12.792  1.00  0.00     0.072 C 
ATOM      8  O   UNL     1      36.972  18.631  13.348  1.00  0.00    -0.545 OA
ATOM      9  O   UNL     1      35.239  17.144  13.310  1.00  0.00    -0.545 OA
ENDBRANCH   1   7
BRANCH   2  10
ATOM     10  C   UNL     1      36.800  17.826   9.909  1.00  0.00     0.072 C 
ATOM     11  O   UNL     1      36.671  16.633  10.290  1.00  0.00    -0.545 OA
ATOM     12  O   UNL     1      37.839  18.150   9.044  1.00  0.00    -0.545 OA
ENDBRANCH   2  10
TORSDOF 2
ENDMDL
MODEL 8
REMARK VINA RESULT:    -4.659      2.095      4.142
REMARK INTER + INTRA:          -5.434
REMARK INTER:                  -5.254
REMARK INTRA:                  -0.180
REMARK UNBOUND:                -0.230
REMARK SMILES O=C([O-])c1ccccc1C(=O)[O-]
REMARK SMILES IDX 4 1 9 2 5 3 8 4 6 5 7 6 2 7 1 8 3 9 10 10 11 11 12 12
REMARK H PARENT
REMARK Flexibility Score: inf
ROOT
ATOM      1  C   UNL     1      37.429  18.817   9.675  1.00  0.00     0.006 A 
ATOM      2  C   UNL     1      37.420  18.273  10.991  1.00  0.00     0.006 A 
ATOM      3  C   UNL     1      38.663  19.064   9.047  1.00  0.00     0.010 A 
ATOM      4  C   UNL     1      38.644  18.060  11.651  1.00  0.00     0.010 A 
ATOM      5  C   UNL     1      39.865  18.823   9.713  1.00  0.00     0.001 A 
ATOM      6  C   UNL     1      39.855  18.334  11.016  1.00  0.00     0.001 A 
ENDROOT
BRANCH   1   7
ATOM      7  C   UNL     1      36.195  19.202   8.952  1.00  0.00     0.072 C 
ATOM      8  O   UNL     1      35.770  18.512   7.988  1.00  0.00    -0.545 OA
ATOM      9  O   UNL     1      35.451  20.296   9.377  1.00  0.00    -0.545 OA
ENDBRANCH   1   7
BRANCH   2  10
ATOM     10  C   UNL     1      36.179  17.853  11.683  1.00  0.00     0.072 C 
ATOM     11  O   UNL     1      35.487  18.685  12.327  1.00  0.00    -0.545 OA
ATOM     12  O   UNL     1      35.729  16.542  11.572  1.00  0.00    -0.545 OA
ENDBRANCH   2  10
TORSDOF 2
ENDMDL
MODEL 9
REMARK VINA RESULT:    -4.653      2.275      3.362
REMARK INTER + INTRA:          -5.427
REMARK INTER:                  -5.304
REMARK INTRA:                  -0.124
REMARK UNBOUND:                -0.230
REMARK SMILES O=C([O-])c1ccccc1C(=O)[O-]
REMARK SMILES IDX 4 1 9 2 5 3 8 4 6 5 7 6 2 7 1 8 3 9 10 10 11 11 12 12
REMARK H PARENT
REMARK Flexibility Score: inf
ROOT
ATOM      1  C   UNL     1      36.723  18.392  11.466  1.00  0.00     0.006 A 
ATOM      2  C   UNL     1      37.060  18.710  10.120  1.00  0.00     0.006 A 
ATOM      3  C   UNL     1      37.756  18.118  12.382  1.00  0.00     0.010 A 
ATOM      4  C   UNL     1      38.411  18.675   9.726  1.00  0.00     0.010 A 
ATOM      5  C   UNL     1      39.090  18.113  11.975  1.00  0.00     0.001 A 
ATOM      6  C   UNL     1      39.416  18.379  10.647  1.00  0.00     0.001 A 
ENDROOT
BRANCH   1   7
ATOM      7  C   UNL     1      35.326  18.269  11.942  1.00  0.00     0.072 C 
ATOM      8  O   UNL     1      34.791  17.138  12.085  1.00  0.00    -0.545 OA
ATOM      9  O   UNL     1      34.610  19.404  12.302  1.00  0.00    -0.545 OA
ENDBRANCH   1   7
BRANCH   2  10
ATOM     10  C   UNL     1      36.059  19.143   9.117  1.00  0.00     0.072 C 
ATOM     11  O   UNL     1      35.779  18.414   8.129  1.00  0.00    -0.545 OA
ATOM     12  O   UNL     1      35.367  20.336   9.294  1.00  0.00    -0.545 OA
ENDBRANCH   2  10
TORSDOF 2
ENDMDL
