MODEL 1
REMARK VINA RESULT:    16.388      0.000      0.000
REMARK INTER + INTRA:          23.863
REMARK INTER:                  23.094
REMARK INTRA:                   0.770
REMARK UNBOUND:                 0.770
REMARK SMILES CC1=CCC(=C(C)C)C(=O)CC(C)=CCC1
REMARK SMILES IDX 12 1 14 2 13 3 15 4 16 5 2 6 1 7 3 8 11 10 9 11 10 12 5 13
REMARK SMILES IDX 6 14 7 15 8 16 4 17
REMARK H PARENT
REMARK Flexibility Score: 60.00
ROOT
ATOM      1  C   UNL     1      21.017  16.204 -11.774  1.00  0.00    -0.070 C 
ATOM      2  C   UNL     1      20.760  15.007 -12.349  1.00  0.00    -0.027 C 
ATOM      3  C   UNL     1      22.456  16.626 -11.627  1.00  0.00     0.039 C 
ENDROOT
BRANCH   2   4
ATOM      4  C   UNL     1      19.397  14.368 -12.442  1.00  0.00     0.032 C 
BRANCH   4   5
ATOM      5  C   UNL     1      18.624  14.959 -13.627  1.00  0.00     0.034 C 
BRANCH   5   6
ATOM      6  C   UNL     1      17.324  15.611 -13.204  1.00  0.00    -0.077 C 
ATOM      7  C   UNL     1      16.225  14.740 -12.648  1.00  0.00     0.039 C 
ATOM      8  C   UNL     1      17.113  16.951 -13.229  1.00  0.00    -0.023 CG0
ATOM      9  G   UNL     1      18.035  18.019 -13.792  1.00  0.00     0.000 G0
ENDBRANCH   5   6
ENDBRANCH   4   5
ENDBRANCH   2   4
BRANCH   1  10
ATOM     10  C   UNL     1      19.933  17.147 -11.291  1.00  0.00     0.111 C 
BRANCH  10  11
ATOM     11  C   UNL     1      19.923  18.441 -12.070  1.00  0.00     0.163 C 
ATOM     12  O   UNL     1      20.996  19.103 -12.096  1.00  0.00    -0.294 OA
BRANCH  11  13
ATOM     13  C   UNL     1      18.727  18.957 -12.816  1.00  0.00    -0.002 C 
ATOM     14  C   UNL     1      18.369  20.275 -12.730  1.00  0.00    -0.069 C 
ATOM     15  C   UNL     1      17.323  20.882 -13.638  1.00  0.00     0.039 C 
ATOM     16  C   UNL     1      18.966  21.189 -11.684  1.00  0.00     0.039 C 
BRANCH  13  17
ATOM     17  C   UNL     1      18.045  18.017 -13.803  1.00  0.00     0.066 CG0
ATOM     18  G   UNL     1      17.130  16.959 -13.210  1.00  0.00     0.000 G0
ENDBRANCH  13  17
ENDBRANCH  11  13
ENDBRANCH  10  11
ENDBRANCH   1  10
TORSDOF 0
ENDMDL
MODEL 2
REMARK VINA RESULT:    16.708      1.844      4.986
REMARK INTER + INTRA:          24.315
REMARK INTER:                  21.556
REMARK INTRA:                   2.760
REMARK UNBOUND:                 0.770
REMARK SMILES CC1=CCC(=C(C)C)C(=O)CC(C)=CCC1
REMARK SMILES IDX 12 1 14 2 13 3 15 4 16 5 2 6 1 7 3 8 11 10 9 11 10 12 5 13
REMARK SMILES IDX 6 14 7 15 8 16 4 17
REMARK H PARENT
REMARK Flexibility Score: 60.00
ROOT
ATOM      1  C   UNL     1      18.580  20.088 -12.613  1.00  0.00    -0.070 C 
ATOM      2  C   UNL     1      19.645  20.746 -12.098  1.00  0.00    -0.027 C 
ATOM      3  C   UNL     1      17.234  20.760 -12.551  1.00  0.00     0.039 C 
ENDROOT
BRANCH   2   4
ATOM      4  C   UNL     1      21.028  20.164 -11.944  1.00  0.00     0.032 C 
BRANCH   4   5
ATOM      5  C   UNL     1      21.100  18.801 -12.643  1.00  0.00     0.034 C 
BRANCH   5   6
ATOM      6  C   UNL     1      21.696  17.726 -11.757  1.00  0.00    -0.077 C 
ATOM      7  C   UNL     1      22.777  18.114 -10.778  1.00  0.00     0.039 C 
ATOM      8  C   UNL     1      21.263  16.441 -11.740  1.00  0.00    -0.023 CG0
ATOM      9  G   UNL     1      20.239  15.801 -12.661  1.00  0.00     0.000 G0
ENDBRANCH   5   6
ENDBRANCH   4   5
ENDBRANCH   2   4
BRANCH   1  10
ATOM     10  C   UNL     1      18.679  18.722 -13.263  1.00  0.00     0.111 C 
BRANCH  10  11
ATOM     11  C   UNL     1      18.498  17.606 -12.261  1.00  0.00     0.163 C 
ATOM     12  O   UNL     1      18.041  17.921 -11.129  1.00  0.00    -0.294 OA
BRANCH  11  13
ATOM     13  C   UNL     1      18.811  16.167 -12.549  1.00  0.00    -0.002 C 
ATOM     14  C   UNL     1      17.809  15.283 -12.846  1.00  0.00    -0.069 C 
ATOM     15  C   UNL     1      18.096  13.893 -13.367  1.00  0.00     0.039 C 
ATOM     16  C   UNL     1      16.356  15.633 -12.620  1.00  0.00     0.039 C 
BRANCH  13  17
ATOM     17  C   UNL     1      20.277  15.770 -12.680  1.00  0.00     0.066 CG0
ATOM     18  G   UNL     1      21.247  16.433 -11.717  1.00  0.00     0.000 G0
ENDBRANCH  13  17
ENDBRANCH  11  13
ENDBRANCH  10  11
ENDBRANCH   1  10
TORSDOF 0
ENDMDL
MODEL 3
REMARK VINA RESULT:    16.799      2.006      4.837
REMARK INTER + INTRA:          24.444
REMARK INTER:                  23.176
REMARK INTRA:                   1.267
REMARK UNBOUND:                 0.770
REMARK SMILES CC1=CCC(=C(C)C)C(=O)CC(C)=CCC1
REMARK SMILES IDX 12 1 14 2 13 3 15 4 16 5 2 6 1 7 3 8 11 10 9 11 10 12 5 13
REMARK SMILES IDX 6 14 7 15 8 16 4 17
REMARK H PARENT
REMARK Flexibility Score: 60.00
ROOT
ATOM      1  C   UNL     1      18.395  19.747 -12.362  1.00  0.00    -0.070 C 
ATOM      2  C   UNL     1      19.574  20.214 -12.835  1.00  0.00    -0.027 C 
ATOM      3  C   UNL     1      17.181  19.862 -13.247  1.00  0.00     0.039 C 
ENDROOT
BRANCH   2   4
ATOM      4  C   UNL     1      20.847  20.313 -12.033  1.00  0.00     0.032 C 
BRANCH   4   5
ATOM      5  C   UNL     1      21.878  19.311 -12.568  1.00  0.00     0.034 C 
BRANCH   5   6
ATOM      6  C   UNL     1      21.904  18.024 -11.770  1.00  0.00    -0.077 C 
ATOM      7  C   UNL     1      23.002  17.826 -10.754  1.00  0.00     0.039 C 
ATOM      8  C   UNL     1      20.950  17.063 -11.862  1.00  0.00    -0.023 CG0
ATOM      9  G   UNL     1      19.790  17.007 -12.840  1.00  0.00     0.000 G0
ENDBRANCH   5   6
ENDBRANCH   4   5
ENDBRANCH   2   4
BRANCH   1  10
ATOM     10  C   UNL     1      18.241  19.098 -11.001  1.00  0.00     0.111 C 
BRANCH  10  11
ATOM     11  C   UNL     1      17.935  17.624 -11.110  1.00  0.00     0.163 C 
ATOM     12  O   UNL     1      17.237  17.113 -10.193  1.00  0.00    -0.294 OA
BRANCH  11  13
ATOM     13  C   UNL     1      18.397  16.758 -12.246  1.00  0.00    -0.002 C 
ATOM     14  C   UNL     1      17.536  15.877 -12.844  1.00  0.00    -0.069 C 
ATOM     15  C   UNL     1      17.886  15.162 -14.129  1.00  0.00     0.039 C 
ATOM     16  C   UNL     1      16.202  15.531 -12.221  1.00  0.00     0.039 C 
BRANCH  13  17
ATOM     17  C   UNL     1      19.782  17.022 -12.825  1.00  0.00     0.066 CG0
ATOM     18  G   UNL     1      20.932  17.067 -11.834  1.00  0.00     0.000 G0
ENDBRANCH  13  17
ENDBRANCH  11  13
ENDBRANCH  10  11
ENDBRANCH   1  10
TORSDOF 0
ENDMDL
MODEL 4
REMARK VINA RESULT:    16.909      1.590      4.160
REMARK INTER + INTRA:          24.598
REMARK INTER:                  24.503
REMARK INTRA:                   0.094
REMARK UNBOUND:                 0.770
REMARK SMILES CC1=CCC(=C(C)C)C(=O)CC(C)=CCC1
REMARK SMILES IDX 12 1 14 2 13 3 15 4 16 5 2 6 1 7 3 8 11 10 9 11 10 12 5 13
REMARK SMILES IDX 6 14 7 15 8 16 4 17
REMARK H PARENT
REMARK Flexibility Score: 60.00
ROOT
ATOM      1  C   UNL     1      22.002  18.087 -11.791  1.00  0.00    -0.070 C 
ATOM      2  C   UNL     1      21.697  19.401 -11.673  1.00  0.00    -0.027 C 
ATOM      3  C   UNL     1      23.053  17.518 -10.875  1.00  0.00     0.039 C 
ENDROOT
BRANCH   2   4
ATOM      4  C   UNL     1      20.783  20.162 -12.600  1.00  0.00     0.032 C 
BRANCH   4   5
ATOM      5  C   UNL     1      19.477  20.507 -11.875  1.00  0.00     0.034 C 
BRANCH   5   6
ATOM      6  C   UNL     1      18.251  20.062 -12.647  1.00  0.00    -0.077 C 
ATOM      7  C   UNL     1      17.614  21.032 -13.612  1.00  0.00     0.039 C 
ATOM      8  C   UNL     1      17.731  18.811 -12.577  1.00  0.00    -0.023 CG0
ATOM      9  G   UNL     1      18.156  17.688 -11.647  1.00  0.00     0.000 G0
ENDBRANCH   5   6
ENDBRANCH   4   5
ENDBRANCH   2   4
BRANCH   1  10
ATOM     10  C   UNL     1      21.325  17.161 -12.782  1.00  0.00     0.111 C 
BRANCH  10  11
ATOM     11  C   UNL     1      20.283  16.291 -12.119  1.00  0.00     0.163 C 
ATOM     12  O   UNL     1      20.699  15.373 -11.362  1.00  0.00    -0.294 OA
BRANCH  11  13
ATOM     13  C   UNL     1      18.804  16.477 -12.299  1.00  0.00    -0.002 C 
ATOM     14  C   UNL     1      18.046  15.500 -12.885  1.00  0.00    -0.069 C 
ATOM     15  C   UNL     1      16.535  15.544 -12.875  1.00  0.00     0.039 C 
ATOM     16  C   UNL     1      18.683  14.343 -13.622  1.00  0.00     0.039 C 
BRANCH  13  17
ATOM     17  C   UNL     1      18.156  17.694 -11.649  1.00  0.00     0.066 CG0
ATOM     18  G   UNL     1      17.714  18.806 -12.584  1.00  0.00     0.000 G0
ENDBRANCH  13  17
ENDBRANCH  11  13
ENDBRANCH  10  11
ENDBRANCH   1  10
TORSDOF 0
ENDMDL
MODEL 5
REMARK VINA RESULT:    17.240      1.879      3.612
REMARK INTER + INTRA:          25.065
REMARK INTER:                  23.061
REMARK INTRA:                   2.004
REMARK UNBOUND:                 0.770
REMARK SMILES CC1=CCC(=C(C)C)C(=O)CC(C)=CCC1
REMARK SMILES IDX 12 1 14 2 13 3 15 4 16 5 2 6 1 7 3 8 11 10 9 11 10 12 5 13
REMARK SMILES IDX 6 14 7 15 8 16 4 17
REMARK H PARENT
REMARK Flexibility Score: 60.00
ROOT
ATOM      1  C   UNL     1      16.193  15.489 -12.188  1.00  0.00    -0.070 C 
ATOM      2  C   UNL     1      16.601  14.367 -12.825  1.00  0.00    -0.027 C 
ATOM      3  C   UNL     1      15.164  15.349 -11.096  1.00  0.00     0.039 C 
ENDROOT
BRANCH   2   4
ATOM      4  C   UNL     1      17.507  14.340 -14.031  1.00  0.00     0.032 C 
BRANCH   4   5
ATOM      5  C   UNL     1      18.735  15.222 -13.779  1.00  0.00     0.034 C 
BRANCH   5   6
ATOM      6  C   UNL     1      19.648  14.654 -12.712  1.00  0.00    -0.077 C 
ATOM      7  C   UNL     1      19.786  13.155 -12.602  1.00  0.00     0.039 C 
ATOM      8  C   UNL     1      20.408  15.418 -11.889  1.00  0.00    -0.023 CG0
ATOM      9  G   UNL     1      20.401  16.932 -11.768  1.00  0.00     0.000 G0
ENDBRANCH   5   6
ENDBRANCH   4   5
ENDBRANCH   2   4
BRANCH   1  10
ATOM     10  C   UNL     1      16.733  16.870 -12.502  1.00  0.00     0.111 C 
BRANCH  10  11
ATOM     11  C   UNL     1      17.879  17.247 -11.594  1.00  0.00     0.163 C 
ATOM     12  O   UNL     1      17.700  17.105 -10.354  1.00  0.00    -0.294 OA
BRANCH  11  13
ATOM     13  C   UNL     1      19.204  17.752 -12.088  1.00  0.00    -0.002 C 
ATOM     14  C   UNL     1      19.298  18.974 -12.698  1.00  0.00    -0.069 C 
ATOM     15  C   UNL     1      20.632  19.618 -12.998  1.00  0.00     0.039 C 
ATOM     16  C   UNL     1      18.068  19.725 -13.154  1.00  0.00     0.039 C 
BRANCH  13  17
ATOM     17  C   UNL     1      20.450  16.953 -11.726  1.00  0.00     0.066 CG0
ATOM     18  G   UNL     1      20.367  15.448 -11.911  1.00  0.00     0.000 G0
ENDBRANCH  13  17
ENDBRANCH  11  13
ENDBRANCH  10  11
ENDBRANCH   1  10
TORSDOF 0
ENDMDL
MODEL 6
REMARK VINA RESULT:    18.625      2.025      4.319
REMARK INTER + INTRA:          27.016
REMARK INTER:                  24.854
REMARK INTRA:                   2.162
REMARK UNBOUND:                 0.770
REMARK SMILES CC1=CCC(=C(C)C)C(=O)CC(C)=CCC1
REMARK SMILES IDX 12 1 14 2 13 3 15 4 16 5 2 6 1 7 3 8 11 10 9 11 10 12 5 13
REMARK SMILES IDX 6 14 7 15 8 16 4 17
REMARK H PARENT
REMARK Flexibility Score: 60.00
ROOT
ATOM      1  C   UNL     1      18.778  19.343 -12.022  1.00  0.00    -0.070 C 
ATOM      2  C   UNL     1      18.243  19.406 -10.780  1.00  0.00    -0.027 C 
ATOM      3  C   UNL     1      19.863  20.327 -12.377  1.00  0.00     0.039 C 
ENDROOT
BRANCH   2   4
ATOM      4  C   UNL     1      17.057  18.603 -10.309  1.00  0.00     0.032 C 
BRANCH   4   5
ATOM      5  C   UNL     1      17.445  17.125 -10.186  1.00  0.00     0.034 C 
BRANCH   5   6
ATOM      6  C   UNL     1      16.253  16.199 -10.314  1.00  0.00    -0.077 C 
ATOM      7  C   UNL     1      15.457  15.870  -9.075  1.00  0.00     0.039 C 
ATOM      8  C   UNL     1      15.811  15.703 -11.497  1.00  0.00    -0.023 CG0
ATOM      9  G   UNL     1      16.468  15.844 -12.859  1.00  0.00     0.000 G0
ENDBRANCH   5   6
ENDBRANCH   4   5
ENDBRANCH   2   4
BRANCH   1  10
ATOM     10  C   UNL     1      18.355  18.324 -13.061  1.00  0.00     0.111 C 
BRANCH  10  11
ATOM     11  C   UNL     1      18.809  16.930 -12.700  1.00  0.00     0.163 C 
ATOM     12  O   UNL     1      19.943  16.817 -12.161  1.00  0.00    -0.294 OA
BRANCH  11  13
ATOM     13  C   UNL     1      17.982  15.698 -12.929  1.00  0.00    -0.002 C 
ATOM     14  C   UNL     1      18.577  14.468 -13.018  1.00  0.00    -0.069 C 
ATOM     15  C   UNL     1      17.773  13.187 -13.014  1.00  0.00     0.039 C 
ATOM     16  C   UNL     1      20.073  14.324 -13.177  1.00  0.00     0.039 C 
BRANCH  13  17
ATOM     17  C   UNL     1      16.465  15.838 -12.875  1.00  0.00     0.066 CG0
ATOM     18  G   UNL     1      15.821  15.696 -11.507  1.00  0.00     0.000 G0
ENDBRANCH  13  17
ENDBRANCH  11  13
ENDBRANCH  10  11
ENDBRANCH   1  10
TORSDOF 0
ENDMDL
MODEL 7
REMARK VINA RESULT:    18.666      1.756      3.662
REMARK INTER + INTRA:          27.074
REMARK INTER:                  24.750
REMARK INTRA:                   2.324
REMARK UNBOUND:                 0.770
REMARK SMILES CC1=CCC(=C(C)C)C(=O)CC(C)=CCC1
REMARK SMILES IDX 12 1 14 2 13 3 15 4 16 5 2 6 1 7 3 8 11 10 9 11 10 12 5 13
REMARK SMILES IDX 6 14 7 15 8 16 4 17
REMARK H PARENT
REMARK Flexibility Score: 60.00
ROOT
ATOM      1  C   UNL     1      17.976  15.587 -12.690  1.00  0.00    -0.070 C 
ATOM      2  C   UNL     1      19.003  14.739 -12.928  1.00  0.00    -0.027 C 
ATOM      3  C   UNL     1      16.615  15.220 -13.222  1.00  0.00     0.039 C 
ENDROOT
BRANCH   2   4
ATOM      4  C   UNL     1      20.448  15.018 -12.599  1.00  0.00     0.032 C 
BRANCH   4   5
ATOM      5  C   UNL     1      20.535  16.085 -11.501  1.00  0.00     0.034 C 
BRANCH   5   6
ATOM      6  C   UNL     1      21.655  17.076 -11.743  1.00  0.00    -0.077 C 
ATOM      7  C   UNL     1      23.016  16.550 -12.128  1.00  0.00     0.039 C 
ATOM      8  C   UNL     1      21.488  18.422 -11.704  1.00  0.00    -0.023 CG0
ATOM      9  G   UNL     1      20.242  19.185 -11.289  1.00  0.00     0.000 G0
ENDBRANCH   5   6
ENDBRANCH   4   5
ENDBRANCH   2   4
BRANCH   1  10
ATOM     10  C   UNL     1      18.123  16.873 -11.900  1.00  0.00     0.111 C 
BRANCH  10  11
ATOM     11  C   UNL     1      18.457  18.046 -12.790  1.00  0.00     0.163 C 
ATOM     12  O   UNL     1      18.151  17.947 -14.009  1.00  0.00    -0.294 OA
BRANCH  11  13
ATOM     13  C   UNL     1      19.104  19.308 -12.298  1.00  0.00    -0.002 C 
ATOM     14  C   UNL     1      18.578  20.530 -12.620  1.00  0.00    -0.069 C 
ATOM     15  C   UNL     1      19.054  21.806 -11.961  1.00  0.00     0.039 C 
ATOM     16  C   UNL     1      17.522  20.678 -13.691  1.00  0.00     0.039 C 
BRANCH  13  17
ATOM     17  C   UNL     1      20.242  19.180 -11.292  1.00  0.00     0.066 CG0
ATOM     18  G   UNL     1      21.480  18.435 -11.762  1.00  0.00     0.000 G0
ENDBRANCH  13  17
ENDBRANCH  11  13
ENDBRANCH  10  11
ENDBRANCH   1  10
TORSDOF 0
ENDMDL
MODEL 8
REMARK VINA RESULT:    18.715      1.887      3.056
REMARK INTER + INTRA:          27.143
REMARK INTER:                  26.271
REMARK INTRA:                   0.872
REMARK UNBOUND:                 0.770
REMARK SMILES CC1=CCC(=C(C)C)C(=O)CC(C)=CCC1
REMARK SMILES IDX 12 1 14 2 13 3 15 4 16 5 2 6 1 7 3 8 11 10 9 11 10 12 5 13
REMARK SMILES IDX 6 14 7 15 8 16 4 17
REMARK H PARENT
REMARK Flexibility Score: 60.00
ROOT
ATOM      1  C   UNL     1      18.268  14.494 -13.174  1.00  0.00    -0.070 C 
ATOM      2  C   UNL     1      16.950  14.375 -12.892  1.00  0.00    -0.027 C 
ATOM      3  C   UNL     1      19.140  13.276 -13.011  1.00  0.00     0.039 C 
ENDROOT
BRANCH   2   4
ATOM      4  C   UNL     1      15.967  15.519 -12.859  1.00  0.00     0.032 C 
BRANCH   4   5
ATOM      5  C   UNL     1      15.163  15.476 -11.555  1.00  0.00     0.034 C 
BRANCH   5   6
ATOM      6  C   UNL     1      15.928  16.055 -10.382  1.00  0.00    -0.077 C 
ATOM      7  C   UNL     1      15.697  15.471  -9.010  1.00  0.00     0.039 C 
ATOM      8  C   UNL     1      16.868  17.025 -10.504  1.00  0.00    -0.023 CG0
ATOM      9  G   UNL     1      17.234  17.802 -11.756  1.00  0.00     0.000 G0
ENDBRANCH   5   6
ENDBRANCH   4   5
ENDBRANCH   2   4
BRANCH   1  10
ATOM     10  C   UNL     1      18.903  15.780 -13.663  1.00  0.00     0.111 C 
BRANCH  10  11
ATOM     11  C   UNL     1      19.380  16.644 -12.520  1.00  0.00     0.163 C 
ATOM     12  O   UNL     1      20.418  16.268 -11.911  1.00  0.00    -0.294 OA
BRANCH  11  13
ATOM     13  C   UNL     1      18.703  17.914 -12.096  1.00  0.00    -0.002 C 
ATOM     14  C   UNL     1      19.353  19.115 -12.194  1.00  0.00    -0.069 C 
ATOM     15  C   UNL     1      18.636  20.432 -12.001  1.00  0.00     0.039 C 
ATOM     16  C   UNL     1      20.841  19.189 -12.452  1.00  0.00     0.039 C 
BRANCH  13  17
ATOM     17  C   UNL     1      17.225  17.846 -11.732  1.00  0.00     0.066 CG0
ATOM     18  G   UNL     1      16.869  17.043 -10.492  1.00  0.00     0.000 G0
ENDBRANCH  13  17
ENDBRANCH  11  13
ENDBRANCH  10  11
ENDBRANCH   1  10
TORSDOF 0
ENDMDL
MODEL 9
REMARK VINA RESULT:    19.098      1.601      4.074
REMARK INTER + INTRA:          27.683
REMARK INTER:                  26.895
REMARK INTRA:                   0.788
REMARK UNBOUND:                 0.770
REMARK SMILES CC1=CCC(=C(C)C)C(=O)CC(C)=CCC1
REMARK SMILES IDX 12 1 14 2 13 3 15 4 16 5 2 6 1 7 3 8 11 10 9 11 10 12 5 13
REMARK SMILES IDX 6 14 7 15 8 16 4 17
REMARK H PARENT
REMARK Flexibility Score: 60.00
ROOT
ATOM      1  C   UNL     1      20.692  16.985 -11.345  1.00  0.00    -0.070 C 
ATOM      2  C   UNL     1      21.663  17.837 -11.745  1.00  0.00    -0.027 C 
ATOM      3  C   UNL     1      20.928  15.507 -11.520  1.00  0.00     0.039 C 
ENDROOT
BRANCH   2   4
ATOM      4  C   UNL     1      21.534  19.339 -11.780  1.00  0.00     0.032 C 
BRANCH   4   5
ATOM      5  C   UNL     1      20.729  19.764 -13.013  1.00  0.00     0.034 C 
BRANCH   5   6
ATOM      6  C   UNL     1      19.311  20.170 -12.668  1.00  0.00    -0.077 C 
ATOM      7  C   UNL     1      19.094  21.428 -11.864  1.00  0.00     0.039 C 
ATOM      8  C   UNL     1      18.212  19.503 -13.102  1.00  0.00    -0.023 CG0
ATOM      9  G   UNL     1      18.172  18.192 -13.868  1.00  0.00     0.000 G0
ENDBRANCH   5   6
ENDBRANCH   4   5
ENDBRANCH   2   4
BRANCH   1  10
ATOM     10  C   UNL     1      19.392  17.441 -10.712  1.00  0.00     0.111 C 
BRANCH  10  11
ATOM     11  C   UNL     1      18.192  17.037 -11.535  1.00  0.00     0.163 C 
ATOM     12  O   UNL     1      17.116  16.822 -10.914  1.00  0.00    -0.294 OA
BRANCH  11  13
ATOM     13  C   UNL     1      18.213  16.901 -13.030  1.00  0.00    -0.002 C 
ATOM     14  C   UNL     1      18.098  15.671 -13.618  1.00  0.00    -0.069 C 
ATOM     15  C   UNL     1      17.881  15.512 -15.106  1.00  0.00     0.039 C 
ATOM     16  C   UNL     1      18.232  14.396 -12.816  1.00  0.00     0.039 C 
BRANCH  13  17
ATOM     17  C   UNL     1      18.182  18.179 -13.861  1.00  0.00     0.066 CG0
ATOM     18  G   UNL     1      18.194  19.488 -13.091  1.00  0.00     0.000 G0
ENDBRANCH  13  17
ENDBRANCH  11  13
ENDBRANCH  10  11
ENDBRANCH   1  10
TORSDOF 0
ENDMDL
