MODEL 1
REMARK VINA RESULT:    25.814      0.000      0.000
REMARK INTER + INTRA:          30.084
REMARK INTER:                  30.342
REMARK INTRA:                  -0.258
REMARK UNBOUND:                -0.258
REMARK SMILES Oc1ccc(-c2[o+]c3cc(O)cc(O)c3cc2O)cc1
REMARK SMILES IDX 6 1 7 2 8 3 9 4 10 5 12 6 13 7 15 8 16 9 17 10 5 11 4 12
REMARK SMILES IDX 3 13 2 14 19 15 20 16 1 17 18 19 11 21 14 23
REMARK H PARENT 1 18 18 20 11 22 14 24
REMARK Flexibility Score: inf
ROOT
ATOM      1  C   UNL     1       9.349   2.198   8.653  1.00  0.00     0.401 A 
ATOM      2  O   UNL     1      10.228   1.350   8.126  1.00  0.00    -0.202 OA
ATOM      3  C   UNL     1      11.173   1.720   7.266  1.00  0.00     0.368 A 
ATOM      4  C   UNL     1      12.050   0.755   6.764  1.00  0.00     0.162 A 
ATOM      5  C   UNL     1      13.048   1.113   5.857  1.00  0.00     0.128 A 
ATOM      6  C   UNL     1      13.172   2.446   5.448  1.00  0.00     0.093 A 
ATOM      7  C   UNL     1      12.306   3.431   5.937  1.00  0.00     0.136 A 
ATOM      8  C   UNL     1      11.290   3.070   6.861  1.00  0.00     0.125 A 
ATOM      9  C   UNL     1      10.386   3.993   7.412  1.00  0.00     0.078 A 
ATOM     10  C   UNL     1       9.415   3.564   8.322  1.00  0.00     0.223 A 
ENDROOT
BRANCH   1  11
ATOM     11  C   UNL     1       8.337   1.662   9.593  1.00  0.00     0.084 A 
ATOM     12  C   UNL     1       7.001   1.537   9.173  1.00  0.00     0.022 A 
ATOM     13  C   UNL     1       6.026   1.054  10.049  1.00  0.00     0.047 A 
ATOM     14  C   UNL     1       6.371   0.703  11.362  1.00  0.00     0.115 A 
ATOM     15  C   UNL     1       8.671   1.326  10.918  1.00  0.00     0.022 A 
ATOM     16  C   UNL     1       7.692   0.844  11.793  1.00  0.00     0.047 A 
BRANCH  14  17
ATOM     17  O   UNL     1       5.406   0.220  12.244  1.00  0.00    -0.508 OA
ATOM     18  H   UNL     1       5.372  -0.757  12.510  1.00  0.00     0.293 HD
ENDBRANCH  14  17
ENDBRANCH   1  11
BRANCH  10  19
ATOM     19  O   UNL     1       8.549   4.486   8.908  1.00  0.00    -0.500 OA
ATOM     20  H   UNL     1       8.748   5.480   8.908  1.00  0.00     0.294 HD
ENDBRANCH  10  19
BRANCH   5  21
ATOM     21  O   UNL     1      13.914   0.137   5.368  1.00  0.00    -0.507 OA
ATOM     22  H   UNL     1      13.784  -0.275   4.452  1.00  0.00     0.293 HD
ENDBRANCH   5  21
BRANCH   7  23
ATOM     23  O   UNL     1      12.492   4.738   5.478  1.00  0.00    -0.507 OA
ATOM     24  H   UNL     1      13.259   5.033   4.892  1.00  0.00     0.293 HD
ENDBRANCH   7  23
TORSDOF 5
ENDMDL
MODEL 2
REMARK VINA RESULT:    25.890      1.073      2.869
REMARK INTER + INTRA:          30.173
REMARK INTER:                  30.455
REMARK INTRA:                  -0.282
REMARK UNBOUND:                -0.258
REMARK SMILES Oc1ccc(-c2[o+]c3cc(O)cc(O)c3cc2O)cc1
REMARK SMILES IDX 6 1 7 2 8 3 9 4 10 5 12 6 13 7 15 8 16 9 17 10 5 11 4 12
REMARK SMILES IDX 3 13 2 14 19 15 20 16 1 17 18 19 11 21 14 23
REMARK H PARENT 1 18 18 20 11 22 14 24
REMARK Flexibility Score: inf
ROOT
ATOM      1  C   UNL     1       9.350   1.398   8.836  1.00  0.00     0.401 A 
ATOM      2  O   UNL     1       9.619   2.603   8.341  1.00  0.00    -0.202 OA
ATOM      3  C   UNL     1      10.566   2.825   7.436  1.00  0.00     0.368 A 
ATOM      4  C   UNL     1      10.776   4.129   6.977  1.00  0.00     0.162 A 
ATOM      5  C   UNL     1      11.767   4.392   6.031  1.00  0.00     0.128 A 
ATOM      6  C   UNL     1      12.554   3.346   5.537  1.00  0.00     0.093 A 
ATOM      7  C   UNL     1      12.363   2.032   5.980  1.00  0.00     0.136 A 
ATOM      8  C   UNL     1      11.356   1.760   6.942  1.00  0.00     0.125 A 
ATOM      9  C   UNL     1      11.085   0.472   7.433  1.00  0.00     0.078 A 
ATOM     10  C   UNL     1      10.072   0.281   8.377  1.00  0.00     0.223 A 
ENDROOT
BRANCH   1  11
ATOM     11  C   UNL     1       8.275   1.281   9.849  1.00  0.00     0.084 A 
ATOM     12  C   UNL     1       8.615   1.130  11.204  1.00  0.00     0.022 A 
ATOM     13  C   UNL     1       7.619   0.997  12.174  1.00  0.00     0.047 A 
ATOM     14  C   UNL     1       6.268   0.997  11.800  1.00  0.00     0.115 A 
ATOM     15  C   UNL     1       6.918   1.260   9.479  1.00  0.00     0.022 A 
ATOM     16  C   UNL     1       5.922   1.126  10.452  1.00  0.00     0.047 A 
BRANCH  14  17
ATOM     17  O   UNL     1       5.266   0.864  12.758  1.00  0.00    -0.508 OA
ATOM     18  H   UNL     1       4.868   1.671  13.226  1.00  0.00     0.293 HD
ENDBRANCH  14  17
ENDBRANCH   1  11
BRANCH  10  19
ATOM     19  O   UNL     1       9.769  -1.004   8.828  1.00  0.00    -0.500 OA
ATOM     20  H   UNL     1       8.816  -1.293   9.014  1.00  0.00     0.294 HD
ENDBRANCH  10  19
BRANCH   5  21
ATOM     21  O   UNL     1      11.961   5.698   5.585  1.00  0.00    -0.507 OA
ATOM     22  H   UNL     1      11.263   6.417   5.733  1.00  0.00     0.293 HD
ENDBRANCH   5  21
BRANCH   7  23
ATOM     23  O   UNL     1      13.192   1.043   5.441  1.00  0.00    -0.507 OA
ATOM     24  H   UNL     1      14.190   0.995   5.584  1.00  0.00     0.293 HD
ENDBRANCH   7  23
TORSDOF 5
ENDMDL
MODEL 3
REMARK VINA RESULT:    26.600      4.612      7.550
REMARK INTER + INTRA:          31.008
REMARK INTER:                  31.239
REMARK INTRA:                  -0.232
REMARK UNBOUND:                -0.258
REMARK SMILES Oc1ccc(-c2[o+]c3cc(O)cc(O)c3cc2O)cc1
REMARK SMILES IDX 6 1 7 2 8 3 9 4 10 5 12 6 13 7 15 8 16 9 17 10 5 11 4 12
REMARK SMILES IDX 3 13 2 14 19 15 20 16 1 17 18 19 11 21 14 23
REMARK H PARENT 1 18 18 20 11 22 14 24
REMARK Flexibility Score: inf
ROOT
ATOM      1  C   UNL     1      15.123   2.968   8.581  1.00  0.00     0.401 A 
ATOM      2  O   UNL     1      14.192   3.806   8.133  1.00  0.00    -0.202 OA
ATOM      3  C   UNL     1      13.230   3.443   7.291  1.00  0.00     0.368 A 
ATOM      4  C   UNL     1      12.296   4.397   6.874  1.00  0.00     0.162 A 
ATOM      5  C   UNL     1      11.278   4.046   5.987  1.00  0.00     0.128 A 
ATOM      6  C   UNL     1      11.191   2.733   5.511  1.00  0.00     0.093 A 
ATOM      7  C   UNL     1      12.113   1.760   5.913  1.00  0.00     0.136 A 
ATOM      8  C   UNL     1      13.149   2.112   6.817  1.00  0.00     0.125 A 
ATOM      9  C   UNL     1      14.109   1.200   7.284  1.00  0.00     0.078 A 
ATOM     10  C   UNL     1      15.098   1.620   8.178  1.00  0.00     0.223 A 
ENDROOT
BRANCH   1  11
ATOM     11  C   UNL     1      16.149   3.495   9.511  1.00  0.00     0.084 A 
ATOM     12  C   UNL     1      17.478   3.627   9.071  1.00  0.00     0.022 A 
ATOM     13  C   UNL     1      18.466   4.102   9.937  1.00  0.00     0.047 A 
ATOM     14  C   UNL     1      18.143   4.436  11.259  1.00  0.00     0.115 A 
ATOM     15  C   UNL     1      15.837   3.813  10.845  1.00  0.00     0.022 A 
ATOM     16  C   UNL     1      16.828   4.287  11.710  1.00  0.00     0.047 A 
BRANCH  14  17
ATOM     17  O   UNL     1      19.120   4.910  12.131  1.00  0.00    -0.508 OA
ATOM     18  H   UNL     1      20.026   4.460  12.208  1.00  0.00     0.293 HD
ENDBRANCH  14  17
ENDBRANCH   1  11
BRANCH  10  19
ATOM     19  O   UNL     1      16.021   0.704   8.681  1.00  0.00    -0.500 OA
ATOM     20  H   UNL     1      16.986   0.960   8.858  1.00  0.00     0.294 HD
ENDBRANCH  10  19
BRANCH   5  21
ATOM     21  O   UNL     1      10.357   5.010   5.584  1.00  0.00    -0.507 OA
ATOM     22  H   UNL     1       9.392   4.773   5.391  1.00  0.00     0.293 HD
ENDBRANCH   5  21
BRANCH   7  23
ATOM     23  O   UNL     1      11.960   0.472   5.390  1.00  0.00    -0.507 OA
ATOM     24  H   UNL     1      11.071   0.015   5.249  1.00  0.00     0.293 HD
ENDBRANCH   7  23
TORSDOF 5
ENDMDL
MODEL 4
REMARK VINA RESULT:    26.757      4.819      7.149
REMARK INTER + INTRA:          31.192
REMARK INTER:                  31.460
REMARK INTRA:                  -0.269
REMARK UNBOUND:                -0.258
REMARK SMILES Oc1ccc(-c2[o+]c3cc(O)cc(O)c3cc2O)cc1
REMARK SMILES IDX 6 1 7 2 8 3 9 4 10 5 12 6 13 7 15 8 16 9 17 10 5 11 4 12
REMARK SMILES IDX 3 13 2 14 19 15 20 16 1 17 18 19 11 21 14 23
REMARK H PARENT 1 18 18 20 11 22 14 24
REMARK Flexibility Score: inf
ROOT
ATOM      1  C   UNL     1      15.090   3.782   8.766  1.00  0.00     0.401 A 
ATOM      2  O   UNL     1      14.819   2.592   8.238  1.00  0.00    -0.202 OA
ATOM      3  C   UNL     1      13.846   2.390   7.355  1.00  0.00     0.368 A 
ATOM      4  C   UNL     1      13.636   1.101   6.858  1.00  0.00     0.162 A 
ATOM      5  C   UNL     1      12.620   0.858   5.933  1.00  0.00     0.128 A 
ATOM      6  C   UNL     1      11.805   1.911   5.502  1.00  0.00     0.093 A 
ATOM      7  C   UNL     1      11.995   3.211   5.985  1.00  0.00     0.136 A 
ATOM      8  C   UNL     1      13.029   3.462   6.924  1.00  0.00     0.125 A 
ATOM      9  C   UNL     1      13.300   4.735   7.452  1.00  0.00     0.078 A 
ATOM     10  C   UNL     1      14.340   4.906   8.370  1.00  0.00     0.223 A 
ENDROOT
BRANCH   1  11
ATOM     11  C   UNL     1      16.195   3.878   9.748  1.00  0.00     0.084 A 
ATOM     12  C   UNL     1      15.895   4.021  11.114  1.00  0.00     0.022 A 
ATOM     13  C   UNL     1      16.921   4.134  12.056  1.00  0.00     0.047 A 
ATOM     14  C   UNL     1      18.260   4.120  11.643  1.00  0.00     0.115 A 
ATOM     15  C   UNL     1      17.541   3.885   9.340  1.00  0.00     0.022 A 
ATOM     16  C   UNL     1      18.566   3.998  10.285  1.00  0.00     0.047 A 
BRANCH  14  17
ATOM     17  O   UNL     1      19.291   4.232  12.573  1.00  0.00    -0.508 OA
ATOM     18  H   UNL     1      19.282   3.707  13.441  1.00  0.00     0.293 HD
ENDBRANCH  14  17
ENDBRANCH   1  11
BRANCH  10  19
ATOM     19  O   UNL     1      14.642   6.177   8.857  1.00  0.00    -0.500 OA
ATOM     20  H   UNL     1      15.267   6.313   9.643  1.00  0.00     0.294 HD
ENDBRANCH  10  19
BRANCH   5  21
ATOM     21  O   UNL     1      12.427  -0.433   5.449  1.00  0.00    -0.507 OA
ATOM     22  H   UNL     1      12.767  -1.244   5.951  1.00  0.00     0.293 HD
ENDBRANCH   5  21
BRANCH   7  23
ATOM     23  O   UNL     1      11.138   4.207   5.508  1.00  0.00    -0.507 OA
ATOM     24  H   UNL     1      10.822   4.279   4.552  1.00  0.00     0.293 HD
ENDBRANCH   7  23
TORSDOF 5
ENDMDL
