MODEL 1
REMARK VINA RESULT:    -2.001      0.000      0.000
REMARK INTER + INTRA:          -2.001
REMARK INTER:                  -2.001
REMARK INTRA:                   0.000
REMARK UNBOUND:                 0.000
REMARK SMILES CC(=O)[O-]
REMARK SMILES IDX 1 1 2 2 3 3 4 4
REMARK H PARENT
REMARK Flexibility Score: inf
ROOT
ATOM      1  C   UNL     1      11.520  62.362   8.013  1.00  0.00     0.063 C 
ATOM      2  C   UNL     1      12.762  62.926   7.410  1.00  0.00     0.038 C 
ATOM      3  O   UNL     1      13.031  62.710   6.200  1.00  0.00    -0.550 OA
ATOM      4  O   UNL     1      13.597  63.737   8.168  1.00  0.00    -0.550 OA
ENDROOT
TORSDOF 0
ENDMDL
MODEL 2
REMARK VINA RESULT:    -1.946      1.526      1.840
REMARK INTER + INTRA:          -1.946
REMARK INTER:                  -1.946
REMARK INTRA:                   0.000
REMARK UNBOUND:                 0.000
REMARK SMILES CC(=O)[O-]
REMARK SMILES IDX 1 1 2 2 3 3 4 4
REMARK H PARENT
REMARK Flexibility Score: inf
ROOT
ATOM      1  C   UNL     1      13.036  63.098   6.476  1.00  0.00     0.063 C 
ATOM      2  C   UNL     1      12.199  62.719   7.650  1.00  0.00     0.038 C 
ATOM      3  O   UNL     1      11.586  61.620   7.661  1.00  0.00    -0.550 OA
ATOM      4  O   UNL     1      12.139  63.553   8.760  1.00  0.00    -0.550 OA
ENDROOT
TORSDOF 0
ENDMDL
MODEL 3
REMARK VINA RESULT:    -1.941      0.188      1.631
REMARK INTER + INTRA:          -1.941
REMARK INTER:                  -1.941
REMARK INTRA:                   0.000
REMARK UNBOUND:                 0.000
REMARK SMILES CC(=O)[O-]
REMARK SMILES IDX 1 1 2 2 3 3 4 4
REMARK H PARENT
REMARK Flexibility Score: inf
ROOT
ATOM      1  C   UNL     1      11.406  62.595   8.171  1.00  0.00     0.063 C 
ATOM      2  C   UNL     1      12.681  63.016   7.523  1.00  0.00     0.038 C 
ATOM      3  O   UNL     1      13.544  63.652   8.181  1.00  0.00    -0.550 OA
ATOM      4  O   UNL     1      12.943  62.659   6.206  1.00  0.00    -0.550 OA
ENDROOT
TORSDOF 0
ENDMDL
MODEL 4
REMARK VINA RESULT:    -1.880      2.562      2.783
REMARK INTER + INTRA:          -1.880
REMARK INTER:                  -1.880
REMARK INTRA:                   0.000
REMARK UNBOUND:                 0.000
REMARK SMILES CC(=O)[O-]
REMARK SMILES IDX 1 1 2 2 3 3 4 4
REMARK H PARENT
REMARK Flexibility Score: inf
ROOT
ATOM      1  C   UNL     1      11.867  62.232   7.691  1.00  0.00     0.063 C 
ATOM      2  C   UNL     1      10.904  62.932   8.590  1.00  0.00     0.038 C 
ATOM      3  O   UNL     1      10.208  63.884   8.151  1.00  0.00    -0.550 OA
ATOM      4  O   UNL     1      10.734  62.498   9.899  1.00  0.00    -0.550 OA
ENDROOT
TORSDOF 0
ENDMDL
MODEL 5
REMARK VINA RESULT:    -1.856      1.785      1.932
REMARK INTER + INTRA:          -1.856
REMARK INTER:                  -1.856
REMARK INTRA:                   0.000
REMARK UNBOUND:                 0.000
REMARK SMILES CC(=O)[O-]
REMARK SMILES IDX 1 1 2 2 3 3 4 4
REMARK H PARENT
REMARK Flexibility Score: inf
ROOT
ATOM      1  C   UNL     1      10.772  62.772   9.554  1.00  0.00     0.063 C 
ATOM      2  C   UNL     1      11.395  62.876   8.203  1.00  0.00     0.038 C 
ATOM      3  O   UNL     1      11.818  61.844   7.621  1.00  0.00    -0.550 OA
ATOM      4  O   UNL     1      11.458  64.106   7.560  1.00  0.00    -0.550 OA
ENDROOT
TORSDOF 0
ENDMDL
MODEL 6
REMARK VINA RESULT:    -1.848     10.616     10.894
REMARK INTER + INTRA:          -1.848
REMARK INTER:                  -1.848
REMARK INTRA:                   0.000
REMARK UNBOUND:                 0.000
REMARK SMILES CC(=O)[O-]
REMARK SMILES IDX 1 1 2 2 3 3 4 4
REMARK H PARENT
REMARK Flexibility Score: inf
ROOT
ATOM      1  C   UNL     1       5.754  55.089  12.049  1.00  0.00     0.063 C 
ATOM      2  C   UNL     1       6.080  55.000  10.596  1.00  0.00     0.038 C 
ATOM      3  O   UNL     1       5.242  55.376   9.736  1.00  0.00    -0.550 OA
ATOM      4  O   UNL     1       7.331  54.553  10.190  1.00  0.00    -0.550 OA
ENDROOT
TORSDOF 0
ENDMDL
MODEL 7
REMARK VINA RESULT:    -1.719     14.483     14.919
REMARK INTER + INTRA:          -1.719
REMARK INTER:                  -1.719
REMARK INTRA:                   0.000
REMARK UNBOUND:                 0.000
REMARK SMILES CC(=O)[O-]
REMARK SMILES IDX 1 1 2 2 3 3 4 4
REMARK H PARENT
REMARK Flexibility Score: inf
ROOT
ATOM      1  C   UNL     1      13.067  57.486  -5.006  1.00  0.00     0.063 C 
ATOM      2  C   UNL     1      13.305  56.274  -5.841  1.00  0.00     0.038 C 
ATOM      3  O   UNL     1      14.125  56.314  -6.794  1.00  0.00    -0.550 OA
ATOM      4  O   UNL     1      12.662  55.081  -5.534  1.00  0.00    -0.550 OA
ENDROOT
TORSDOF 0
ENDMDL
MODEL 8
REMARK VINA RESULT:    -1.630     13.961     14.319
REMARK INTER + INTRA:          -1.630
REMARK INTER:                  -1.630
REMARK INTRA:                   0.000
REMARK UNBOUND:                 0.000
REMARK SMILES CC(=O)[O-]
REMARK SMILES IDX 1 1 2 2 3 3 4 4
REMARK H PARENT
REMARK Flexibility Score: inf
ROOT
ATOM      1  C   UNL     1      13.037  55.651  -5.834  1.00  0.00     0.063 C 
ATOM      2  C   UNL     1      12.971  57.116  -5.559  1.00  0.00     0.038 C 
ATOM      3  O   UNL     1      11.889  57.739  -5.710  1.00  0.00    -0.550 OA
ATOM      4  O   UNL     1      14.091  57.784  -5.081  1.00  0.00    -0.550 OA
ENDROOT
TORSDOF 0
ENDMDL
MODEL 9
REMARK VINA RESULT:    -1.594     15.815     16.219
REMARK INTER + INTRA:          -1.594
REMARK INTER:                  -1.594
REMARK INTRA:                   0.000
REMARK UNBOUND:                 0.000
REMARK SMILES CC(=O)[O-]
REMARK SMILES IDX 1 1 2 2 3 3 4 4
REMARK H PARENT
REMARK Flexibility Score: inf
ROOT
ATOM      1  C   UNL     1      -0.866  54.907   6.183  1.00  0.00     0.063 C 
ATOM      2  C   UNL     1      -1.784  56.040   5.872  1.00  0.00     0.038 C 
ATOM      3  O   UNL     1      -2.753  56.294   6.632  1.00  0.00    -0.550 OA
ATOM      4  O   UNL     1      -1.538  56.852   4.772  1.00  0.00    -0.550 OA
ENDROOT
TORSDOF 0
ENDMDL
