MODEL 1
REMARK VINA RESULT:    35.203      0.000      0.000
REMARK INTER + INTRA:          40.040
REMARK INTER:                  40.348
REMARK INTRA:                  -0.308
REMARK UNBOUND:                -0.308
REMARK SMILES O=C1C[C@H](c2ccc(O)cc2)Oc2cc(O)cc(O)c21
REMARK SMILES IDX 3 1 4 2 12 3 13 4 14 5 15 6 17 7 18 8 20 9 2 10 1 11 5 12
REMARK SMILES IDX 6 13 11 14 7 15 10 16 8 17 9 18 19 20 16 22
REMARK H PARENT 9 19 19 21 16 23
REMARK Flexibility Score: inf
ROOT
ATOM      1  C   UNL     1      32.364   3.990  -0.723  1.00  0.00     0.131 C 
ATOM      2  C   UNL     1      31.504   2.796  -0.286  1.00  0.00     0.211 C 
ATOM      3  O   UNL     1      31.551   2.636   1.136  1.00  0.00    -0.484 OA
ATOM      4  C   UNL     1      32.724   2.823   1.879  1.00  0.00     0.138 A 
ATOM      5  C   UNL     1      32.762   2.384   3.205  1.00  0.00     0.093 A 
ATOM      6  C   UNL     1      33.923   2.543   3.967  1.00  0.00     0.123 A 
ATOM      7  C   UNL     1      35.038   3.172   3.409  1.00  0.00     0.093 A 
ATOM      8  C   UNL     1      35.009   3.655   2.095  1.00  0.00     0.133 A 
ATOM      9  C   UNL     1      33.848   3.452   1.302  1.00  0.00     0.102 A 
ATOM     10  C   UNL     1      33.731   3.859  -0.120  1.00  0.00     0.174 C 
ATOM     11  O   UNL     1      34.745   4.041  -0.844  1.00  0.00    -0.294 OA
ENDROOT
BRANCH   2  12
ATOM     12  C   UNL     1      30.076   2.972  -0.740  1.00  0.00    -0.007 A 
ATOM     13  C   UNL     1      29.747   3.978  -1.665  1.00  0.00     0.011 A 
ATOM     14  C   UNL     1      29.051   2.172  -0.205  1.00  0.00     0.011 A 
ATOM     15  C   UNL     1      28.420   4.163  -2.066  1.00  0.00     0.046 A 
ATOM     16  C   UNL     1      27.725   2.359  -0.607  1.00  0.00     0.046 A 
ATOM     17  C   UNL     1      27.407   3.355  -1.540  1.00  0.00     0.115 A 
BRANCH  17  18
ATOM     18  O   UNL     1      26.089   3.551  -1.949  1.00  0.00    -0.508 OA
ATOM     19  H   UNL     1      25.834   3.555  -2.929  1.00  0.00     0.293 HD
ENDBRANCH  17  18
ENDBRANCH   2  12
BRANCH   8  20
ATOM     20  O   UNL     1      36.130   4.352   1.642  1.00  0.00    -0.507 OA
ATOM     21  H   UNL     1      36.842   3.954   1.048  1.00  0.00     0.293 HD
ENDBRANCH   8  20
BRANCH   6  22
ATOM     22  O   UNL     1      33.976   2.090   5.283  1.00  0.00    -0.508 OA
ATOM     23  H   UNL     1      33.253   1.493   5.667  1.00  0.00     0.293 HD
ENDBRANCH   6  22
TORSDOF 4
ENDMDL
MODEL 2
REMARK VINA RESULT:    36.952      2.707      8.638
REMARK INTER + INTRA:          42.044
REMARK INTER:                  42.342
REMARK INTRA:                  -0.297
REMARK UNBOUND:                -0.308
REMARK SMILES O=C1C[C@H](c2ccc(O)cc2)Oc2cc(O)cc(O)c21
REMARK SMILES IDX 3 1 4 2 12 3 13 4 14 5 15 6 17 7 18 8 20 9 2 10 1 11 5 12
REMARK SMILES IDX 6 13 11 14 7 15 10 16 8 17 9 18 19 20 16 22
REMARK H PARENT 9 19 19 21 16 23
REMARK Flexibility Score: inf
ROOT
ATOM      1  C   UNL     1      26.877   3.639  -0.831  1.00  0.00     0.131 C 
ATOM      2  C   UNL     1      27.892   2.521  -1.112  1.00  0.00     0.211 C 
ATOM      3  O   UNL     1      27.889   2.176  -2.500  1.00  0.00    -0.484 OA
ATOM      4  C   UNL     1      26.713   2.112  -3.261  1.00  0.00     0.138 A 
ATOM      5  C   UNL     1      26.754   1.506  -4.519  1.00  0.00     0.093 A 
ATOM      6  C   UNL     1      25.594   1.414  -5.294  1.00  0.00     0.123 A 
ATOM      7  C   UNL     1      24.398   1.957  -4.821  1.00  0.00     0.093 A 
ATOM      8  C   UNL     1      24.344   2.604  -3.580  1.00  0.00     0.133 A 
ATOM      9  C   UNL     1      25.508   2.657  -2.769  1.00  0.00     0.102 A 
ATOM     10  C   UNL     1      25.549   3.254  -1.411  1.00  0.00     0.174 C 
ATOM     11  O   UNL     1      24.508   3.394  -0.716  1.00  0.00    -0.294 OA
ENDROOT
BRANCH   2  12
ATOM     12  C   UNL     1      29.278   2.939  -0.685  1.00  0.00    -0.007 A 
ATOM     13  C   UNL     1      29.502   4.230  -0.176  1.00  0.00     0.011 A 
ATOM     14  C   UNL     1      30.368   2.066  -0.842  1.00  0.00     0.011 A 
ATOM     15  C   UNL     1      30.790   4.630   0.193  1.00  0.00     0.046 A 
ATOM     16  C   UNL     1      31.656   2.468  -0.473  1.00  0.00     0.046 A 
ATOM     17  C   UNL     1      31.869   3.752   0.047  1.00  0.00     0.115 A 
BRANCH  17  18
ATOM     18  O   UNL     1      33.147   4.164   0.419  1.00  0.00    -0.508 OA
ATOM     19  H   UNL     1      33.573   4.992   0.019  1.00  0.00     0.293 HD
ENDBRANCH  17  18
ENDBRANCH   2  12
BRANCH   8  20
ATOM     20  O   UNL     1      23.134   3.201  -3.220  1.00  0.00    -0.507 OA
ATOM     21  H   UNL     1      23.043   3.906  -2.503  1.00  0.00     0.293 HD
ENDBRANCH   8  20
BRANCH   6  22
ATOM     22  O   UNL     1      25.621   0.792  -6.540  1.00  0.00    -0.508 OA
ATOM     23  H   UNL     1      24.773   0.631  -7.071  1.00  0.00     0.293 HD
ENDBRANCH   6  22
TORSDOF 4
ENDMDL
MODEL 3
REMARK VINA RESULT:    37.007      2.052      2.629
REMARK INTER + INTRA:          42.107
REMARK INTER:                  42.412
REMARK INTRA:                  -0.305
REMARK UNBOUND:                -0.308
REMARK SMILES O=C1C[C@H](c2ccc(O)cc2)Oc2cc(O)cc(O)c21
REMARK SMILES IDX 3 1 4 2 12 3 13 4 14 5 15 6 17 7 18 8 20 9 2 10 1 11 5 12
REMARK SMILES IDX 6 13 11 14 7 15 10 16 8 17 9 18 19 20 16 22
REMARK H PARENT 9 19 19 21 16 23
REMARK Flexibility Score: inf
ROOT
ATOM      1  C   UNL     1      31.220   6.011   0.698  1.00  0.00     0.131 C 
ATOM      2  C   UNL     1      31.429   4.905  -0.346  1.00  0.00     0.211 C 
ATOM      3  O   UNL     1      32.457   4.003   0.075  1.00  0.00    -0.484 OA
ATOM      4  C   UNL     1      33.624   4.436   0.720  1.00  0.00     0.138 A 
ATOM      5  C   UNL     1      34.694   3.547   0.849  1.00  0.00     0.093 A 
ATOM      6  C   UNL     1      35.877   3.954   1.473  1.00  0.00     0.123 A 
ATOM      7  C   UNL     1      35.977   5.245   1.996  1.00  0.00     0.093 A 
ATOM      8  C   UNL     1      34.903   6.139   1.912  1.00  0.00     0.133 A 
ATOM      9  C   UNL     1      33.717   5.746   1.236  1.00  0.00     0.102 A 
ATOM     10  C   UNL     1      32.546   6.632   1.028  1.00  0.00     0.174 C 
ATOM     11  O   UNL     1      32.648   7.886   1.066  1.00  0.00    -0.294 OA
ENDROOT
BRANCH   2  12
ATOM     12  C   UNL     1      30.145   4.150  -0.586  1.00  0.00    -0.007 A 
ATOM     13  C   UNL     1      29.226   4.605  -1.547  1.00  0.00     0.011 A 
ATOM     14  C   UNL     1      29.826   3.017   0.183  1.00  0.00     0.011 A 
ATOM     15  C   UNL     1      28.021   3.924  -1.751  1.00  0.00     0.046 A 
ATOM     16  C   UNL     1      28.621   2.338  -0.022  1.00  0.00     0.046 A 
ATOM     17  C   UNL     1      27.716   2.790  -0.992  1.00  0.00     0.115 A 
BRANCH  17  18
ATOM     18  O   UNL     1      26.513   2.122  -1.206  1.00  0.00    -0.508 OA
ATOM     19  H   UNL     1      26.421   1.415  -1.926  1.00  0.00     0.293 HD
ENDBRANCH  17  18
ENDBRANCH   2  12
BRANCH   8  20
ATOM     20  O   UNL     1      35.048   7.377   2.540  1.00  0.00    -0.507 OA
ATOM     21  H   UNL     1      34.617   7.619   3.421  1.00  0.00     0.293 HD
ENDBRANCH   8  20
BRANCH   6  22
ATOM     22  O   UNL     1      36.956   3.080   1.587  1.00  0.00    -0.508 OA
ATOM     23  H   UNL     1      37.829   3.370   2.013  1.00  0.00     0.293 HD
ENDBRANCH   6  22
TORSDOF 4
ENDMDL
MODEL 4
REMARK VINA RESULT:    37.337      3.594      9.782
REMARK INTER + INTRA:          42.486
REMARK INTER:                  42.797
REMARK INTRA:                  -0.312
REMARK UNBOUND:                -0.308
REMARK SMILES O=C1C[C@H](c2ccc(O)cc2)Oc2cc(O)cc(O)c21
REMARK SMILES IDX 3 1 4 2 12 3 13 4 14 5 15 6 17 7 18 8 20 9 2 10 1 11 5 12
REMARK SMILES IDX 6 13 11 14 7 15 10 16 8 17 9 18 19 20 16 22
REMARK H PARENT 9 19 19 21 16 23
REMARK Flexibility Score: inf
ROOT
ATOM      1  C   UNL     1      25.337   2.616  -1.810  1.00  0.00     0.131 C 
ATOM      2  C   UNL     1      26.432   3.395  -2.555  1.00  0.00     0.211 C 
ATOM      3  O   UNL     1      25.991   4.723  -2.853  1.00  0.00    -0.484 OA
ATOM      4  C   UNL     1      24.681   5.011  -3.258  1.00  0.00     0.138 A 
ATOM      5  C   UNL     1      24.400   6.271  -3.794  1.00  0.00     0.093 A 
ATOM      6  C   UNL     1      23.107   6.582  -4.222  1.00  0.00     0.123 A 
ATOM      7  C   UNL     1      22.085   5.641  -4.084  1.00  0.00     0.093 A 
ATOM      8  C   UNL     1      22.335   4.387  -3.514  1.00  0.00     0.133 A 
ATOM      9  C   UNL     1      23.658   4.049  -3.123  1.00  0.00     0.102 A 
ATOM     10  C   UNL     1      24.050   2.728  -2.573  1.00  0.00     0.174 C 
ATOM     11  O   UNL     1      23.362   1.693  -2.777  1.00  0.00    -0.294 OA
ENDROOT
BRANCH   2  12
ATOM     12  C   UNL     1      27.701   3.441  -1.740  1.00  0.00    -0.007 A 
ATOM     13  C   UNL     1      28.593   4.518  -1.881  1.00  0.00     0.011 A 
ATOM     14  C   UNL     1      28.033   2.385  -0.873  1.00  0.00     0.011 A 
ATOM     15  C   UNL     1      29.784   4.548  -1.148  1.00  0.00     0.046 A 
ATOM     16  C   UNL     1      29.225   2.418  -0.142  1.00  0.00     0.046 A 
ATOM     17  C   UNL     1      30.103   3.502  -0.278  1.00  0.00     0.115 A 
BRANCH  17  18
ATOM     18  O   UNL     1      31.293   3.546   0.445  1.00  0.00    -0.508 OA
ATOM     19  H   UNL     1      31.348   3.204   1.397  1.00  0.00     0.293 HD
ENDBRANCH  17  18
ENDBRANCH   2  12
BRANCH   8  20
ATOM     20  O   UNL     1      21.243   3.537  -3.326  1.00  0.00    -0.507 OA
ATOM     21  H   UNL     1      20.285   3.851  -3.272  1.00  0.00     0.293 HD
ENDBRANCH   8  20
BRANCH   6  22
ATOM     22  O   UNL     1      22.823   7.829  -4.776  1.00  0.00    -0.508 OA
ATOM     23  H   UNL     1      22.681   7.945  -5.773  1.00  0.00     0.293 HD
ENDBRANCH   6  22
TORSDOF 4
ENDMDL
