MODEL 1
REMARK VINA RESULT:    -6.059      0.000      0.000
REMARK INTER + INTRA:          -9.246
REMARK INTER:                  -8.362
REMARK INTRA:                  -0.884
REMARK UNBOUND:                -0.884
REMARK SMILES CCCCc1cccc(O)c1CCCC
REMARK SMILES IDX 5 1 11 2 9 3 8 4 7 5 6 6 4 7 3 8 2 9 1 10 12 11 13 12 14 13
REMARK SMILES IDX 15 14 10 15
REMARK H PARENT 10 16
REMARK Flexibility Score: inf
ROOT
ATOM      1  C   UNL     1      13.122  20.565  16.991  1.00  0.00    -0.041 A 
ATOM      2  C   UNL     1      13.789  19.302  16.924  1.00  0.00    -0.003 A 
ATOM      3  C   UNL     1      13.868  18.638  15.668  1.00  0.00     0.119 A 
ATOM      4  C   UNL     1      13.405  19.270  14.511  1.00  0.00     0.046 A 
ATOM      5  C   UNL     1      12.821  20.529  14.576  1.00  0.00     0.004 A 
ATOM      6  C   UNL     1      12.666  21.163  15.803  1.00  0.00     0.004 A 
ENDROOT
BRANCH   1   7
ATOM      7  C   UNL     1      12.804  21.284  18.290  1.00  0.00     0.036 C 
BRANCH   7   8
ATOM      8  C   UNL     1      11.286  21.483  18.442  1.00  0.00     0.004 C 
BRANCH   8   9
ATOM      9  C   UNL     1      10.534  20.159  18.652  1.00  0.00    -0.003 C 
ATOM     10  C   UNL     1       9.562  19.847  17.514  1.00  0.00     0.004 C 
ENDBRANCH   8   9
ENDBRANCH   7   8
ENDBRANCH   1   7
BRANCH   2  11
ATOM     11  C   UNL     1      14.424  18.670  18.151  1.00  0.00     0.040 C 
BRANCH  11  12
ATOM     12  C   UNL     1      15.950  18.843  18.141  1.00  0.00     0.005 C 
BRANCH  12  13
ATOM     13  C   UNL     1      16.563  18.748  19.546  1.00  0.00    -0.003 C 
ATOM     14  C   UNL     1      18.004  19.259  19.596  1.00  0.00     0.004 C 
ENDBRANCH  12  13
ENDBRANCH  11  12
ENDBRANCH   2  11
BRANCH   3  15
ATOM     15  O   UNL     1      14.386  17.348  15.527  1.00  0.00    -0.508 OA
ATOM     16  H   UNL     1      15.179  17.118  14.944  1.00  0.00     0.293 HD
ENDBRANCH   3  15
TORSDOF 7
ENDMDL
MODEL 2
REMARK VINA RESULT:    -5.961      1.553      4.912
REMARK INTER + INTRA:          -9.110
REMARK INTER:                  -8.506
REMARK INTRA:                  -0.604
REMARK UNBOUND:                -0.884
REMARK SMILES CCCCc1cccc(O)c1CCCC
REMARK SMILES IDX 5 1 11 2 9 3 8 4 7 5 6 6 4 7 3 8 2 9 1 10 12 11 13 12 14 13
REMARK SMILES IDX 15 14 10 15
REMARK H PARENT 10 16
REMARK Flexibility Score: inf
ROOT
ATOM      1  C   UNL     1      13.997  19.088  17.505  1.00  0.00    -0.041 A 
ATOM      2  C   UNL     1      13.300  20.256  17.068  1.00  0.00    -0.003 A 
ATOM      3  C   UNL     1      13.200  20.508  15.671  1.00  0.00     0.119 A 
ATOM      4  C   UNL     1      13.672  19.566  14.754  1.00  0.00     0.046 A 
ATOM      5  C   UNL     1      14.286  18.398  15.189  1.00  0.00     0.004 A 
ATOM      6  C   UNL     1      14.462  18.168  16.548  1.00  0.00     0.004 A 
ENDROOT
BRANCH   1   7
ATOM      7  C   UNL     1      14.338  18.802  18.957  1.00  0.00     0.036 C 
BRANCH   7   8
ATOM      8  C   UNL     1      15.773  18.262  19.081  1.00  0.00     0.004 C 
BRANCH   8   9
ATOM      9  C   UNL     1      16.834  19.313  18.717  1.00  0.00    -0.003 C 
ATOM     10  C   UNL     1      18.018  19.316  19.684  1.00  0.00     0.004 C 
ENDBRANCH   8   9
ENDBRANCH   7   8
ENDBRANCH   1   7
BRANCH   2  11
ATOM     11  C   UNL     1      12.656  21.216  18.054  1.00  0.00     0.040 C 
BRANCH  11  12
ATOM     12  C   UNL     1      11.264  20.726  18.481  1.00  0.00     0.005 C 
BRANCH  12  13
ATOM     13  C   UNL     1      10.846  21.266  19.857  1.00  0.00    -0.003 C 
ATOM     14  C   UNL     1       9.365  21.645  19.915  1.00  0.00     0.004 C 
ENDBRANCH  12  13
ENDBRANCH  11  12
ENDBRANCH   2  11
BRANCH   3  15
ATOM     15  O   UNL     1      12.651  21.684  15.153  1.00  0.00    -0.508 OA
ATOM     16  H   UNL     1      11.930  22.223  15.613  1.00  0.00     0.293 HD
ENDBRANCH   3  15
TORSDOF 7
ENDMDL
MODEL 3
REMARK VINA RESULT:    -5.747     15.075     17.529
REMARK INTER + INTRA:          -8.815
REMARK INTER:                  -7.822
REMARK INTRA:                  -0.993
REMARK UNBOUND:                -0.884
REMARK SMILES CCCCc1cccc(O)c1CCCC
REMARK SMILES IDX 5 1 11 2 9 3 8 4 7 5 6 6 4 7 3 8 2 9 1 10 12 11 13 12 14 13
REMARK SMILES IDX 15 14 10 15
REMARK H PARENT 10 16
REMARK Flexibility Score: inf
ROOT
ATOM      1  C   UNL     1      21.819  13.427   2.519  1.00  0.00    -0.041 A 
ATOM      2  C   UNL     1      22.520  14.575   3.004  1.00  0.00    -0.003 A 
ATOM      3  C   UNL     1      23.852  14.410   3.475  1.00  0.00     0.119 A 
ATOM      4  C   UNL     1      24.492  13.175   3.352  1.00  0.00     0.046 A 
ATOM      5  C   UNL     1      23.825  12.081   2.814  1.00  0.00     0.004 A 
ATOM      6  C   UNL     1      22.498  12.200   2.417  1.00  0.00     0.004 A 
ENDROOT
BRANCH   1   7
ATOM      7  C   UNL     1      20.342  13.427   2.167  1.00  0.00     0.036 C 
BRANCH   7   8
ATOM      8  C   UNL     1      19.585  12.381   3.002  1.00  0.00     0.004 C 
BRANCH   8   9
ATOM      9  C   UNL     1      18.060  12.496   2.854  1.00  0.00    -0.003 C 
ATOM     10  C   UNL     1      17.466  11.388   1.983  1.00  0.00     0.004 C 
ENDBRANCH   8   9
ENDBRANCH   7   8
ENDBRANCH   1   7
BRANCH   2  11
ATOM     11  C   UNL     1      21.885  15.955   3.009  1.00  0.00     0.040 C 
BRANCH  11  12
ATOM     12  C   UNL     1      21.230  16.262   4.364  1.00  0.00     0.005 C 
BRANCH  12  13
ATOM     13  C   UNL     1      19.724  16.538   4.243  1.00  0.00    -0.003 C 
ATOM     14  C   UNL     1      18.873  15.471   4.932  1.00  0.00     0.004 C 
ENDBRANCH  12  13
ENDBRANCH  11  12
ENDBRANCH   2  11
BRANCH   3  15
ATOM     15  O   UNL     1      24.572  15.444   4.083  1.00  0.00    -0.508 OA
ATOM     16  H   UNL     1      24.647  15.568   5.083  1.00  0.00     0.293 HD
ENDBRANCH   3  15
TORSDOF 7
ENDMDL
MODEL 4
REMARK VINA RESULT:    -5.736      2.307      5.220
REMARK INTER + INTRA:          -8.800
REMARK INTER:                  -8.336
REMARK INTRA:                  -0.464
REMARK UNBOUND:                -0.884
REMARK SMILES CCCCc1cccc(O)c1CCCC
REMARK SMILES IDX 5 1 11 2 9 3 8 4 7 5 6 6 4 7 3 8 2 9 1 10 12 11 13 12 14 13
REMARK SMILES IDX 15 14 10 15
REMARK H PARENT 10 16
REMARK Flexibility Score: inf
ROOT
ATOM      1  C   UNL     1      11.632  20.416  18.795  1.00  0.00    -0.041 A 
ATOM      2  C   UNL     1      10.557  20.324  17.857  1.00  0.00    -0.003 A 
ATOM      3  C   UNL     1       9.251  20.699  18.277  1.00  0.00     0.119 A 
ATOM      4  C   UNL     1       9.054  21.255  19.543  1.00  0.00     0.046 A 
ATOM      5  C   UNL     1      10.119  21.406  20.425  1.00  0.00     0.004 A 
ATOM      6  C   UNL     1      11.390  20.977  20.062  1.00  0.00     0.004 A 
ENDROOT
BRANCH   1   7
ATOM      7  C   UNL     1      13.026  19.874  18.538  1.00  0.00     0.036 C 
BRANCH   7   8
ATOM      8  C   UNL     1      13.225  18.526  19.251  1.00  0.00     0.004 C 
BRANCH   8   9
ATOM      9  C   UNL     1      14.705  18.134  19.374  1.00  0.00    -0.003 C 
ATOM     10  C   UNL     1      15.599  18.888  18.389  1.00  0.00     0.004 C 
ENDBRANCH   8   9
ENDBRANCH   7   8
ENDBRANCH   1   7
BRANCH   2  11
ATOM     11  C   UNL     1      10.783  19.856  16.430  1.00  0.00     0.040 C 
BRANCH  11  12
ATOM     12  C   UNL     1      11.988  20.565  15.794  1.00  0.00     0.005 C 
BRANCH  12  13
ATOM     13  C   UNL     1      12.621  19.748  14.657  1.00  0.00    -0.003 C 
ATOM     14  C   UNL     1      13.848  18.958  15.112  1.00  0.00     0.004 C 
ENDBRANCH  12  13
ENDBRANCH  11  12
ENDBRANCH   2  11
BRANCH   3  15
ATOM     15  O   UNL     1       8.119  20.524  17.475  1.00  0.00    -0.508 OA
ATOM     16  H   UNL     1       7.773  19.624  17.174  1.00  0.00     0.293 HD
ENDBRANCH   3  15
TORSDOF 7
ENDMDL
MODEL 5
REMARK VINA RESULT:    -5.592      8.885     10.937
REMARK INTER + INTRA:          -8.602
REMARK INTER:                  -7.579
REMARK INTRA:                  -1.023
REMARK UNBOUND:                -0.884
REMARK SMILES CCCCc1cccc(O)c1CCCC
REMARK SMILES IDX 5 1 11 2 9 3 8 4 7 5 6 6 4 7 3 8 2 9 1 10 12 11 13 12 14 13
REMARK SMILES IDX 15 14 10 15
REMARK H PARENT 10 16
REMARK Flexibility Score: inf
ROOT
ATOM      1  C   UNL     1       6.827  22.610   9.039  1.00  0.00    -0.041 A 
ATOM      2  C   UNL     1       8.115  22.024   9.235  1.00  0.00    -0.003 A 
ATOM      3  C   UNL     1       8.432  21.485  10.513  1.00  0.00     0.119 A 
ATOM      4  C   UNL     1       7.457  21.428  11.511  1.00  0.00     0.046 A 
ATOM      5  C   UNL     1       6.183  21.938  11.288  1.00  0.00     0.004 A 
ATOM      6  C   UNL     1       5.875  22.536  10.072  1.00  0.00     0.004 A 
ENDROOT
BRANCH   1   7
ATOM      7  C   UNL     1       6.431  23.383   7.793  1.00  0.00     0.036 C 
BRANCH   7   8
ATOM      8  C   UNL     1       6.371  24.891   8.087  1.00  0.00     0.004 C 
BRANCH   8   9
ATOM      9  C   UNL     1       7.579  25.653   7.519  1.00  0.00    -0.003 C 
ATOM     10  C   UNL     1       8.045  25.100   6.172  1.00  0.00     0.004 C 
ENDBRANCH   8   9
ENDBRANCH   7   8
ENDBRANCH   1   7
BRANCH   2  11
ATOM     11  C   UNL     1       9.137  21.950   8.113  1.00  0.00     0.040 C 
BRANCH  11  12
ATOM     12  C   UNL     1      10.148  23.102   8.201  1.00  0.00     0.005 C 
BRANCH  12  13
ATOM     13  C   UNL     1      11.547  22.698   7.711  1.00  0.00    -0.003 C 
ATOM     14  C   UNL     1      11.686  21.189   7.507  1.00  0.00     0.004 C 
ENDBRANCH  12  13
ENDBRANCH  11  12
ENDBRANCH   2  11
BRANCH   3  15
ATOM     15  O   UNL     1       9.706  21.008  10.837  1.00  0.00    -0.508 OA
ATOM     16  H   UNL     1      10.522  21.596  10.933  1.00  0.00     0.293 HD
ENDBRANCH   3  15
TORSDOF 7
ENDMDL
MODEL 6
REMARK VINA RESULT:    -5.486     14.896     17.444
REMARK INTER + INTRA:          -8.455
REMARK INTER:                  -7.418
REMARK INTRA:                  -1.037
REMARK UNBOUND:                -0.884
REMARK SMILES CCCCc1cccc(O)c1CCCC
REMARK SMILES IDX 5 1 11 2 9 3 8 4 7 5 6 6 4 7 3 8 2 9 1 10 12 11 13 12 14 13
REMARK SMILES IDX 15 14 10 15
REMARK H PARENT 10 16
REMARK Flexibility Score: inf
ROOT
ATOM      1  C   UNL     1      20.415  14.237   3.049  1.00  0.00    -0.041 A 
ATOM      2  C   UNL     1      20.897  15.574   2.892  1.00  0.00    -0.003 A 
ATOM      3  C   UNL     1      20.301  16.608   3.665  1.00  0.00     0.119 A 
ATOM      4  C   UNL     1      19.349  16.297   4.639  1.00  0.00     0.046 A 
ATOM      5  C   UNL     1      18.937  14.983   4.833  1.00  0.00     0.004 A 
ATOM      6  C   UNL     1      19.452  13.967   4.037  1.00  0.00     0.004 A 
ENDROOT
BRANCH   1   7
ATOM      7  C   UNL     1      20.829  13.080   2.157  1.00  0.00     0.036 C 
BRANCH   7   8
ATOM      8  C   UNL     1      21.771  12.125   2.909  1.00  0.00     0.004 C 
BRANCH   8   9
ATOM      9  C   UNL     1      23.184  12.091   2.307  1.00  0.00    -0.003 C 
ATOM     10  C   UNL     1      24.273  12.385   3.340  1.00  0.00     0.004 C 
ENDBRANCH   8   9
ENDBRANCH   7   8
ENDBRANCH   1   7
BRANCH   2  11
ATOM     11  C   UNL     1      22.033  15.905   1.940  1.00  0.00     0.040 C 
BRANCH  11  12
ATOM     12  C   UNL     1      23.377  15.986   2.680  1.00  0.00     0.005 C 
BRANCH  12  13
ATOM     13  C   UNL     1      24.251  17.149   2.189  1.00  0.00    -0.003 C 
ATOM     14  C   UNL     1      24.130  18.391   3.073  1.00  0.00     0.004 C 
ENDBRANCH  12  13
ENDBRANCH  11  12
ENDBRANCH   2  11
BRANCH   3  15
ATOM     15  O   UNL     1      20.616  17.959   3.491  1.00  0.00    -0.508 OA
ATOM     16  H   UNL     1      20.057  18.605   2.950  1.00  0.00     0.293 HD
ENDBRANCH   3  15
TORSDOF 7
ENDMDL
MODEL 7
REMARK VINA RESULT:    -5.327     15.359     17.876
REMARK INTER + INTRA:          -8.236
REMARK INTER:                  -7.258
REMARK INTRA:                  -0.978
REMARK UNBOUND:                -0.884
REMARK SMILES CCCCc1cccc(O)c1CCCC
REMARK SMILES IDX 5 1 11 2 9 3 8 4 7 5 6 6 4 7 3 8 2 9 1 10 12 11 13 12 14 13
REMARK SMILES IDX 15 14 10 15
REMARK H PARENT 10 16
REMARK Flexibility Score: inf
ROOT
ATOM      1  C   UNL     1      23.532  14.519   3.354  1.00  0.00    -0.041 A 
ATOM      2  C   UNL     1      22.168  14.485   2.926  1.00  0.00    -0.003 A 
ATOM      3  C   UNL     1      21.632  13.255   2.453  1.00  0.00     0.119 A 
ATOM      4  C   UNL     1      22.393  12.086   2.522  1.00  0.00     0.046 A 
ATOM      5  C   UNL     1      23.696  12.115   3.006  1.00  0.00     0.004 A 
ATOM      6  C   UNL     1      24.265  13.319   3.403  1.00  0.00     0.004 A 
ENDROOT
BRANCH   1   7
ATOM      7  C   UNL     1      24.277  15.795   3.700  1.00  0.00     0.036 C 
BRANCH   7   8
ATOM      8  C   UNL     1      25.031  16.333   2.472  1.00  0.00     0.004 C 
BRANCH   8   9
ATOM      9  C   UNL     1      24.977  17.865   2.367  1.00  0.00    -0.003 C 
ATOM     10  C   UNL     1      23.824  18.470   3.169  1.00  0.00     0.004 C 
ENDBRANCH   8   9
ENDBRANCH   7   8
ENDBRANCH   1   7
BRANCH   2  11
ATOM     11  C   UNL     1      21.285  15.720   2.981  1.00  0.00     0.040 C 
BRANCH  11  12
ATOM     12  C   UNL     1      20.855  16.034   4.422  1.00  0.00     0.005 C 
BRANCH  12  13
ATOM     13  C   UNL     1      19.346  15.848   4.640  1.00  0.00    -0.003 C 
ATOM     14  C   UNL     1      18.961  14.386   4.873  1.00  0.00     0.004 C 
ENDBRANCH  12  13
ENDBRANCH  11  12
ENDBRANCH   2  11
BRANCH   3  15
ATOM     15  O   UNL     1      20.354  13.152   1.896  1.00  0.00    -0.508 OA
ATOM     16  H   UNL     1      19.592  12.642   2.320  1.00  0.00     0.293 HD
ENDBRANCH   3  15
TORSDOF 7
ENDMDL
MODEL 8
REMARK VINA RESULT:    -5.290     14.946     17.363
REMARK INTER + INTRA:          -8.185
REMARK INTER:                  -6.929
REMARK INTRA:                  -1.256
REMARK UNBOUND:                -0.884
REMARK SMILES CCCCc1cccc(O)c1CCCC
REMARK SMILES IDX 5 1 11 2 9 3 8 4 7 5 6 6 4 7 3 8 2 9 1 10 12 11 13 12 14 13
REMARK SMILES IDX 15 14 10 15
REMARK H PARENT 10 16
REMARK Flexibility Score: inf
ROOT
ATOM      1  C   UNL     1      21.029  15.424   3.489  1.00  0.00    -0.041 A 
ATOM      2  C   UNL     1      20.580  14.126   3.094  1.00  0.00    -0.003 A 
ATOM      3  C   UNL     1      19.394  13.606   3.683  1.00  0.00     0.119 A 
ATOM      4  C   UNL     1      18.629  14.402   4.538  1.00  0.00     0.046 A 
ATOM      5  C   UNL     1      19.037  15.691   4.862  1.00  0.00     0.004 A 
ATOM      6  C   UNL     1      20.231  16.191   4.357  1.00  0.00     0.004 A 
ENDROOT
BRANCH   1   7
ATOM      7  C   UNL     1      22.369  16.013   3.084  1.00  0.00     0.036 C 
BRANCH   7   8
ATOM      8  C   UNL     1      23.440  15.704   4.143  1.00  0.00     0.004 C 
BRANCH   8   9
ATOM      9  C   UNL     1      24.870  15.860   3.602  1.00  0.00    -0.003 C 
ATOM     10  C   UNL     1      24.926  15.848   2.074  1.00  0.00     0.004 C 
ENDBRANCH   8   9
ENDBRANCH   7   8
ENDBRANCH   1   7
BRANCH   2  11
ATOM     11  C   UNL     1      21.327  13.306   2.055  1.00  0.00     0.040 C 
BRANCH  11  12
ATOM     12  C   UNL     1      22.206  12.234   2.717  1.00  0.00     0.005 C 
BRANCH  12  13
ATOM     13  C   UNL     1      23.686  12.361   2.324  1.00  0.00    -0.003 C 
ATOM     14  C   UNL     1      24.630  12.115   3.502  1.00  0.00     0.004 C 
ENDBRANCH  12  13
ENDBRANCH  11  12
ENDBRANCH   2  11
BRANCH   3  15
ATOM     15  O   UNL     1      18.947  12.301   3.456  1.00  0.00    -0.508 OA
ATOM     16  H   UNL     1      18.010  11.981   3.659  1.00  0.00     0.293 HD
ENDBRANCH   3  15
TORSDOF 7
ENDMDL
MODEL 9
REMARK VINA RESULT:    -5.282     15.198     17.188
REMARK INTER + INTRA:          -8.174
REMARK INTER:                  -6.934
REMARK INTRA:                  -1.240
REMARK UNBOUND:                -0.884
REMARK SMILES CCCCc1cccc(O)c1CCCC
REMARK SMILES IDX 5 1 11 2 9 3 8 4 7 5 6 6 4 7 3 8 2 9 1 10 12 11 13 12 14 13
REMARK SMILES IDX 15 14 10 15
REMARK H PARENT 10 16
REMARK Flexibility Score: inf
ROOT
ATOM      1  C   UNL     1      21.305  14.317   2.733  1.00  0.00    -0.041 A 
ATOM      2  C   UNL     1      20.557  15.056   3.701  1.00  0.00    -0.003 A 
ATOM      3  C   UNL     1      19.368  14.481   4.228  1.00  0.00     0.119 A 
ATOM      4  C   UNL     1      19.012  13.174   3.890  1.00  0.00     0.046 A 
ATOM      5  C   UNL     1      19.784  12.436   3.000  1.00  0.00     0.004 A 
ATOM      6  C   UNL     1      20.909  13.005   2.416  1.00  0.00     0.004 A 
ENDROOT
BRANCH   1   7
ATOM      7  C   UNL     1      22.479  14.888   1.957  1.00  0.00     0.036 C 
BRANCH   7   8
ATOM      8  C   UNL     1      23.643  13.883   1.916  1.00  0.00     0.004 C 
BRANCH   8   9
ATOM      9  C   UNL     1      24.268  13.645   3.299  1.00  0.00    -0.003 C 
ATOM     10  C   UNL     1      24.628  12.179   3.540  1.00  0.00     0.004 C 
ENDBRANCH   8   9
ENDBRANCH   7   8
ENDBRANCH   1   7
BRANCH   2  11
ATOM     11  C   UNL     1      21.013  16.422   4.186  1.00  0.00     0.040 C 
BRANCH  11  12
ATOM     12  C   UNL     1      22.104  16.298   5.259  1.00  0.00     0.005 C 
BRANCH  12  13
ATOM     13  C   UNL     1      23.423  16.964   4.839  1.00  0.00    -0.003 C 
ATOM     14  C   UNL     1      23.219  18.074   3.807  1.00  0.00     0.004 C 
ENDBRANCH  12  13
ENDBRANCH  11  12
ENDBRANCH   2  11
BRANCH   3  15
ATOM     15  O   UNL     1      18.506  15.177   5.080  1.00  0.00    -0.508 OA
ATOM     16  H   UNL     1      18.731  15.424   6.034  1.00  0.00     0.293 HD
ENDBRANCH   3  15
TORSDOF 7
ENDMDL
