MODEL 1
REMARK VINA RESULT:    -4.532      0.000      0.000
REMARK INTER + INTRA:         -10.135
REMARK INTER:                  -8.242
REMARK INTRA:                  -1.893
REMARK UNBOUND:                -1.893
REMARK SMILES CCCCCCCCCCCCCC[C@@H](C)C(=O)[O-]
REMARK SMILES IDX 9 1 10 2 11 3 12 4 13 5 14 6 15 7 16 8 17 9 18 10 19 11 8 12
REMARK SMILES IDX 7 13 6 14 5 15 4 16 3 17 2 18 1 19
REMARK H PARENT
REMARK Flexibility Score: inf
ROOT
ATOM      1  C   UNL     1      -7.346  25.679  23.039  1.00  0.00     0.000 C 
ENDROOT
BRANCH   1   2
ATOM      2  C   UNL     1      -7.849  25.696  24.491  1.00  0.00     0.000 C 
BRANCH   2   3
ATOM      3  C   UNL     1      -8.246  27.109  24.958  1.00  0.00     0.000 C 
BRANCH   3   4
ATOM      4  C   UNL     1      -9.204  27.083  26.160  1.00  0.00     0.000 C 
BRANCH   4   5
ATOM      5  C   UNL     1     -10.514  27.844  25.891  1.00  0.00     0.001 C 
BRANCH   5   6
ATOM      6  C   UNL     1     -10.926  27.811  24.408  1.00  0.00     0.009 C 
BRANCH   6   7
ATOM      7  C   UNL     1     -11.101  29.208  23.769  1.00  0.00     0.032 C 
ATOM      8  C   UNL     1     -10.854  30.306  24.810  1.00  0.00     0.014 C 
BRANCH   7   9
ATOM      9  C   UNL     1     -10.172  29.401  22.601  1.00  0.00     0.044 C 
ATOM     10  O   UNL     1      -8.969  29.714  22.795  1.00  0.00    -0.550 OA
ATOM     11  O   UNL     1     -10.634  29.230  21.301  1.00  0.00    -0.550 OA
ENDBRANCH   7   9
ENDBRANCH   6   7
ENDBRANCH   5   6
ENDBRANCH   4   5
ENDBRANCH   3   4
ENDBRANCH   2   3
ENDBRANCH   1   2
BRANCH   1  12
ATOM     12  C   UNL     1      -8.310  26.386  22.069  1.00  0.00     0.000 C 
BRANCH  12  13
ATOM     13  C   UNL     1      -8.530  25.584  20.770  1.00  0.00    -0.000 C 
BRANCH  13  14
ATOM     14  C   UNL     1      -9.918  25.797  20.135  1.00  0.00    -0.000 C 
BRANCH  14  15
ATOM     15  C   UNL     1     -10.953  24.699  20.445  1.00  0.00    -0.000 C 
BRANCH  15  16
ATOM     16  C   UNL     1     -10.731  23.369  19.700  1.00  0.00    -0.000 C 
BRANCH  16  17
ATOM     17  C   UNL     1     -10.597  22.168  20.648  1.00  0.00    -0.000 C 
BRANCH  17  18
ATOM     18  C   UNL     1     -10.240  22.628  22.066  1.00  0.00    -0.003 C 
ATOM     19  C   UNL     1      -8.806  22.248  22.424  1.00  0.00     0.004 C 
ENDBRANCH  17  18
ENDBRANCH  16  17
ENDBRANCH  15  16
ENDBRANCH  14  15
ENDBRANCH  13  14
ENDBRANCH  12  13
ENDBRANCH   1  12
TORSDOF 14
ENDMDL
MODEL 2
REMARK VINA RESULT:    -4.494      2.590      6.194
REMARK INTER + INTRA:         -10.065
REMARK INTER:                  -7.645
REMARK INTRA:                  -2.419
REMARK UNBOUND:                -1.893
REMARK SMILES CCCCCCCCCCCCCC[C@@H](C)C(=O)[O-]
REMARK SMILES IDX 9 1 10 2 11 3 12 4 13 5 14 6 15 7 16 8 17 9 18 10 19 11 8 12
REMARK SMILES IDX 7 13 6 14 5 15 4 16 3 17 2 18 1 19
REMARK H PARENT
REMARK Flexibility Score: inf
ROOT
ATOM      1  C   UNL     1      -7.762  26.237  23.842  1.00  0.00     0.000 C 
ENDROOT
BRANCH   1   2
ATOM      2  C   UNL     1      -7.026  25.652  22.627  1.00  0.00     0.000 C 
BRANCH   2   3
ATOM      3  C   UNL     1      -7.994  25.117  21.556  1.00  0.00     0.000 C 
BRANCH   3   4
ATOM      4  C   UNL     1      -8.621  26.242  20.717  1.00  0.00     0.000 C 
BRANCH   4   5
ATOM      5  C   UNL     1      -9.861  25.775  19.933  1.00  0.00     0.001 C 
BRANCH   5   6
ATOM      6  C   UNL     1     -10.819  24.924  20.786  1.00  0.00     0.009 C 
BRANCH   6   7
ATOM      7  C   UNL     1     -11.115  23.525  20.199  1.00  0.00     0.032 C 
ATOM      8  C   UNL     1     -10.348  23.323  18.888  1.00  0.00     0.014 C 
BRANCH   7   9
ATOM      9  C   UNL     1     -10.756  22.432  21.169  1.00  0.00     0.044 C 
ATOM     10  O   UNL     1     -10.829  22.638  22.408  1.00  0.00    -0.550 OA
ATOM     11  O   UNL     1     -10.347  21.187  20.704  1.00  0.00    -0.550 OA
ENDBRANCH   7   9
ENDBRANCH   6   7
ENDBRANCH   5   6
ENDBRANCH   4   5
ENDBRANCH   3   4
ENDBRANCH   2   3
ENDBRANCH   1   2
BRANCH   1  12
ATOM     12  C   UNL     1      -8.841  25.288  24.395  1.00  0.00     0.000 C 
BRANCH  12  13
ATOM     13  C   UNL     1     -10.259  25.887  24.292  1.00  0.00    -0.000 C 
BRANCH  13  14
ATOM     14  C   UNL     1     -10.819  26.395  25.635  1.00  0.00    -0.000 C 
BRANCH  14  15
ATOM     15  C   UNL     1     -10.420  27.836  26.005  1.00  0.00    -0.000 C 
BRANCH  15  16
ATOM     16  C   UNL     1     -10.716  28.890  24.921  1.00  0.00    -0.000 C 
BRANCH  16  17
ATOM     17  C   UNL     1      -9.444  29.543  24.360  1.00  0.00    -0.000 C 
BRANCH  17  18
ATOM     18  C   UNL     1      -9.337  29.320  22.847  1.00  0.00    -0.003 C 
ATOM     19  C   UNL     1     -10.692  28.952  22.247  1.00  0.00     0.004 C 
ENDBRANCH  17  18
ENDBRANCH  16  17
ENDBRANCH  15  16
ENDBRANCH  14  15
ENDBRANCH  13  14
ENDBRANCH  12  13
ENDBRANCH   1  12
TORSDOF 14
ENDMDL
MODEL 3
REMARK VINA RESULT:    -4.353      1.091      2.310
REMARK INTER + INTRA:          -9.808
REMARK INTER:                  -8.097
REMARK INTRA:                  -1.711
REMARK UNBOUND:                -1.893
REMARK SMILES CCCCCCCCCCCCCC[C@@H](C)C(=O)[O-]
REMARK SMILES IDX 9 1 10 2 11 3 12 4 13 5 14 6 15 7 16 8 17 9 18 10 19 11 8 12
REMARK SMILES IDX 7 13 6 14 5 15 4 16 3 17 2 18 1 19
REMARK H PARENT
REMARK Flexibility Score: inf
ROOT
ATOM      1  C   UNL     1      -7.548  25.379  21.966  1.00  0.00     0.000 C 
ENDROOT
BRANCH   1   2
ATOM      2  C   UNL     1      -8.394  26.187  22.963  1.00  0.00     0.000 C 
BRANCH   2   3
ATOM      3  C   UNL     1      -7.828  26.129  24.393  1.00  0.00     0.000 C 
BRANCH   3   4
ATOM      4  C   UNL     1      -8.766  26.780  25.423  1.00  0.00     0.000 C 
BRANCH   4   5
ATOM      5  C   UNL     1     -10.147  27.121  24.835  1.00  0.00     0.001 C 
BRANCH   5   6
ATOM      6  C   UNL     1     -10.785  28.357  25.493  1.00  0.00     0.009 C 
BRANCH   6   7
ATOM      7  C   UNL     1     -10.925  29.574  24.550  1.00  0.00     0.032 C 
ATOM      8  C   UNL     1     -11.055  30.867  25.361  1.00  0.00     0.014 C 
BRANCH   7   9
ATOM      9  C   UNL     1      -9.754  29.682  23.611  1.00  0.00     0.044 C 
ATOM     10  O   UNL     1      -8.643  30.100  24.031  1.00  0.00    -0.550 OA
ATOM     11  O   UNL     1      -9.888  29.314  22.276  1.00  0.00    -0.550 OA
ENDBRANCH   7   9
ENDBRANCH   6   7
ENDBRANCH   5   6
ENDBRANCH   4   5
ENDBRANCH   3   4
ENDBRANCH   2   3
ENDBRANCH   1   2
BRANCH   1  12
ATOM     12  C   UNL     1      -7.841  23.869  22.026  1.00  0.00     0.000 C 
BRANCH  12  13
ATOM     13  C   UNL     1      -9.345  23.568  22.195  1.00  0.00    -0.000 C 
BRANCH  13  14
ATOM     14  C   UNL     1      -9.753  22.157  21.731  1.00  0.00    -0.000 C 
BRANCH  14  15
ATOM     15  C   UNL     1     -10.888  22.113  20.691  1.00  0.00    -0.000 C 
BRANCH  15  16
ATOM     16  C   UNL     1     -11.123  23.432  19.931  1.00  0.00    -0.000 C 
BRANCH  16  17
ATOM     17  C   UNL     1     -10.374  23.493  18.592  1.00  0.00    -0.000 C 
BRANCH  17  18
ATOM     18  C   UNL     1      -9.700  24.856  18.404  1.00  0.00    -0.003 C 
ATOM     19  C   UNL     1     -10.277  25.894  19.363  1.00  0.00     0.004 C 
ENDBRANCH  17  18
ENDBRANCH  16  17
ENDBRANCH  15  16
ENDBRANCH  14  15
ENDBRANCH  13  14
ENDBRANCH  12  13
ENDBRANCH   1  12
TORSDOF 14
ENDMDL
MODEL 4
REMARK VINA RESULT:    -4.204      1.995      5.873
REMARK INTER + INTRA:          -9.539
REMARK INTER:                  -7.445
REMARK INTRA:                  -2.094
REMARK UNBOUND:                -1.893
REMARK SMILES CCCCCCCCCCCCCC[C@@H](C)C(=O)[O-]
REMARK SMILES IDX 9 1 10 2 11 3 12 4 13 5 14 6 15 7 16 8 17 9 18 10 19 11 8 12
REMARK SMILES IDX 7 13 6 14 5 15 4 16 3 17 2 18 1 19
REMARK H PARENT
REMARK Flexibility Score: inf
ROOT
ATOM      1  C   UNL     1      -6.984  26.000  22.968  1.00  0.00     0.000 C 
ENDROOT
BRANCH   1   2
ATOM      2  C   UNL     1      -8.101  25.359  22.129  1.00  0.00     0.000 C 
BRANCH   2   3
ATOM      3  C   UNL     1      -7.833  23.873  21.833  1.00  0.00     0.000 C 
BRANCH   3   4
ATOM      4  C   UNL     1      -9.081  22.998  22.037  1.00  0.00     0.000 C 
BRANCH   4   5
ATOM      5  C   UNL     1     -10.377  23.825  22.117  1.00  0.00     0.001 C 
BRANCH   5   6
ATOM      6  C   UNL     1     -11.124  23.892  20.773  1.00  0.00     0.009 C 
BRANCH   6   7
ATOM      7  C   UNL     1     -10.242  23.576  19.544  1.00  0.00     0.032 C 
ATOM      8  C   UNL     1     -10.765  22.334  18.815  1.00  0.00     0.014 C 
BRANCH   7   9
ATOM      9  C   UNL     1     -10.188  24.738  18.589  1.00  0.00     0.044 C 
ATOM     10  O   UNL     1     -10.744  24.656  17.463  1.00  0.00    -0.550 OA
ATOM     11  O   UNL     1      -9.532  25.911  18.946  1.00  0.00    -0.550 OA
ENDBRANCH   7   9
ENDBRANCH   6   7
ENDBRANCH   5   6
ENDBRANCH   4   5
ENDBRANCH   3   4
ENDBRANCH   2   3
ENDBRANCH   1   2
BRANCH   1  12
ATOM     12  C   UNL     1      -7.462  26.417  24.371  1.00  0.00     0.000 C 
BRANCH  12  13
ATOM     13  C   UNL     1      -8.420  25.382  24.998  1.00  0.00    -0.000 C 
BRANCH  13  14
ATOM     14  C   UNL     1      -9.853  25.908  25.205  1.00  0.00    -0.000 C 
BRANCH  14  15
ATOM     15  C   UNL     1      -9.955  27.244  25.965  1.00  0.00    -0.000 C 
BRANCH  15  16
ATOM     16  C   UNL     1     -10.456  28.433  25.124  1.00  0.00    -0.000 C 
BRANCH  16  17
ATOM     17  C   UNL     1     -11.054  28.003  23.777  1.00  0.00    -0.000 C 
BRANCH  17  18
ATOM     18  C   UNL     1     -10.163  28.453  22.614  1.00  0.00    -0.003 C 
ATOM     19  C   UNL     1      -9.116  29.461  23.080  1.00  0.00     0.004 C 
ENDBRANCH  17  18
ENDBRANCH  16  17
ENDBRANCH  15  16
ENDBRANCH  14  15
ENDBRANCH  13  14
ENDBRANCH  12  13
ENDBRANCH   1  12
TORSDOF 14
ENDMDL
MODEL 5
REMARK VINA RESULT:    -4.076      2.095      3.725
REMARK INTER + INTRA:          -9.306
REMARK INTER:                  -7.263
REMARK INTRA:                  -2.043
REMARK UNBOUND:                -1.893
REMARK SMILES CCCCCCCCCCCCCC[C@@H](C)C(=O)[O-]
REMARK SMILES IDX 9 1 10 2 11 3 12 4 13 5 14 6 15 7 16 8 17 9 18 10 19 11 8 12
REMARK SMILES IDX 7 13 6 14 5 15 4 16 3 17 2 18 1 19
REMARK H PARENT
REMARK Flexibility Score: inf
ROOT
ATOM      1  C   UNL     1      -8.924  25.088  19.609  1.00  0.00     0.000 C 
ENDROOT
BRANCH   1   2
ATOM      2  C   UNL     1      -9.149  26.601  19.756  1.00  0.00     0.000 C 
BRANCH   2   3
ATOM      3  C   UNL     1     -10.562  26.938  20.264  1.00  0.00     0.000 C 
BRANCH   3   4
ATOM      4  C   UNL     1     -10.568  27.379  21.737  1.00  0.00     0.000 C 
BRANCH   4   5
ATOM      5  C   UNL     1      -9.182  27.838  22.223  1.00  0.00     0.001 C 
BRANCH   5   6
ATOM      6  C   UNL     1      -8.682  27.037  23.439  1.00  0.00     0.009 C 
BRANCH   6   7
ATOM      7  C   UNL     1      -8.754  27.808  24.777  1.00  0.00     0.032 C 
ATOM      8  C   UNL     1      -9.003  29.298  24.523  1.00  0.00     0.014 C 
BRANCH   7   9
ATOM      9  C   UNL     1      -9.832  27.261  25.673  1.00  0.00     0.044 C 
ATOM     10  O   UNL     1     -10.466  28.030  26.442  1.00  0.00    -0.550 OA
ATOM     11  O   UNL     1     -10.141  25.905  25.653  1.00  0.00    -0.550 OA
ENDBRANCH   7   9
ENDBRANCH   6   7
ENDBRANCH   5   6
ENDBRANCH   4   5
ENDBRANCH   3   4
ENDBRANCH   2   3
ENDBRANCH   1   2
BRANCH   1  12
ATOM     12  C   UNL     1      -9.773  24.469  18.483  1.00  0.00     0.000 C 
BRANCH  12  13
ATOM     13  C   UNL     1     -10.979  23.675  19.024  1.00  0.00    -0.000 C 
BRANCH  13  14
ATOM     14  C   UNL     1     -10.949  22.177  18.664  1.00  0.00    -0.000 C 
BRANCH  14  15
ATOM     15  C   UNL     1     -10.559  21.236  19.820  1.00  0.00    -0.000 C 
BRANCH  15  16
ATOM     16  C   UNL     1     -10.802  21.804  21.230  1.00  0.00    -0.000 C 
BRANCH  16  17
ATOM     17  C   UNL     1      -9.500  22.143  21.971  1.00  0.00    -0.000 C 
BRANCH  17  18
ATOM     18  C   UNL     1      -9.562  23.552  22.571  1.00  0.00    -0.003 C 
ATOM     19  C   UNL     1     -11.007  24.002  22.771  1.00  0.00     0.004 C 
ENDBRANCH  17  18
ENDBRANCH  16  17
ENDBRANCH  15  16
ENDBRANCH  14  15
ENDBRANCH  13  14
ENDBRANCH  12  13
ENDBRANCH   1  12
TORSDOF 14
ENDMDL
MODEL 6
REMARK VINA RESULT:    -3.432      1.477      2.304
REMARK INTER + INTRA:          -8.134
REMARK INTER:                  -6.932
REMARK INTRA:                  -1.202
REMARK UNBOUND:                -1.893
REMARK SMILES CCCCCCCCCCCCCC[C@@H](C)C(=O)[O-]
REMARK SMILES IDX 9 1 10 2 11 3 12 4 13 5 14 6 15 7 16 8 17 9 18 10 19 11 8 12
REMARK SMILES IDX 7 13 6 14 5 15 4 16 3 17 2 18 1 19
REMARK H PARENT
REMARK Flexibility Score: inf
ROOT
ATOM      1  C   UNL     1      -8.156  25.679  21.005  1.00  0.00     0.000 C 
ENDROOT
BRANCH   1   2
ATOM      2  C   UNL     1      -7.620  25.715  22.445  1.00  0.00     0.000 C 
BRANCH   2   3
ATOM      3  C   UNL     1      -8.492  26.580  23.373  1.00  0.00     0.000 C 
BRANCH   3   4
ATOM      4  C   UNL     1      -7.826  26.833  24.736  1.00  0.00     0.000 C 
BRANCH   4   5
ATOM      5  C   UNL     1      -8.744  26.476  25.919  1.00  0.00     0.001 C 
BRANCH   5   6
ATOM      6  C   UNL     1     -10.224  26.364  25.511  1.00  0.00     0.009 C 
BRANCH   6   7
ATOM      7  C   UNL     1     -11.125  27.479  26.088  1.00  0.00     0.032 C 
ATOM      8  C   UNL     1     -10.816  27.703  27.572  1.00  0.00     0.014 C 
BRANCH   7   9
ATOM      9  C   UNL     1     -10.954  28.771  25.336  1.00  0.00     0.044 C 
ATOM     10  O   UNL     1     -10.868  29.860  25.962  1.00  0.00    -0.550 OA
ATOM     11  O   UNL     1     -10.883  28.772  23.947  1.00  0.00    -0.550 OA
ENDBRANCH   7   9
ENDBRANCH   6   7
ENDBRANCH   5   6
ENDBRANCH   4   5
ENDBRANCH   3   4
ENDBRANCH   2   3
ENDBRANCH   1   2
BRANCH   1  12
ATOM     12  C   UNL     1      -9.386  26.584  20.807  1.00  0.00     0.000 C 
BRANCH  12  13
ATOM     13  C   UNL     1     -10.352  26.038  19.735  1.00  0.00    -0.000 C 
BRANCH  13  14
ATOM     14  C   UNL     1      -9.646  25.307  18.577  1.00  0.00    -0.000 C 
BRANCH  14  15
ATOM     15  C   UNL     1      -9.660  23.769  18.670  1.00  0.00    -0.000 C 
BRANCH  15  16
ATOM     16  C   UNL     1     -10.855  23.176  19.440  1.00  0.00    -0.000 C 
BRANCH  16  17
ATOM     17  C   UNL     1     -10.770  21.650  19.593  1.00  0.00    -0.000 C 
BRANCH  17  18
ATOM     18  C   UNL     1     -10.233  21.268  20.976  1.00  0.00    -0.003 C 
ATOM     19  C   UNL     1     -10.676  22.272  22.037  1.00  0.00     0.004 C 
ENDBRANCH  17  18
ENDBRANCH  16  17
ENDBRANCH  15  16
ENDBRANCH  14  15
ENDBRANCH  13  14
ENDBRANCH  12  13
ENDBRANCH   1  12
TORSDOF 14
ENDMDL
MODEL 7
REMARK VINA RESULT:    -3.334      2.674      5.567
REMARK INTER + INTRA:          -7.956
REMARK INTER:                  -6.059
REMARK INTRA:                  -1.898
REMARK UNBOUND:                -1.893
REMARK SMILES CCCCCCCCCCCCCC[C@@H](C)C(=O)[O-]
REMARK SMILES IDX 9 1 10 2 11 3 12 4 13 5 14 6 15 7 16 8 17 9 18 10 19 11 8 12
REMARK SMILES IDX 7 13 6 14 5 15 4 16 3 17 2 18 1 19
REMARK H PARENT
REMARK Flexibility Score: inf
ROOT
ATOM      1  C   UNL     1      -7.228  26.114  22.304  1.00  0.00     0.000 C 
ENDROOT
BRANCH   1   2
ATOM      2  C   UNL     1      -7.735  24.666  22.207  1.00  0.00     0.000 C 
BRANCH   2   3
ATOM      3  C   UNL     1      -8.875  24.377  23.199  1.00  0.00     0.000 C 
BRANCH   3   4
ATOM      4  C   UNL     1     -10.224  24.152  22.496  1.00  0.00     0.000 C 
BRANCH   4   5
ATOM      5  C   UNL     1     -10.099  24.152  20.962  1.00  0.00     0.001 C 
BRANCH   5   6
ATOM      6  C   UNL     1     -11.125  25.077  20.281  1.00  0.00     0.009 C 
BRANCH   6   7
ATOM      7  C   UNL     1     -10.599  25.773  19.005  1.00  0.00     0.032 C 
ATOM      8  C   UNL     1      -9.195  26.338  19.244  1.00  0.00     0.014 C 
BRANCH   7   9
ATOM      9  C   UNL     1     -10.572  24.829  17.833  1.00  0.00     0.044 C 
ATOM     10  O   UNL     1     -10.213  25.240  16.699  1.00  0.00    -0.550 OA
ATOM     11  O   UNL     1     -10.936  23.497  17.996  1.00  0.00    -0.550 OA
ENDBRANCH   7   9
ENDBRANCH   6   7
ENDBRANCH   5   6
ENDBRANCH   4   5
ENDBRANCH   3   4
ENDBRANCH   2   3
ENDBRANCH   1   2
BRANCH   1  12
ATOM     12  C   UNL     1      -8.123  26.997  23.192  1.00  0.00     0.000 C 
BRANCH  12  13
ATOM     13  C   UNL     1      -9.120  27.841  22.369  1.00  0.00    -0.000 C 
BRANCH  13  14
ATOM     14  C   UNL     1     -10.412  28.195  23.129  1.00  0.00    -0.000 C 
BRANCH  14  15
ATOM     15  C   UNL     1     -10.200  28.898  24.484  1.00  0.00    -0.000 C 
BRANCH  15  16
ATOM     16  C   UNL     1     -10.985  28.291  25.661  1.00  0.00    -0.000 C 
BRANCH  16  17
ATOM     17  C   UNL     1     -11.125  26.764  25.562  1.00  0.00    -0.000 C 
BRANCH  17  18
ATOM     18  C   UNL     1     -10.798  26.097  26.903  1.00  0.00    -0.003 C 
ATOM     19  C   UNL     1     -10.094  27.070  27.845  1.00  0.00     0.004 C 
ENDBRANCH  17  18
ENDBRANCH  16  17
ENDBRANCH  15  16
ENDBRANCH  14  15
ENDBRANCH  13  14
ENDBRANCH  12  13
ENDBRANCH   1  12
TORSDOF 14
ENDMDL
MODEL 8
REMARK VINA RESULT:    -3.322      2.867      4.925
REMARK INTER + INTRA:          -7.934
REMARK INTER:                  -6.399
REMARK INTRA:                  -1.535
REMARK UNBOUND:                -1.893
REMARK SMILES CCCCCCCCCCCCCC[C@@H](C)C(=O)[O-]
REMARK SMILES IDX 9 1 10 2 11 3 12 4 13 5 14 6 15 7 16 8 17 9 18 10 19 11 8 12
REMARK SMILES IDX 7 13 6 14 5 15 4 16 3 17 2 18 1 19
REMARK H PARENT
REMARK Flexibility Score: inf
ROOT
ATOM      1  C   UNL     1      -9.335  27.915  24.432  1.00  0.00     0.000 C 
ENDROOT
BRANCH   1   2
ATOM      2  C   UNL     1      -8.850  27.218  25.713  1.00  0.00     0.000 C 
BRANCH   2   3
ATOM      3  C   UNL     1      -9.644  25.936  26.020  1.00  0.00     0.000 C 
BRANCH   3   4
ATOM      4  C   UNL     1     -10.960  25.856  25.228  1.00  0.00     0.000 C 
BRANCH   4   5
ATOM      5  C   UNL     1     -10.829  25.017  23.944  1.00  0.00     0.001 C 
BRANCH   5   6
ATOM      6  C   UNL     1      -9.372  24.627  23.634  1.00  0.00     0.009 C 
BRANCH   6   7
ATOM      7  C   UNL     1      -9.129  24.210  22.166  1.00  0.00     0.032 C 
ATOM      8  C   UNL     1      -7.702  24.570  21.737  1.00  0.00     0.014 C 
BRANCH   7   9
ATOM      9  C   UNL     1      -9.361  22.738  21.964  1.00  0.00     0.044 C 
ATOM     10  O   UNL     1      -8.584  21.898  22.488  1.00  0.00    -0.550 OA
ATOM     11  O   UNL     1     -10.438  22.294  21.204  1.00  0.00    -0.550 OA
ENDBRANCH   7   9
ENDBRANCH   6   7
ENDBRANCH   5   6
ENDBRANCH   4   5
ENDBRANCH   3   4
ENDBRANCH   2   3
ENDBRANCH   1   2
BRANCH   1  12
ATOM     12  C   UNL     1      -8.870  29.380  24.341  1.00  0.00     0.000 C 
BRANCH  12  13
ATOM     13  C   UNL     1      -9.507  30.126  23.150  1.00  0.00    -0.000 C 
BRANCH  13  14
ATOM     14  C   UNL     1     -10.924  29.638  22.795  1.00  0.00    -0.000 C 
BRANCH  14  15
ATOM     15  C   UNL     1     -11.088  29.095  21.363  1.00  0.00    -0.000 C 
BRANCH  15  16
ATOM     16  C   UNL     1     -11.125  27.560  21.250  1.00  0.00    -0.000 C 
BRANCH  16  17
ATOM     17  C   UNL     1     -10.118  27.010  20.229  1.00  0.00    -0.000 C 
BRANCH  17  18
ATOM     18  C   UNL     1     -10.776  25.968  19.317  1.00  0.00    -0.003 C 
ATOM     19  C   UNL     1      -9.728  25.134  18.586  1.00  0.00     0.004 C 
ENDBRANCH  17  18
ENDBRANCH  16  17
ENDBRANCH  15  16
ENDBRANCH  14  15
ENDBRANCH  13  14
ENDBRANCH  12  13
ENDBRANCH   1  12
TORSDOF 14
ENDMDL
