MODEL 1
REMARK VINA RESULT:    -4.861      0.000      0.000
REMARK INTER + INTRA:          -8.557
REMARK INTER:                  -6.424
REMARK INTRA:                  -2.133
REMARK UNBOUND:                -2.133
REMARK SMILES C=C(CC[C@@H](C)[C@@H]1CC[C@@]2(C)[C@@H]3CC[C@H]4C(C)(C)[C@@H](O)CC[C@@]45C[C@@]35CC[C@@]12C)C(C)C
REMARK SMILES IDX 4 1 3 2 2 3 1 4 30 5 31 6 32 7 5 8 6 9 7 10 8 11 28 12 9 13
REMARK SMILES IDX 10 14 27 15 29 16 11 17 12 18 26 19 25 20 13 21 23 22 24 23
REMARK SMILES IDX 14 24 15 25 22 26 16 27 21 28 19 29 17 30 18 31 20 32
REMARK H PARENT 20 33
REMARK Flexibility Score: inf
ROOT
ATOM      1  C   UNL     1      -3.476  -5.280  -8.768  1.00  0.00     0.008 C 
ENDROOT
BRANCH   1   2
ATOM      2  C   UNL     1      -2.967  -3.839  -9.031  1.00  0.00     0.031 C 
BRANCH   2   3
ATOM      3  C   UNL     1      -3.016  -2.865  -7.854  1.00  0.00    -0.075 C 
ATOM      4  C   UNL     1      -2.145  -1.841  -7.808  1.00  0.00     0.008 C 
BRANCH   3   5
ATOM      5  C   UNL     1      -3.845  -3.132  -6.590  1.00  0.00     0.008 C 
ATOM      6  C   UNL     1      -5.225  -2.470  -6.743  1.00  0.00     0.012 C 
ATOM      7  C   UNL     1      -3.204  -2.641  -5.283  1.00  0.00     0.012 C 
ENDBRANCH   3   5
ENDBRANCH   2   3
ENDBRANCH   1   2
BRANCH   1   8
ATOM      8  C   UNL     1      -2.447  -6.389  -8.360  1.00  0.00    -0.010 C 
ATOM      9  C   UNL     1      -2.362  -7.521  -9.397  1.00  0.00     0.008 C 
BRANCH   8  10
ATOM     10  C   UNL     1      -1.068  -5.751  -7.916  1.00  0.00    -0.002 C 
ATOM     11  C   UNL     1       0.205  -6.277  -8.639  1.00  0.00     0.005 C 
ATOM     12  C   UNL     1      -0.704  -5.810  -6.373  1.00  0.00    -0.024 C 
ATOM     13  C   UNL     1       1.198  -6.710  -7.571  1.00  0.00     0.008 C 
ATOM     14  C   UNL     1       0.386  -6.937  -6.276  1.00  0.00    -0.024 C 
ATOM     15  C   UNL     1      -0.081  -4.419  -6.022  1.00  0.00     0.008 C 
ATOM     16  C   UNL     1      -1.902  -6.046  -5.405  1.00  0.00     0.012 C 
ATOM     17  C   UNL     1      -0.237  -8.361  -6.409  1.00  0.00     0.012 C 
ATOM     18  C   UNL     1       1.365  -6.862  -5.022  1.00  0.00     0.002 C 
ATOM     19  C   UNL     1       0.562  -4.337  -4.656  1.00  0.00     0.008 C 
ATOM     20  C   UNL     1       1.623  -5.430  -4.455  1.00  0.00    -0.020 C 
ATOM     21  C   UNL     1       1.073  -7.808  -3.840  1.00  0.00     0.005 C 
ATOM     22  C   UNL     1       2.388  -5.279  -3.104  1.00  0.00    -0.020 C 
ATOM     23  C   UNL     1       3.112  -5.053  -4.438  1.00  0.00     0.015 C 
ATOM     24  C   UNL     1       2.335  -7.898  -2.965  1.00  0.00     0.005 C 
ATOM     25  C   UNL     1       2.623  -6.560  -2.254  1.00  0.00     0.004 C 
ATOM     26  C   UNL     1       2.289  -3.981  -2.250  1.00  0.00     0.010 C 
ATOM     27  C   UNL     1       3.976  -6.490  -1.435  1.00  0.00    -0.006 C 
ATOM     28  C   UNL     1       3.155  -4.075  -0.969  1.00  0.00     0.033 C 
ATOM     29  C   UNL     1       4.389  -4.984  -1.156  1.00  0.00     0.120 C 
ATOM     30  C   UNL     1       3.763  -7.194  -0.070  1.00  0.00     0.014 C 
ATOM     31  C   UNL     1       5.135  -7.229  -2.158  1.00  0.00     0.014 C 
BRANCH  29  32
ATOM     32  O   UNL     1       5.174  -4.449  -2.199  1.00  0.00    -0.393 OA
ATOM     33  H   UNL     1       4.593  -4.399  -2.995  1.00  0.00     0.210 HD
ENDBRANCH  29  32
ENDBRANCH   8  10
ENDBRANCH   1   8
TORSDOF 6
ENDMDL
MODEL 2
REMARK VINA RESULT:    -4.753      9.593     13.684
REMARK INTER + INTRA:          -8.415
REMARK INTER:                  -7.629
REMARK INTRA:                  -0.785
REMARK UNBOUND:                -2.133
REMARK SMILES C=C(CC[C@@H](C)[C@@H]1CC[C@@]2(C)[C@@H]3CC[C@H]4C(C)(C)[C@@H](O)CC[C@@]45C[C@@]35CC[C@@]12C)C(C)C
REMARK SMILES IDX 4 1 3 2 2 3 1 4 30 5 31 6 32 7 5 8 6 9 7 10 8 11 28 12 9 13
REMARK SMILES IDX 10 14 27 15 29 16 11 17 12 18 26 19 25 20 13 21 23 22 24 23
REMARK SMILES IDX 14 24 15 25 22 26 16 27 21 28 19 29 17 30 18 31 20 32
REMARK H PARENT 20 33
REMARK Flexibility Score: inf
ROOT
ATOM      1  C   UNL     1       7.882   1.510   2.397  1.00  0.00     0.008 C 
ENDROOT
BRANCH   1   2
ATOM      2  C   UNL     1       8.751   0.908   3.533  1.00  0.00     0.031 C 
BRANCH   2   3
ATOM      3  C   UNL     1       8.671   1.591   4.898  1.00  0.00    -0.075 C 
ATOM      4  C   UNL     1       9.669   1.416   5.782  1.00  0.00     0.008 C 
BRANCH   3   5
ATOM      5  C   UNL     1       7.394   2.270   5.412  1.00  0.00     0.008 C 
ATOM      6  C   UNL     1       7.696   3.747   5.716  1.00  0.00     0.012 C 
ATOM      7  C   UNL     1       6.780   1.624   6.663  1.00  0.00     0.012 C 
ENDBRANCH   3   5
ENDBRANCH   2   3
ENDBRANCH   1   2
BRANCH   1   8
ATOM      8  C   UNL     1       7.794   0.758   1.026  1.00  0.00    -0.010 C 
ATOM      9  C   UNL     1       7.905  -0.768   1.184  1.00  0.00     0.008 C 
BRANCH   8  10
ATOM     10  C   UNL     1       6.570   1.278   0.167  1.00  0.00    -0.002 C 
ATOM     11  C   UNL     1       5.745   0.199  -0.589  1.00  0.00     0.005 C 
ATOM     12  C   UNL     1       6.869   2.391  -0.923  1.00  0.00    -0.024 C 
ATOM     13  C   UNL     1       5.666   0.618  -2.050  1.00  0.00     0.008 C 
ATOM     14  C   UNL     1       6.821   1.616  -2.288  1.00  0.00    -0.024 C 
ATOM     15  C   UNL     1       5.687   3.411  -0.834  1.00  0.00     0.008 C 
ATOM     16  C   UNL     1       8.193   3.189  -0.729  1.00  0.00     0.012 C 
ATOM     17  C   UNL     1       8.096   0.746  -2.508  1.00  0.00     0.012 C 
ATOM     18  C   UNL     1       6.501   2.490  -3.581  1.00  0.00     0.002 C 
ATOM     19  C   UNL     1       5.640   4.429  -1.953  1.00  0.00     0.008 C 
ATOM     20  C   UNL     1       5.627   3.760  -3.336  1.00  0.00    -0.020 C 
ATOM     21  C   UNL     1       7.691   2.885  -4.479  1.00  0.00     0.005 C 
ATOM     22  C   UNL     1       5.446   4.788  -4.494  1.00  0.00    -0.020 C 
ATOM     23  C   UNL     1       4.340   3.772  -4.175  1.00  0.00     0.015 C 
ATOM     24  C   UNL     1       7.145   3.319  -5.849  1.00  0.00     0.005 C 
ATOM     25  C   UNL     1       6.355   4.640  -5.747  1.00  0.00     0.004 C 
ATOM     26  C   UNL     1       5.004   6.256  -4.222  1.00  0.00     0.010 C 
ATOM     27  C   UNL     1       5.626   5.114  -7.070  1.00  0.00    -0.006 C 
ATOM     28  C   UNL     1       4.879   7.066  -5.537  1.00  0.00     0.033 C 
ATOM     29  C   UNL     1       4.498   6.179  -6.743  1.00  0.00     0.120 C 
ATOM     30  C   UNL     1       6.672   5.786  -7.997  1.00  0.00     0.014 C 
ATOM     31  C   UNL     1       5.013   3.923  -7.857  1.00  0.00     0.014 C 
BRANCH  29  32
ATOM     32  O   UNL     1       3.257   5.568  -6.462  1.00  0.00    -0.393 OA
ATOM     33  H   UNL     1       2.839   6.093  -5.740  1.00  0.00     0.210 HD
ENDBRANCH  29  32
ENDBRANCH   8  10
ENDBRANCH   1   8
TORSDOF 6
ENDMDL
MODEL 3
REMARK VINA RESULT:    -4.691      2.734      8.103
REMARK INTER + INTRA:          -8.333
REMARK INTER:                  -6.764
REMARK INTRA:                  -1.569
REMARK UNBOUND:                -2.133
REMARK SMILES C=C(CC[C@@H](C)[C@@H]1CC[C@@]2(C)[C@@H]3CC[C@H]4C(C)(C)[C@@H](O)CC[C@@]45C[C@@]35CC[C@@]12C)C(C)C
REMARK SMILES IDX 4 1 3 2 2 3 1 4 30 5 31 6 32 7 5 8 6 9 7 10 8 11 28 12 9 13
REMARK SMILES IDX 10 14 27 15 29 16 11 17 12 18 26 19 25 20 13 21 23 22 24 23
REMARK SMILES IDX 14 24 15 25 22 26 16 27 21 28 19 29 17 30 18 31 20 32
REMARK H PARENT 20 33
REMARK Flexibility Score: inf
ROOT
ATOM      1  C   UNL     1       2.966  -6.437  -4.520  1.00  0.00     0.008 C 
ENDROOT
BRANCH   1   2
ATOM      2  C   UNL     1       2.595  -6.087  -3.055  1.00  0.00     0.031 C 
BRANCH   2   3
ATOM      3  C   UNL     1       2.731  -4.622  -2.641  1.00  0.00    -0.075 C 
ATOM      4  C   UNL     1       3.068  -3.704  -3.565  1.00  0.00     0.008 C 
BRANCH   3   5
ATOM      5  C   UNL     1       2.743  -4.173  -1.174  1.00  0.00     0.008 C 
ATOM      6  C   UNL     1       2.397  -5.372  -0.275  1.00  0.00     0.012 C 
ATOM      7  C   UNL     1       1.784  -3.018  -0.846  1.00  0.00     0.012 C 
ENDBRANCH   3   5
ENDBRANCH   2   3
ENDBRANCH   1   2
BRANCH   1   8
ATOM      8  C   UNL     1       1.818  -6.656  -5.564  1.00  0.00    -0.010 C 
ATOM      9  C   UNL     1       1.730  -8.115  -6.043  1.00  0.00     0.008 C 
BRANCH   8  10
ATOM     10  C   UNL     1       0.463  -6.007  -5.068  1.00  0.00    -0.002 C 
ATOM     11  C   UNL     1      -0.747  -6.969  -4.901  1.00  0.00     0.005 C 
ATOM     12  C   UNL     1      -0.108  -4.787  -5.905  1.00  0.00    -0.024 C 
ATOM     13  C   UNL     1      -1.913  -6.386  -5.686  1.00  0.00     0.008 C 
ATOM     14  C   UNL     1      -1.308  -5.401  -6.712  1.00  0.00    -0.024 C 
ATOM     15  C   UNL     1      -0.630  -3.749  -4.858  1.00  0.00     0.008 C 
ATOM     16  C   UNL     1       0.920  -4.055  -6.820  1.00  0.00     0.012 C 
ATOM     17  C   UNL     1      -0.819  -6.278  -7.905  1.00  0.00     0.012 C 
ATOM     18  C   UNL     1      -2.434  -4.378  -7.184  1.00  0.00     0.002 C 
ATOM     19  C   UNL     1      -1.439  -2.611  -5.439  1.00  0.00     0.008 C 
ATOM     20  C   UNL     1      -2.621  -3.119  -6.280  1.00  0.00    -0.020 C 
ATOM     21  C   UNL     1      -2.399  -3.919  -8.655  1.00  0.00     0.005 C 
ATOM     22  C   UNL     1      -3.540  -1.961  -6.776  1.00  0.00    -0.020 C 
ATOM     23  C   UNL     1      -4.053  -2.974  -5.744  1.00  0.00     0.015 C 
ATOM     24  C   UNL     1      -3.769  -3.316  -9.011  1.00  0.00     0.005 C 
ATOM     25  C   UNL     1      -4.014  -1.993  -8.257  1.00  0.00     0.004 C 
ATOM     26  C   UNL     1      -3.428  -0.521  -6.195  1.00  0.00     0.010 C 
ATOM     27  C   UNL     1      -5.450  -1.352  -8.436  1.00  0.00    -0.006 C 
ATOM     28  C   UNL     1      -4.462   0.436  -6.839  1.00  0.00     0.033 C 
ATOM     29  C   UNL     1      -5.745  -0.298  -7.288  1.00  0.00     0.120 C 
ATOM     30  C   UNL     1      -5.494  -0.610  -9.797  1.00  0.00     0.014 C 
ATOM     31  C   UNL     1      -6.571  -2.428  -8.463  1.00  0.00     0.014 C 
BRANCH  29  32
ATOM     32  O   UNL     1      -6.325  -0.900  -6.152  1.00  0.00    -0.393 OA
ATOM     33  H   UNL     1      -5.605  -1.003  -5.485  1.00  0.00     0.210 HD
ENDBRANCH  29  32
ENDBRANCH   8  10
ENDBRANCH   1   8
TORSDOF 6
ENDMDL
MODEL 4
REMARK VINA RESULT:    -4.637      8.180     12.664
REMARK INTER + INTRA:          -8.262
REMARK INTER:                  -6.268
REMARK INTRA:                  -1.993
REMARK UNBOUND:                -2.133
REMARK SMILES C=C(CC[C@@H](C)[C@@H]1CC[C@@]2(C)[C@@H]3CC[C@H]4C(C)(C)[C@@H](O)CC[C@@]45C[C@@]35CC[C@@]12C)C(C)C
REMARK SMILES IDX 4 1 3 2 2 3 1 4 30 5 31 6 32 7 5 8 6 9 7 10 8 11 28 12 9 13
REMARK SMILES IDX 10 14 27 15 29 16 11 17 12 18 26 19 25 20 13 21 23 22 24 23
REMARK SMILES IDX 14 24 15 25 22 26 16 27 21 28 19 29 17 30 18 31 20 32
REMARK H PARENT 20 33
REMARK Flexibility Score: inf
ROOT
ATOM      1  C   UNL     1       7.905  -1.221   0.812  1.00  0.00     0.008 C 
ENDROOT
BRANCH   1   2
ATOM      2  C   UNL     1       8.298  -1.916  -0.519  1.00  0.00     0.031 C 
BRANCH   2   3
ATOM      3  C   UNL     1       7.160  -2.514  -1.346  1.00  0.00    -0.075 C 
ATOM      4  C   UNL     1       7.228  -2.471  -2.689  1.00  0.00     0.008 C 
BRANCH   3   5
ATOM      5  C   UNL     1       5.823  -2.944  -0.728  1.00  0.00     0.008 C 
ATOM      6  C   UNL     1       5.870  -4.450  -0.419  1.00  0.00     0.012 C 
ATOM      7  C   UNL     1       4.590  -2.657  -1.599  1.00  0.00     0.012 C 
ENDBRANCH   3   5
ENDBRANCH   2   3
ENDBRANCH   1   2
BRANCH   1   8
ATOM      8  C   UNL     1       7.589   0.313   0.805  1.00  0.00    -0.010 C 
ATOM      9  C   UNL     1       7.984   0.999   2.124  1.00  0.00     0.008 C 
BRANCH   8  10
ATOM     10  C   UNL     1       8.119   1.000  -0.519  1.00  0.00    -0.002 C 
ATOM     11  C   UNL     1       9.095   2.197  -0.337  1.00  0.00     0.005 C 
ATOM     12  C   UNL     1       7.034   1.520  -1.551  1.00  0.00    -0.024 C 
ATOM     13  C   UNL     1       8.542   3.368  -1.136  1.00  0.00     0.008 C 
ATOM     14  C   UNL     1       7.041   3.080  -1.365  1.00  0.00    -0.024 C 
ATOM     15  C   UNL     1       7.569   1.139  -2.971  1.00  0.00     0.008 C 
ATOM     16  C   UNL     1       5.611   0.903  -1.405  1.00  0.00     0.012 C 
ATOM     17  C   UNL     1       6.319   3.512  -0.052  1.00  0.00     0.012 C 
ATOM     18  C   UNL     1       6.525   3.938  -2.604  1.00  0.00     0.002 C 
ATOM     19  C   UNL     1       6.809   1.755  -4.124  1.00  0.00     0.008 C 
ATOM     20  C   UNL     1       6.732   3.285  -4.007  1.00  0.00    -0.020 C 
ATOM     21  C   UNL     1       5.087   4.489  -2.531  1.00  0.00     0.005 C 
ATOM     22  C   UNL     1       6.067   3.946  -5.253  1.00  0.00    -0.020 C 
ATOM     23  C   UNL     1       7.557   4.164  -4.960  1.00  0.00     0.015 C 
ATOM     24  C   UNL     1       4.943   5.615  -3.570  1.00  0.00     0.005 C 
ATOM     25  C   UNL     1       5.014   5.064  -5.009  1.00  0.00     0.004 C 
ATOM     26  C   UNL     1       5.828   3.151  -6.570  1.00  0.00     0.010 C 
ATOM     27  C   UNL     1       5.018   6.148  -6.164  1.00  0.00    -0.006 C 
ATOM     28  C   UNL     1       5.173   4.036  -7.660  1.00  0.00     0.033 C 
ATOM     29  C   UNL     1       5.557   5.526  -7.519  1.00  0.00     0.120 C 
ATOM     30  C   UNL     1       3.562   6.627  -6.396  1.00  0.00     0.014 C 
ATOM     31  C   UNL     1       5.859   7.398  -5.787  1.00  0.00     0.014 C 
BRANCH  29  32
ATOM     32  O   UNL     1       6.959   5.628  -7.629  1.00  0.00    -0.393 OA
ATOM     33  H   UNL     1       7.142   6.360  -8.264  1.00  0.00     0.210 HD
ENDBRANCH  29  32
ENDBRANCH   8  10
ENDBRANCH   1   8
TORSDOF 6
ENDMDL
MODEL 5
REMARK VINA RESULT:    -4.527      9.639     11.715
REMARK INTER + INTRA:          -8.116
REMARK INTER:                  -6.112
REMARK INTRA:                  -2.004
REMARK UNBOUND:                -2.133
REMARK SMILES C=C(CC[C@@H](C)[C@@H]1CC[C@@]2(C)[C@@H]3CC[C@H]4C(C)(C)[C@@H](O)CC[C@@]45C[C@@]35CC[C@@]12C)C(C)C
REMARK SMILES IDX 4 1 3 2 2 3 1 4 30 5 31 6 32 7 5 8 6 9 7 10 8 11 28 12 9 13
REMARK SMILES IDX 10 14 27 15 29 16 11 17 12 18 26 19 25 20 13 21 23 22 24 23
REMARK SMILES IDX 14 24 15 25 22 26 16 27 21 28 19 29 17 30 18 31 20 32
REMARK H PARENT 20 33
REMARK Flexibility Score: inf
ROOT
ATOM      1  C   UNL     1       2.442   7.355  -7.300  1.00  0.00     0.008 C 
ENDROOT
BRANCH   1   2
ATOM      2  C   UNL     1       3.158   8.685  -6.948  1.00  0.00     0.031 C 
BRANCH   2   3
ATOM      3  C   UNL     1       3.873   9.406  -8.090  1.00  0.00    -0.075 C 
ATOM      4  C   UNL     1       3.207   9.655  -9.232  1.00  0.00     0.008 C 
BRANCH   3   5
ATOM      5  C   UNL     1       5.389   9.646  -8.100  1.00  0.00     0.008 C 
ATOM      6  C   UNL     1       6.031   8.775  -9.193  1.00  0.00     0.012 C 
ATOM      7  C   UNL     1       6.094   9.363  -6.765  1.00  0.00     0.012 C 
ENDBRANCH   3   5
ENDBRANCH   2   3
ENDBRANCH   1   2
BRANCH   1   8
ATOM      8  C   UNL     1       3.300   6.061  -7.514  1.00  0.00    -0.010 C 
ATOM      9  C   UNL     1       3.614   5.803  -8.997  1.00  0.00     0.008 C 
BRANCH   8  10
ATOM     10  C   UNL     1       4.538   6.028  -6.528  1.00  0.00    -0.002 C 
ATOM     11  C   UNL     1       5.919   5.690  -7.158  1.00  0.00     0.005 C 
ATOM     12  C   UNL     1       4.432   5.079  -5.262  1.00  0.00    -0.024 C 
ATOM     13  C   UNL     1       6.521   4.541  -6.362  1.00  0.00     0.008 C 
ATOM     14  C   UNL     1       5.352   3.856  -5.618  1.00  0.00    -0.024 C 
ATOM     15  C   UNL     1       5.037   5.884  -4.065  1.00  0.00     0.008 C 
ATOM     16  C   UNL     1       2.990   4.649  -4.858  1.00  0.00     0.012 C 
ATOM     17  C   UNL     1       4.682   2.908  -6.660  1.00  0.00     0.012 C 
ATOM     18  C   UNL     1       5.929   3.027  -4.386  1.00  0.00     0.002 C 
ATOM     19  C   UNL     1       5.261   5.078  -2.805  1.00  0.00     0.008 C 
ATOM     20  C   UNL     1       6.125   3.835  -3.065  1.00  0.00    -0.020 C 
ATOM     21  C   UNL     1       5.231   1.696  -4.042  1.00  0.00     0.005 C 
ATOM     22  C   UNL     1       6.475   3.067  -1.754  1.00  0.00    -0.020 C 
ATOM     23  C   UNL     1       7.571   3.792  -2.547  1.00  0.00     0.015 C 
ATOM     24  C   UNL     1       6.172   0.868  -3.152  1.00  0.00     0.005 C 
ATOM     25  C   UNL     1       6.349   1.517  -1.764  1.00  0.00     0.004 C 
ATOM     26  C   UNL     1       6.238   3.696  -0.350  1.00  0.00     0.010 C 
ATOM     27  C   UNL     1       7.407   0.828  -0.808  1.00  0.00    -0.006 C 
ATOM     28  C   UNL     1       6.684   2.741   0.785  1.00  0.00     0.033 C 
ATOM     29  C   UNL     1       7.843   1.813   0.355  1.00  0.00     0.120 C 
ATOM     30  C   UNL     1       6.752  -0.421  -0.165  1.00  0.00     0.014 C 
ATOM     31  C   UNL     1       8.662   0.341  -1.583  1.00  0.00     0.014 C 
BRANCH  29  32
ATOM     32  O   UNL     1       8.936   2.623  -0.017  1.00  0.00    -0.393 OA
ATOM     33  H   UNL     1       9.741   2.056   0.036  1.00  0.00     0.210 HD
ENDBRANCH  29  32
ENDBRANCH   8  10
ENDBRANCH   1   8
TORSDOF 6
ENDMDL
MODEL 6
REMARK VINA RESULT:    -4.422      5.752      9.412
REMARK INTER + INTRA:          -7.977
REMARK INTER:                  -5.947
REMARK INTRA:                  -2.029
REMARK UNBOUND:                -2.133
REMARK SMILES C=C(CC[C@@H](C)[C@@H]1CC[C@@]2(C)[C@@H]3CC[C@H]4C(C)(C)[C@@H](O)CC[C@@]45C[C@@]35CC[C@@]12C)C(C)C
REMARK SMILES IDX 4 1 3 2 2 3 1 4 30 5 31 6 32 7 5 8 6 9 7 10 8 11 28 12 9 13
REMARK SMILES IDX 10 14 27 15 29 16 11 17 12 18 26 19 25 20 13 21 23 22 24 23
REMARK SMILES IDX 14 24 15 25 22 26 16 27 21 28 19 29 17 30 18 31 20 32
REMARK H PARENT 20 33
REMARK Flexibility Score: inf
ROOT
ATOM      1  C   UNL     1       7.966   3.469  -4.257  1.00  0.00     0.008 C 
ENDROOT
BRANCH   1   2
ATOM      2  C   UNL     1       7.949   3.860  -2.756  1.00  0.00     0.031 C 
BRANCH   2   3
ATOM      3  C   UNL     1       6.614   3.730  -2.025  1.00  0.00    -0.075 C 
ATOM      4  C   UNL     1       5.475   4.032  -2.673  1.00  0.00     0.008 C 
BRANCH   3   5
ATOM      5  C   UNL     1       6.516   3.508  -0.509  1.00  0.00     0.008 C 
ATOM      6  C   UNL     1       7.673   2.601  -0.056  1.00  0.00     0.012 C 
ATOM      7  C   UNL     1       5.192   2.892  -0.032  1.00  0.00     0.012 C 
ENDBRANCH   3   5
ENDBRANCH   2   3
ENDBRANCH   1   2
BRANCH   1   8
ATOM      8  C   UNL     1       8.250   1.980  -4.654  1.00  0.00    -0.010 C 
ATOM      9  C   UNL     1       9.610   1.808  -5.352  1.00  0.00     0.008 C 
BRANCH   8  10
ATOM     10  C   UNL     1       7.965   1.002  -3.442  1.00  0.00    -0.002 C 
ATOM     11  C   UNL     1       9.085  -0.019  -3.096  1.00  0.00     0.005 C 
ATOM     12  C   UNL     1       6.638   0.136  -3.504  1.00  0.00    -0.024 C 
ATOM     13  C   UNL     1       8.454  -1.404  -3.067  1.00  0.00     0.008 C 
ATOM     14  C   UNL     1       7.137  -1.308  -3.869  1.00  0.00    -0.024 C 
ATOM     15  C   UNL     1       6.040   0.157  -2.060  1.00  0.00     0.008 C 
ATOM     16  C   UNL     1       5.537   0.656  -4.477  1.00  0.00     0.012 C 
ATOM     17  C   UNL     1       7.544  -1.421  -5.371  1.00  0.00     0.012 C 
ATOM     18  C   UNL     1       6.179  -2.509  -3.449  1.00  0.00     0.002 C 
ATOM     19  C   UNL     1       4.898  -0.809  -1.831  1.00  0.00     0.008 C 
ATOM     20  C   UNL     1       5.284  -2.250  -2.197  1.00  0.00    -0.020 C 
ATOM     21  C   UNL     1       5.301  -3.131  -4.554  1.00  0.00     0.005 C 
ATOM     22  C   UNL     1       4.164  -3.276  -1.843  1.00  0.00    -0.020 C 
ATOM     23  C   UNL     1       5.498  -3.288  -1.084  1.00  0.00     0.015 C 
ATOM     24  C   UNL     1       4.808  -4.505  -4.069  1.00  0.00     0.005 C 
ATOM     25  C   UNL     1       3.815  -4.365  -2.898  1.00  0.00     0.004 C 
ATOM     26  C   UNL     1       2.962  -2.892  -0.932  1.00  0.00     0.010 C 
ATOM     27  C   UNL     1       3.346  -5.718  -2.222  1.00  0.00    -0.006 C 
ATOM     28  C   UNL     1       2.003  -4.089  -0.718  1.00  0.00     0.033 C 
ATOM     29  C   UNL     1       2.733  -5.449  -0.785  1.00  0.00     0.120 C 
ATOM     30  C   UNL     1       2.245  -6.356  -3.108  1.00  0.00     0.014 C 
ATOM     31  C   UNL     1       4.504  -6.748  -2.116  1.00  0.00     0.014 C 
BRANCH  29  32
ATOM     32  O   UNL     1       3.718  -5.467   0.224  1.00  0.00    -0.393 OA
ATOM     33  H   UNL     1       3.588  -4.652   0.763  1.00  0.00     0.210 HD
ENDBRANCH  29  32
ENDBRANCH   8  10
ENDBRANCH   1   8
TORSDOF 6
ENDMDL
MODEL 7
REMARK VINA RESULT:    -4.328      3.655      6.345
REMARK INTER + INTRA:          -7.853
REMARK INTER:                  -5.882
REMARK INTRA:                  -1.971
REMARK UNBOUND:                -2.133
REMARK SMILES C=C(CC[C@@H](C)[C@@H]1CC[C@@]2(C)[C@@H]3CC[C@H]4C(C)(C)[C@@H](O)CC[C@@]45C[C@@]35CC[C@@]12C)C(C)C
REMARK SMILES IDX 4 1 3 2 2 3 1 4 30 5 31 6 32 7 5 8 6 9 7 10 8 11 28 12 9 13
REMARK SMILES IDX 10 14 27 15 29 16 11 17 12 18 26 19 25 20 13 21 23 22 24 23
REMARK SMILES IDX 14 24 15 25 22 26 16 27 21 28 19 29 17 30 18 31 20 32
REMARK H PARENT 20 33
REMARK Flexibility Score: inf
ROOT
ATOM      1  C   UNL     1       1.363  -7.781  -4.520  1.00  0.00     0.008 C 
ENDROOT
BRANCH   1   2
ATOM      2  C   UNL     1       1.472  -7.064  -5.891  1.00  0.00     0.031 C 
BRANCH   2   3
ATOM      3  C   UNL     1       0.502  -5.911  -6.145  1.00  0.00    -0.075 C 
ATOM      4  C   UNL     1       0.888  -4.884  -6.924  1.00  0.00     0.008 C 
BRANCH   3   5
ATOM      5  C   UNL     1      -0.805  -5.738  -5.360  1.00  0.00     0.008 C 
ATOM      6  C   UNL     1      -1.879  -6.661  -5.959  1.00  0.00     0.012 C 
ATOM      7  C   UNL     1      -1.351  -4.303  -5.326  1.00  0.00     0.012 C 
ENDBRANCH   3   5
ENDBRANCH   2   3
ENDBRANCH   1   2
BRANCH   1   8
ATOM      8  C   UNL     1       2.095  -7.168  -3.279  1.00  0.00    -0.010 C 
ATOM      9  C   UNL     1       2.347  -8.207  -2.173  1.00  0.00     0.008 C 
BRANCH   8  10
ATOM     10  C   UNL     1       3.350  -6.311  -3.722  1.00  0.00    -0.002 C 
ATOM     11  C   UNL     1       4.724  -6.732  -3.128  1.00  0.00     0.005 C 
ATOM     12  C   UNL     1       3.277  -4.744  -3.490  1.00  0.00    -0.024 C 
ATOM     13  C   UNL     1       5.353  -5.498  -2.499  1.00  0.00     0.008 C 
ATOM     14  C   UNL     1       4.205  -4.494  -2.248  1.00  0.00    -0.024 C 
ATOM     15  C   UNL     1       3.892  -4.087  -4.769  1.00  0.00     0.008 C 
ATOM     16  C   UNL     1       1.847  -4.154  -3.300  1.00  0.00     0.012 C 
ATOM     17  C   UNL     1       3.529  -4.945  -0.916  1.00  0.00     0.012 C 
ATOM     18  C   UNL     1       4.813  -3.028  -2.107  1.00  0.00     0.002 C 
ATOM     19  C   UNL     1       4.147  -2.600  -4.662  1.00  0.00     0.008 C 
ATOM     20  C   UNL     1       5.022  -2.255  -3.447  1.00  0.00    -0.020 C 
ATOM     21  C   UNL     1       4.136  -2.078  -1.098  1.00  0.00     0.005 C 
ATOM     22  C   UNL     1       5.403  -0.744  -3.396  1.00  0.00    -0.020 C 
ATOM     23  C   UNL     1       6.477  -1.808  -3.659  1.00  0.00     0.015 C 
ATOM     24  C   UNL     1       5.103  -0.920  -0.796  1.00  0.00     0.005 C 
ATOM     25  C   UNL     1       5.295  -0.012  -2.028  1.00  0.00     0.004 C 
ATOM     26  C   UNL     1       5.182   0.196  -4.618  1.00  0.00     0.010 C 
ATOM     27  C   UNL     1       6.378   1.134  -1.880  1.00  0.00    -0.006 C 
ATOM     28  C   UNL     1       5.659   1.640  -4.319  1.00  0.00     0.033 C 
ATOM     29  C   UNL     1       6.821   1.679  -3.302  1.00  0.00     0.120 C 
ATOM     30  C   UNL     1       5.748   2.308  -1.086  1.00  0.00     0.014 C 
ATOM     31  C   UNL     1       7.625   0.659  -1.086  1.00  0.00     0.014 C 
BRANCH  29  32
ATOM     32  O   UNL     1       7.898   0.944  -3.839  1.00  0.00    -0.393 OA
ATOM     33  H   UNL     1       8.449   1.580  -4.352  1.00  0.00     0.210 HD
ENDBRANCH  29  32
ENDBRANCH   8  10
ENDBRANCH   1   8
TORSDOF 6
ENDMDL
MODEL 8
REMARK VINA RESULT:    -4.283      8.896     11.017
REMARK INTER + INTRA:          -7.794
REMARK INTER:                  -6.044
REMARK INTRA:                  -1.750
REMARK UNBOUND:                -2.133
REMARK SMILES C=C(CC[C@@H](C)[C@@H]1CC[C@@]2(C)[C@@H]3CC[C@H]4C(C)(C)[C@@H](O)CC[C@@]45C[C@@]35CC[C@@]12C)C(C)C
REMARK SMILES IDX 4 1 3 2 2 3 1 4 30 5 31 6 32 7 5 8 6 9 7 10 8 11 28 12 9 13
REMARK SMILES IDX 10 14 27 15 29 16 11 17 12 18 26 19 25 20 13 21 23 22 24 23
REMARK SMILES IDX 14 24 15 25 22 26 16 27 21 28 19 29 17 30 18 31 20 32
REMARK H PARENT 20 33
REMARK Flexibility Score: inf
ROOT
ATOM      1  C   UNL     1       3.058   7.728  -6.930  1.00  0.00     0.008 C 
ENDROOT
BRANCH   1   2
ATOM      2  C   UNL     1       1.622   7.776  -7.514  1.00  0.00     0.031 C 
BRANCH   2   3
ATOM      3  C   UNL     1       0.716   6.583  -7.214  1.00  0.00    -0.075 C 
ATOM      4  C   UNL     1       0.280   6.385  -5.957  1.00  0.00     0.008 C 
BRANCH   3   5
ATOM      5  C   UNL     1       0.472   5.453  -8.223  1.00  0.00     0.008 C 
ATOM      6  C   UNL     1       1.228   4.195  -7.764  1.00  0.00     0.012 C 
ATOM      7  C   UNL     1       0.885   5.778  -9.667  1.00  0.00     0.012 C 
ENDBRANCH   3   5
ENDBRANCH   2   3
ENDBRANCH   1   2
BRANCH   1   8
ATOM      8  C   UNL     1       3.973   6.499  -7.257  1.00  0.00    -0.010 C 
ATOM      9  C   UNL     1       4.406   6.466  -8.732  1.00  0.00     0.008 C 
BRANCH   8  10
ATOM     10  C   UNL     1       5.133   6.351  -6.190  1.00  0.00    -0.002 C 
ATOM     11  C   UNL     1       6.550   6.031  -6.746  1.00  0.00     0.005 C 
ATOM     12  C   UNL     1       4.915   5.301  -5.021  1.00  0.00    -0.024 C 
ATOM     13  C   UNL     1       7.068   4.804  -6.010  1.00  0.00     0.008 C 
ATOM     14  C   UNL     1       5.834   4.090  -5.414  1.00  0.00    -0.024 C 
ATOM     15  C   UNL     1       5.445   5.988  -3.719  1.00  0.00     0.008 C 
ATOM     16  C   UNL     1       3.438   4.877  -4.761  1.00  0.00     0.012 C 
ATOM     17  C   UNL     1       5.225   3.251  -6.579  1.00  0.00     0.012 C 
ATOM     18  C   UNL     1       6.301   3.146  -4.219  1.00  0.00     0.002 C 
ATOM     19  C   UNL     1       5.558   5.073  -2.520  1.00  0.00     0.008 C 
ATOM     20  C   UNL     1       6.415   3.835  -2.822  1.00  0.00    -0.020 C 
ATOM     21  C   UNL     1       5.553   1.809  -4.041  1.00  0.00     0.005 C 
ATOM     22  C   UNL     1       6.651   2.950  -1.560  1.00  0.00    -0.020 C 
ATOM     23  C   UNL     1       7.817   3.710  -2.206  1.00  0.00     0.015 C 
ATOM     24  C   UNL     1       6.409   0.884  -3.159  1.00  0.00     0.005 C 
ATOM     25  C   UNL     1       6.495   1.410  -1.712  1.00  0.00     0.004 C 
ATOM     26  C   UNL     1       6.323   3.465  -0.128  1.00  0.00     0.010 C 
ATOM     27  C   UNL     1       7.466   0.616  -0.744  1.00  0.00    -0.006 C 
ATOM     28  C   UNL     1       6.665   2.406   0.951  1.00  0.00     0.033 C 
ATOM     29  C   UNL     1       7.833   1.488   0.528  1.00  0.00     0.120 C 
ATOM     30  C   UNL     1       6.740  -0.665  -0.260  1.00  0.00     0.014 C 
ATOM     31  C   UNL     1       8.765   0.163  -1.465  1.00  0.00     0.014 C 
BRANCH  29  32
ATOM     32  O   UNL     1       8.967   2.297   0.306  1.00  0.00    -0.393 OA
ATOM     33  H   UNL     1       9.582   1.776  -0.262  1.00  0.00     0.210 HD
ENDBRANCH  29  32
ENDBRANCH   8  10
ENDBRANCH   1   8
TORSDOF 6
ENDMDL
MODEL 9
REMARK VINA RESULT:    -4.262      2.917      5.698
REMARK INTER + INTRA:          -7.766
REMARK INTER:                  -5.783
REMARK INTRA:                  -1.983
REMARK UNBOUND:                -2.133
REMARK SMILES C=C(CC[C@@H](C)[C@@H]1CC[C@@]2(C)[C@@H]3CC[C@H]4C(C)(C)[C@@H](O)CC[C@@]45C[C@@]35CC[C@@]12C)C(C)C
REMARK SMILES IDX 4 1 3 2 2 3 1 4 30 5 31 6 32 7 5 8 6 9 7 10 8 11 28 12 9 13
REMARK SMILES IDX 10 14 27 15 29 16 11 17 12 18 26 19 25 20 13 21 23 22 24 23
REMARK SMILES IDX 14 24 15 25 22 26 16 27 21 28 19 29 17 30 18 31 20 32
REMARK H PARENT 20 33
REMARK Flexibility Score: inf
ROOT
ATOM      1  C   UNL     1      -5.005  -0.288  -9.118  1.00  0.00     0.008 C 
ENDROOT
BRANCH   1   2
ATOM      2  C   UNL     1      -5.878  -1.408  -9.742  1.00  0.00     0.031 C 
BRANCH   2   3
ATOM      3  C   UNL     1      -7.268  -1.615  -9.140  1.00  0.00    -0.075 C 
ATOM      4  C   UNL     1      -7.930  -0.561  -8.630  1.00  0.00     0.008 C 
BRANCH   3   5
ATOM      5  C   UNL     1      -7.852  -3.006  -8.861  1.00  0.00     0.008 C 
ATOM      6  C   UNL     1      -8.055  -3.175  -7.346  1.00  0.00     0.012 C 
ATOM      7  C   UNL     1      -7.002  -4.177  -9.378  1.00  0.00     0.012 C 
ENDBRANCH   3   5
ENDBRANCH   2   3
ENDBRANCH   1   2
BRANCH   1   8
ATOM      8  C   UNL     1      -4.207  -0.587  -7.804  1.00  0.00    -0.010 C 
ATOM      9  C   UNL     1      -4.533   0.409  -6.678  1.00  0.00     0.008 C 
BRANCH   8  10
ATOM     10  C   UNL     1      -4.294  -2.120  -7.419  1.00  0.00    -0.002 C 
ATOM     11  C   UNL     1      -4.751  -2.447  -5.969  1.00  0.00     0.005 C 
ATOM     12  C   UNL     1      -2.992  -2.999  -7.637  1.00  0.00    -0.024 C 
ATOM     13  C   UNL     1      -3.713  -3.376  -5.357  1.00  0.00     0.008 C 
ATOM     14  C   UNL     1      -2.422  -3.209  -6.189  1.00  0.00    -0.024 C 
ATOM     15  C   UNL     1      -3.483  -4.360  -8.231  1.00  0.00     0.008 C 
ATOM     16  C   UNL     1      -1.936  -2.411  -8.620  1.00  0.00     0.012 C 
ATOM     17  C   UNL     1      -1.729  -1.921  -5.644  1.00  0.00     0.012 C 
ATOM     18  C   UNL     1      -1.492  -4.485  -5.977  1.00  0.00     0.002 C 
ATOM     19  C   UNL     1      -2.430  -5.445  -8.291  1.00  0.00     0.008 C 
ATOM     20  C   UNL     1      -1.786  -5.695  -6.919  1.00  0.00    -0.020 C 
ATOM     21  C   UNL     1       0.032  -4.251  -5.948  1.00  0.00     0.005 C 
ATOM     22  C   UNL     1      -0.795  -6.898  -6.935  1.00  0.00    -0.020 C 
ATOM     23  C   UNL     1      -2.110  -6.986  -6.150  1.00  0.00     0.015 C 
ATOM     24  C   UNL     1       0.702  -5.481  -5.312  1.00  0.00     0.005 C 
ATOM     25  C   UNL     1       0.574  -6.722  -6.219  1.00  0.00     0.004 C 
ATOM     26  C   UNL     1      -0.743  -7.898  -8.127  1.00  0.00     0.010 C 
ATOM     27  C   UNL     1       1.104  -8.083  -5.606  1.00  0.00    -0.006 C 
ATOM     28  C   UNL     1       0.309  -9.011  -7.893  1.00  0.00     0.033 C 
ATOM     29  C   UNL     1       0.511  -9.325  -6.394  1.00  0.00     0.120 C 
ATOM     30  C   UNL     1       2.648  -8.117  -5.740  1.00  0.00     0.014 C 
ATOM     31  C   UNL     1       0.771  -8.211  -4.094  1.00  0.00     0.014 C 
BRANCH  29  32
ATOM     32  O   UNL     1      -0.726  -9.748  -5.865  1.00  0.00    -0.393 OA
ATOM     33  H   UNL     1      -1.298  -9.984  -6.632  1.00  0.00     0.210 HD
ENDBRANCH  29  32
ENDBRANCH   8  10
ENDBRANCH   1   8
TORSDOF 6
ENDMDL
