MODEL 1
REMARK VINA RESULT:    -4.769      0.000      0.000
REMARK INTER + INTRA:          -7.930
REMARK INTER:                  -7.278
REMARK INTRA:                  -0.652
REMARK UNBOUND:                -0.652
REMARK SMILES O=C([O-])CCCCCCCCC(=O)[O-]
REMARK SMILES IDX 7 1 6 2 5 3 4 4 2 5 1 6 3 7 8 8 9 9 10 10 11 11 12 12 13 13
REMARK SMILES IDX 14 14
REMARK H PARENT
REMARK Flexibility Score: inf
ROOT
ATOM      1  C   UNL     1     -21.994 -59.087   0.324  1.00  0.00     0.000 C 
ENDROOT
BRANCH   1   2
ATOM      2  C   UNL     1     -22.634 -58.861  -1.050  1.00  0.00     0.000 C 
BRANCH   2   3
ATOM      3  C   UNL     1     -23.737 -59.894  -1.320  1.00  0.00     0.006 C 
BRANCH   3   4
ATOM      4  C   UNL     1     -25.140 -59.273  -1.278  1.00  0.00     0.053 C 
BRANCH   4   5
ATOM      5  C   UNL     1     -25.538 -58.707  -2.606  1.00  0.00     0.041 C 
ATOM      6  O   UNL     1     -25.481 -57.465  -2.809  1.00  0.00    -0.550 OA
ATOM      7  O   UNL     1     -25.938 -59.554  -3.632  1.00  0.00    -0.550 OA
ENDBRANCH   4   5
ENDBRANCH   3   4
ENDBRANCH   2   3
ENDBRANCH   1   2
BRANCH   1   8
ATOM      8  C   UNL     1     -22.298 -60.498   0.848  1.00  0.00     0.000 C 
BRANCH   8   9
ATOM      9  C   UNL     1     -23.122 -60.484   2.145  1.00  0.00     0.000 C 
BRANCH   9  10
ATOM     10  C   UNL     1     -24.417 -61.303   2.034  1.00  0.00     0.006 C 
BRANCH  10  11
ATOM     11  C   UNL     1     -24.539 -62.296   3.193  1.00  0.00     0.053 C 
BRANCH  11  12
ATOM     12  C   UNL     1     -23.390 -63.254   3.187  1.00  0.00     0.041 C 
ATOM     13  O   UNL     1     -23.189 -63.998   2.192  1.00  0.00    -0.550 OA
ATOM     14  O   UNL     1     -22.509 -63.288   4.261  1.00  0.00    -0.550 OA
ENDBRANCH  11  12
ENDBRANCH  10  11
ENDBRANCH   9  10
ENDBRANCH   8   9
ENDBRANCH   1   8
TORSDOF 9
ENDMDL
MODEL 2
REMARK VINA RESULT:    -4.735      0.812      6.046
REMARK INTER + INTRA:          -7.878
REMARK INTER:                  -7.263
REMARK INTRA:                  -0.615
REMARK UNBOUND:                -0.652
REMARK SMILES O=C([O-])CCCCCCCCC(=O)[O-]
REMARK SMILES IDX 7 1 6 2 5 3 4 4 2 5 1 6 3 7 8 8 9 9 10 10 11 11 12 12 13 13
REMARK SMILES IDX 14 14
REMARK H PARENT
REMARK Flexibility Score: inf
ROOT
ATOM      1  C   UNL     1     -22.499 -58.491   1.636  1.00  0.00     0.000 C 
ENDROOT
BRANCH   1   2
ATOM      2  C   UNL     1     -23.296 -59.560   2.391  1.00  0.00     0.000 C 
BRANCH   2   3
ATOM      3  C   UNL     1     -22.907 -60.970   1.925  1.00  0.00     0.006 C 
BRANCH   3   4
ATOM      4  C   UNL     1     -23.874 -62.043   2.444  1.00  0.00     0.053 C 
BRANCH   4   5
ATOM      5  C   UNL     1     -23.286 -63.416   2.344  1.00  0.00     0.041 C 
ATOM      6  O   UNL     1     -23.480 -64.257   3.262  1.00  0.00    -0.550 OA
ATOM      7  O   UNL     1     -22.551 -63.780   1.223  1.00  0.00    -0.550 OA
ENDBRANCH   4   5
ENDBRANCH   3   4
ENDBRANCH   2   3
ENDBRANCH   1   2
BRANCH   1   8
ATOM      8  C   UNL     1     -21.930 -59.053   0.324  1.00  0.00     0.000 C 
BRANCH   8   9
ATOM      9  C   UNL     1     -22.791 -58.695  -0.897  1.00  0.00     0.000 C 
BRANCH   9  10
ATOM     10  C   UNL     1     -23.705 -59.849  -1.336  1.00  0.00     0.006 C 
BRANCH  10  11
ATOM     11  C   UNL     1     -25.175 -59.424  -1.311  1.00  0.00     0.053 C 
BRANCH  11  12
ATOM     12  C   UNL     1     -25.579 -58.849  -2.631  1.00  0.00     0.041 C 
ATOM     13  O   UNL     1     -26.002 -59.600  -3.548  1.00  0.00    -0.550 OA
ATOM     14  O   UNL     1     -25.535 -57.474  -2.832  1.00  0.00    -0.550 OA
ENDBRANCH  11  12
ENDBRANCH  10  11
ENDBRANCH   9  10
ENDBRANCH   8   9
ENDBRANCH   1   8
TORSDOF 9
ENDMDL
MODEL 3
REMARK VINA RESULT:    -4.612      0.998      6.624
REMARK INTER + INTRA:          -7.691
REMARK INTER:                  -7.143
REMARK INTRA:                  -0.548
REMARK UNBOUND:                -0.652
REMARK SMILES O=C([O-])CCCCCCCCC(=O)[O-]
REMARK SMILES IDX 7 1 6 2 5 3 4 4 2 5 1 6 3 7 8 8 9 9 10 10 11 11 12 12 13 13
REMARK SMILES IDX 14 14
REMARK H PARENT
REMARK Flexibility Score: inf
ROOT
ATOM      1  C   UNL     1     -22.594 -60.640   1.218  1.00  0.00     0.000 C 
ENDROOT
BRANCH   1   2
ATOM      2  C   UNL     1     -23.207 -62.004   1.559  1.00  0.00     0.000 C 
BRANCH   2   3
ATOM      3  C   UNL     1     -24.285 -61.868   2.644  1.00  0.00     0.006 C 
BRANCH   3   4
ATOM      4  C   UNL     1     -24.730 -63.229   3.196  1.00  0.00     0.053 C 
BRANCH   4   5
ATOM      5  C   UNL     1     -23.674 -63.853   4.053  1.00  0.00     0.041 C 
ATOM      6  O   UNL     1     -23.083 -64.898   3.672  1.00  0.00    -0.550 OA
ATOM      7  O   UNL     1     -23.316 -63.263   5.259  1.00  0.00    -0.550 OA
ENDBRANCH   4   5
ENDBRANCH   3   4
ENDBRANCH   2   3
ENDBRANCH   1   2
BRANCH   1   8
ATOM      8  C   UNL     1     -21.888 -60.680  -0.146  1.00  0.00     0.000 C 
BRANCH   8   9
ATOM      9  C   UNL     1     -22.682 -59.959  -1.245  1.00  0.00     0.000 C 
BRANCH   9  10
ATOM     10  C   UNL     1     -23.785 -59.050  -0.681  1.00  0.00     0.006 C 
BRANCH  10  11
ATOM     11  C   UNL     1     -25.158 -59.449  -1.229  1.00  0.00     0.053 C 
BRANCH  11  12
ATOM     12  C   UNL     1     -25.403 -58.801  -2.555  1.00  0.00     0.041 C 
ATOM     13  O   UNL     1     -25.965 -59.442  -3.480  1.00  0.00    -0.550 OA
ATOM     14  O   UNL     1     -25.056 -57.469  -2.752  1.00  0.00    -0.550 OA
ENDBRANCH  11  12
ENDBRANCH  10  11
ENDBRANCH   9  10
ENDBRANCH   8   9
ENDBRANCH   1   8
TORSDOF 9
ENDMDL
MODEL 4
REMARK VINA RESULT:    -4.579      0.494      6.309
REMARK INTER + INTRA:          -7.640
REMARK INTER:                  -7.063
REMARK INTRA:                  -0.577
REMARK UNBOUND:                -0.652
REMARK SMILES O=C([O-])CCCCCCCCC(=O)[O-]
REMARK SMILES IDX 7 1 6 2 5 3 4 4 2 5 1 6 3 7 8 8 9 9 10 10 11 11 12 12 13 13
REMARK SMILES IDX 14 14
REMARK H PARENT
REMARK Flexibility Score: inf
ROOT
ATOM      1  C   UNL     1     -22.298 -60.519   1.119  1.00  0.00     0.000 C 
ENDROOT
BRANCH   1   2
ATOM      2  C   UNL     1     -23.301 -60.396   2.272  1.00  0.00     0.000 C 
BRANCH   2   3
ATOM      3  C   UNL     1     -24.311 -61.552   2.249  1.00  0.00     0.006 C 
BRANCH   3   4
ATOM      4  C   UNL     1     -24.173 -62.470   3.471  1.00  0.00     0.053 C 
BRANCH   4   5
ATOM      5  C   UNL     1     -23.428 -63.726   3.142  1.00  0.00     0.041 C 
ATOM      6  O   UNL     1     -23.137 -63.995   1.946  1.00  0.00    -0.550 OA
ATOM      7  O   UNL     1     -23.024 -64.584   4.157  1.00  0.00    -0.550 OA
ENDBRANCH   4   5
ENDBRANCH   3   4
ENDBRANCH   2   3
ENDBRANCH   1   2
BRANCH   1   8
ATOM      8  C   UNL     1     -21.875 -59.134   0.608  1.00  0.00     0.000 C 
BRANCH   8   9
ATOM      9  C   UNL     1     -22.509 -58.783  -0.747  1.00  0.00     0.000 C 
BRANCH   9  10
ATOM     10  C   UNL     1     -23.472 -59.869  -1.250  1.00  0.00     0.006 C 
BRANCH  10  11
ATOM     11  C   UNL     1     -24.928 -59.414  -1.120  1.00  0.00     0.053 C 
BRANCH  11  12
ATOM     12  C   UNL     1     -25.384 -58.744  -2.377  1.00  0.00     0.041 C 
ATOM     13  O   UNL     1     -25.176 -57.515  -2.552  1.00  0.00    -0.550 OA
ATOM     14  O   UNL     1     -25.994 -59.489  -3.379  1.00  0.00    -0.550 OA
ENDBRANCH  11  12
ENDBRANCH  10  11
ENDBRANCH   9  10
ENDBRANCH   8   9
ENDBRANCH   1   8
TORSDOF 9
ENDMDL
MODEL 5
REMARK VINA RESULT:    -4.485      3.503      6.157
REMARK INTER + INTRA:          -7.496
REMARK INTER:                  -6.848
REMARK INTRA:                  -0.648
REMARK UNBOUND:                -0.652
REMARK SMILES O=C([O-])CCCCCCCCC(=O)[O-]
REMARK SMILES IDX 7 1 6 2 5 3 4 4 2 5 1 6 3 7 8 8 9 9 10 10 11 11 12 12 13 13
REMARK SMILES IDX 14 14
REMARK H PARENT
REMARK Flexibility Score: inf
ROOT
ATOM      1  C   UNL     1     -24.419 -61.350   3.750  1.00  0.00     0.000 C 
ENDROOT
BRANCH   1   2
ATOM      2  C   UNL     1     -23.339 -60.304   4.049  1.00  0.00     0.000 C 
BRANCH   2   3
ATOM      3  C   UNL     1     -23.911 -58.882   3.964  1.00  0.00     0.006 C 
BRANCH   3   4
ATOM      4  C   UNL     1     -22.810 -57.812   3.949  1.00  0.00     0.053 C 
BRANCH   4   5
ATOM      5  C   UNL     1     -22.588 -57.225   5.309  1.00  0.00     0.041 C 
ATOM      6  O   UNL     1     -21.875 -56.196   5.446  1.00  0.00    -0.550 OA
ATOM      7  O   UNL     1     -23.195 -57.794   6.421  1.00  0.00    -0.550 OA
ENDBRANCH   4   5
ENDBRANCH   3   4
ENDBRANCH   2   3
ENDBRANCH   1   2
BRANCH   1   8
ATOM      8  C   UNL     1     -24.151 -62.049   2.408  1.00  0.00     0.000 C 
BRANCH   8   9
ATOM      9  C   UNL     1     -22.653 -62.147   2.080  1.00  0.00     0.000 C 
BRANCH   9  10
ATOM     10  C   UNL     1     -22.329 -61.695   0.648  1.00  0.00     0.006 C 
BRANCH  10  11
ATOM     11  C   UNL     1     -22.368 -60.169   0.532  1.00  0.00     0.053 C 
BRANCH  11  12
ATOM     12  C   UNL     1     -22.129 -59.743  -0.881  1.00  0.00     0.041 C 
ATOM     13  O   UNL     1     -21.877 -60.600  -1.768  1.00  0.00    -0.550 OA
ATOM     14  O   UNL     1     -22.236 -58.402  -1.230  1.00  0.00    -0.550 OA
ENDBRANCH  11  12
ENDBRANCH  10  11
ENDBRANCH   9  10
ENDBRANCH   8   9
ENDBRANCH   1   8
TORSDOF 9
ENDMDL
MODEL 6
REMARK VINA RESULT:    -4.453      1.089      1.652
REMARK INTER + INTRA:          -7.448
REMARK INTER:                  -6.957
REMARK INTRA:                  -0.491
REMARK UNBOUND:                -0.652
REMARK SMILES O=C([O-])CCCCCCCCC(=O)[O-]
REMARK SMILES IDX 7 1 6 2 5 3 4 4 2 5 1 6 3 7 8 8 9 9 10 10 11 11 12 12 13 13
REMARK SMILES IDX 14 14
REMARK H PARENT
REMARK Flexibility Score: inf
ROOT
ATOM      1  C   UNL     1     -22.034 -60.915   0.274  1.00  0.00     0.000 C 
ENDROOT
BRANCH   1   2
ATOM      2  C   UNL     1     -22.538 -59.468   0.334  1.00  0.00     0.000 C 
BRANCH   2   3
ATOM      3  C   UNL     1     -23.096 -59.021  -1.025  1.00  0.00     0.006 C 
BRANCH   3   4
ATOM      4  C   UNL     1     -24.542 -59.487  -1.242  1.00  0.00     0.053 C 
BRANCH   4   5
ATOM      5  C   UNL     1     -25.244 -58.657  -2.272  1.00  0.00     0.041 C 
ATOM      6  O   UNL     1     -26.224 -59.130  -2.906  1.00  0.00    -0.550 OA
ATOM      7  O   UNL     1     -24.837 -57.350  -2.509  1.00  0.00    -0.550 OA
ENDBRANCH   4   5
ENDBRANCH   3   4
ENDBRANCH   2   3
ENDBRANCH   1   2
BRANCH   1   8
ATOM      8  C   UNL     1     -22.599 -61.743   1.439  1.00  0.00     0.000 C 
BRANCH   8   9
ATOM      9  C   UNL     1     -23.992 -61.270   1.881  1.00  0.00     0.000 C 
BRANCH   9  10
ATOM     10  C   UNL     1     -24.635 -62.207   2.914  1.00  0.00     0.006 C 
BRANCH  10  11
ATOM     11  C   UNL     1     -24.039 -63.614   2.824  1.00  0.00     0.053 C 
BRANCH  11  12
ATOM     12  C   UNL     1     -23.797 -64.171   4.191  1.00  0.00     0.041 C 
ATOM     13  O   UNL     1     -22.993 -65.125   4.354  1.00  0.00    -0.550 OA
ATOM     14  O   UNL     1     -24.423 -63.602   5.294  1.00  0.00    -0.550 OA
ENDBRANCH  11  12
ENDBRANCH  10  11
ENDBRANCH   9  10
ENDBRANCH   8   9
ENDBRANCH   1   8
TORSDOF 9
ENDMDL
MODEL 7
REMARK VINA RESULT:    -4.451      1.714      6.881
REMARK INTER + INTRA:          -7.444
REMARK INTER:                  -6.924
REMARK INTRA:                  -0.520
REMARK UNBOUND:                -0.652
REMARK SMILES O=C([O-])CCCCCCCCC(=O)[O-]
REMARK SMILES IDX 7 1 6 2 5 3 4 4 2 5 1 6 3 7 8 8 9 9 10 10 11 11 12 12 13 13
REMARK SMILES IDX 14 14
REMARK H PARENT
REMARK Flexibility Score: inf
ROOT
ATOM      1  C   UNL     1     -23.347 -63.263   1.817  1.00  0.00     0.000 C 
ENDROOT
BRANCH   1   2
ATOM      2  C   UNL     1     -24.266 -62.544   2.812  1.00  0.00     0.000 C 
BRANCH   2   3
ATOM      3  C   UNL     1     -24.876 -63.535   3.814  1.00  0.00     0.006 C 
BRANCH   3   4
ATOM      4  C   UNL     1     -23.814 -64.429   4.468  1.00  0.00     0.053 C 
BRANCH   4   5
ATOM      5  C   UNL     1     -22.999 -63.679   5.475  1.00  0.00     0.041 C 
ATOM      6  O   UNL     1     -21.895 -63.171   5.146  1.00  0.00    -0.550 OA
ATOM      7  O   UNL     1     -23.474 -63.510   6.770  1.00  0.00    -0.550 OA
ENDBRANCH   4   5
ENDBRANCH   3   4
ENDBRANCH   2   3
ENDBRANCH   1   2
BRANCH   1   8
ATOM      8  C   UNL     1     -22.209 -62.341   1.355  1.00  0.00     0.000 C 
BRANCH   8   9
ATOM      9  C   UNL     1     -22.598 -60.855   1.390  1.00  0.00     0.000 C 
BRANCH   9  10
ATOM     10  C   UNL     1     -21.881 -60.029   0.312  1.00  0.00     0.006 C 
BRANCH  10  11
ATOM     11  C   UNL     1     -22.496 -60.276  -1.068  1.00  0.00     0.053 C 
BRANCH  11  12
ATOM     12  C   UNL     1     -23.560 -59.265  -1.358  1.00  0.00     0.041 C 
ATOM     13  O   UNL     1     -24.558 -59.578  -2.059  1.00  0.00    -0.550 OA
ATOM     14  O   UNL     1     -23.475 -57.990  -0.811  1.00  0.00    -0.550 OA
ENDBRANCH  11  12
ENDBRANCH  10  11
ENDBRANCH   9  10
ENDBRANCH   8   9
ENDBRANCH   1   8
TORSDOF 9
ENDMDL
MODEL 8
REMARK VINA RESULT:    -4.362      2.478      5.759
REMARK INTER + INTRA:          -7.310
REMARK INTER:                  -6.371
REMARK INTRA:                  -0.939
REMARK UNBOUND:                -0.652
REMARK SMILES O=C([O-])CCCCCCCCC(=O)[O-]
REMARK SMILES IDX 7 1 6 2 5 3 4 4 2 5 1 6 3 7 8 8 9 9 10 10 11 11 12 12 13 13
REMARK SMILES IDX 14 14
REMARK H PARENT
REMARK Flexibility Score: inf
ROOT
ATOM      1  C   UNL     1     -21.884 -60.651   0.537  1.00  0.00     0.000 C 
ENDROOT
BRANCH   1   2
ATOM      2  C   UNL     1     -22.894 -61.640   1.130  1.00  0.00     0.000 C 
BRANCH   2   3
ATOM      3  C   UNL     1     -23.963 -60.908   1.955  1.00  0.00     0.006 C 
BRANCH   3   4
ATOM      4  C   UNL     1     -23.362 -60.153   3.148  1.00  0.00     0.053 C 
BRANCH   4   5
ATOM      5  C   UNL     1     -23.718 -58.699   3.122  1.00  0.00     0.041 C 
ATOM      6  O   UNL     1     -22.998 -57.881   2.491  1.00  0.00    -0.550 OA
ATOM      7  O   UNL     1     -24.864 -58.251   3.767  1.00  0.00    -0.550 OA
ENDBRANCH   4   5
ENDBRANCH   3   4
ENDBRANCH   2   3
ENDBRANCH   1   2
BRANCH   1   8
ATOM      8  C   UNL     1     -22.276 -60.257  -0.895  1.00  0.00     0.000 C 
BRANCH   8   9
ATOM      9  C   UNL     1     -22.634 -58.768  -1.023  1.00  0.00     0.000 C 
BRANCH   9  10
ATOM     10  C   UNL     1     -24.132 -58.498  -0.818  1.00  0.00     0.006 C 
BRANCH  10  11
ATOM     11  C   UNL     1     -24.982 -59.522  -1.576  1.00  0.00     0.053 C 
BRANCH  11  12
ATOM     12  C   UNL     1     -25.722 -58.864  -2.697  1.00  0.00     0.041 C 
ATOM     13  O   UNL     1     -26.066 -57.657  -2.607  1.00  0.00    -0.550 OA
ATOM     14  O   UNL     1     -25.986 -59.571  -3.864  1.00  0.00    -0.550 OA
ENDBRANCH  11  12
ENDBRANCH  10  11
ENDBRANCH   9  10
ENDBRANCH   8   9
ENDBRANCH   1   8
TORSDOF 9
ENDMDL
MODEL 9
REMARK VINA RESULT:    -3.581      2.968      4.796
REMARK INTER + INTRA:          -6.117
REMARK INTER:                  -5.404
REMARK INTRA:                  -0.714
REMARK UNBOUND:                -0.652
REMARK SMILES O=C([O-])CCCCCCCCC(=O)[O-]
REMARK SMILES IDX 7 1 6 2 5 3 4 4 2 5 1 6 3 7 8 8 9 9 10 10 11 11 12 12 13 13
REMARK SMILES IDX 14 14
REMARK H PARENT
REMARK Flexibility Score: inf
ROOT
ATOM      1  C   UNL     1     -23.398 -61.966   2.757  1.00  0.00     0.000 C 
ENDROOT
BRANCH   1   2
ATOM      2  C   UNL     1     -24.834 -62.211   3.237  1.00  0.00     0.000 C 
BRANCH   2   3
ATOM      3  C   UNL     1     -25.745 -61.029   2.877  1.00  0.00     0.006 C 
BRANCH   3   4
ATOM      4  C   UNL     1     -25.171 -60.178   1.736  1.00  0.00     0.053 C 
BRANCH   4   5
ATOM      5  C   UNL     1     -26.141 -59.133   1.280  1.00  0.00     0.041 C 
ATOM      6  O   UNL     1     -27.375 -59.279   1.489  1.00  0.00    -0.550 OA
ATOM      7  O   UNL     1     -25.681 -57.981   0.654  1.00  0.00    -0.550 OA
ENDBRANCH   4   5
ENDBRANCH   3   4
ENDBRANCH   2   3
ENDBRANCH   1   2
BRANCH   1   8
ATOM      8  C   UNL     1     -22.955 -63.055   1.769  1.00  0.00     0.000 C 
BRANCH   8   9
ATOM      9  C   UNL     1     -21.920 -62.548   0.753  1.00  0.00     0.000 C 
BRANCH   9  10
ATOM     10  C   UNL     1     -21.960 -61.023   0.577  1.00  0.00     0.006 C 
BRANCH  10  11
ATOM     11  C   UNL     1     -21.875 -60.639  -0.902  1.00  0.00     0.053 C 
BRANCH  11  12
ATOM     12  C   UNL     1     -22.848 -59.548  -1.219  1.00  0.00     0.041 C 
ATOM     13  O   UNL     1     -22.497 -58.342  -1.140  1.00  0.00    -0.550 OA
ATOM     14  O   UNL     1     -24.130 -59.865  -1.652  1.00  0.00    -0.550 OA
ENDBRANCH  11  12
ENDBRANCH  10  11
ENDBRANCH   9  10
ENDBRANCH   8   9
ENDBRANCH   1   8
TORSDOF 9
ENDMDL
