MODEL 1
REMARK VINA RESULT:    -3.978      0.000      0.000
REMARK INTER + INTRA:          -9.179
REMARK INTER:                  -7.002
REMARK INTRA:                  -2.177
REMARK UNBOUND:                -2.177
REMARK SMILES CCCCCCCCCCCCCCC(=O)[O-]
REMARK SMILES IDX 9 1 10 2 11 3 12 4 13 5 14 6 15 7 16 8 17 9 8 10 7 11 6 12
REMARK SMILES IDX 5 13 4 14 3 15 2 16 1 17
REMARK H PARENT
REMARK Flexibility Score: inf
ROOT
ATOM      1  C   UNL     1      52.484  25.585  36.138  1.00  0.00     0.000 C 
ENDROOT
BRANCH   1   2
ATOM      2  C   UNL     1      53.803  25.143  35.481  1.00  0.00     0.000 C 
BRANCH   2   3
ATOM      3  C   UNL     1      54.086  25.888  34.166  1.00  0.00     0.000 C 
BRANCH   3   4
ATOM      4  C   UNL     1      53.149  27.089  33.944  1.00  0.00     0.000 C 
BRANCH   4   5
ATOM      5  C   UNL     1      53.719  28.457  34.371  1.00  0.00     0.006 C 
BRANCH   5   6
ATOM      6  C   UNL     1      52.813  29.259  35.318  1.00  0.00     0.053 C 
BRANCH   6   7
ATOM      7  C   UNL     1      53.518  29.635  36.583  1.00  0.00     0.041 C 
ATOM      8  O   UNL     1      53.381  30.790  37.069  1.00  0.00    -0.550 OA
ATOM      9  O   UNL     1      54.355  28.720  37.211  1.00  0.00    -0.550 OA
ENDBRANCH   6   7
ENDBRANCH   5   6
ENDBRANCH   4   5
ENDBRANCH   3   4
ENDBRANCH   2   3
ENDBRANCH   1   2
BRANCH   1  10
ATOM     10  C   UNL     1      51.516  24.414  36.381  1.00  0.00     0.000 C 
BRANCH  10  11
ATOM     11  C   UNL     1      50.041  24.837  36.209  1.00  0.00    -0.000 C 
BRANCH  11  12
ATOM     12  C   UNL     1      49.867  26.294  35.748  1.00  0.00    -0.000 C 
BRANCH  12  13
ATOM     13  C   UNL     1      49.076  26.415  34.435  1.00  0.00    -0.000 C 
BRANCH  13  14
ATOM     14  C   UNL     1      49.928  26.102  33.191  1.00  0.00    -0.000 C 
BRANCH  14  15
ATOM     15  C   UNL     1      50.034  24.607  32.825  1.00  0.00    -0.000 C 
BRANCH  15  16
ATOM     16  C   UNL     1      51.408  24.164  32.292  1.00  0.00    -0.003 C 
ATOM     17  C   UNL     1      51.975  22.959  33.040  1.00  0.00     0.004 C 
ENDBRANCH  15  16
ENDBRANCH  14  15
ENDBRANCH  13  14
ENDBRANCH  12  13
ENDBRANCH  11  12
ENDBRANCH  10  11
ENDBRANCH   1  10
TORSDOF 13
ENDMDL
MODEL 2
REMARK VINA RESULT:    -3.899      1.501      2.981
REMARK INTER + INTRA:          -9.039
REMARK INTER:                  -7.396
REMARK INTRA:                  -1.644
REMARK UNBOUND:                -2.177
REMARK SMILES CCCCCCCCCCCCCCC(=O)[O-]
REMARK SMILES IDX 9 1 10 2 11 3 12 4 13 5 14 6 15 7 16 8 17 9 8 10 7 11 6 12
REMARK SMILES IDX 5 13 4 14 3 15 2 16 1 17
REMARK H PARENT
REMARK Flexibility Score: inf
ROOT
ATOM      1  C   UNL     1      49.837  26.884  33.996  1.00  0.00     0.000 C 
ENDROOT
BRANCH   1   2
ATOM      2  C   UNL     1      51.035  26.193  33.322  1.00  0.00     0.000 C 
BRANCH   2   3
ATOM      3  C   UNL     1      52.385  26.692  33.863  1.00  0.00     0.000 C 
BRANCH   3   4
ATOM      4  C   UNL     1      52.233  27.743  34.978  1.00  0.00     0.000 C 
BRANCH   4   5
ATOM      5  C   UNL     1      53.150  28.976  34.850  1.00  0.00     0.006 C 
BRANCH   5   6
ATOM      6  C   UNL     1      52.916  30.060  35.914  1.00  0.00     0.053 C 
BRANCH   6   7
ATOM      7  C   UNL     1      54.018  30.097  36.927  1.00  0.00     0.041 C 
ATOM      8  O   UNL     1      53.963  30.899  37.897  1.00  0.00    -0.550 OA
ATOM      9  O   UNL     1      55.124  29.268  36.782  1.00  0.00    -0.550 OA
ENDBRANCH   6   7
ENDBRANCH   5   6
ENDBRANCH   4   5
ENDBRANCH   3   4
ENDBRANCH   2   3
ENDBRANCH   1   2
BRANCH   1  10
ATOM     10  C   UNL     1      48.739  25.893  34.421  1.00  0.00     0.000 C 
BRANCH  10  11
ATOM     11  C   UNL     1      48.668  24.670  33.482  1.00  0.00    -0.000 C 
BRANCH  11  12
ATOM     12  C   UNL     1      47.916  23.471  34.087  1.00  0.00    -0.000 C 
BRANCH  12  13
ATOM     13  C   UNL     1      48.848  22.487  34.814  1.00  0.00    -0.000 C 
BRANCH  13  14
ATOM     14  C   UNL     1      50.337  22.742  34.520  1.00  0.00    -0.000 C 
BRANCH  14  15
ATOM     15  C   UNL     1      51.260  22.763  35.756  1.00  0.00    -0.000 C 
BRANCH  15  16
ATOM     16  C   UNL     1      51.422  24.139  36.425  1.00  0.00    -0.003 C 
ATOM     17  C   UNL     1      52.878  24.481  36.734  1.00  0.00     0.004 C 
ENDBRANCH  15  16
ENDBRANCH  14  15
ENDBRANCH  13  14
ENDBRANCH  12  13
ENDBRANCH  11  12
ENDBRANCH  10  11
ENDBRANCH   1  10
TORSDOF 13
ENDMDL
MODEL 3
REMARK VINA RESULT:    -3.879      1.259      2.969
REMARK INTER + INTRA:          -9.004
REMARK INTER:                  -7.047
REMARK INTRA:                  -1.957
REMARK UNBOUND:                -2.177
REMARK SMILES CCCCCCCCCCCCCCC(=O)[O-]
REMARK SMILES IDX 9 1 10 2 11 3 12 4 13 5 14 6 15 7 16 8 17 9 8 10 7 11 6 12
REMARK SMILES IDX 5 13 4 14 3 15 2 16 1 17
REMARK H PARENT
REMARK Flexibility Score: inf
ROOT
ATOM      1  C   UNL     1      53.743  26.281  35.353  1.00  0.00     0.000 C 
ENDROOT
BRANCH   1   2
ATOM      2  C   UNL     1      53.831  27.141  34.081  1.00  0.00     0.000 C 
BRANCH   2   3
ATOM      3  C   UNL     1      53.496  28.619  34.343  1.00  0.00     0.000 C 
BRANCH   3   4
ATOM      4  C   UNL     1      52.527  28.814  35.523  1.00  0.00     0.000 C 
BRANCH   4   5
ATOM      5  C   UNL     1      52.976  29.843  36.581  1.00  0.00     0.006 C 
BRANCH   5   6
ATOM      6  C   UNL     1      54.486  29.849  36.866  1.00  0.00     0.053 C 
BRANCH   6   7
ATOM      7  C   UNL     1      54.869  30.929  37.829  1.00  0.00     0.041 C 
ATOM      8  O   UNL     1      54.879  30.700  39.069  1.00  0.00    -0.550 OA
ATOM      9  O   UNL     1      55.185  32.198  37.361  1.00  0.00    -0.550 OA
ENDBRANCH   6   7
ENDBRANCH   5   6
ENDBRANCH   4   5
ENDBRANCH   3   4
ENDBRANCH   2   3
ENDBRANCH   1   2
BRANCH   1  10
ATOM     10  C   UNL     1      53.239  24.854  35.075  1.00  0.00     0.000 C 
BRANCH  10  11
ATOM     11  C   UNL     1      53.153  24.555  33.563  1.00  0.00    -0.000 C 
BRANCH  11  12
ATOM     12  C   UNL     1      51.760  24.093  33.103  1.00  0.00    -0.000 C 
BRANCH  12  13
ATOM     13  C   UNL     1      50.904  25.241  32.543  1.00  0.00    -0.000 C 
BRANCH  13  14
ATOM     14  C   UNL     1      49.646  25.519  33.386  1.00  0.00    -0.000 C 
BRANCH  14  15
ATOM     15  C   UNL     1      49.749  26.720  34.348  1.00  0.00    -0.000 C 
BRANCH  15  16
ATOM     16  C   UNL     1      49.792  26.357  35.843  1.00  0.00    -0.003 C 
ATOM     17  C   UNL     1      49.758  24.850  36.089  1.00  0.00     0.004 C 
ENDBRANCH  15  16
ENDBRANCH  14  15
ENDBRANCH  13  14
ENDBRANCH  12  13
ENDBRANCH  11  12
ENDBRANCH  10  11
ENDBRANCH   1  10
TORSDOF 13
ENDMDL
MODEL 4
REMARK VINA RESULT:    -3.875      1.488      2.195
REMARK INTER + INTRA:          -8.997
REMARK INTER:                  -7.084
REMARK INTRA:                  -1.913
REMARK UNBOUND:                -2.177
REMARK SMILES CCCCCCCCCCCCCCC(=O)[O-]
REMARK SMILES IDX 9 1 10 2 11 3 12 4 13 5 14 6 15 7 16 8 17 9 8 10 7 11 6 12
REMARK SMILES IDX 5 13 4 14 3 15 2 16 1 17
REMARK H PARENT
REMARK Flexibility Score: inf
ROOT
ATOM      1  C   UNL     1      53.811  25.661  33.899  1.00  0.00     0.000 C 
ENDROOT
BRANCH   1   2
ATOM      2  C   UNL     1      54.178  26.813  34.849  1.00  0.00     0.000 C 
BRANCH   2   3
ATOM      3  C   UNL     1      54.194  28.179  34.142  1.00  0.00     0.000 C 
BRANCH   3   4
ATOM      4  C   UNL     1      53.031  29.091  34.574  1.00  0.00     0.000 C 
BRANCH   4   5
ATOM      5  C   UNL     1      52.780  29.162  36.095  1.00  0.00     0.006 C 
BRANCH   5   6
ATOM      6  C   UNL     1      53.311  30.436  36.771  1.00  0.00     0.053 C 
BRANCH   6   7
ATOM      7  C   UNL     1      54.533  30.166  37.592  1.00  0.00     0.041 C 
ATOM      8  O   UNL     1      55.568  29.689  37.053  1.00  0.00    -0.550 OA
ATOM      9  O   UNL     1      54.520  30.409  38.960  1.00  0.00    -0.550 OA
ENDBRANCH   6   7
ENDBRANCH   5   6
ENDBRANCH   4   5
ENDBRANCH   3   4
ENDBRANCH   2   3
ENDBRANCH   1   2
BRANCH   1  10
ATOM     10  C   UNL     1      52.375  25.150  34.108  1.00  0.00     0.000 C 
BRANCH  10  11
ATOM     11  C   UNL     1      51.794  25.595  35.468  1.00  0.00    -0.000 C 
BRANCH  11  12
ATOM     12  C   UNL     1      50.450  26.336  35.352  1.00  0.00    -0.000 C 
BRANCH  12  13
ATOM     13  C   UNL     1      50.137  26.783  33.914  1.00  0.00    -0.000 C 
BRANCH  13  14
ATOM     14  C   UNL     1      49.026  25.945  33.254  1.00  0.00    -0.000 C 
BRANCH  14  15
ATOM     15  C   UNL     1      48.332  24.925  34.180  1.00  0.00    -0.000 C 
BRANCH  15  16
ATOM     16  C   UNL     1      48.593  23.448  33.834  1.00  0.00    -0.003 C 
ATOM     17  C   UNL     1      49.347  22.704  34.934  1.00  0.00     0.004 C 
ENDBRANCH  15  16
ENDBRANCH  14  15
ENDBRANCH  13  14
ENDBRANCH  12  13
ENDBRANCH  11  12
ENDBRANCH  10  11
ENDBRANCH   1  10
TORSDOF 13
ENDMDL
MODEL 5
REMARK VINA RESULT:    -3.864      1.235      2.358
REMARK INTER + INTRA:          -8.977
REMARK INTER:                  -7.258
REMARK INTRA:                  -1.719
REMARK UNBOUND:                -2.177
REMARK SMILES CCCCCCCCCCCCCCC(=O)[O-]
REMARK SMILES IDX 9 1 10 2 11 3 12 4 13 5 14 6 15 7 16 8 17 9 8 10 7 11 6 12
REMARK SMILES IDX 5 13 4 14 3 15 2 16 1 17
REMARK H PARENT
REMARK Flexibility Score: inf
ROOT
ATOM      1  C   UNL     1      53.130  26.276  35.218  1.00  0.00     0.000 C 
ENDROOT
BRANCH   1   2
ATOM      2  C   UNL     1      53.825  26.975  34.038  1.00  0.00     0.000 C 
BRANCH   2   3
ATOM      3  C   UNL     1      53.829  28.506  34.177  1.00  0.00     0.000 C 
BRANCH   3   4
ATOM      4  C   UNL     1      52.632  29.037  34.988  1.00  0.00     0.000 C 
BRANCH   4   5
ATOM      5  C   UNL     1      52.996  29.915  36.203  1.00  0.00     0.006 C 
BRANCH   5   6
ATOM      6  C   UNL     1      54.422  29.707  36.736  1.00  0.00     0.053 C 
BRANCH   6   7
ATOM      7  C   UNL     1      54.673  30.493  37.985  1.00  0.00     0.041 C 
ATOM      8  O   UNL     1      55.220  31.626  37.923  1.00  0.00    -0.550 OA
ATOM      9  O   UNL     1      54.332  29.960  39.222  1.00  0.00    -0.550 OA
ENDBRANCH   6   7
ENDBRANCH   5   6
ENDBRANCH   4   5
ENDBRANCH   3   4
ENDBRANCH   2   3
ENDBRANCH   1   2
BRANCH   1  10
ATOM     10  C   UNL     1      53.503  24.787  35.333  1.00  0.00     0.000 C 
BRANCH  10  11
ATOM     11  C   UNL     1      52.274  23.905  35.646  1.00  0.00    -0.000 C 
BRANCH  11  12
ATOM     12  C   UNL     1      51.247  24.584  36.569  1.00  0.00    -0.000 C 
BRANCH  12  13
ATOM     13  C   UNL     1      49.852  24.692  35.931  1.00  0.00    -0.000 C 
BRANCH  13  14
ATOM     14  C   UNL     1      49.399  26.149  35.721  1.00  0.00    -0.000 C 
BRANCH  14  15
ATOM     15  C   UNL     1      49.669  26.727  34.317  1.00  0.00    -0.000 C 
BRANCH  15  16
ATOM     16  C   UNL     1      49.492  25.732  33.157  1.00  0.00    -0.003 C 
ATOM     17  C   UNL     1      50.820  25.280  32.553  1.00  0.00     0.004 C 
ENDBRANCH  15  16
ENDBRANCH  14  15
ENDBRANCH  13  14
ENDBRANCH  12  13
ENDBRANCH  11  12
ENDBRANCH  10  11
ENDBRANCH   1  10
TORSDOF 13
ENDMDL
MODEL 6
REMARK VINA RESULT:    -3.842      2.920      6.012
REMARK INTER + INTRA:          -8.939
REMARK INTER:                  -7.057
REMARK INTRA:                  -1.881
REMARK UNBOUND:                -2.177
REMARK SMILES CCCCCCCCCCCCCCC(=O)[O-]
REMARK SMILES IDX 9 1 10 2 11 3 12 4 13 5 14 6 15 7 16 8 17 9 8 10 7 11 6 12
REMARK SMILES IDX 5 13 4 14 3 15 2 16 1 17
REMARK H PARENT
REMARK Flexibility Score: inf
ROOT
ATOM      1  C   UNL     1      53.515  26.212  34.012  1.00  0.00     0.000 C 
ENDROOT
BRANCH   1   2
ATOM      2  C   UNL     1      53.125  24.991  34.862  1.00  0.00     0.000 C 
BRANCH   2   3
ATOM      3  C   UNL     1      52.311  25.376  36.109  1.00  0.00     0.000 C 
BRANCH   3   4
ATOM      4  C   UNL     1      50.798  25.158  35.928  1.00  0.00     0.000 C 
BRANCH   4   5
ATOM      5  C   UNL     1      49.979  26.432  35.636  1.00  0.00     0.006 C 
BRANCH   5   6
ATOM      6  C   UNL     1      49.846  26.777  34.144  1.00  0.00     0.053 C 
BRANCH   6   7
ATOM      7  C   UNL     1      49.567  25.564  33.312  1.00  0.00     0.041 C 
ATOM      8  O   UNL     1      48.439  25.004  33.363  1.00  0.00    -0.550 OA
ATOM      9  O   UNL     1      50.564  25.031  32.504  1.00  0.00    -0.550 OA
ENDBRANCH   6   7
ENDBRANCH   5   6
ENDBRANCH   4   5
ENDBRANCH   3   4
ENDBRANCH   2   3
ENDBRANCH   1   2
BRANCH   1  10
ATOM     10  C   UNL     1      54.023  27.391  34.859  1.00  0.00     0.000 C 
BRANCH  10  11
ATOM     11  C   UNL     1      53.241  28.691  34.571  1.00  0.00    -0.000 C 
BRANCH  11  12
ATOM     12  C   UNL     1      52.484  29.239  35.793  1.00  0.00    -0.000 C 
BRANCH  12  13
ATOM     13  C   UNL     1      53.133  30.503  36.381  1.00  0.00    -0.000 C 
BRANCH  13  14
ATOM     14  C   UNL     1      53.496  30.354  37.870  1.00  0.00    -0.000 C 
BRANCH  14  15
ATOM     15  C   UNL     1      54.869  29.713  38.154  1.00  0.00    -0.000 C 
BRANCH  15  16
ATOM     16  C   UNL     1      56.034  30.271  37.317  1.00  0.00    -0.003 C 
ATOM     17  C   UNL     1      56.796  29.185  36.561  1.00  0.00     0.004 C 
ENDBRANCH  15  16
ENDBRANCH  14  15
ENDBRANCH  13  14
ENDBRANCH  12  13
ENDBRANCH  11  12
ENDBRANCH  10  11
ENDBRANCH   1  10
TORSDOF 13
ENDMDL
MODEL 7
REMARK VINA RESULT:    -3.799      1.074      1.758
REMARK INTER + INTRA:          -8.864
REMARK INTER:                  -6.727
REMARK INTRA:                  -2.136
REMARK UNBOUND:                -2.177
REMARK SMILES CCCCCCCCCCCCCCC(=O)[O-]
REMARK SMILES IDX 9 1 10 2 11 3 12 4 13 5 14 6 15 7 16 8 17 9 8 10 7 11 6 12
REMARK SMILES IDX 5 13 4 14 3 15 2 16 1 17
REMARK H PARENT
REMARK Flexibility Score: inf
ROOT
ATOM      1  C   UNL     1      51.666  25.971  35.993  1.00  0.00     0.000 C 
ENDROOT
BRANCH   1   2
ATOM      2  C   UNL     1      53.005  26.182  35.266  1.00  0.00     0.000 C 
BRANCH   2   3
ATOM      3  C   UNL     1      52.895  27.188  34.108  1.00  0.00     0.000 C 
BRANCH   3   4
ATOM      4  C   UNL     1      53.692  28.482  34.361  1.00  0.00     0.000 C 
BRANCH   4   5
ATOM      5  C   UNL     1      52.896  29.627  35.020  1.00  0.00     0.006 C 
BRANCH   5   6
ATOM      6  C   UNL     1      52.916  29.616  36.556  1.00  0.00     0.053 C 
BRANCH   6   7
ATOM      7  C   UNL     1      54.308  29.510  37.097  1.00  0.00     0.041 C 
ATOM      8  O   UNL     1      55.080  30.505  37.063  1.00  0.00    -0.550 OA
ATOM      9  O   UNL     1      54.765  28.302  37.609  1.00  0.00    -0.550 OA
ENDBRANCH   6   7
ENDBRANCH   5   6
ENDBRANCH   4   5
ENDBRANCH   3   4
ENDBRANCH   2   3
ENDBRANCH   1   2
BRANCH   1  10
ATOM     10  C   UNL     1      50.525  26.817  35.400  1.00  0.00     0.000 C 
BRANCH  10  11
ATOM     11  C   UNL     1      49.171  26.077  35.448  1.00  0.00    -0.000 C 
BRANCH  11  12
ATOM     12  C   UNL     1      48.786  25.408  34.117  1.00  0.00    -0.000 C 
BRANCH  12  13
ATOM     13  C   UNL     1      49.702  25.822  32.954  1.00  0.00    -0.000 C 
BRANCH  13  14
ATOM     14  C   UNL     1      50.685  24.711  32.540  1.00  0.00    -0.000 C 
BRANCH  14  15
ATOM     15  C   UNL     1      50.395  23.318  33.135  1.00  0.00    -0.000 C 
BRANCH  15  16
ATOM     16  C   UNL     1      51.432  22.815  34.155  1.00  0.00    -0.003 C 
ATOM     17  C   UNL     1      50.806  22.395  35.483  1.00  0.00     0.004 C 
ENDBRANCH  15  16
ENDBRANCH  14  15
ENDBRANCH  13  14
ENDBRANCH  12  13
ENDBRANCH  11  12
ENDBRANCH  10  11
ENDBRANCH   1  10
TORSDOF 13
ENDMDL
MODEL 8
REMARK VINA RESULT:    -3.735      1.961      3.904
REMARK INTER + INTRA:          -8.750
REMARK INTER:                  -7.326
REMARK INTRA:                  -1.424
REMARK UNBOUND:                -2.177
REMARK SMILES CCCCCCCCCCCCCCC(=O)[O-]
REMARK SMILES IDX 9 1 10 2 11 3 12 4 13 5 14 6 15 7 16 8 17 9 8 10 7 11 6 12
REMARK SMILES IDX 5 13 4 14 3 15 2 16 1 17
REMARK H PARENT
REMARK Flexibility Score: inf
ROOT
ATOM      1  C   UNL     1      53.294  27.867  35.451  1.00  0.00     0.000 C 
ENDROOT
BRANCH   1   2
ATOM      2  C   UNL     1      52.388  29.087  35.685  1.00  0.00     0.000 C 
BRANCH   2   3
ATOM      3  C   UNL     1      53.158  30.297  36.240  1.00  0.00     0.000 C 
BRANCH   3   4
ATOM      4  C   UNL     1      53.187  30.333  37.779  1.00  0.00     0.000 C 
BRANCH   4   5
ATOM      5  C   UNL     1      54.593  30.400  38.409  1.00  0.00     0.006 C 
BRANCH   5   6
ATOM      6  C   UNL     1      55.733  30.627  37.404  1.00  0.00     0.053 C 
BRANCH   6   7
ATOM      7  C   UNL     1      56.304  32.007  37.509  1.00  0.00     0.041 C 
ATOM      8  O   UNL     1      55.563  33.015  37.357  1.00  0.00    -0.550 OA
ATOM      9  O   UNL     1      57.663  32.182  37.742  1.00  0.00    -0.550 OA
ENDBRANCH   6   7
ENDBRANCH   5   6
ENDBRANCH   4   5
ENDBRANCH   3   4
ENDBRANCH   2   3
ENDBRANCH   1   2
BRANCH   1  10
ATOM     10  C   UNL     1      53.015  27.164  34.111  1.00  0.00     0.000 C 
BRANCH  10  11
ATOM     11  C   UNL     1      53.051  25.626  34.245  1.00  0.00    -0.000 C 
BRANCH  11  12
ATOM     12  C   UNL     1      53.082  25.134  35.703  1.00  0.00    -0.000 C 
BRANCH  12  13
ATOM     13  C   UNL     1      51.797  24.395  36.112  1.00  0.00    -0.000 C 
BRANCH  13  14
ATOM     14  C   UNL     1      50.572  25.324  36.198  1.00  0.00    -0.000 C 
BRANCH  14  15
ATOM     15  C   UNL     1      49.456  25.042  35.171  1.00  0.00    -0.000 C 
BRANCH  15  16
ATOM     16  C   UNL     1      48.977  26.270  34.376  1.00  0.00    -0.003 C 
ATOM     17  C   UNL     1      49.501  26.292  32.942  1.00  0.00     0.004 C 
ENDBRANCH  15  16
ENDBRANCH  14  15
ENDBRANCH  13  14
ENDBRANCH  12  13
ENDBRANCH  11  12
ENDBRANCH  10  11
ENDBRANCH   1  10
TORSDOF 13
ENDMDL
MODEL 9
REMARK VINA RESULT:    -3.731      3.070      5.873
REMARK INTER + INTRA:          -8.743
REMARK INTER:                  -6.685
REMARK INTRA:                  -2.058
REMARK UNBOUND:                -2.177
REMARK SMILES CCCCCCCCCCCCCCC(=O)[O-]
REMARK SMILES IDX 9 1 10 2 11 3 12 4 13 5 14 6 15 7 16 8 17 9 8 10 7 11 6 12
REMARK SMILES IDX 5 13 4 14 3 15 2 16 1 17
REMARK H PARENT
REMARK Flexibility Score: inf
ROOT
ATOM      1  C   UNL     1      52.796  29.810  35.067  1.00  0.00     0.000 C 
ENDROOT
BRANCH   1   2
ATOM      2  C   UNL     1      52.098  28.510  35.501  1.00  0.00     0.000 C 
BRANCH   2   3
ATOM      3  C   UNL     1      52.207  27.400  34.443  1.00  0.00     0.000 C 
BRANCH   3   4
ATOM      4  C   UNL     1      52.227  25.987  35.056  1.00  0.00     0.000 C 
BRANCH   4   5
ATOM      5  C   UNL     1      51.457  24.913  34.260  1.00  0.00     0.006 C 
BRANCH   5   6
ATOM      6  C   UNL     1      50.449  25.472  33.244  1.00  0.00     0.053 C 
BRANCH   6   7
ATOM      7  C   UNL     1      49.047  25.428  33.766  1.00  0.00     0.041 C 
ATOM      8  O   UNL     1      48.195  24.665  33.237  1.00  0.00    -0.550 OA
ATOM      9  O   UNL     1      48.670  26.256  34.817  1.00  0.00    -0.550 OA
ENDBRANCH   6   7
ENDBRANCH   5   6
ENDBRANCH   4   5
ENDBRANCH   3   4
ENDBRANCH   2   3
ENDBRANCH   1   2
BRANCH   1  10
ATOM     10  C   UNL     1      53.118  30.738  36.252  1.00  0.00     0.000 C 
BRANCH  10  11
ATOM     11  C   UNL     1      53.522  29.946  37.514  1.00  0.00    -0.000 C 
BRANCH  11  12
ATOM     12  C   UNL     1      54.986  29.474  37.504  1.00  0.00    -0.000 C 
BRANCH  12  13
ATOM     13  C   UNL     1      55.122  27.946  37.616  1.00  0.00    -0.000 C 
BRANCH  13  14
ATOM     14  C   UNL     1      55.614  27.290  36.313  1.00  0.00    -0.000 C 
BRANCH  14  15
ATOM     15  C   UNL     1      56.156  28.265  35.248  1.00  0.00    -0.000 C 
BRANCH  15  16
ATOM     16  C   UNL     1      55.761  27.932  33.798  1.00  0.00    -0.003 C 
ATOM     17  C   UNL     1      55.757  26.432  33.512  1.00  0.00     0.004 C 
ENDBRANCH  15  16
ENDBRANCH  14  15
ENDBRANCH  13  14
ENDBRANCH  12  13
ENDBRANCH  11  12
ENDBRANCH  10  11
ENDBRANCH   1  10
TORSDOF 13
ENDMDL
