MODEL 1
REMARK VINA RESULT:    -3.929      0.000      0.000
REMARK INTER + INTRA:          -5.669
REMARK INTER:                  -5.307
REMARK INTRA:                  -0.362
REMARK UNBOUND:                -0.362
REMARK SMILES CCCCCCCC(=O)[O-]
REMARK SMILES IDX 5 1 6 2 7 3 8 4 9 5 10 6 4 7 3 8 2 9 1 10
REMARK H PARENT
REMARK Flexibility Score: inf
ROOT
ATOM      1  C   UNL     1       7.657 -15.527  22.783  1.00  0.00     0.000 C 
ENDROOT
BRANCH   1   2
ATOM      2  C   UNL     1       7.057 -16.768  23.457  1.00  0.00     0.006 C 
BRANCH   2   3
ATOM      3  C   UNL     1       6.249 -16.382  24.700  1.00  0.00     0.053 C 
BRANCH   3   4
ATOM      4  C   UNL     1       7.023 -16.690  25.943  1.00  0.00     0.041 C 
ATOM      5  O   UNL     1       7.005 -17.850  26.430  1.00  0.00    -0.550 OA
ATOM      6  O   UNL     1       7.804 -15.705  26.536  1.00  0.00    -0.550 OA
ENDBRANCH   3   4
ENDBRANCH   2   3
ENDBRANCH   1   2
BRANCH   1   7
ATOM      7  C   UNL     1       6.784 -14.289  23.033  1.00  0.00     0.000 C 
BRANCH   7   8
ATOM      8  C   UNL     1       5.861 -13.958  21.847  1.00  0.00    -0.000 C 
BRANCH   8   9
ATOM      9  C   UNL     1       6.337 -14.497  20.486  1.00  0.00    -0.003 C 
ATOM     10  C   UNL     1       6.160 -13.490  19.350  1.00  0.00     0.004 C 
ENDBRANCH   8   9
ENDBRANCH   7   8
ENDBRANCH   1   7
TORSDOF 6
ENDMDL
MODEL 2
REMARK VINA RESULT:    -3.730      1.062      1.859
REMARK INTER + INTRA:          -5.400
REMARK INTER:                  -4.991
REMARK INTRA:                  -0.409
REMARK UNBOUND:                -0.362
REMARK SMILES CCCCCCCC(=O)[O-]
REMARK SMILES IDX 5 1 6 2 7 3 8 4 9 5 10 6 4 7 3 8 2 9 1 10
REMARK H PARENT
REMARK Flexibility Score: inf
ROOT
ATOM      1  C   UNL     1       7.185 -17.035  23.469  1.00  0.00     0.000 C 
ENDROOT
BRANCH   1   2
ATOM      2  C   UNL     1       6.487 -16.558  24.749  1.00  0.00     0.006 C 
BRANCH   2   3
ATOM      3  C   UNL     1       7.188 -17.107  25.996  1.00  0.00     0.053 C 
BRANCH   3   4
ATOM      4  C   UNL     1       8.356 -16.246  26.360  1.00  0.00     0.041 C 
ATOM      5  O   UNL     1       8.246 -14.993  26.358  1.00  0.00    -0.550 OA
ATOM      6  O   UNL     1       9.555 -16.831  26.750  1.00  0.00    -0.550 OA
ENDBRANCH   3   4
ENDBRANCH   2   3
ENDBRANCH   1   2
BRANCH   1   7
ATOM      7  C   UNL     1       7.395 -15.870  22.491  1.00  0.00     0.000 C 
BRANCH   7   8
ATOM      8  C   UNL     1       6.741 -14.561  22.970  1.00  0.00    -0.000 C 
BRANCH   8   9
ATOM      9  C   UNL     1       5.961 -13.793  21.887  1.00  0.00    -0.003 C 
ATOM     10  C   UNL     1       6.153 -14.375  20.488  1.00  0.00     0.004 C 
ENDBRANCH   8   9
ENDBRANCH   7   8
ENDBRANCH   1   7
TORSDOF 6
ENDMDL
MODEL 3
REMARK VINA RESULT:    -3.659      1.658      2.366
REMARK INTER + INTRA:          -5.304
REMARK INTER:                  -4.808
REMARK INTRA:                  -0.496
REMARK UNBOUND:                -0.362
REMARK SMILES CCCCCCCC(=O)[O-]
REMARK SMILES IDX 5 1 6 2 7 3 8 4 9 5 10 6 4 7 3 8 2 9 1 10
REMARK H PARENT
REMARK Flexibility Score: inf
ROOT
ATOM      1  C   UNL     1       7.537 -16.644  22.839  1.00  0.00     0.000 C 
ENDROOT
BRANCH   1   2
ATOM      2  C   UNL     1       6.604 -15.656  23.552  1.00  0.00     0.006 C 
BRANCH   2   3
ATOM      3  C   UNL     1       7.320 -14.333  23.840  1.00  0.00     0.053 C 
BRANCH   3   4
ATOM      4  C   UNL     1       8.458 -14.549  24.786  1.00  0.00     0.041 C 
ATOM      5  O   UNL     1       8.238 -14.936  25.964  1.00  0.00    -0.550 OA
ATOM      6  O   UNL     1       9.766 -14.369  24.353  1.00  0.00    -0.550 OA
ENDBRANCH   3   4
ENDBRANCH   2   3
ENDBRANCH   1   2
BRANCH   1   7
ATOM      7  C   UNL     1       8.108 -16.030  21.553  1.00  0.00     0.000 C 
BRANCH   7   8
ATOM      8  C   UNL     1       7.176 -16.205  20.340  1.00  0.00    -0.000 C 
BRANCH   8   9
ATOM      9  C   UNL     1       6.861 -14.908  19.573  1.00  0.00    -0.003 C 
ATOM     10  C   UNL     1       5.949 -13.961  20.351  1.00  0.00     0.004 C 
ENDBRANCH   8   9
ENDBRANCH   7   8
ENDBRANCH   1   7
TORSDOF 6
ENDMDL
MODEL 4
REMARK VINA RESULT:    -3.584      2.311      4.491
REMARK INTER + INTRA:          -5.204
REMARK INTER:                  -4.682
REMARK INTRA:                  -0.522
REMARK UNBOUND:                -0.362
REMARK SMILES CCCCCCCC(=O)[O-]
REMARK SMILES IDX 5 1 6 2 7 3 8 4 9 5 10 6 4 7 3 8 2 9 1 10
REMARK H PARENT
REMARK Flexibility Score: inf
ROOT
ATOM      1  C   UNL     1       8.344 -14.453  24.711  1.00  0.00     0.000 C 
ENDROOT
BRANCH   1   2
ATOM      2  C   UNL     1       7.309 -14.648  23.594  1.00  0.00     0.006 C 
BRANCH   2   3
ATOM      3  C   UNL     1       6.133 -15.502  24.077  1.00  0.00     0.053 C 
BRANCH   3   4
ATOM      4  C   UNL     1       6.628 -16.756  24.725  1.00  0.00     0.041 C 
ATOM      5  O   UNL     1       7.177 -17.653  24.034  1.00  0.00    -0.550 OA
ATOM      6  O   UNL     1       6.527 -16.912  26.103  1.00  0.00    -0.550 OA
ENDBRANCH   3   4
ENDBRANCH   2   3
ENDBRANCH   1   2
BRANCH   1   7
ATOM      7  C   UNL     1       9.767 -14.697  24.189  1.00  0.00     0.000 C 
BRANCH   7   8
ATOM      8  C   UNL     1      10.467 -15.877  24.887  1.00  0.00    -0.000 C 
BRANCH   8   9
ATOM      9  C   UNL     1       9.931 -16.209  26.292  1.00  0.00    -0.003 C 
ATOM     10  C   UNL     1      10.035 -17.694  26.635  1.00  0.00     0.004 C 
ENDBRANCH   8   9
ENDBRANCH   7   8
ENDBRANCH   1   7
TORSDOF 6
ENDMDL
MODEL 5
REMARK VINA RESULT:    -3.536      1.803      2.845
REMARK INTER + INTRA:          -5.139
REMARK INTER:                  -4.954
REMARK INTRA:                  -0.185
REMARK UNBOUND:                -0.362
REMARK SMILES CCCCCCCC(=O)[O-]
REMARK SMILES IDX 5 1 6 2 7 3 8 4 9 5 10 6 4 7 3 8 2 9 1 10
REMARK H PARENT
REMARK Flexibility Score: inf
ROOT
ATOM      1  C   UNL     1       6.014 -13.977  21.746  1.00  0.00     0.000 C 
ENDROOT
BRANCH   1   2
ATOM      2  C   UNL     1       6.708 -14.981  22.675  1.00  0.00     0.006 C 
BRANCH   2   3
ATOM      3  C   UNL     1       7.398 -14.267  23.841  1.00  0.00     0.053 C 
BRANCH   3   4
ATOM      4  C   UNL     1       8.610 -15.026  24.276  1.00  0.00     0.041 C 
ATOM      5  O   UNL     1       9.725 -14.447  24.361  1.00  0.00    -0.550 OA
ATOM      6  O   UNL     1       8.501 -16.365  24.635  1.00  0.00    -0.550 OA
ENDBRANCH   3   4
ENDBRANCH   2   3
ENDBRANCH   1   2
BRANCH   1   7
ATOM      7  C   UNL     1       6.008 -14.482  20.296  1.00  0.00     0.000 C 
BRANCH   7   8
ATOM      8  C   UNL     1       6.036 -13.340  19.264  1.00  0.00    -0.000 C 
BRANCH   8   9
ATOM      9  C   UNL     1       6.776 -13.668  17.954  1.00  0.00    -0.003 C 
ATOM     10  C   UNL     1       7.722 -14.861  18.086  1.00  0.00     0.004 C 
ENDBRANCH   8   9
ENDBRANCH   7   8
ENDBRANCH   1   7
TORSDOF 6
ENDMDL
MODEL 6
REMARK VINA RESULT:    -3.519      2.645      5.184
REMARK INTER + INTRA:          -5.116
REMARK INTER:                  -4.854
REMARK INTRA:                  -0.261
REMARK UNBOUND:                -0.362
REMARK SMILES CCCCCCCC(=O)[O-]
REMARK SMILES IDX 5 1 6 2 7 3 8 4 9 5 10 6 4 7 3 8 2 9 1 10
REMARK H PARENT
REMARK Flexibility Score: inf
ROOT
ATOM      1  C   UNL     1       6.691 -17.520  23.824  1.00  0.00     0.000 C 
ENDROOT
BRANCH   1   2
ATOM      2  C   UNL     1       6.308 -16.276  24.637  1.00  0.00     0.006 C 
BRANCH   2   3
ATOM      3  C   UNL     1       7.053 -15.037  24.130  1.00  0.00     0.053 C 
BRANCH   3   4
ATOM      4  C   UNL     1       8.261 -14.772  24.972  1.00  0.00     0.041 C 
ATOM      5  O   UNL     1       8.223 -14.967  26.214  1.00  0.00    -0.550 OA
ATOM      6  O   UNL     1       9.445 -14.355  24.375  1.00  0.00    -0.550 OA
ENDBRANCH   3   4
ENDBRANCH   2   3
ENDBRANCH   1   2
BRANCH   1   7
ATOM      7  C   UNL     1       7.474 -18.520  24.687  1.00  0.00     0.000 C 
BRANCH   7   8
ATOM      8  C   UNL     1       7.545 -19.924  24.060  1.00  0.00    -0.000 C 
BRANCH   8   9
ATOM      9  C   UNL     1       7.470 -21.087  25.067  1.00  0.00    -0.003 C 
ATOM     10  C   UNL     1       7.019 -20.644  26.458  1.00  0.00     0.004 C 
ENDBRANCH   8   9
ENDBRANCH   7   8
ENDBRANCH   1   7
TORSDOF 6
ENDMDL
MODEL 7
REMARK VINA RESULT:    -3.515      2.704      5.055
REMARK INTER + INTRA:          -5.111
REMARK INTER:                  -4.755
REMARK INTRA:                  -0.356
REMARK UNBOUND:                -0.362
REMARK SMILES CCCCCCCC(=O)[O-]
REMARK SMILES IDX 5 1 6 2 7 3 8 4 9 5 10 6 4 7 3 8 2 9 1 10
REMARK H PARENT
REMARK Flexibility Score: inf
ROOT
ATOM      1  C   UNL     1       7.538 -17.513  22.897  1.00  0.00     0.000 C 
ENDROOT
BRANCH   1   2
ATOM      2  C   UNL     1       6.717 -17.311  24.177  1.00  0.00     0.006 C 
BRANCH   2   3
ATOM      3  C   UNL     1       6.059 -15.928  24.196  1.00  0.00     0.053 C 
BRANCH   3   4
ATOM      4  C   UNL     1       7.098 -14.853  24.148  1.00  0.00     0.041 C 
ATOM      5  O   UNL     1       7.076 -13.990  23.232  1.00  0.00    -0.550 OA
ATOM      6  O   UNL     1       8.064 -14.775  25.144  1.00  0.00    -0.550 OA
ENDBRANCH   3   4
ENDBRANCH   2   3
ENDBRANCH   1   2
BRANCH   1   7
ATOM      7  C   UNL     1       7.545 -18.989  22.476  1.00  0.00     0.000 C 
BRANCH   7   8
ATOM      8  C   UNL     1       6.782 -19.896  23.459  1.00  0.00    -0.000 C 
BRANCH   8   9
ATOM      9  C   UNL     1       7.665 -20.864  24.266  1.00  0.00    -0.003 C 
ATOM     10  C   UNL     1       7.302 -20.906  25.750  1.00  0.00     0.004 C 
ENDBRANCH   8   9
ENDBRANCH   7   8
ENDBRANCH   1   7
TORSDOF 6
ENDMDL
MODEL 8
REMARK VINA RESULT:    -3.428      3.032      4.433
REMARK INTER + INTRA:          -4.993
REMARK INTER:                  -4.313
REMARK INTRA:                  -0.681
REMARK UNBOUND:                -0.362
REMARK SMILES CCCCCCCC(=O)[O-]
REMARK SMILES IDX 5 1 6 2 7 3 8 4 9 5 10 6 4 7 3 8 2 9 1 10
REMARK H PARENT
REMARK Flexibility Score: inf
ROOT
ATOM      1  C   UNL     1       8.799 -17.184  26.193  1.00  0.00     0.000 C 
ENDROOT
BRANCH   1   2
ATOM      2  C   UNL     1      10.007 -16.241  26.129  1.00  0.00     0.006 C 
BRANCH   2   3
ATOM      3  C   UNL     1      10.635 -16.244  24.731  1.00  0.00     0.053 C 
BRANCH   3   4
ATOM      4  C   UNL     1      10.469 -14.908  24.081  1.00  0.00     0.041 C 
ATOM      5  O   UNL     1       9.399 -14.260  24.224  1.00  0.00    -0.550 OA
ATOM      6  O   UNL     1      11.517 -14.354  23.354  1.00  0.00    -0.550 OA
ENDBRANCH   3   4
ENDBRANCH   2   3
ENDBRANCH   1   2
BRANCH   1   7
ATOM      7  C   UNL     1       7.487 -16.392  26.272  1.00  0.00     0.000 C 
BRANCH   7   8
ATOM      8  C   UNL     1       6.671 -16.453  24.968  1.00  0.00    -0.000 C 
BRANCH   8   9
ATOM      9  C   UNL     1       7.161 -17.494  23.945  1.00  0.00    -0.003 C 
ATOM     10  C   UNL     1       7.562 -16.875  22.607  1.00  0.00     0.004 C 
ENDBRANCH   8   9
ENDBRANCH   7   8
ENDBRANCH   1   7
TORSDOF 6
ENDMDL
MODEL 9
REMARK VINA RESULT:    -3.403      3.047      5.559
REMARK INTER + INTRA:          -4.958
REMARK INTER:                  -4.442
REMARK INTRA:                  -0.516
REMARK UNBOUND:                -0.362
REMARK SMILES CCCCCCCC(=O)[O-]
REMARK SMILES IDX 5 1 6 2 7 3 8 4 9 5 10 6 4 7 3 8 2 9 1 10
REMARK H PARENT
REMARK Flexibility Score: inf
ROOT
ATOM      1  C   UNL     1       6.759 -19.214  23.250  1.00  0.00     0.000 C 
ENDROOT
BRANCH   1   2
ATOM      2  C   UNL     1       7.497 -17.932  22.841  1.00  0.00     0.006 C 
BRANCH   2   3
ATOM      3  C   UNL     1       7.946 -17.139  24.072  1.00  0.00     0.053 C 
BRANCH   3   4
ATOM      4  C   UNL     1       6.778 -16.841  24.958  1.00  0.00     0.041 C 
ATOM      5  O   UNL     1       5.793 -16.196  24.513  1.00  0.00    -0.550 OA
ATOM      6  O   UNL     1       6.756 -17.318  26.263  1.00  0.00    -0.550 OA
ENDBRANCH   3   4
ENDBRANCH   2   3
ENDBRANCH   1   2
BRANCH   1   7
ATOM      7  C   UNL     1       7.586 -20.459  22.899  1.00  0.00     0.000 C 
BRANCH   7   8
ATOM      8  C   UNL     1       8.119 -21.194  24.143  1.00  0.00    -0.000 C 
BRANCH   8   9
ATOM      9  C   UNL     1       7.352 -20.902  25.446  1.00  0.00    -0.003 C 
ATOM     10  C   UNL     1       8.274 -20.595  26.625  1.00  0.00     0.004 C 
ENDBRANCH   8   9
ENDBRANCH   7   8
ENDBRANCH   1   7
TORSDOF 6
ENDMDL
