MODEL 1
REMARK VINA RESULT:    -0.879      0.000      0.000
REMARK INTER + INTRA:          -3.797
REMARK INTER:                  -1.547
REMARK INTRA:                  -2.250
REMARK UNBOUND:                -2.250
REMARK SMILES CCCCCCCCCCCCCCC(=O)[O-]
REMARK SMILES IDX 9 1 10 2 11 3 12 4 13 5 14 6 15 7 16 8 17 9 8 10 7 11 6 12
REMARK SMILES IDX 5 13 4 14 3 15 2 16 1 17
REMARK H PARENT
REMARK Flexibility Score: inf
ROOT
ATOM      1  C   UNL     1      36.982   4.229  39.648  1.00  0.00     0.000 C 
ENDROOT
BRANCH   1   2
ATOM      2  C   UNL     1      36.398   2.811  39.643  1.00  0.00     0.000 C 
BRANCH   2   3
ATOM      3  C   UNL     1      36.269   2.262  41.068  1.00  0.00     0.000 C 
BRANCH   3   4
ATOM      4  C   UNL     1      37.093   0.977  41.238  1.00  0.00     0.000 C 
BRANCH   4   5
ATOM      5  C   UNL     1      38.362   1.194  42.076  1.00  0.00     0.006 C 
BRANCH   5   6
ATOM      6  C   UNL     1      39.646   0.880  41.297  1.00  0.00     0.053 C 
BRANCH   6   7
ATOM      7  C   UNL     1      40.004   2.023  40.399  1.00  0.00     0.041 C 
ATOM      8  O   UNL     1      39.796   1.943  39.160  1.00  0.00    -0.550 OA
ATOM      9  O   UNL     1      40.516   3.196  40.937  1.00  0.00    -0.550 OA
ENDBRANCH   6   7
ENDBRANCH   5   6
ENDBRANCH   4   5
ENDBRANCH   3   4
ENDBRANCH   2   3
ENDBRANCH   1   2
BRANCH   1  10
ATOM     10  C   UNL     1      37.328   4.676  41.077  1.00  0.00     0.000 C 
BRANCH  10  11
ATOM     11  C   UNL     1      36.709   6.037  41.435  1.00  0.00    -0.000 C 
BRANCH  11  12
ATOM     12  C   UNL     1      35.760   6.560  40.344  1.00  0.00    -0.000 C 
BRANCH  12  13
ATOM     13  C   UNL     1      34.554   7.315  40.925  1.00  0.00    -0.000 C 
BRANCH  13  14
ATOM     14  C   UNL     1      33.230   6.558  40.724  1.00  0.00    -0.000 C 
BRANCH  14  15
ATOM     15  C   UNL     1      33.395   5.285  39.876  1.00  0.00    -0.000 C 
BRANCH  15  16
ATOM     16  C   UNL     1      32.986   3.993  40.615  1.00  0.00    -0.003 C 
ATOM     17  C   UNL     1      33.231   4.081  42.121  1.00  0.00     0.004 C 
ENDBRANCH  15  16
ENDBRANCH  14  15
ENDBRANCH  13  14
ENDBRANCH  12  13
ENDBRANCH  11  12
ENDBRANCH  10  11
ENDBRANCH   1  10
TORSDOF 13
ENDMDL
MODEL 2
REMARK VINA RESULT:    -0.871      2.973      4.625
REMARK INTER + INTRA:          -3.784
REMARK INTER:                  -1.232
REMARK INTRA:                  -2.552
REMARK UNBOUND:                -2.250
REMARK SMILES CCCCCCCCCCCCCCC(=O)[O-]
REMARK SMILES IDX 9 1 10 2 11 3 12 4 13 5 14 6 15 7 16 8 17 9 8 10 7 11 6 12
REMARK SMILES IDX 5 13 4 14 3 15 2 16 1 17
REMARK H PARENT
REMARK Flexibility Score: inf
ROOT
ATOM      1  C   UNL     1      39.518   3.739  38.268  1.00  0.00     0.000 C 
ENDROOT
BRANCH   1   2
ATOM      2  C   UNL     1      40.006   2.384  37.740  1.00  0.00     0.000 C 
BRANCH   2   3
ATOM      3  C   UNL     1      41.133   1.824  38.614  1.00  0.00     0.000 C 
BRANCH   3   4
ATOM      4  C   UNL     1      40.736   1.836  40.098  1.00  0.00     0.000 C 
BRANCH   4   5
ATOM      5  C   UNL     1      41.843   2.399  41.003  1.00  0.00     0.006 C 
BRANCH   5   6
ATOM      6  C   UNL     1      42.727   3.427  40.285  1.00  0.00     0.053 C 
BRANCH   6   7
ATOM      7  C   UNL     1      42.359   4.816  40.707  1.00  0.00     0.041 C 
ATOM      8  O   UNL     1      42.002   5.664  39.848  1.00  0.00    -0.550 OA
ATOM      9  O   UNL     1      42.359   5.156  42.053  1.00  0.00    -0.550 OA
ENDBRANCH   6   7
ENDBRANCH   5   6
ENDBRANCH   4   5
ENDBRANCH   3   4
ENDBRANCH   2   3
ENDBRANCH   1   2
BRANCH   1  10
ATOM     10  C   UNL     1      37.996   3.876  38.108  1.00  0.00     0.000 C 
BRANCH  10  11
ATOM     11  C   UNL     1      37.253   2.560  38.392  1.00  0.00    -0.000 C 
BRANCH  11  12
ATOM     12  C   UNL     1      36.514   2.578  39.741  1.00  0.00    -0.000 C 
BRANCH  12  13
ATOM     13  C   UNL     1      37.107   1.582  40.751  1.00  0.00    -0.000 C 
BRANCH  13  14
ATOM     14  C   UNL     1      37.636   2.274  42.019  1.00  0.00    -0.000 C 
BRANCH  14  15
ATOM     15  C   UNL     1      37.479   3.803  41.975  1.00  0.00    -0.000 C 
BRANCH  15  16
ATOM     16  C   UNL     1      38.821   4.559  41.872  1.00  0.00    -0.003 C 
ATOM     17  C   UNL     1      38.672   5.924  41.201  1.00  0.00     0.004 C 
ENDBRANCH  15  16
ENDBRANCH  14  15
ENDBRANCH  13  14
ENDBRANCH  12  13
ENDBRANCH  11  12
ENDBRANCH  10  11
ENDBRANCH   1  10
TORSDOF 13
ENDMDL
MODEL 3
REMARK VINA RESULT:    -0.859      2.183      4.176
REMARK INTER + INTRA:          -3.762
REMARK INTER:                  -1.208
REMARK INTRA:                  -2.554
REMARK UNBOUND:                -2.250
REMARK SMILES CCCCCCCCCCCCCCC(=O)[O-]
REMARK SMILES IDX 9 1 10 2 11 3 12 4 13 5 14 6 15 7 16 8 17 9 8 10 7 11 6 12
REMARK SMILES IDX 5 13 4 14 3 15 2 16 1 17
REMARK H PARENT
REMARK Flexibility Score: inf
ROOT
ATOM      1  C   UNL     1      35.790   4.458  38.583  1.00  0.00     0.000 C 
ENDROOT
BRANCH   1   2
ATOM      2  C   UNL     1      36.058   2.952  38.474  1.00  0.00     0.000 C 
BRANCH   2   3
ATOM      3  C   UNL     1      37.538   2.674  38.189  1.00  0.00     0.000 C 
BRANCH   3   4
ATOM      4  C   UNL     1      38.322   3.985  38.027  1.00  0.00     0.000 C 
BRANCH   4   5
ATOM      5  C   UNL     1      39.815   3.827  38.353  1.00  0.00     0.006 C 
BRANCH   5   6
ATOM      6  C   UNL     1      40.537   5.174  38.488  1.00  0.00     0.053 C 
BRANCH   6   7
ATOM      7  C   UNL     1      41.448   5.161  39.675  1.00  0.00     0.041 C 
ATOM      8  O   UNL     1      42.140   6.176  39.953  1.00  0.00    -0.550 OA
ATOM      9  O   UNL     1      41.492   4.048  40.505  1.00  0.00    -0.550 OA
ENDBRANCH   6   7
ENDBRANCH   5   6
ENDBRANCH   4   5
ENDBRANCH   3   4
ENDBRANCH   2   3
ENDBRANCH   1   2
BRANCH   1  10
ATOM     10  C   UNL     1      34.943   4.776  39.825  1.00  0.00     0.000 C 
BRANCH  10  11
ATOM     11  C   UNL     1      34.844   3.586  40.792  1.00  0.00    -0.000 C 
BRANCH  11  12
ATOM     12  C   UNL     1      35.663   3.798  42.077  1.00  0.00    -0.000 C 
BRANCH  12  13
ATOM     13  C   UNL     1      36.982   3.009  42.071  1.00  0.00    -0.000 C 
BRANCH  13  14
ATOM     14  C   UNL     1      38.198   3.894  41.745  1.00  0.00    -0.000 C 
BRANCH  14  15
ATOM     15  C   UNL     1      37.982   5.368  42.125  1.00  0.00    -0.000 C 
BRANCH  15  16
ATOM     16  C   UNL     1      38.141   6.341  40.938  1.00  0.00    -0.003 C 
ATOM     17  C   UNL     1      37.147   7.501  40.996  1.00  0.00     0.004 C 
ENDBRANCH  15  16
ENDBRANCH  14  15
ENDBRANCH  13  14
ENDBRANCH  12  13
ENDBRANCH  11  12
ENDBRANCH  10  11
ENDBRANCH   1  10
TORSDOF 13
ENDMDL
MODEL 4
REMARK VINA RESULT:    -0.837      1.739      3.808
REMARK INTER + INTRA:          -3.723
REMARK INTER:                  -1.446
REMARK INTRA:                  -2.277
REMARK UNBOUND:                -2.250
REMARK SMILES CCCCCCCCCCCCCCC(=O)[O-]
REMARK SMILES IDX 9 1 10 2 11 3 12 4 13 5 14 6 15 7 16 8 17 9 8 10 7 11 6 12
REMARK SMILES IDX 5 13 4 14 3 15 2 16 1 17
REMARK H PARENT
REMARK Flexibility Score: inf
ROOT
ATOM      1  C   UNL     1      35.440   4.542  38.500  1.00  0.00     0.000 C 
ENDROOT
BRANCH   1   2
ATOM      2  C   UNL     1      36.948   4.450  38.232  1.00  0.00     0.000 C 
BRANCH   2   3
ATOM      3  C   UNL     1      37.752   5.025  39.403  1.00  0.00     0.000 C 
BRANCH   3   4
ATOM      4  C   UNL     1      38.679   3.960  40.008  1.00  0.00     0.000 C 
BRANCH   4   5
ATOM      5  C   UNL     1      39.948   3.735  39.171  1.00  0.00     0.006 C 
BRANCH   5   6
ATOM      6  C   UNL     1      40.420   2.275  39.194  1.00  0.00     0.053 C 
BRANCH   6   7
ATOM      7  C   UNL     1      40.901   1.903  40.561  1.00  0.00     0.041 C 
ATOM      8  O   UNL     1      41.873   2.515  41.078  1.00  0.00    -0.550 OA
ATOM      9  O   UNL     1      40.244   0.917  41.286  1.00  0.00    -0.550 OA
ENDBRANCH   6   7
ENDBRANCH   5   6
ENDBRANCH   4   5
ENDBRANCH   3   4
ENDBRANCH   2   3
ENDBRANCH   1   2
BRANCH   1  10
ATOM     10  C   UNL     1      35.164   4.926  39.961  1.00  0.00     0.000 C 
BRANCH  10  11
ATOM     11  C   UNL     1      33.941   4.197  40.541  1.00  0.00    -0.000 C 
BRANCH  11  12
ATOM     12  C   UNL     1      34.237   3.533  41.897  1.00  0.00    -0.000 C 
BRANCH  12  13
ATOM     13  C   UNL     1      35.712   3.124  42.043  1.00  0.00    -0.000 C 
BRANCH  13  14
ATOM     14  C   UNL     1      35.895   1.599  42.124  1.00  0.00    -0.000 C 
BRANCH  14  15
ATOM     15  C   UNL     1      36.755   1.040  40.978  1.00  0.00    -0.000 C 
BRANCH  15  16
ATOM     16  C   UNL     1      36.083   1.146  39.594  1.00  0.00    -0.003 C 
ATOM     17  C   UNL     1      37.058   0.875  38.449  1.00  0.00     0.004 C 
ENDBRANCH  15  16
ENDBRANCH  14  15
ENDBRANCH  13  14
ENDBRANCH  12  13
ENDBRANCH  11  12
ENDBRANCH  10  11
ENDBRANCH   1  10
TORSDOF 13
ENDMDL
MODEL 5
REMARK VINA RESULT:    -0.819      2.759      5.075
REMARK INTER + INTRA:          -3.692
REMARK INTER:                  -1.065
REMARK INTRA:                  -2.627
REMARK UNBOUND:                -2.250
REMARK SMILES CCCCCCCCCCCCCCC(=O)[O-]
REMARK SMILES IDX 9 1 10 2 11 3 12 4 13 5 14 6 15 7 16 8 17 9 8 10 7 11 6 12
REMARK SMILES IDX 5 13 4 14 3 15 2 16 1 17
REMARK H PARENT
REMARK Flexibility Score: inf
ROOT
ATOM      1  C   UNL     1      37.110   5.732  39.690  1.00  0.00     0.000 C 
ENDROOT
BRANCH   1   2
ATOM      2  C   UNL     1      38.482   5.883  39.021  1.00  0.00     0.000 C 
BRANCH   2   3
ATOM      3  C   UNL     1      38.684   4.823  37.932  1.00  0.00     0.000 C 
BRANCH   3   4
ATOM      4  C   UNL     1      37.416   3.975  37.749  1.00  0.00     0.000 C 
BRANCH   4   5
ATOM      5  C   UNL     1      37.726   2.482  37.552  1.00  0.00     0.006 C 
BRANCH   5   6
ATOM      6  C   UNL     1      39.140   2.239  37.008  1.00  0.00     0.053 C 
BRANCH   6   7
ATOM      7  C   UNL     1      39.100   2.038  35.525  1.00  0.00     0.041 C 
ATOM      8  O   UNL     1      39.080   0.875  35.043  1.00  0.00    -0.550 OA
ATOM      9  O   UNL     1      39.029   3.136  34.677  1.00  0.00    -0.550 OA
ENDBRANCH   6   7
ENDBRANCH   5   6
ENDBRANCH   4   5
ENDBRANCH   3   4
ENDBRANCH   2   3
ENDBRANCH   1   2
BRANCH   1  10
ATOM     10  C   UNL     1      37.208   5.970  41.204  1.00  0.00     0.000 C 
BRANCH  10  11
ATOM     11  C   UNL     1      36.766   4.747  42.023  1.00  0.00    -0.000 C 
BRANCH  11  12
ATOM     12  C   UNL     1      35.973   3.729  41.185  1.00  0.00    -0.000 C 
BRANCH  12  13
ATOM     13  C   UNL     1      36.603   2.327  41.210  1.00  0.00    -0.000 C 
BRANCH  13  14
ATOM     14  C   UNL     1      37.965   2.305  41.926  1.00  0.00    -0.000 C 
BRANCH  14  15
ATOM     15  C   UNL     1      39.146   2.129  40.956  1.00  0.00    -0.000 C 
BRANCH  15  16
ATOM     16  C   UNL     1      40.161   3.290  41.004  1.00  0.00    -0.003 C 
ATOM     17  C   UNL     1      41.292   3.119  39.990  1.00  0.00     0.004 C 
ENDBRANCH  15  16
ENDBRANCH  14  15
ENDBRANCH  13  14
ENDBRANCH  12  13
ENDBRANCH  11  12
ENDBRANCH  10  11
ENDBRANCH   1  10
TORSDOF 13
ENDMDL
MODEL 6
REMARK VINA RESULT:    -0.818      2.770      4.071
REMARK INTER + INTRA:          -3.689
REMARK INTER:                  -1.487
REMARK INTRA:                  -2.202
REMARK UNBOUND:                -2.250
REMARK SMILES CCCCCCCCCCCCCCC(=O)[O-]
REMARK SMILES IDX 9 1 10 2 11 3 12 4 13 5 14 6 15 7 16 8 17 9 8 10 7 11 6 12
REMARK SMILES IDX 5 13 4 14 3 15 2 16 1 17
REMARK H PARENT
REMARK Flexibility Score: inf
ROOT
ATOM      1  C   UNL     1      39.186   5.689  38.071  1.00  0.00     0.000 C 
ENDROOT
BRANCH   1   2
ATOM      2  C   UNL     1      38.681   4.241  38.110  1.00  0.00     0.000 C 
BRANCH   2   3
ATOM      3  C   UNL     1      39.689   3.324  38.811  1.00  0.00     0.000 C 
BRANCH   3   4
ATOM      4  C   UNL     1      41.088   3.959  38.832  1.00  0.00     0.000 C 
BRANCH   4   5
ATOM      5  C   UNL     1      41.722   3.948  40.232  1.00  0.00     0.006 C 
BRANCH   5   6
ATOM      6  C   UNL     1      41.600   2.585  40.926  1.00  0.00     0.053 C 
BRANCH   6   7
ATOM      7  C   UNL     1      42.895   2.216  41.580  1.00  0.00     0.041 C 
ATOM      8  O   UNL     1      43.672   3.114  41.999  1.00  0.00    -0.550 OA
ATOM      9  O   UNL     1      43.219   0.879  41.776  1.00  0.00    -0.550 OA
ENDBRANCH   6   7
ENDBRANCH   5   6
ENDBRANCH   4   5
ENDBRANCH   3   4
ENDBRANCH   2   3
ENDBRANCH   1   2
BRANCH   1  10
ATOM     10  C   UNL     1      38.434   6.561  39.088  1.00  0.00     0.000 C 
BRANCH  10  11
ATOM     11  C   UNL     1      39.259   6.830  40.357  1.00  0.00    -0.000 C 
BRANCH  11  12
ATOM     12  C   UNL     1      38.667   6.149  41.602  1.00  0.00    -0.000 C 
BRANCH  12  13
ATOM     13  C   UNL     1      37.216   5.688  41.388  1.00  0.00    -0.000 C 
BRANCH  13  14
ATOM     14  C   UNL     1      36.933   4.316  42.023  1.00  0.00    -0.000 C 
BRANCH  14  15
ATOM     15  C   UNL     1      38.189   3.432  42.118  1.00  0.00    -0.000 C 
BRANCH  15  16
ATOM     16  C   UNL     1      37.897   1.926  41.954  1.00  0.00    -0.003 C 
ATOM     17  C   UNL     1      36.609   1.662  41.176  1.00  0.00     0.004 C 
ENDBRANCH  15  16
ENDBRANCH  14  15
ENDBRANCH  13  14
ENDBRANCH  12  13
ENDBRANCH  11  12
ENDBRANCH  10  11
ENDBRANCH   1  10
TORSDOF 13
ENDMDL
MODEL 7
REMARK VINA RESULT:    -0.793      3.109      4.606
REMARK INTER + INTRA:          -3.645
REMARK INTER:                  -1.194
REMARK INTRA:                  -2.451
REMARK UNBOUND:                -2.250
REMARK SMILES CCCCCCCCCCCCCCC(=O)[O-]
REMARK SMILES IDX 9 1 10 2 11 3 12 4 13 5 14 6 15 7 16 8 17 9 8 10 7 11 6 12
REMARK SMILES IDX 5 13 4 14 3 15 2 16 1 17
REMARK H PARENT
REMARK Flexibility Score: inf
ROOT
ATOM      1  C   UNL     1      40.217   4.495  39.961  1.00  0.00     0.000 C 
ENDROOT
BRANCH   1   2
ATOM      2  C   UNL     1      40.220   3.111  39.299  1.00  0.00     0.000 C 
BRANCH   2   3
ATOM      3  C   UNL     1      39.349   3.101  38.038  1.00  0.00     0.000 C 
BRANCH   3   4
ATOM      4  C   UNL     1      38.103   2.225  38.237  1.00  0.00     0.000 C 
BRANCH   4   5
ATOM      5  C   UNL     1      36.801   3.041  38.251  1.00  0.00     0.006 C 
BRANCH   5   6
ATOM      6  C   UNL     1      35.582   2.201  38.655  1.00  0.00     0.053 C 
BRANCH   6   7
ATOM      7  C   UNL     1      34.662   2.023  37.488  1.00  0.00     0.041 C 
ATOM      8  O   UNL     1      33.491   2.485  37.529  1.00  0.00    -0.550 OA
ATOM      9  O   UNL     1      35.115   1.395  36.335  1.00  0.00    -0.550 OA
ENDBRANCH   6   7
ENDBRANCH   5   6
ENDBRANCH   4   5
ENDBRANCH   3   4
ENDBRANCH   2   3
ENDBRANCH   1   2
BRANCH   1  10
ATOM     10  C   UNL     1      39.556   5.539  39.050  1.00  0.00     0.000 C 
BRANCH  10  11
ATOM     11  C   UNL     1      38.398   6.277  39.741  1.00  0.00    -0.000 C 
BRANCH  11  12
ATOM     12  C   UNL     1      38.024   5.651  41.096  1.00  0.00    -0.000 C 
BRANCH  12  13
ATOM     13  C   UNL     1      36.588   5.105  41.116  1.00  0.00    -0.000 C 
BRANCH  13  14
ATOM     14  C   UNL     1      36.442   3.862  42.010  1.00  0.00    -0.000 C 
BRANCH  14  15
ATOM     15  C   UNL     1      37.745   3.053  42.125  1.00  0.00    -0.000 C 
BRANCH  15  16
ATOM     16  C   UNL     1      37.560   1.544  41.858  1.00  0.00    -0.003 C 
ATOM     17  C   UNL     1      36.131   1.075  42.125  1.00  0.00     0.004 C 
ENDBRANCH  15  16
ENDBRANCH  14  15
ENDBRANCH  13  14
ENDBRANCH  12  13
ENDBRANCH  11  12
ENDBRANCH  10  11
ENDBRANCH   1  10
TORSDOF 13
ENDMDL
MODEL 8
REMARK VINA RESULT:     1.222      3.335      5.268
REMARK INTER + INTRA:          -0.099
REMARK INTER:                   2.320
REMARK INTRA:                  -2.418
REMARK UNBOUND:                -2.250
REMARK SMILES CCCCCCCCCCCCCCC(=O)[O-]
REMARK SMILES IDX 9 1 10 2 11 3 12 4 13 5 14 6 15 7 16 8 17 9 8 10 7 11 6 12
REMARK SMILES IDX 5 13 4 14 3 15 2 16 1 17
REMARK H PARENT
REMARK Flexibility Score: inf
ROOT
ATOM      1  C   UNL     1      39.000   3.588  39.895  1.00  0.00     0.000 C 
ENDROOT
BRANCH   1   2
ATOM      2  C   UNL     1      39.139   5.034  40.386  1.00  0.00     0.000 C 
BRANCH   2   3
ATOM      3  C   UNL     1      38.662   6.027  39.320  1.00  0.00     0.000 C 
BRANCH   3   4
ATOM      4  C   UNL     1      37.827   7.152  39.951  1.00  0.00     0.000 C 
BRANCH   4   5
ATOM      5  C   UNL     1      37.588   6.940  41.454  1.00  0.00     0.006 C 
BRANCH   5   6
ATOM      6  C   UNL     1      36.332   7.662  41.960  1.00  0.00     0.053 C 
BRANCH   6   7
ATOM      7  C   UNL     1      36.344   9.095  41.528  1.00  0.00     0.041 C 
ATOM      8  O   UNL     1      35.529   9.501  40.658  1.00  0.00    -0.550 OA
ATOM      9  O   UNL     1      37.219   9.993  42.125  1.00  0.00    -0.550 OA
ENDBRANCH   6   7
ENDBRANCH   5   6
ENDBRANCH   4   5
ENDBRANCH   3   4
ENDBRANCH   2   3
ENDBRANCH   1   2
BRANCH   1  10
ATOM     10  C   UNL     1      38.624   2.649  41.051  1.00  0.00     0.000 C 
BRANCH  10  11
ATOM     11  C   UNL     1      37.771   3.346  42.123  1.00  0.00    -0.000 C 
BRANCH  11  12
ATOM     12  C   UNL     1      36.311   2.861  42.125  1.00  0.00    -0.000 C 
BRANCH  12  13
ATOM     13  C   UNL     1      35.305   4.023  42.092  1.00  0.00    -0.000 C 
BRANCH  13  14
ATOM     14  C   UNL     1      34.458   4.034  40.808  1.00  0.00    -0.000 C 
BRANCH  14  15
ATOM     15  C   UNL     1      35.159   4.744  39.637  1.00  0.00    -0.000 C 
BRANCH  15  16
ATOM     16  C   UNL     1      35.570   3.792  38.494  1.00  0.00    -0.003 C 
ATOM     17  C   UNL     1      35.939   4.541  37.214  1.00  0.00     0.004 C 
ENDBRANCH  15  16
ENDBRANCH  14  15
ENDBRANCH  13  14
ENDBRANCH  12  13
ENDBRANCH  11  12
ENDBRANCH  10  11
ENDBRANCH   1  10
TORSDOF 13
ENDMDL
