MODEL 1
REMARK VINA RESULT:    -3.271      0.000      0.000
REMARK INTER + INTRA:          -5.864
REMARK INTER:                  -4.991
REMARK INTRA:                  -0.872
REMARK UNBOUND:                -0.872
REMARK SMILES CCCCCCCCCCC(=O)[O-]
REMARK SMILES IDX 7 1 8 2 9 3 10 4 11 5 12 6 13 7 6 8 5 9 4 10 3 11 2 12 1 13
REMARK H PARENT
REMARK Flexibility Score: inf
ROOT
ATOM      1  C   UNL     1      11.876  42.726  19.668  1.00  0.00     0.000 C 
ENDROOT
BRANCH   1   2
ATOM      2  C   UNL     1      11.916  41.374  18.927  1.00  0.00     0.000 C 
BRANCH   2   3
ATOM      3  C   UNL     1      12.226  40.157  19.817  1.00  0.00     0.006 C 
BRANCH   3   4
ATOM      4  C   UNL     1      13.611  40.238  20.472  1.00  0.00     0.053 C 
BRANCH   4   5
ATOM      5  C   UNL     1      13.483  40.553  21.928  1.00  0.00     0.041 C 
ATOM      6  O   UNL     1      14.507  40.813  22.614  1.00  0.00    -0.550 OA
ATOM      7  O   UNL     1      12.227  40.610  22.519  1.00  0.00    -0.550 OA
ENDBRANCH   4   5
ENDBRANCH   3   4
ENDBRANCH   2   3
ENDBRANCH   1   2
BRANCH   1   8
ATOM      8  C   UNL     1      12.196  43.960  18.800  1.00  0.00     0.000 C 
BRANCH   8   9
ATOM      9  C   UNL     1      13.418  43.812  17.875  1.00  0.00    -0.000 C 
BRANCH   9  10
ATOM     10  C   UNL     1      14.347  45.037  17.913  1.00  0.00    -0.000 C 
BRANCH  10  11
ATOM     11  C   UNL     1      15.556  44.844  18.848  1.00  0.00    -0.000 C 
BRANCH  11  12
ATOM     12  C   UNL     1      15.568  43.517  19.629  1.00  0.00    -0.003 C 
ATOM     13  C   UNL     1      15.231  43.689  21.110  1.00  0.00     0.004 C 
ENDBRANCH  11  12
ENDBRANCH  10  11
ENDBRANCH   9  10
ENDBRANCH   8   9
ENDBRANCH   1   8
TORSDOF 9
ENDMDL
MODEL 2
REMARK VINA RESULT:    -2.648      1.972      4.545
REMARK INTER + INTRA:          -4.914
REMARK INTER:                  -4.146
REMARK INTRA:                  -0.767
REMARK UNBOUND:                -0.872
REMARK SMILES CCCCCCCCCCC(=O)[O-]
REMARK SMILES IDX 7 1 8 2 9 3 10 4 11 5 12 6 13 7 6 8 5 9 4 10 3 11 2 12 1 13
REMARK H PARENT
REMARK Flexibility Score: inf
ROOT
ATOM      1  C   UNL     1      12.294  43.170  18.427  1.00  0.00     0.000 C 
ENDROOT
BRANCH   1   2
ATOM      2  C   UNL     1      12.829  44.606  18.600  1.00  0.00     0.000 C 
BRANCH   2   3
ATOM      3  C   UNL     1      14.168  44.888  17.895  1.00  0.00     0.006 C 
BRANCH   3   4
ATOM      4  C   UNL     1      15.264  45.348  18.863  1.00  0.00     0.053 C 
BRANCH   4   5
ATOM      5  C   UNL     1      15.905  44.170  19.526  1.00  0.00     0.041 C 
ATOM      6  O   UNL     1      15.559  43.830  20.688  1.00  0.00    -0.550 OA
ATOM      7  O   UNL     1      16.849  43.415  18.840  1.00  0.00    -0.550 OA
ENDBRANCH   4   5
ENDBRANCH   3   4
ENDBRANCH   2   3
ENDBRANCH   1   2
BRANCH   1   8
ATOM      8  C   UNL     1      13.360  42.106  18.098  1.00  0.00     0.000 C 
BRANCH   8   9
ATOM      9  C   UNL     1      12.931  40.649  18.345  1.00  0.00    -0.000 C 
BRANCH   9  10
ATOM     10  C   UNL     1      11.882  40.516  19.462  1.00  0.00    -0.000 C 
BRANCH  10  11
ATOM     11  C   UNL     1      12.437  39.833  20.726  1.00  0.00    -0.000 C 
BRANCH  11  12
ATOM     12  C   UNL     1      12.875  40.794  21.847  1.00  0.00    -0.003 C 
ATOM     13  C   UNL     1      14.386  40.801  22.074  1.00  0.00     0.004 C 
ENDBRANCH  11  12
ENDBRANCH  10  11
ENDBRANCH   9  10
ENDBRANCH   8   9
ENDBRANCH   1   8
TORSDOF 9
ENDMDL
MODEL 3
REMARK VINA RESULT:    -1.976      1.454      3.119
REMARK INTER + INTRA:          -3.888
REMARK INTER:                  -3.996
REMARK INTRA:                   0.107
REMARK UNBOUND:                -0.872
REMARK SMILES CCCCCCCCCCC(=O)[O-]
REMARK SMILES IDX 7 1 8 2 9 3 10 4 11 5 12 6 13 7 6 8 5 9 4 10 3 11 2 12 1 13
REMARK H PARENT
REMARK Flexibility Score: inf
ROOT
ATOM      1  C   UNL     1      15.696  43.746  20.469  1.00  0.00     0.000 C 
ENDROOT
BRANCH   1   2
ATOM      2  C   UNL     1      15.071  42.724  21.441  1.00  0.00     0.000 C 
BRANCH   2   3
ATOM      3  C   UNL     1      13.919  41.891  20.854  1.00  0.00     0.006 C 
BRANCH   3   4
ATOM      4  C   UNL     1      13.345  40.881  21.856  1.00  0.00     0.053 C 
BRANCH   4   5
ATOM      5  C   UNL     1      12.446  39.909  21.161  1.00  0.00     0.041 C 
ATOM      6  O   UNL     1      11.876  38.994  21.813  1.00  0.00    -0.550 OA
ATOM      7  O   UNL     1      12.196  40.042  19.801  1.00  0.00    -0.550 OA
ENDBRANCH   4   5
ENDBRANCH   3   4
ENDBRANCH   2   3
ENDBRANCH   1   2
BRANCH   1   8
ATOM      8  C   UNL     1      15.539  43.409  18.972  1.00  0.00     0.000 C 
BRANCH   8   9
ATOM      9  C   UNL     1      15.361  44.622  18.042  1.00  0.00    -0.000 C 
BRANCH   9  10
ATOM     10  C   UNL     1      13.942  45.213  18.095  1.00  0.00    -0.000 C 
BRANCH  10  11
ATOM     11  C   UNL     1      12.935  44.292  18.809  1.00  0.00    -0.000 C 
BRANCH  11  12
ATOM     12  C   UNL     1      11.958  43.550  17.879  1.00  0.00    -0.003 C 
ATOM     13  C   UNL     1      12.164  42.036  17.876  1.00  0.00     0.004 C 
ENDBRANCH  11  12
ENDBRANCH  10  11
ENDBRANCH   9  10
ENDBRANCH   8   9
ENDBRANCH   1   8
TORSDOF 9
ENDMDL
MODEL 4
REMARK VINA RESULT:    -1.889      1.280      2.228
REMARK INTER + INTRA:          -3.755
REMARK INTER:                  -2.968
REMARK INTRA:                  -0.787
REMARK UNBOUND:                -0.872
REMARK SMILES CCCCCCCCCCC(=O)[O-]
REMARK SMILES IDX 7 1 8 2 9 3 10 4 11 5 12 6 13 7 6 8 5 9 4 10 3 11 2 12 1 13
REMARK H PARENT
REMARK Flexibility Score: inf
ROOT
ATOM      1  C   UNL     1      12.981  44.728  18.687  1.00  0.00     0.000 C 
ENDROOT
BRANCH   1   2
ATOM      2  C   UNL     1      12.731  43.281  18.217  1.00  0.00     0.000 C 
BRANCH   2   3
ATOM      3  C   UNL     1      11.875  42.429  19.171  1.00  0.00     0.006 C 
BRANCH   3   4
ATOM      4  C   UNL     1      12.388  40.989  19.304  1.00  0.00     0.053 C 
BRANCH   4   5
ATOM      5  C   UNL     1      12.088  40.451  20.666  1.00  0.00     0.041 C 
ATOM      6  O   UNL     1      12.073  39.208  20.869  1.00  0.00    -0.550 OA
ATOM      7  O   UNL     1      11.875  41.323  21.727  1.00  0.00    -0.550 OA
ENDBRANCH   4   5
ENDBRANCH   3   4
ENDBRANCH   2   3
ENDBRANCH   1   2
BRANCH   1   8
ATOM      8  C   UNL     1      14.361  45.309  18.320  1.00  0.00     0.000 C 
BRANCH   8   9
ATOM      9  C   UNL     1      15.433  44.269  17.949  1.00  0.00    -0.000 C 
BRANCH   9  10
ATOM     10  C   UNL     1      16.287  43.836  19.153  1.00  0.00    -0.000 C 
BRANCH  10  11
ATOM     11  C   UNL     1      15.611  42.747  20.006  1.00  0.00    -0.000 C 
BRANCH  11  12
ATOM     12  C   UNL     1      14.804  43.270  21.209  1.00  0.00    -0.003 C 
ATOM     13  C   UNL     1      15.612  44.197  22.116  1.00  0.00     0.004 C 
ENDBRANCH  11  12
ENDBRANCH  10  11
ENDBRANCH   9  10
ENDBRANCH   8   9
ENDBRANCH   1   8
TORSDOF 9
ENDMDL
MODEL 5
REMARK VINA RESULT:    -1.105     11.280     12.576
REMARK INTER + INTRA:          -2.558
REMARK INTER:                  -2.215
REMARK INTRA:                  -0.343
REMARK UNBOUND:                -0.872
REMARK SMILES CCCCCCCCCCC(=O)[O-]
REMARK SMILES IDX 7 1 8 2 9 3 10 4 11 5 12 6 13 7 6 8 5 9 4 10 3 11 2 12 1 13
REMARK H PARENT
REMARK Flexibility Score: inf
ROOT
ATOM      1  C   UNL     1      23.523  37.117  20.213  1.00  0.00     0.000 C 
ENDROOT
BRANCH   1   2
ATOM      2  C   UNL     1      22.382  37.111  21.250  1.00  0.00     0.000 C 
BRANCH   2   3
ATOM      3  C   UNL     1      22.266  38.394  22.093  1.00  0.00     0.006 C 
BRANCH   3   4
ATOM      4  C   UNL     1      22.494  38.145  23.589  1.00  0.00     0.053 C 
BRANCH   4   5
ATOM      5  C   UNL     1      23.675  38.924  24.074  1.00  0.00     0.041 C 
ATOM      6  O   UNL     1      24.210  38.643  25.179  1.00  0.00    -0.550 OA
ATOM      7  O   UNL     1      24.219  39.928  23.283  1.00  0.00    -0.550 OA
ENDBRANCH   4   5
ENDBRANCH   3   4
ENDBRANCH   2   3
ENDBRANCH   1   2
BRANCH   1   8
ATOM      8  C   UNL     1      23.644  35.836  19.363  1.00  0.00     0.000 C 
BRANCH   8   9
ATOM      9  C   UNL     1      24.258  36.032  17.965  1.00  0.00    -0.000 C 
BRANCH   9  10
ATOM     10  C   UNL     1      25.787  35.861  17.955  1.00  0.00    -0.000 C 
BRANCH  10  11
ATOM     11  C   UNL     1      26.540  37.202  17.876  1.00  0.00    -0.000 C 
BRANCH  11  12
ATOM     12  C   UNL     1      28.075  37.089  17.898  1.00  0.00    -0.003 C 
ATOM     13  C   UNL     1      28.710  37.767  19.111  1.00  0.00     0.004 C 
ENDBRANCH  11  12
ENDBRANCH  10  11
ENDBRANCH   9  10
ENDBRANCH   8   9
ENDBRANCH   1   8
TORSDOF 9
ENDMDL
MODEL 6
REMARK VINA RESULT:    -0.922      1.231      1.594
REMARK INTER + INTRA:          -2.279
REMARK INTER:                  -2.917
REMARK INTRA:                   0.638
REMARK UNBOUND:                -0.872
REMARK SMILES CCCCCCCCCCC(=O)[O-]
REMARK SMILES IDX 7 1 8 2 9 3 10 4 11 5 12 6 13 7 6 8 5 9 4 10 3 11 2 12 1 13
REMARK H PARENT
REMARK Flexibility Score: inf
ROOT
ATOM      1  C   UNL     1      12.260  42.764  20.246  1.00  0.00     0.000 C 
ENDROOT
BRANCH   1   2
ATOM      2  C   UNL     1      11.908  41.556  21.138  1.00  0.00     0.000 C 
BRANCH   2   3
ATOM      3  C   UNL     1      12.447  40.203  20.640  1.00  0.00     0.006 C 
BRANCH   3   4
ATOM      4  C   UNL     1      13.970  40.086  20.770  1.00  0.00     0.053 C 
BRANCH   4   5
ATOM      5  C   UNL     1      14.493  41.107  21.730  1.00  0.00     0.041 C 
ATOM      6  O   UNL     1      14.794  42.261  21.327  1.00  0.00    -0.550 OA
ATOM      7  O   UNL     1      14.600  40.801  23.081  1.00  0.00    -0.550 OA
ENDBRANCH   4   5
ENDBRANCH   3   4
ENDBRANCH   2   3
ENDBRANCH   1   2
BRANCH   1   8
ATOM      8  C   UNL     1      11.955  42.583  18.745  1.00  0.00     0.000 C 
BRANCH   8   9
ATOM      9  C   UNL     1      12.168  43.835  17.876  1.00  0.00    -0.000 C 
BRANCH   9  10
ATOM     10  C   UNL     1      13.053  44.892  18.559  1.00  0.00    -0.000 C 
BRANCH  10  11
ATOM     11  C   UNL     1      14.528  44.812  18.121  1.00  0.00    -0.000 C 
BRANCH  11  12
ATOM     12  C   UNL     1      15.549  44.793  19.273  1.00  0.00    -0.003 C 
ATOM     13  C   UNL     1      16.707  43.826  19.033  1.00  0.00     0.004 C 
ENDBRANCH  11  12
ENDBRANCH  10  11
ENDBRANCH   9  10
ENDBRANCH   8   9
ENDBRANCH   1   8
TORSDOF 9
ENDMDL
MODEL 7
REMARK VINA RESULT:    -0.644     12.128     13.493
REMARK INTER + INTRA:          -1.855
REMARK INTER:                  -1.568
REMARK INTRA:                  -0.287
REMARK UNBOUND:                -0.872
REMARK SMILES CCCCCCCCCCC(=O)[O-]
REMARK SMILES IDX 7 1 8 2 9 3 10 4 11 5 12 6 13 7 6 8 5 9 4 10 3 11 2 12 1 13
REMARK H PARENT
REMARK Flexibility Score: inf
ROOT
ATOM      1  C   UNL     1      23.470  35.078  19.466  1.00  0.00     0.000 C 
ENDROOT
BRANCH   1   2
ATOM      2  C   UNL     1      24.098  35.011  18.059  1.00  0.00     0.000 C 
BRANCH   2   3
ATOM      3  C   UNL     1      25.433  35.761  17.909  1.00  0.00     0.006 C 
BRANCH   3   4
ATOM      4  C   UNL     1      26.648  34.876  18.216  1.00  0.00     0.053 C 
BRANCH   4   5
ATOM      5  C   UNL     1      27.910  35.676  18.140  1.00  0.00     0.041 C 
ATOM      6  O   UNL     1      27.866  36.907  17.875  1.00  0.00    -0.550 OA
ATOM      7  O   UNL     1      29.133  35.074  18.411  1.00  0.00    -0.550 OA
ENDBRANCH   4   5
ENDBRANCH   3   4
ENDBRANCH   2   3
ENDBRANCH   1   2
BRANCH   1   8
ATOM      8  C   UNL     1      23.407  36.486  20.091  1.00  0.00     0.000 C 
BRANCH   8   9
ATOM      9  C   UNL     1      22.285  36.696  21.125  1.00  0.00    -0.000 C 
BRANCH   9  10
ATOM     10  C   UNL     1      22.340  38.080  21.794  1.00  0.00    -0.000 C 
BRANCH  10  11
ATOM     11  C   UNL     1      22.690  38.008  23.292  1.00  0.00    -0.000 C 
BRANCH  11  12
ATOM     12  C   UNL     1      23.609  39.134  23.800  1.00  0.00    -0.003 C 
ATOM     13  C   UNL     1      24.094  38.912  25.232  1.00  0.00     0.004 C 
ENDBRANCH  11  12
ENDBRANCH  10  11
ENDBRANCH   9  10
ENDBRANCH   8   9
ENDBRANCH   1   8
TORSDOF 9
ENDMDL
