MODEL 1
REMARK VINA RESULT:    -3.582      0.000      0.000
REMARK INTER + INTRA:          -4.146
REMARK INTER:                  -3.897
REMARK INTRA:                  -0.249
REMARK UNBOUND:                -0.249
REMARK SMILES O=C([O-])c1ccccc1O
REMARK SMILES IDX 4 1 9 2 5 3 8 4 6 5 7 6 2 7 1 8 3 9 10 10
REMARK H PARENT 10 11
REMARK Flexibility Score: inf
ROOT
ATOM      1  C   UNL     1     -93.659 -18.508 -64.057  1.00  0.00     0.039 A 
ATOM      2  C   UNL     1     -93.884 -17.344 -63.277  1.00  0.00     0.124 A 
ATOM      3  C   UNL     1     -94.555 -18.814 -65.098  1.00  0.00     0.014 A 
ATOM      4  C   UNL     1     -95.022 -16.562 -63.515  1.00  0.00     0.047 A 
ATOM      5  C   UNL     1     -95.673 -18.011 -65.335  1.00  0.00     0.001 A 
ATOM      6  C   UNL     1     -95.911 -16.892 -64.538  1.00  0.00     0.004 A 
ENDROOT
BRANCH   1   7
ATOM      7  C   UNL     1     -92.536 -19.437 -63.803  1.00  0.00     0.075 C 
ATOM      8  O   UNL     1     -92.663 -20.675 -63.994  1.00  0.00    -0.545 OA
ATOM      9  O   UNL     1     -91.296 -18.939 -63.414  1.00  0.00    -0.545 OA
ENDBRANCH   1   7
BRANCH   2  10
ATOM     10  O   UNL     1     -92.996 -16.913 -62.290  1.00  0.00    -0.507 OA
ATOM     11  H   UNL     1     -93.285 -16.427 -61.452  1.00  0.00     0.293 HD
ENDBRANCH   2  10
TORSDOF 2
ENDMDL
MODEL 2
REMARK VINA RESULT:    -3.526     15.565     15.793
REMARK INTER + INTRA:          -4.085
REMARK INTER:                  -3.867
REMARK INTRA:                  -0.218
REMARK UNBOUND:                -0.249
REMARK SMILES O=C([O-])c1ccccc1O
REMARK SMILES IDX 4 1 9 2 5 3 8 4 6 5 7 6 2 7 1 8 3 9 10 10
REMARK H PARENT 10 11
REMARK Flexibility Score: inf
ROOT
ATOM      1  C   UNL     1     -95.471 -16.204 -79.452  1.00  0.00     0.039 A 
ATOM      2  C   UNL     1     -96.477 -15.329 -78.965  1.00  0.00     0.124 A 
ATOM      3  C   UNL     1     -95.836 -17.499 -79.864  1.00  0.00     0.014 A 
ATOM      4  C   UNL     1     -97.795 -15.791 -78.845  1.00  0.00     0.047 A 
ATOM      5  C   UNL     1     -97.158 -17.935 -79.757  1.00  0.00     0.001 A 
ATOM      6  C   UNL     1     -98.135 -17.085 -79.240  1.00  0.00     0.004 A 
ENDROOT
BRANCH   1   7
ATOM      7  C   UNL     1     -94.042 -15.824 -79.516  1.00  0.00     0.075 C 
ATOM      8  O   UNL     1     -93.634 -14.751 -79.000  1.00  0.00    -0.545 OA
ATOM      9  O   UNL     1     -93.118 -16.690 -80.091  1.00  0.00    -0.545 OA
ENDBRANCH   1   7
BRANCH   2  10
ATOM     10  O   UNL     1     -96.222 -14.000 -78.625  1.00  0.00    -0.507 OA
ATOM     11  H   UNL     1     -95.319 -13.559 -78.732  1.00  0.00     0.293 HD
ENDBRANCH   2  10
TORSDOF 2
ENDMDL
MODEL 3
REMARK VINA RESULT:    -3.430      3.319      4.143
REMARK INTER + INTRA:          -3.980
REMARK INTER:                  -3.735
REMARK INTRA:                  -0.245
REMARK UNBOUND:                -0.249
REMARK SMILES O=C([O-])c1ccccc1O
REMARK SMILES IDX 4 1 9 2 5 3 8 4 6 5 7 6 2 7 1 8 3 9 10 10
REMARK H PARENT 10 11
REMARK Flexibility Score: inf
ROOT
ATOM      1  C   UNL     1     -96.366 -17.622 -64.345  1.00  0.00     0.039 A 
ATOM      2  C   UNL     1     -96.120 -16.254 -64.635  1.00  0.00     0.124 A 
ATOM      3  C   UNL     1     -95.573 -18.265 -63.378  1.00  0.00     0.014 A 
ATOM      4  C   UNL     1     -95.057 -15.594 -64.003  1.00  0.00     0.047 A 
ATOM      5  C   UNL     1     -94.531 -17.586 -62.742  1.00  0.00     0.001 A 
ATOM      6  C   UNL     1     -94.268 -16.255 -63.061  1.00  0.00     0.004 A 
ENDROOT
BRANCH   1   7
ATOM      7  C   UNL     1     -97.404 -18.413 -65.042  1.00  0.00     0.075 C 
ATOM      8  O   UNL     1     -97.146 -19.555 -65.505  1.00  0.00    -0.545 OA
ATOM      9  O   UNL     1     -98.705 -17.927 -65.131  1.00  0.00    -0.545 OA
ENDBRANCH   1   7
BRANCH   2  10
ATOM     10  O   UNL     1     -96.916 -15.511 -65.508  1.00  0.00    -0.507 OA
ATOM     11  H   UNL     1     -97.568 -14.802 -65.203  1.00  0.00     0.293 HD
ENDBRANCH   2  10
TORSDOF 2
ENDMDL
MODEL 4
REMARK VINA RESULT:    -3.415      1.306      2.325
REMARK INTER + INTRA:          -3.964
REMARK INTER:                  -3.716
REMARK INTRA:                  -0.248
REMARK UNBOUND:                -0.249
REMARK SMILES O=C([O-])c1ccccc1O
REMARK SMILES IDX 4 1 9 2 5 3 8 4 6 5 7 6 2 7 1 8 3 9 10 10
REMARK H PARENT 10 11
REMARK Flexibility Score: inf
ROOT
ATOM      1  C   UNL     1     -94.128 -18.014 -63.925  1.00  0.00     0.039 A 
ATOM      2  C   UNL     1     -95.023 -18.464 -64.931  1.00  0.00     0.124 A 
ATOM      3  C   UNL     1     -94.324 -16.741 -63.360  1.00  0.00     0.014 A 
ATOM      4  C   UNL     1     -96.039 -17.611 -65.384  1.00  0.00     0.047 A 
ATOM      5  C   UNL     1     -95.355 -15.912 -63.808  1.00  0.00     0.001 A 
ATOM      6  C   UNL     1     -96.205 -16.343 -64.825  1.00  0.00     0.004 A 
ENDROOT
BRANCH   1   7
ATOM      7  C   UNL     1     -92.973 -18.816 -63.465  1.00  0.00     0.075 C 
ATOM      8  O   UNL     1     -92.254 -19.445 -64.285  1.00  0.00    -0.545 OA
ATOM      9  O   UNL     1     -92.626 -18.826 -62.118  1.00  0.00    -0.545 OA
ENDBRANCH   1   7
BRANCH   2  10
ATOM     10  O   UNL     1     -94.962 -19.746 -65.478  1.00  0.00    -0.507 OA
ATOM     11  H   UNL     1     -95.517 -20.523 -65.146  1.00  0.00     0.293 HD
ENDBRANCH   2  10
TORSDOF 2
ENDMDL
MODEL 5
REMARK VINA RESULT:    -3.331     11.642     12.841
REMARK INTER + INTRA:          -3.873
REMARK INTER:                  -3.659
REMARK INTRA:                  -0.214
REMARK UNBOUND:                -0.249
REMARK SMILES O=C([O-])c1ccccc1O
REMARK SMILES IDX 4 1 9 2 5 3 8 4 6 5 7 6 2 7 1 8 3 9 10 10
REMARK H PARENT 10 11
REMARK Flexibility Score: inf
ROOT
ATOM      1  C   UNL     1    -101.252  -8.271 -66.330  1.00  0.00     0.039 A 
ATOM      2  C   UNL     1     -99.875  -8.271 -65.983  1.00  0.00     0.124 A 
ATOM      3  C   UNL     1    -101.668  -7.541 -67.459  1.00  0.00     0.014 A 
ATOM      4  C   UNL     1     -98.974  -7.498 -66.727  1.00  0.00     0.047 A 
ATOM      5  C   UNL     1    -100.752  -6.793 -68.202  1.00  0.00     0.001 A 
ATOM      6  C   UNL     1     -99.409  -6.764 -67.831  1.00  0.00     0.004 A 
ENDROOT
BRANCH   1   7
ATOM      7  C   UNL     1    -102.278  -8.981 -65.536  1.00  0.00     0.075 C 
ATOM      8  O   UNL     1    -102.239 -10.232 -65.398  1.00  0.00    -0.545 OA
ATOM      9  O   UNL     1    -103.265  -8.260 -64.872  1.00  0.00    -0.545 OA
ENDBRANCH   1   7
BRANCH   2  10
ATOM     10  O   UNL     1     -99.360  -9.042 -64.939  1.00  0.00    -0.507 OA
ATOM     11  H   UNL     1     -99.536 -10.032 -64.836  1.00  0.00     0.293 HD
ENDBRANCH   2  10
TORSDOF 2
ENDMDL
MODEL 6
REMARK VINA RESULT:    -3.324     12.921     14.320
REMARK INTER + INTRA:          -3.865
REMARK INTER:                  -3.656
REMARK INTRA:                  -0.209
REMARK UNBOUND:                -0.249
REMARK SMILES O=C([O-])c1ccccc1O
REMARK SMILES IDX 4 1 9 2 5 3 8 4 6 5 7 6 2 7 1 8 3 9 10 10
REMARK H PARENT 10 11
REMARK Flexibility Score: inf
ROOT
ATOM      1  C   UNL     1    -100.111  -6.317 -68.623  1.00  0.00     0.039 A 
ATOM      2  C   UNL     1     -99.509  -6.865 -67.460  1.00  0.00     0.124 A 
ATOM      3  C   UNL     1    -100.928  -5.179 -68.495  1.00  0.00     0.014 A 
ATOM      4  C   UNL     1     -99.790  -6.304 -66.207  1.00  0.00     0.047 A 
ATOM      5  C   UNL     1    -101.180  -4.620 -67.240  1.00  0.00     0.001 A 
ATOM      6  C   UNL     1    -100.619  -5.187 -66.097  1.00  0.00     0.004 A 
ENDROOT
BRANCH   1   7
ATOM      7  C   UNL     1     -99.942  -6.912 -69.967  1.00  0.00     0.075 C 
ATOM      8  O   UNL     1    -100.261  -8.109 -70.191  1.00  0.00    -0.545 OA
ATOM      9  O   UNL     1     -99.489  -6.127 -71.023  1.00  0.00    -0.545 OA
ENDBRANCH   1   7
BRANCH   2  10
ATOM     10  O   UNL     1     -98.610  -7.932 -67.505  1.00  0.00    -0.507 OA
ATOM     11  H   UNL     1     -97.765  -7.928 -68.060  1.00  0.00     0.293 HD
ENDBRANCH   2  10
TORSDOF 2
ENDMDL
MODEL 7
REMARK VINA RESULT:    -3.299     15.483     15.923
REMARK INTER + INTRA:          -3.838
REMARK INTER:                  -3.622
REMARK INTRA:                  -0.216
REMARK UNBOUND:                -0.249
REMARK SMILES O=C([O-])c1ccccc1O
REMARK SMILES IDX 4 1 9 2 5 3 8 4 6 5 7 6 2 7 1 8 3 9 10 10
REMARK H PARENT 10 11
REMARK Flexibility Score: inf
ROOT
ATOM      1  C   UNL     1     -95.702 -15.686 -79.253  1.00  0.00     0.039 A 
ATOM      2  C   UNL     1     -96.400 -16.852 -79.664  1.00  0.00     0.124 A 
ATOM      3  C   UNL     1     -96.436 -14.522 -78.960  1.00  0.00     0.014 A 
ATOM      4  C   UNL     1     -97.790 -16.803 -79.830  1.00  0.00     0.047 A 
ATOM      5  C   UNL     1     -97.824 -14.498 -79.110  1.00  0.00     0.001 A 
ATOM      6  C   UNL     1     -98.499 -15.634 -79.554  1.00  0.00     0.004 A 
ENDROOT
BRANCH   1   7
ATOM      7  C   UNL     1     -94.227 -15.630 -79.151  1.00  0.00     0.075 C 
ATOM      8  O   UNL     1     -93.514 -16.590 -79.542  1.00  0.00    -0.545 OA
ATOM      9  O   UNL     1     -93.606 -14.477 -78.680  1.00  0.00    -0.545 OA
ENDBRANCH   1   7
BRANCH   2  10
ATOM     10  O   UNL     1     -95.764 -18.075 -79.883  1.00  0.00    -0.507 OA
ATOM     11  H   UNL     1     -94.759 -18.184 -79.919  1.00  0.00     0.293 HD
ENDBRANCH   2  10
TORSDOF 2
ENDMDL
MODEL 8
REMARK VINA RESULT:    -3.240     13.386     14.728
REMARK INTER + INTRA:          -3.773
REMARK INTER:                  -3.533
REMARK INTRA:                  -0.240
REMARK UNBOUND:                -0.249
REMARK SMILES O=C([O-])c1ccccc1O
REMARK SMILES IDX 4 1 9 2 5 3 8 4 6 5 7 6 2 7 1 8 3 9 10 10
REMARK H PARENT 10 11
REMARK Flexibility Score: inf
ROOT
ATOM      1  C   UNL     1    -100.053  -6.400 -68.965  1.00  0.00     0.039 A 
ATOM      2  C   UNL     1    -100.889  -5.364 -68.470  1.00  0.00     0.124 A 
ATOM      3  C   UNL     1     -99.332  -7.188 -68.049  1.00  0.00     0.014 A 
ATOM      4  C   UNL     1    -100.929  -5.107 -67.092  1.00  0.00     0.047 A 
ATOM      5  C   UNL     1     -99.400  -6.931 -66.678  1.00  0.00     0.001 A 
ATOM      6  C   UNL     1    -100.191  -5.886 -66.202  1.00  0.00     0.004 A 
ENDROOT
BRANCH   1   7
ATOM      7  C   UNL     1     -99.882  -6.668 -70.409  1.00  0.00     0.075 C 
ATOM      8  O   UNL     1     -99.640  -5.734 -71.218  1.00  0.00    -0.545 OA
ATOM      9  O   UNL     1     -99.917  -7.976 -70.883  1.00  0.00    -0.545 OA
ENDBRANCH   1   7
BRANCH   2  10
ATOM     10  O   UNL     1    -101.712  -4.598 -69.296  1.00  0.00    -0.507 OA
ATOM     11  H   UNL     1    -102.644  -4.303 -69.039  1.00  0.00     0.293 HD
ENDBRANCH   2  10
TORSDOF 2
ENDMDL
MODEL 9
REMARK VINA RESULT:    -3.233      2.694      4.287
REMARK INTER + INTRA:          -3.766
REMARK INTER:                  -3.541
REMARK INTRA:                  -0.225
REMARK UNBOUND:                -0.249
REMARK SMILES O=C([O-])c1ccccc1O
REMARK SMILES IDX 4 1 9 2 5 3 8 4 6 5 7 6 2 7 1 8 3 9 10 10
REMARK H PARENT 10 11
REMARK Flexibility Score: inf
ROOT
ATOM      1  C   UNL     1     -95.325 -17.282 -63.548  1.00  0.00     0.039 A 
ATOM      2  C   UNL     1     -95.081 -18.066 -64.706  1.00  0.00     0.124 A 
ATOM      3  C   UNL     1     -94.354 -17.252 -62.530  1.00  0.00     0.014 A 
ATOM      4  C   UNL     1     -93.915 -18.840 -64.784  1.00  0.00     0.047 A 
ATOM      5  C   UNL     1     -93.188 -18.014 -62.633  1.00  0.00     0.001 A 
ATOM      6  C   UNL     1     -92.974 -18.814 -63.755  1.00  0.00     0.004 A 
ENDROOT
BRANCH   1   7
ATOM      7  C   UNL     1     -96.575 -16.516 -63.349  1.00  0.00     0.075 C 
ATOM      8  O   UNL     1     -97.276 -16.677 -62.316  1.00  0.00    -0.545 OA
ATOM      9  O   UNL     1     -96.954 -15.551 -64.277  1.00  0.00    -0.545 OA
ENDBRANCH   1   7
BRANCH   2  10
ATOM     10  O   UNL     1     -95.942 -18.079 -65.805  1.00  0.00    -0.507 OA
ATOM     11  H   UNL     1     -96.899 -17.756 -65.769  1.00  0.00     0.293 HD
ENDBRANCH   2  10
TORSDOF 2
ENDMDL
