MODEL 1
REMARK VINA RESULT:    -6.571      0.000      0.000
REMARK INTER + INTRA:          -7.569
REMARK INTER:                  -7.147
REMARK INTRA:                  -0.421
REMARK UNBOUND:                -0.421
REMARK SMILES C=C1C[C@]2(O)O[C@]3(C[C@@H]2C(C)C)[C@@H](C)CC[C@@H]13
REMARK SMILES IDX 14 1 13 2 15 3 16 4 17 5 7 6 8 7 9 8 4 9 6 10 3 11 2 12 1 13
REMARK SMILES IDX 10 14 11 15 12 16 5 17
REMARK H PARENT 5 18
REMARK Flexibility Score: inf
ROOT
ATOM      1  C   UNL     1      31.082  17.247 -27.791  1.00  0.00     0.011 C 
ATOM      2  C   UNL     1      30.229  18.519 -27.893  1.00  0.00     0.019 C 
ATOM      3  C   UNL     1      31.055  19.798 -28.156  1.00  0.00     0.007 C 
ATOM      4  C   UNL     1      30.157  20.740 -28.985  1.00  0.00     0.011 C 
ATOM      5  C   UNL     1      28.807  20.030 -29.020  1.00  0.00     0.047 C 
ATOM      6  C   UNL     1      29.160  18.542 -28.996  1.00  0.00     0.081 C 
ATOM      7  C   UNL     1      29.636  18.015 -30.382  1.00  0.00     0.046 C 
ATOM      8  C   UNL     1      28.398  17.317 -30.931  1.00  0.00     0.054 C 
ATOM      9  C   UNL     1      27.307  17.798 -29.950  1.00  0.00     0.173 C 
ATOM     10  O   UNL     1      27.971  17.847 -28.694  1.00  0.00    -0.342 OA
ATOM     11  C   UNL     1      26.742  19.224 -30.300  1.00  0.00     0.096 C 
ATOM     12  C   UNL     1      27.816  20.289 -30.130  1.00  0.00    -0.066 C 
ATOM     13  C   UNL     1      27.743  21.461 -30.774  1.00  0.00     0.008 C 
ENDROOT
BRANCH   8  14
ATOM     14  C   UNL     1      28.159  17.550 -32.455  1.00  0.00    -0.009 C 
ATOM     15  C   UNL     1      29.286  18.408 -33.057  1.00  0.00     0.008 C 
ATOM     16  C   UNL     1      28.086  16.221 -33.224  1.00  0.00     0.008 C 
ENDBRANCH   8  14
BRANCH   9  17
ATOM     17  O   UNL     1      26.264  16.859 -29.899  1.00  0.00    -0.365 OA
ATOM     18  H   UNL     1      25.549  17.250 -29.334  1.00  0.00     0.214 HD
ENDBRANCH   9  17
TORSDOF 2
ENDMDL
MODEL 2
REMARK VINA RESULT:    -6.516      2.108      4.323
REMARK INTER + INTRA:          -7.509
REMARK INTER:                  -7.087
REMARK INTRA:                  -0.422
REMARK UNBOUND:                -0.421
REMARK SMILES C=C1C[C@]2(O)O[C@]3(C[C@@H]2C(C)C)[C@@H](C)CC[C@@H]13
REMARK SMILES IDX 14 1 13 2 15 3 16 4 17 5 7 6 8 7 9 8 4 9 6 10 3 11 2 12 1 13
REMARK SMILES IDX 10 14 11 15 12 16 5 17
REMARK H PARENT 5 18
REMARK Flexibility Score: inf
ROOT
ATOM      1  C   UNL     1      32.125  17.272 -32.129  1.00  0.00     0.011 C 
ATOM      2  C   UNL     1      30.970  18.283 -32.173  1.00  0.00     0.019 C 
ATOM      3  C   UNL     1      29.716  17.757 -32.907  1.00  0.00     0.007 C 
ATOM      4  C   UNL     1      28.499  18.423 -32.231  1.00  0.00     0.011 C 
ATOM      5  C   UNL     1      29.115  19.420 -31.254  1.00  0.00     0.047 C 
ATOM      6  C   UNL     1      30.427  18.763 -30.818  1.00  0.00     0.081 C 
ATOM      7  C   UNL     1      30.212  17.638 -29.762  1.00  0.00     0.046 C 
ATOM      8  C   UNL     1      30.569  18.325 -28.449  1.00  0.00     0.054 C 
ATOM      9  C   UNL     1      30.633  19.806 -28.879  1.00  0.00     0.173 C 
ATOM     10  O   UNL     1      31.191  19.763 -30.184  1.00  0.00    -0.342 OA
ATOM     11  C   UNL     1      29.220  20.498 -28.935  1.00  0.00     0.096 C 
ATOM     12  C   UNL     1      28.361  19.885 -30.031  1.00  0.00    -0.066 C 
ATOM     13  C   UNL     1      27.024  19.961 -29.993  1.00  0.00     0.008 C 
ENDROOT
BRANCH   8  14
ATOM     14  C   UNL     1      29.630  17.952 -27.261  1.00  0.00    -0.009 C 
ATOM     15  C   UNL     1      28.562  16.939 -27.709  1.00  0.00     0.008 C 
ATOM     16  C   UNL     1      30.419  17.350 -26.087  1.00  0.00     0.008 C 
ENDBRANCH   8  14
BRANCH   9  17
ATOM     17  O   UNL     1      31.489  20.514 -28.019  1.00  0.00    -0.365 OA
ATOM     18  H   UNL     1      31.709  19.909 -27.265  1.00  0.00     0.214 HD
ENDBRANCH   9  17
TORSDOF 2
ENDMDL
MODEL 3
REMARK VINA RESULT:    -6.466      1.643      4.261
REMARK INTER + INTRA:          -7.454
REMARK INTER:                  -7.033
REMARK INTRA:                  -0.421
REMARK UNBOUND:                -0.421
REMARK SMILES C=C1C[C@]2(O)O[C@]3(C[C@@H]2C(C)C)[C@@H](C)CC[C@@H]13
REMARK SMILES IDX 14 1 13 2 15 3 16 4 17 5 7 6 8 7 9 8 4 9 6 10 3 11 2 12 1 13
REMARK SMILES IDX 10 14 11 15 12 16 5 17
REMARK H PARENT 5 18
REMARK Flexibility Score: inf
ROOT
ATOM      1  C   UNL     1      27.730  20.938 -29.400  1.00  0.00     0.011 C 
ATOM      2  C   UNL     1      27.733  19.759 -30.382  1.00  0.00     0.019 C 
ATOM      3  C   UNL     1      28.853  19.842 -31.445  1.00  0.00     0.007 C 
ATOM      4  C   UNL     1      29.247  18.390 -31.784  1.00  0.00     0.011 C 
ATOM      5  C   UNL     1      28.229  17.541 -31.027  1.00  0.00     0.047 C 
ATOM      6  C   UNL     1      27.911  18.359 -29.774  1.00  0.00     0.081 C 
ATOM      7  C   UNL     1      29.023  18.252 -28.689  1.00  0.00     0.046 C 
ATOM      8  C   UNL     1      28.450  17.239 -27.704  1.00  0.00     0.054 C 
ATOM      9  C   UNL     1      27.253  16.675 -28.499  1.00  0.00     0.173 C 
ATOM     10  O   UNL     1      26.749  17.798 -29.207  1.00  0.00    -0.342 OA
ATOM     11  C   UNL     1      27.662  15.551 -29.522  1.00  0.00     0.096 C 
ATOM     12  C   UNL     1      28.539  16.118 -30.628  1.00  0.00    -0.066 C 
ATOM     13  C   UNL     1      29.366  15.335 -31.332  1.00  0.00     0.008 C 
ENDROOT
BRANCH   8  14
ATOM     14  C   UNL     1      29.499  16.226 -27.151  1.00  0.00    -0.009 C 
ATOM     15  C   UNL     1      30.900  16.534 -27.709  1.00  0.00     0.008 C 
ATOM     16  C   UNL     1      29.561  16.261 -25.616  1.00  0.00     0.008 C 
ENDBRANCH   8  14
BRANCH   9  17
ATOM     17  O   UNL     1      26.276  16.195 -27.611  1.00  0.00    -0.365 OA
ATOM     18  H   UNL     1      25.819  15.440 -28.064  1.00  0.00     0.214 HD
ENDBRANCH   9  17
TORSDOF 2
ENDMDL
MODEL 4
REMARK VINA RESULT:    -6.352      1.671      4.340
REMARK INTER + INTRA:          -7.330
REMARK INTER:                  -6.918
REMARK INTRA:                  -0.412
REMARK UNBOUND:                -0.421
REMARK SMILES C=C1C[C@]2(O)O[C@]3(C[C@@H]2C(C)C)[C@@H](C)CC[C@@H]13
REMARK SMILES IDX 14 1 13 2 15 3 16 4 17 5 7 6 8 7 9 8 4 9 6 10 3 11 2 12 1 13
REMARK SMILES IDX 10 14 11 15 12 16 5 17
REMARK H PARENT 5 18
REMARK Flexibility Score: inf
ROOT
ATOM      1  C   UNL     1      29.874  19.428 -34.508  1.00  0.00     0.011 C 
ATOM      2  C   UNL     1      30.009  18.224 -33.565  1.00  0.00     0.019 C 
ATOM      3  C   UNL     1      31.461  17.959 -33.105  1.00  0.00     0.007 C 
ATOM      4  C   UNL     1      31.369  17.357 -31.687  1.00  0.00     0.011 C 
ATOM      5  C   UNL     1      29.874  17.153 -31.465  1.00  0.00     0.047 C 
ATOM      6  C   UNL     1      29.215  18.288 -32.252  1.00  0.00     0.081 C 
ATOM      7  C   UNL     1      29.286  19.655 -31.508  1.00  0.00     0.046 C 
ATOM      8  C   UNL     1      27.896  19.790 -30.898  1.00  0.00     0.054 C 
ATOM      9  C   UNL     1      27.327  18.370 -31.101  1.00  0.00     0.173 C 
ATOM     10  O   UNL     1      27.847  17.966 -32.361  1.00  0.00    -0.342 OA
ATOM     11  C   UNL     1      27.789  17.351 -29.993  1.00  0.00     0.096 C 
ATOM     12  C   UNL     1      29.289  17.107 -30.073  1.00  0.00    -0.066 C 
ATOM     13  C   UNL     1      29.981  16.671 -29.013  1.00  0.00     0.008 C 
ENDROOT
BRANCH   8  14
ATOM     14  C   UNL     1      27.890  20.376 -29.453  1.00  0.00    -0.009 C 
ATOM     15  C   UNL     1      29.328  20.601 -28.951  1.00  0.00     0.008 C 
ATOM     16  C   UNL     1      27.131  21.711 -29.389  1.00  0.00     0.008 C 
ENDBRANCH   8  14
BRANCH   9  17
ATOM     17  O   UNL     1      25.925  18.423 -31.161  1.00  0.00    -0.365 OA
ATOM     18  H   UNL     1      25.609  17.510 -31.391  1.00  0.00     0.214 HD
ENDBRANCH   9  17
TORSDOF 2
ENDMDL
MODEL 5
REMARK VINA RESULT:    -6.178      1.899      4.006
REMARK INTER + INTRA:          -7.141
REMARK INTER:                  -6.725
REMARK INTRA:                  -0.415
REMARK UNBOUND:                -0.421
REMARK SMILES C=C1C[C@]2(O)O[C@]3(C[C@@H]2C(C)C)[C@@H](C)CC[C@@H]13
REMARK SMILES IDX 14 1 13 2 15 3 16 4 17 5 7 6 8 7 9 8 4 9 6 10 3 11 2 12 1 13
REMARK SMILES IDX 10 14 11 15 12 16 5 17
REMARK H PARENT 5 18
REMARK Flexibility Score: inf
ROOT
ATOM      1  C   UNL     1      30.863  16.769 -27.271  1.00  0.00     0.011 C 
ATOM      2  C   UNL     1      30.725  16.358 -28.743  1.00  0.00     0.019 C 
ATOM      3  C   UNL     1      29.836  15.112 -28.956  1.00  0.00     0.007 C 
ATOM      4  C   UNL     1      29.159  15.284 -30.332  1.00  0.00     0.011 C 
ATOM      5  C   UNL     1      29.812  16.534 -30.914  1.00  0.00     0.047 C 
ATOM      6  C   UNL     1      30.122  17.403 -29.694  1.00  0.00     0.081 C 
ATOM      7  C   UNL     1      28.863  18.139 -29.146  1.00  0.00     0.046 C 
ATOM      8  C   UNL     1      29.015  19.549 -29.707  1.00  0.00     0.054 C 
ATOM      9  C   UNL     1      30.147  19.354 -30.738  1.00  0.00     0.173 C 
ATOM     10  O   UNL     1      31.012  18.407 -30.126  1.00  0.00    -0.342 OA
ATOM     11  C   UNL     1      29.641  18.787 -32.116  1.00  0.00     0.096 C 
ATOM     12  C   UNL     1      29.108  17.370 -31.956  1.00  0.00    -0.066 C 
ATOM     13  C   UNL     1      28.234  16.852 -32.828  1.00  0.00     0.008 C 
ENDROOT
BRANCH   8  14
ATOM     14  C   UNL     1      27.680  20.183 -30.203  1.00  0.00    -0.009 C 
ATOM     15  C   UNL     1      26.518  19.184 -30.064  1.00  0.00     0.008 C 
ATOM     16  C   UNL     1      27.333  21.456 -29.415  1.00  0.00     0.008 C 
ENDBRANCH   8  14
BRANCH   9  17
ATOM     17  O   UNL     1      30.830  20.566 -30.930  1.00  0.00    -0.365 OA
ATOM     18  H   UNL     1      31.210  20.828 -30.052  1.00  0.00     0.214 HD
ENDBRANCH   9  17
TORSDOF 2
ENDMDL
MODEL 6
REMARK VINA RESULT:    -6.162     13.082     15.324
REMARK INTER + INTRA:          -7.124
REMARK INTER:                  -6.723
REMARK INTRA:                  -0.401
REMARK UNBOUND:                -0.421
REMARK SMILES C=C1C[C@]2(O)O[C@]3(C[C@@H]2C(C)C)[C@@H](C)CC[C@@H]13
REMARK SMILES IDX 14 1 13 2 15 3 16 4 17 5 7 6 8 7 9 8 4 9 6 10 3 11 2 12 1 13
REMARK SMILES IDX 10 14 11 15 12 16 5 17
REMARK H PARENT 5 18
REMARK Flexibility Score: inf
ROOT
ATOM      1  C   UNL     1      21.945  26.625 -41.000  1.00  0.00     0.011 C 
ATOM      2  C   UNL     1      22.527  26.563 -42.419  1.00  0.00     0.019 C 
ATOM      3  C   UNL     1      22.727  27.952 -43.067  1.00  0.00     0.007 C 
ATOM      4  C   UNL     1      23.945  27.828 -44.006  1.00  0.00     0.011 C 
ATOM      5  C   UNL     1      24.287  26.341 -43.979  1.00  0.00     0.047 C 
ATOM      6  C   UNL     1      23.899  25.888 -42.569  1.00  0.00     0.081 C 
ATOM      7  C   UNL     1      24.952  26.298 -41.497  1.00  0.00     0.046 C 
ATOM      8  C   UNL     1      25.739  25.012 -41.276  1.00  0.00     0.054 C 
ATOM      9  C   UNL     1      25.251  24.141 -42.453  1.00  0.00     0.173 C 
ATOM     10  O   UNL     1      23.878  24.479 -42.587  1.00  0.00    -0.342 OA
ATOM     11  C   UNL     1      26.000  24.447 -43.804  1.00  0.00     0.096 C 
ATOM     12  C   UNL     1      25.681  25.852 -44.293  1.00  0.00    -0.066 C 
ATOM     13  C   UNL     1      26.504  26.504 -45.125  1.00  0.00     0.008 C 
ENDROOT
BRANCH   8  14
ATOM     14  C   UNL     1      27.276  25.226 -41.117  1.00  0.00    -0.009 C 
ATOM     15  C   UNL     1      27.605  26.722 -40.972  1.00  0.00     0.008 C 
ATOM     16  C   UNL     1      27.825  24.479 -39.890  1.00  0.00     0.008 C 
ENDBRANCH   8  14
BRANCH   9  17
ATOM     17  O   UNL     1      25.376  22.781 -42.124  1.00  0.00    -0.365 OA
ATOM     18  H   UNL     1      24.494  22.484 -41.778  1.00  0.00     0.214 HD
ENDBRANCH   9  17
TORSDOF 2
ENDMDL
MODEL 7
REMARK VINA RESULT:    -6.135      1.509      2.065
REMARK INTER + INTRA:          -7.094
REMARK INTER:                  -6.673
REMARK INTRA:                  -0.421
REMARK UNBOUND:                -0.421
REMARK SMILES C=C1C[C@]2(O)O[C@]3(C[C@@H]2C(C)C)[C@@H](C)CC[C@@H]13
REMARK SMILES IDX 14 1 13 2 15 3 16 4 17 5 7 6 8 7 9 8 4 9 6 10 3 11 2 12 1 13
REMARK SMILES IDX 10 14 11 15 12 16 5 17
REMARK H PARENT 5 18
REMARK Flexibility Score: inf
ROOT
ATOM      1  C   UNL     1      30.021  19.137 -26.898  1.00  0.00     0.011 C 
ATOM      2  C   UNL     1      29.875  19.837 -28.256  1.00  0.00     0.019 C 
ATOM      3  C   UNL     1      31.217  20.334 -28.842  1.00  0.00     0.007 C 
ATOM      4  C   UNL     1      31.083  20.253 -30.377  1.00  0.00     0.011 C 
ATOM      5  C   UNL     1      29.623  19.871 -30.604  1.00  0.00     0.047 C 
ATOM      6  C   UNL     1      29.265  19.005 -29.395  1.00  0.00     0.081 C 
ATOM      7  C   UNL     1      29.815  17.553 -29.514  1.00  0.00     0.046 C 
ATOM      8  C   UNL     1      28.594  16.756 -29.959  1.00  0.00     0.054 C 
ATOM      9  C   UNL     1      27.607  17.882 -30.335  1.00  0.00     0.173 C 
ATOM     10  O   UNL     1      27.860  18.897 -29.374  1.00  0.00    -0.342 OA
ATOM     11  C   UNL     1      27.843  18.458 -31.781  1.00  0.00     0.096 C 
ATOM     12  C   UNL     1      29.186  19.169 -31.867  1.00  0.00    -0.066 C 
ATOM     13  C   UNL     1      29.812  19.335 -33.040  1.00  0.00     0.008 C 
ENDROOT
BRANCH   8  14
ATOM     14  C   UNL     1      28.901  15.669 -31.034  1.00  0.00    -0.009 C 
ATOM     15  C   UNL     1      30.406  15.629 -31.353  1.00  0.00     0.008 C 
ATOM     16  C   UNL     1      28.460  14.273 -30.566  1.00  0.00     0.008 C 
ENDBRANCH   8  14
BRANCH   9  17
ATOM     17  O   UNL     1      26.287  17.422 -30.203  1.00  0.00    -0.365 OA
ATOM     18  H   UNL     1      25.708  18.222 -30.112  1.00  0.00     0.214 HD
ENDBRANCH   9  17
TORSDOF 2
ENDMDL
MODEL 8
REMARK VINA RESULT:    -6.098      1.711      4.579
REMARK INTER + INTRA:          -7.054
REMARK INTER:                  -6.632
REMARK INTRA:                  -0.422
REMARK UNBOUND:                -0.421
REMARK SMILES C=C1C[C@]2(O)O[C@]3(C[C@@H]2C(C)C)[C@@H](C)CC[C@@H]13
REMARK SMILES IDX 14 1 13 2 15 3 16 4 17 5 7 6 8 7 9 8 4 9 6 10 3 11 2 12 1 13
REMARK SMILES IDX 10 14 11 15 12 16 5 17
REMARK H PARENT 5 18
REMARK Flexibility Score: inf
ROOT
ATOM      1  C   UNL     1      30.664  19.152 -33.880  1.00  0.00     0.011 C 
ATOM      2  C   UNL     1      29.320  18.617 -33.365  1.00  0.00     0.019 C 
ATOM      3  C   UNL     1      29.193  17.079 -33.451  1.00  0.00     0.007 C 
ATOM      4  C   UNL     1      28.291  16.646 -32.277  1.00  0.00     0.011 C 
ATOM      5  C   UNL     1      27.812  17.961 -31.670  1.00  0.00     0.047 C 
ATOM      6  C   UNL     1      28.972  18.931 -31.901  1.00  0.00     0.081 C 
ATOM      7  C   UNL     1      30.139  18.723 -30.891  1.00  0.00     0.046 C 
ATOM      8  C   UNL     1      29.918  19.837 -29.874  1.00  0.00     0.054 C 
ATOM      9  C   UNL     1      28.504  20.328 -30.251  1.00  0.00     0.173 C 
ATOM     10  O   UNL     1      28.471  20.227 -31.668  1.00  0.00    -0.342 OA
ATOM     11  C   UNL     1      27.355  19.445 -29.636  1.00  0.00     0.096 C 
ATOM     12  C   UNL     1      27.374  18.044 -30.227  1.00  0.00    -0.066 C 
ATOM     13  C   UNL     1      26.832  17.006 -29.577  1.00  0.00     0.008 C 
ENDROOT
BRANCH   8  14
ATOM     14  C   UNL     1      30.168  19.407 -28.396  1.00  0.00    -0.009 C 
ATOM     15  C   UNL     1      30.577  17.925 -28.322  1.00  0.00     0.008 C 
ATOM     16  C   UNL     1      31.270  20.256 -27.741  1.00  0.00     0.008 C 
ENDBRANCH   8  14
BRANCH   9  17
ATOM     17  O   UNL     1      28.348  21.670 -29.866  1.00  0.00    -0.365 OA
ATOM     18  H   UNL     1      29.195  22.136 -30.088  1.00  0.00     0.214 HD
ENDBRANCH   9  17
TORSDOF 2
ENDMDL
MODEL 9
REMARK VINA RESULT:    -6.032      2.231      3.705
REMARK INTER + INTRA:          -6.982
REMARK INTER:                  -6.560
REMARK INTRA:                  -0.421
REMARK UNBOUND:                -0.421
REMARK SMILES C=C1C[C@]2(O)O[C@]3(C[C@@H]2C(C)C)[C@@H](C)CC[C@@H]13
REMARK SMILES IDX 14 1 13 2 15 3 16 4 17 5 7 6 8 7 9 8 4 9 6 10 3 11 2 12 1 13
REMARK SMILES IDX 10 14 11 15 12 16 5 17
REMARK H PARENT 5 18
REMARK Flexibility Score: inf
ROOT
ATOM      1  C   UNL     1      26.103  19.050 -30.158  1.00  0.00     0.011 C 
ATOM      2  C   UNL     1      27.325  19.906 -30.519  1.00  0.00     0.019 C 
ATOM      3  C   UNL     1      27.774  20.852 -29.382  1.00  0.00     0.007 C 
ATOM      4  C   UNL     1      29.304  21.004 -29.515  1.00  0.00     0.011 C 
ATOM      5  C   UNL     1      29.640  20.274 -30.812  1.00  0.00     0.047 C 
ATOM      6  C   UNL     1      28.608  19.147 -30.890  1.00  0.00     0.081 C 
ATOM      7  C   UNL     1      28.956  17.950 -29.956  1.00  0.00     0.046 C 
ATOM      8  C   UNL     1      29.570  16.932 -30.911  1.00  0.00     0.054 C 
ATOM      9  C   UNL     1      29.779  17.784 -32.182  1.00  0.00     0.173 C 
ATOM     10  O   UNL     1      28.651  18.648 -32.208  1.00  0.00    -0.342 OA
ATOM     11  C   UNL     1      31.097  18.644 -32.142  1.00  0.00     0.096 C 
ATOM     12  C   UNL     1      31.018  19.707 -31.056  1.00  0.00    -0.066 C 
ATOM     13  C   UNL     1      32.124  20.242 -30.523  1.00  0.00     0.008 C 
ENDROOT
BRANCH   8  14
ATOM     14  C   UNL     1      30.805  16.178 -30.329  1.00  0.00    -0.009 C 
ATOM     15  C   UNL     1      31.079  16.620 -28.881  1.00  0.00     0.008 C 
ATOM     16  C   UNL     1      30.596  14.656 -30.349  1.00  0.00     0.008 C 
ENDBRANCH   8  14
BRANCH   9  17
ATOM     17  O   UNL     1      29.770  16.957 -33.316  1.00  0.00    -0.365 OA
ATOM     18  H   UNL     1      28.822  16.847 -33.588  1.00  0.00     0.214 HD
ENDBRANCH   9  17
TORSDOF 2
ENDMDL
