MODEL 1
REMARK VINA RESULT:    -5.420      0.000      0.000
REMARK INTER + INTRA:          -5.420
REMARK INTER:                  -5.420
REMARK INTRA:                   0.000
REMARK UNBOUND:                 0.000
REMARK SMILES C=C1CCC[C@@]2(C)CC(=O)C(=C(C)C)C[C@@H]12
REMARK SMILES IDX 13 1 12 2 11 3 15 4 16 5 2 6 1 7 3 8 4 9 5 10 6 11 8 12 9 13
REMARK SMILES IDX 10 14 7 15 14 16
REMARK H PARENT
REMARK Flexibility Score: inf
ROOT
ATOM      1  C   UNL     1      15.486  17.642  14.400  1.00  0.00     0.039 C 
ATOM      2  C   UNL     1      14.536  16.621  14.983  1.00  0.00    -0.070 C 
ATOM      3  C   UNL     1      14.993  15.454  15.523  1.00  0.00    -0.006 C 
ATOM      4  C   UNL     1      16.457  15.061  15.543  1.00  0.00     0.047 C 
ATOM      5  C   UNL     1      16.724  13.701  14.823  1.00  0.00     0.025 C 
ATOM      6  C   UNL     1      18.108  13.113  15.175  1.00  0.00    -0.073 C 
ATOM      7  C   UNL     1      19.140  13.884  15.577  1.00  0.00     0.008 C 
ATOM      8  C   UNL     1      18.427  11.657  14.912  1.00  0.00     0.031 C 
ATOM      9  C   UNL     1      17.243  10.885  14.348  1.00  0.00     0.005 C 
ATOM     10  C   UNL     1      15.996  11.195  15.166  1.00  0.00     0.008 C 
ATOM     11  C   UNL     1      15.517  12.664  14.971  1.00  0.00    -0.018 C 
ATOM     12  C   UNL     1      14.612  13.015  16.191  1.00  0.00     0.088 C 
ATOM     13  C   UNL     1      14.106  14.423  16.112  1.00  0.00     0.159 C 
ATOM     14  O   UNL     1      12.987  14.709  16.617  1.00  0.00    -0.295 OA
ATOM     15  C   UNL     1      14.642  12.713  13.685  1.00  0.00     0.012 C 
ATOM     16  C   UNL     1      13.059  16.928  14.901  1.00  0.00     0.039 C 
ENDROOT
TORSDOF 0
ENDMDL
MODEL 2
REMARK VINA RESULT:    -5.226     15.939     18.282
REMARK INTER + INTRA:          -5.226
REMARK INTER:                  -5.226
REMARK INTRA:                   0.000
REMARK UNBOUND:                 0.000
REMARK SMILES C=C1CCC[C@@]2(C)CC(=O)C(=C(C)C)C[C@@H]12
REMARK SMILES IDX 13 1 12 2 11 3 15 4 16 5 2 6 1 7 3 8 4 9 5 10 6 11 8 12 9 13
REMARK SMILES IDX 10 14 7 15 14 16
REMARK H PARENT
REMARK Flexibility Score: inf
ROOT
ATOM      1  C   UNL     1       9.290  28.110  15.362  1.00  0.00     0.039 C 
ATOM      2  C   UNL     1       8.610  29.205  16.152  1.00  0.00    -0.070 C 
ATOM      3  C   UNL     1       7.425  28.986  16.792  1.00  0.00    -0.006 C 
ATOM      4  C   UNL     1       6.676  27.670  16.732  1.00  0.00     0.047 C 
ATOM      5  C   UNL     1       5.227  27.829  16.170  1.00  0.00     0.025 C 
ATOM      6  C   UNL     1       4.343  26.598  16.469  1.00  0.00    -0.073 C 
ATOM      7  C   UNL     1       4.861  25.370  16.677  1.00  0.00     0.008 C 
ATOM      8  C   UNL     1       2.835  26.677  16.365  1.00  0.00     0.031 C 
ATOM      9  C   UNL     1       2.339  28.071  16.010  1.00  0.00     0.005 C 
ATOM     10  C   UNL     1       3.038  29.100  16.890  1.00  0.00     0.008 C 
ATOM     11  C   UNL     1       4.553  29.226  16.553  1.00  0.00    -0.018 C 
ATOM     12  C   UNL     1       5.244  29.868  17.794  1.00  0.00     0.088 C 
ATOM     13  C   UNL     1       6.720  30.022  17.583  1.00  0.00     0.159 C 
ATOM     14  O   UNL     1       7.331  30.970  18.145  1.00  0.00    -0.295 OA
ATOM     15  C   UNL     1       4.695  30.208  15.354  1.00  0.00     0.012 C 
ATOM     16  C   UNL     1       9.275  30.562  16.162  1.00  0.00     0.039 C 
ENDROOT
TORSDOF 0
ENDMDL
MODEL 3
REMARK VINA RESULT:    -5.153      1.652      3.103
REMARK INTER + INTRA:          -5.153
REMARK INTER:                  -5.153
REMARK INTRA:                   0.000
REMARK UNBOUND:                 0.000
REMARK SMILES C=C1CCC[C@@]2(C)CC(=O)C(=C(C)C)C[C@@H]12
REMARK SMILES IDX 13 1 12 2 11 3 15 4 16 5 2 6 1 7 3 8 4 9 5 10 6 11 8 12 9 13
REMARK SMILES IDX 10 14 7 15 14 16
REMARK H PARENT
REMARK Flexibility Score: inf
ROOT
ATOM      1  C   UNL     1      11.705  15.411  14.276  1.00  0.00     0.039 C 
ATOM      2  C   UNL     1      12.274  14.161  14.909  1.00  0.00    -0.070 C 
ATOM      3  C   UNL     1      13.473  14.179  15.560  1.00  0.00    -0.006 C 
ATOM      4  C   UNL     1      14.346  15.414  15.665  1.00  0.00     0.047 C 
ATOM      5  C   UNL     1      15.774  15.191  15.071  1.00  0.00     0.025 C 
ATOM      6  C   UNL     1      16.773  16.281  15.520  1.00  0.00    -0.073 C 
ATOM      7  C   UNL     1      16.376  17.515  15.892  1.00  0.00     0.008 C 
ATOM      8  C   UNL     1      18.266  16.072  15.391  1.00  0.00     0.031 C 
ATOM      9  C   UNL     1      18.625  14.695  14.851  1.00  0.00     0.005 C 
ATOM     10  C   UNL     1      17.828  13.632  15.597  1.00  0.00     0.008 C 
ATOM     11  C   UNL     1      16.309  13.697  15.262  1.00  0.00    -0.018 C 
ATOM     12  C   UNL     1      15.556  12.967  16.415  1.00  0.00     0.088 C 
ATOM     13  C   UNL     1      14.073  12.986  16.202  1.00  0.00     0.159 C 
ATOM     14  O   UNL     1      13.371  12.036  16.641  1.00  0.00    -0.295 OA
ATOM     15  C   UNL     1      16.075  12.900  13.946  1.00  0.00     0.012 C 
ATOM     16  C   UNL     1      11.481  12.886  14.749  1.00  0.00     0.039 C 
ENDROOT
TORSDOF 0
ENDMDL
MODEL 4
REMARK VINA RESULT:    -5.122     15.891     17.766
REMARK INTER + INTRA:          -5.122
REMARK INTER:                  -5.122
REMARK INTRA:                   0.000
REMARK UNBOUND:                 0.000
REMARK SMILES C=C1CCC[C@@]2(C)CC(=O)C(=C(C)C)C[C@@H]12
REMARK SMILES IDX 13 1 12 2 11 3 15 4 16 5 2 6 1 7 3 8 4 9 5 10 6 11 8 12 9 13
REMARK SMILES IDX 10 14 7 15 14 16
REMARK H PARENT
REMARK Flexibility Score: inf
ROOT
ATOM      1  C   UNL     1       2.222  29.080  16.722  1.00  0.00     0.039 C 
ATOM      2  C   UNL     1       3.022  27.805  16.579  1.00  0.00    -0.070 C 
ATOM      3  C   UNL     1       4.347  27.761  16.901  1.00  0.00    -0.006 C 
ATOM      4  C   UNL     1       5.132  28.968  17.375  1.00  0.00     0.047 C 
ATOM      5  C   UNL     1       6.361  29.282  16.463  1.00  0.00     0.025 C 
ATOM      6  C   UNL     1       7.366  30.238  17.142  1.00  0.00    -0.073 C 
ATOM      7  C   UNL     1       7.001  31.102  18.111  1.00  0.00     0.008 C 
ATOM      8  C   UNL     1       8.782  30.377  16.625  1.00  0.00     0.031 C 
ATOM      9  C   UNL     1       9.077  29.450  15.453  1.00  0.00     0.005 C 
ATOM     10  C   UNL     1       8.582  28.047  15.777  1.00  0.00     0.008 C 
ATOM     11  C   UNL     1       7.027  27.973  15.834  1.00  0.00    -0.018 C 
ATOM     12  C   UNL     1       6.660  26.698  16.653  1.00  0.00     0.088 C 
ATOM     13  C   UNL     1       5.176  26.538  16.785  1.00  0.00     0.159 C 
ATOM     14  O   UNL     1       4.683  25.382  16.876  1.00  0.00    -0.295 OA
ATOM     15  C   UNL     1       6.505  27.783  14.380  1.00  0.00     0.012 C 
ATOM     16  C   UNL     1       2.303  26.599  16.022  1.00  0.00     0.039 C 
ENDROOT
TORSDOF 0
ENDMDL
MODEL 5
REMARK VINA RESULT:    -4.973      1.940      4.578
REMARK INTER + INTRA:          -4.973
REMARK INTER:                  -4.973
REMARK INTRA:                   0.000
REMARK UNBOUND:                 0.000
REMARK SMILES C=C1CCC[C@@]2(C)CC(=O)C(=C(C)C)C[C@@H]12
REMARK SMILES IDX 13 1 12 2 11 3 15 4 16 5 2 6 1 7 3 8 4 9 5 10 6 11 8 12 9 13
REMARK SMILES IDX 10 14 7 15 14 16
REMARK H PARENT
REMARK Flexibility Score: inf
ROOT
ATOM      1  C   UNL     1      18.937  12.658  15.076  1.00  0.00     0.039 C 
ATOM      2  C   UNL     1      18.517  14.110  15.109  1.00  0.00    -0.070 C 
ATOM      3  C   UNL     1      17.288  14.482  15.573  1.00  0.00    -0.006 C 
ATOM      4  C   UNL     1      16.240  13.493  16.042  1.00  0.00     0.047 C 
ATOM      5  C   UNL     1      14.901  13.615  15.247  1.00  0.00     0.025 C 
ATOM      6  C   UNL     1      13.728  12.907  15.960  1.00  0.00    -0.073 C 
ATOM      7  C   UNL     1      13.916  11.886  16.822  1.00  0.00     0.008 C 
ATOM      8  C   UNL     1      12.291  13.209  15.588  1.00  0.00     0.031 C 
ATOM      9  C   UNL     1      12.172  14.290  14.523  1.00  0.00     0.005 C 
ATOM     10  C   UNL     1      13.065  15.468  14.890  1.00  0.00     0.008 C 
ATOM     11  C   UNL     1      14.578  15.111  14.785  1.00  0.00    -0.018 C 
ATOM     12  C   UNL     1      15.353  16.151  15.649  1.00  0.00     0.088 C 
ATOM     13  C   UNL     1      16.828  15.889  15.632  1.00  0.00     0.159 C 
ATOM     14  O   UNL     1      17.631  16.853  15.751  1.00  0.00    -0.295 OA
ATOM     15  C   UNL     1      15.008  15.291  13.301  1.00  0.00     0.012 C 
ATOM     16  C   UNL     1      19.495  15.124  14.565  1.00  0.00     0.039 C 
ENDROOT
TORSDOF 0
ENDMDL
MODEL 6
REMARK VINA RESULT:    -4.943     15.009     17.898
REMARK INTER + INTRA:          -4.943
REMARK INTER:                  -4.943
REMARK INTRA:                   0.000
REMARK UNBOUND:                 0.000
REMARK SMILES C=C1CCC[C@@]2(C)CC(=O)C(=C(C)C)C[C@@H]12
REMARK SMILES IDX 13 1 12 2 11 3 15 4 16 5 2 6 1 7 3 8 4 9 5 10 6 11 8 12 9 13
REMARK SMILES IDX 10 14 7 15 14 16
REMARK H PARENT
REMARK Flexibility Score: inf
ROOT
ATOM      1  C   UNL     1       9.742  27.154  13.659  1.00  0.00     0.039 C 
ATOM      2  C   UNL     1       9.795  28.486  14.370  1.00  0.00    -0.070 C 
ATOM      3  C   UNL     1       8.951  28.771  15.405  1.00  0.00    -0.006 C 
ATOM      4  C   UNL     1       7.878  27.818  15.893  1.00  0.00     0.047 C 
ATOM      5  C   UNL     1       6.448  28.443  15.832  1.00  0.00     0.025 C 
ATOM      6  C   UNL     1       5.425  27.650  16.676  1.00  0.00    -0.073 C 
ATOM      7  C   UNL     1       5.584  26.341  16.961  1.00  0.00     0.008 C 
ATOM      8  C   UNL     1       4.099  28.262  17.073  1.00  0.00     0.031 C 
ATOM      9  C   UNL     1       3.952  29.705  16.609  1.00  0.00     0.005 C 
ATOM     10  C   UNL     1       5.216  30.482  16.952  1.00  0.00     0.008 C 
ATOM     11  C   UNL     1       6.437  30.018  16.104  1.00  0.00    -0.018 C 
ATOM     12  C   UNL     1       7.720  30.472  16.865  1.00  0.00     0.088 C 
ATOM     13  C   UNL     1       8.964  30.058  16.139  1.00  0.00     0.159 C 
ATOM     14  O   UNL     1      10.003  30.764  16.238  1.00  0.00    -0.295 OA
ATOM     15  C   UNL     1       6.386  30.770  14.743  1.00  0.00     0.012 C 
ATOM     16  C   UNL     1      10.787  29.503  13.857  1.00  0.00     0.039 C 
ENDROOT
TORSDOF 0
ENDMDL
MODEL 7
REMARK VINA RESULT:    -4.907     15.438     17.559
REMARK INTER + INTRA:          -4.907
REMARK INTER:                  -4.907
REMARK INTRA:                   0.000
REMARK UNBOUND:                 0.000
REMARK SMILES C=C1CCC[C@@]2(C)CC(=O)C(=C(C)C)C[C@@H]12
REMARK SMILES IDX 13 1 12 2 11 3 15 4 16 5 2 6 1 7 3 8 4 9 5 10 6 11 8 12 9 13
REMARK SMILES IDX 10 14 7 15 14 16
REMARK H PARENT
REMARK Flexibility Score: inf
ROOT
ATOM      1  C   UNL     1       6.832  31.125  17.946  1.00  0.00     0.039 C 
ATOM      2  C   UNL     1       7.465  30.262  16.878  1.00  0.00    -0.070 C 
ATOM      3  C   UNL     1       6.731  29.352  16.174  1.00  0.00    -0.006 C 
ATOM      4  C   UNL     1       5.258  29.096  16.426  1.00  0.00     0.047 C 
ATOM      5  C   UNL     1       4.961  27.605  16.785  1.00  0.00     0.025 C 
ATOM      6  C   UNL     1       3.462  27.257  16.655  1.00  0.00    -0.073 C 
ATOM      7  C   UNL     1       2.492  28.189  16.762  1.00  0.00     0.008 C 
ATOM      8  C   UNL     1       2.998  25.818  16.578  1.00  0.00     0.031 C 
ATOM      9  C   UNL     1       4.151  24.825  16.581  1.00  0.00     0.005 C 
ATOM     10  C   UNL     1       5.213  25.275  15.587  1.00  0.00     0.008 C 
ATOM     11  C   UNL     1       5.937  26.574  16.050  1.00  0.00    -0.018 C 
ATOM     12  C   UNL     1       6.586  27.211  14.784  1.00  0.00     0.088 C 
ATOM     13  C   UNL     1       7.300  28.486  15.115  1.00  0.00     0.159 C 
ATOM     14  O   UNL     1       8.306  28.828  14.438  1.00  0.00    -0.295 OA
ATOM     15  C   UNL     1       7.075  26.163  17.028  1.00  0.00     0.012 C 
ATOM     16  C   UNL     1       8.951  30.418  16.658  1.00  0.00     0.039 C 
ENDROOT
TORSDOF 0
ENDMDL
MODEL 8
REMARK VINA RESULT:    -4.788     13.253     16.844
REMARK INTER + INTRA:          -4.788
REMARK INTER:                  -4.788
REMARK INTRA:                   0.000
REMARK UNBOUND:                 0.000
REMARK SMILES C=C1CCC[C@@]2(C)CC(=O)C(=C(C)C)C[C@@H]12
REMARK SMILES IDX 13 1 12 2 11 3 15 4 16 5 2 6 1 7 3 8 4 9 5 10 6 11 8 12 9 13
REMARK SMILES IDX 10 14 7 15 14 16
REMARK H PARENT
REMARK Flexibility Score: inf
ROOT
ATOM      1  C   UNL     1      10.235  25.584  14.745  1.00  0.00     0.039 C 
ATOM      2  C   UNL     1       8.792  25.660  14.299  1.00  0.00    -0.070 C 
ATOM      3  C   UNL     1       8.061  26.802  14.456  1.00  0.00    -0.006 C 
ATOM      4  C   UNL     1       8.600  28.053  15.120  1.00  0.00     0.047 C 
ATOM      5  C   UNL     1       7.747  28.495  16.352  1.00  0.00     0.025 C 
ATOM      6  C   UNL     1       8.045  29.948  16.781  1.00  0.00    -0.073 C 
ATOM      7  C   UNL     1       9.221  30.553  16.516  1.00  0.00     0.008 C 
ATOM      8  C   UNL     1       7.093  30.707  17.681  1.00  0.00     0.031 C 
ATOM      9  C   UNL     1       5.845  29.907  18.029  1.00  0.00     0.005 C 
ATOM     10  C   UNL     1       5.270  29.284  16.763  1.00  0.00     0.008 C 
ATOM     11  C   UNL     1       6.192  28.167  16.190  1.00  0.00    -0.018 C 
ATOM     12  C   UNL     1       5.804  27.980  14.692  1.00  0.00     0.088 C 
ATOM     13  C   UNL     1       6.647  26.931  14.032  1.00  0.00     0.159 C 
ATOM     14  O   UNL     1       6.164  26.250  13.089  1.00  0.00    -0.295 OA
ATOM     15  C   UNL     1       5.866  26.846  16.946  1.00  0.00     0.012 C 
ATOM     16  C   UNL     1       8.184  24.406  13.716  1.00  0.00     0.039 C 
ENDROOT
TORSDOF 0
ENDMDL
MODEL 9
REMARK VINA RESULT:    -3.761     14.580     18.739
REMARK INTER + INTRA:          -3.761
REMARK INTER:                  -3.761
REMARK INTRA:                   0.000
REMARK UNBOUND:                 0.000
REMARK SMILES C=C1CCC[C@@]2(C)CC(=O)C(=C(C)C)C[C@@H]12
REMARK SMILES IDX 13 1 12 2 11 3 15 4 16 5 2 6 1 7 3 8 4 9 5 10 6 11 8 12 9 13
REMARK SMILES IDX 10 14 7 15 14 16
REMARK H PARENT
REMARK Flexibility Score: inf
ROOT
ATOM      1  C   UNL     1       5.854  24.852  15.124  1.00  0.00     0.039 C 
ATOM      2  C   UNL     1       6.592  25.953  15.851  1.00  0.00    -0.070 C 
ATOM      3  C   UNL     1       5.921  26.942  16.509  1.00  0.00    -0.006 C 
ATOM      4  C   UNL     1       4.409  27.052  16.529  1.00  0.00     0.047 C 
ATOM      5  C   UNL     1       3.899  28.417  15.965  1.00  0.00     0.025 C 
ATOM      6  C   UNL     1       2.426  28.693  16.339  1.00  0.00    -0.073 C 
ATOM      7  C   UNL     1       1.553  27.703  16.617  1.00  0.00     0.008 C 
ATOM      8  C   UNL     1       1.843  30.086  16.238  1.00  0.00     0.031 C 
ATOM      9  C   UNL     1       2.867  31.125  15.804  1.00  0.00     0.005 C 
ATOM     10  C   UNL     1       4.143  30.955  16.619  1.00  0.00     0.008 C 
ATOM     11  C   UNL     1       4.889  29.633  16.269  1.00  0.00    -0.018 C 
ATOM     12  C   UNL     1       5.833  29.311  17.467  1.00  0.00     0.088 C 
ATOM     13  C   UNL     1       6.594  28.041  17.241  1.00  0.00     0.159 C 
ATOM     14  O   UNL     1       7.742  27.907  17.743  1.00  0.00    -0.295 OA
ATOM     15  C   UNL     1       5.769  29.901  15.014  1.00  0.00     0.012 C 
ATOM     16  C   UNL     1       8.101  25.935  15.780  1.00  0.00     0.039 C 
ENDROOT
TORSDOF 0
ENDMDL
