MODEL 1
REMARK VINA RESULT:    -4.012      0.000      0.000
REMARK INTER + INTRA:          -5.366
REMARK INTER:                  -5.654
REMARK INTRA:                   0.288
REMARK UNBOUND:                 0.288
REMARK SMILES CC1=CCC(=C(C)C)C(=O)CC(C)=CCC1
REMARK SMILES IDX 12 1 14 2 13 3 15 4 16 5 2 6 1 7 3 8 11 10 9 11 10 12 5 13
REMARK SMILES IDX 6 14 7 15 8 16 4 17
REMARK H PARENT
REMARK Flexibility Score: 60.00
ROOT
ATOM      1  C   UNL     1      47.451  21.238  20.494  1.00  0.00    -0.070 C 
ATOM      2  C   UNL     1      46.104  21.131  20.548  1.00  0.00    -0.027 C 
ATOM      3  C   UNL     1      48.272  20.101  21.047  1.00  0.00     0.039 C 
ENDROOT
BRANCH   2   4
ATOM      4  C   UNL     1      45.116  22.200  20.136  1.00  0.00     0.032 C 
BRANCH   4   5
ATOM      5  C   UNL     1      44.378  22.885  21.304  1.00  0.00     0.034 C 
BRANCH   5   6
ATOM      6  C   UNL     1      44.519  24.397  21.296  1.00  0.00    -0.077 C 
ATOM      7  C   UNL     1      43.402  25.202  20.681  1.00  0.00     0.039 C 
ATOM      8  C   UNL     1      45.612  25.065  21.740  1.00  0.00    -0.023 CG0
ATOM      9  G   UNL     1      46.837  24.472  22.407  1.00  0.00     0.000 G0
ENDBRANCH   5   6
ENDBRANCH   4   5
ENDBRANCH   2   4
BRANCH   1  10
ATOM     10  C   UNL     1      48.166  22.477  19.994  1.00  0.00     0.111 C 
BRANCH  10  11
ATOM     11  C   UNL     1      48.726  23.291  21.132  1.00  0.00     0.163 C 
ATOM     12  O   UNL     1      49.721  22.833  21.756  1.00  0.00    -0.294 OA
BRANCH  11  13
ATOM     13  C   UNL     1      48.110  24.576  21.577  1.00  0.00    -0.002 C 
ATOM     14  C   UNL     1      48.707  25.772  21.292  1.00  0.00    -0.069 C 
ATOM     15  C   UNL     1      48.196  27.078  21.862  1.00  0.00     0.039 C 
ATOM     16  C   UNL     1      49.918  25.850  20.388  1.00  0.00     0.039 C 
BRANCH  13  17
ATOM     17  C   UNL     1      46.857  24.487  22.433  1.00  0.00     0.066 CG0
ATOM     18  G   UNL     1      45.641  25.063  21.735  1.00  0.00     0.000 G0
ENDBRANCH  13  17
ENDBRANCH  11  13
ENDBRANCH  10  11
ENDBRANCH   1  10
TORSDOF 0
ENDMDL
MODEL 2
REMARK VINA RESULT:    -3.987      1.585      3.767
REMARK INTER + INTRA:          -5.331
REMARK INTER:                  -5.938
REMARK INTRA:                   0.607
REMARK UNBOUND:                 0.288
REMARK SMILES CC1=CCC(=C(C)C)C(=O)CC(C)=CCC1
REMARK SMILES IDX 12 1 14 2 13 3 15 4 16 5 2 6 1 7 3 8 11 10 9 11 10 12 5 13
REMARK SMILES IDX 6 14 7 15 8 16 4 17
REMARK H PARENT
REMARK Flexibility Score: 60.00
ROOT
ATOM      1  C   UNL     1      48.191  21.146  20.046  1.00  0.00    -0.070 C 
ATOM      2  C   UNL     1      49.462  21.605  20.019  1.00  0.00    -0.027 C 
ATOM      3  C   UNL     1      47.973  19.691  20.377  1.00  0.00     0.039 C 
ENDROOT
BRANCH   2   4
ATOM      4  C   UNL     1      49.890  22.999  19.616  1.00  0.00     0.032 C 
BRANCH   4   5
ATOM      5  C   UNL     1      50.245  23.933  20.791  1.00  0.00     0.034 C 
BRANCH   5   6
ATOM      6  C   UNL     1      49.371  25.173  20.855  1.00  0.00    -0.077 C 
ATOM      7  C   UNL     1      49.899  26.436  20.223  1.00  0.00     0.039 C 
ATOM      8  C   UNL     1      48.180  25.236  21.500  1.00  0.00    -0.023 CG0
ATOM      9  G   UNL     1      47.450  24.097  22.184  1.00  0.00     0.000 G0
ENDBRANCH   5   6
ENDBRANCH   4   5
ENDBRANCH   2   4
BRANCH   1  10
ATOM     10  C   UNL     1      46.993  21.994  19.668  1.00  0.00     0.111 C 
BRANCH  10  11
ATOM     11  C   UNL     1      46.155  22.337  20.872  1.00  0.00     0.163 C 
ATOM     12  O   UNL     1      45.372  21.457  21.321  1.00  0.00    -0.294 OA
BRANCH  11  13
ATOM     13  C   UNL     1      46.176  23.690  21.504  1.00  0.00    -0.002 C 
ATOM     14  C   UNL     1      45.111  24.537  21.374  1.00  0.00    -0.069 C 
ATOM     15  C   UNL     1      45.164  25.969  21.864  1.00  0.00     0.039 C 
ATOM     16  C   UNL     1      43.821  24.084  20.728  1.00  0.00     0.039 C 
BRANCH  13  17
ATOM     17  C   UNL     1      47.458  24.111  22.205  1.00  0.00     0.066 CG0
ATOM     18  G   UNL     1      48.153  25.256  21.495  1.00  0.00     0.000 G0
ENDBRANCH  13  17
ENDBRANCH  11  13
ENDBRANCH  10  11
ENDBRANCH   1  10
TORSDOF 0
ENDMDL
MODEL 3
REMARK VINA RESULT:    -3.799      1.497      2.220
REMARK INTER + INTRA:          -5.065
REMARK INTER:                  -5.540
REMARK INTRA:                   0.475
REMARK UNBOUND:                 0.288
REMARK SMILES CC1=CCC(=C(C)C)C(=O)CC(C)=CCC1
REMARK SMILES IDX 12 1 14 2 13 3 15 4 16 5 2 6 1 7 3 8 11 10 9 11 10 12 5 13
REMARK SMILES IDX 6 14 7 15 8 16 4 17
REMARK H PARENT
REMARK Flexibility Score: 60.00
ROOT
ATOM      1  C   UNL     1      46.410  21.441  20.463  1.00  0.00    -0.070 C 
ATOM      2  C   UNL     1      45.401  22.112  21.061  1.00  0.00    -0.027 C 
ATOM      3  C   UNL     1      46.646  20.009  20.873  1.00  0.00     0.039 C 
ENDROOT
BRANCH   2   4
ATOM      4  C   UNL     1      45.069  23.574  20.857  1.00  0.00     0.032 C 
BRANCH   4   5
ATOM      5  C   UNL     1      45.463  24.498  22.028  1.00  0.00     0.034 C 
BRANCH   5   6
ATOM      6  C   UNL     1      46.504  25.535  21.647  1.00  0.00    -0.077 C 
ATOM      7  C   UNL     1      46.020  26.922  21.306  1.00  0.00     0.039 C 
ATOM      8  C   UNL     1      47.830  25.279  21.526  1.00  0.00    -0.023 CG0
ATOM      9  G   UNL     1      48.540  23.975  21.833  1.00  0.00     0.000 G0
ENDBRANCH   5   6
ENDBRANCH   4   5
ENDBRANCH   2   4
BRANCH   1  10
ATOM     10  C   UNL     1      47.365  22.082  19.476  1.00  0.00     0.111 C 
BRANCH  10  11
ATOM     11  C   UNL     1      48.764  22.163  20.031  1.00  0.00     0.163 C 
ATOM     12  O   UNL     1      49.469  21.119  20.016  1.00  0.00    -0.294 OA
BRANCH  11  13
ATOM     13  C   UNL     1      49.311  23.409  20.645  1.00  0.00    -0.002 C 
ATOM     14  C   UNL     1      50.482  23.953  20.197  1.00  0.00    -0.069 C 
ATOM     15  C   UNL     1      51.144  25.119  20.899  1.00  0.00     0.039 C 
ATOM     16  C   UNL     1      51.180  23.411  18.969  1.00  0.00     0.039 C 
BRANCH  13  17
ATOM     17  C   UNL     1      48.565  23.981  21.840  1.00  0.00     0.066 CG0
ATOM     18  G   UNL     1      47.855  25.279  21.509  1.00  0.00     0.000 G0
ENDBRANCH  13  17
ENDBRANCH  11  13
ENDBRANCH  10  11
ENDBRANCH   1  10
TORSDOF 0
ENDMDL
MODEL 4
REMARK VINA RESULT:    -3.695      1.859      3.701
REMARK INTER + INTRA:          -4.919
REMARK INTER:                  -5.244
REMARK INTRA:                   0.325
REMARK UNBOUND:                 0.288
REMARK SMILES CC1=CCC(=C(C)C)C(=O)CC(C)=CCC1
REMARK SMILES IDX 12 1 14 2 13 3 15 4 16 5 2 6 1 7 3 8 11 10 9 11 10 12 5 13
REMARK SMILES IDX 6 14 7 15 8 16 4 17
REMARK H PARENT
REMARK Flexibility Score: 60.00
ROOT
ATOM      1  C   UNL     1      44.118  22.624  20.966  1.00  0.00    -0.070 C 
ATOM      2  C   UNL     1      44.905  21.544  20.758  1.00  0.00    -0.027 C 
ATOM      3  C   UNL     1      42.733  22.393  21.515  1.00  0.00     0.039 C 
ENDROOT
BRANCH   2   4
ATOM      4  C   UNL     1      46.280  21.562  20.127  1.00  0.00     0.032 C 
BRANCH   4   5
ATOM      5  C   UNL     1      47.446  21.741  21.120  1.00  0.00     0.034 C 
BRANCH   5   6
ATOM      6  C   UNL     1      48.377  22.882  20.749  1.00  0.00    -0.077 C 
ATOM      7  C   UNL     1      49.407  22.625  19.677  1.00  0.00     0.039 C 
ATOM      8  C   UNL     1      48.389  24.090  21.364  1.00  0.00    -0.023 CG0
ATOM      9  G   UNL     1      47.444  24.575  22.445  1.00  0.00     0.000 G0
ENDBRANCH   5   6
ENDBRANCH   4   5
ENDBRANCH   2   4
BRANCH   1  10
ATOM     10  C   UNL     1      44.524  24.034  20.587  1.00  0.00     0.111 C 
BRANCH  10  11
ATOM     11  C   UNL     1      44.962  24.828  21.790  1.00  0.00     0.163 C 
ATOM     12  O   UNL     1      44.126  25.014  22.714  1.00  0.00    -0.294 OA
BRANCH  11  13
ATOM     13  C   UNL     1      46.318  25.445  21.893  1.00  0.00    -0.002 C 
ATOM     14  C   UNL     1      46.545  26.711  21.430  1.00  0.00    -0.069 C 
ATOM     15  C   UNL     1      47.936  27.305  21.373  1.00  0.00     0.039 C 
ATOM     16  C   UNL     1      45.410  27.586  20.945  1.00  0.00     0.039 C 
BRANCH  13  17
ATOM     17  C   UNL     1      47.439  24.576  22.440  1.00  0.00     0.066 CG0
ATOM     18  G   UNL     1      48.375  24.091  21.351  1.00  0.00     0.000 G0
ENDBRANCH  13  17
ENDBRANCH  11  13
ENDBRANCH  10  11
ENDBRANCH   1  10
TORSDOF 0
ENDMDL
MODEL 5
REMARK VINA RESULT:    -3.633      1.592      3.061
REMARK INTER + INTRA:          -4.832
REMARK INTER:                  -5.108
REMARK INTRA:                   0.276
REMARK UNBOUND:                 0.288
REMARK SMILES CC1=CCC(=C(C)C)C(=O)CC(C)=CCC1
REMARK SMILES IDX 12 1 14 2 13 3 15 4 16 5 2 6 1 7 3 8 11 10 9 11 10 12 5 13
REMARK SMILES IDX 6 14 7 15 8 16 4 17
REMARK H PARENT
REMARK Flexibility Score: 60.00
ROOT
ATOM      1  C   UNL     1      48.875  23.228  20.963  1.00  0.00    -0.070 C 
ATOM      2  C   UNL     1      48.455  22.288  20.088  1.00  0.00    -0.027 C 
ATOM      3  C   UNL     1      50.279  23.758  20.811  1.00  0.00     0.039 C 
ENDROOT
BRANCH   2   4
ATOM      4  C   UNL     1      47.125  21.568  20.134  1.00  0.00     0.032 C 
BRANCH   4   5
ATOM      5  C   UNL     1      45.918  22.407  19.667  1.00  0.00     0.034 C 
BRANCH   5   6
ATOM      6  C   UNL     1      44.817  22.501  20.708  1.00  0.00    -0.077 C 
ATOM      7  C   UNL     1      44.073  21.237  21.058  1.00  0.00     0.039 C 
ATOM      8  C   UNL     1      44.414  23.657  21.292  1.00  0.00    -0.023 CG0
ATOM      9  G   UNL     1      45.021  25.033  21.110  1.00  0.00     0.000 G0
ENDBRANCH   5   6
ENDBRANCH   4   5
ENDBRANCH   2   4
BRANCH   1  10
ATOM     10  C   UNL     1      48.042  23.701  22.137  1.00  0.00     0.111 C 
BRANCH  10  11
ATOM     11  C   UNL     1      47.458  25.068  21.889  1.00  0.00     0.163 C 
ATOM     12  O   UNL     1      48.228  25.974  21.470  1.00  0.00    -0.294 OA
BRANCH  11  13
ATOM     13  C   UNL     1      46.031  25.394  22.178  1.00  0.00    -0.002 C 
ATOM     14  C   UNL     1      45.664  25.914  23.388  1.00  0.00    -0.069 C 
ATOM     15  C   UNL     1      44.212  26.106  23.770  1.00  0.00     0.039 C 
ATOM     16  C   UNL     1      46.700  26.324  24.412  1.00  0.00     0.039 C 
BRANCH  13  17
ATOM     17  C   UNL     1      45.006  25.034  21.114  1.00  0.00     0.066 CG0
ATOM     18  G   UNL     1      44.426  23.649  21.318  1.00  0.00     0.000 G0
ENDBRANCH  13  17
ENDBRANCH  11  13
ENDBRANCH  10  11
ENDBRANCH   1  10
TORSDOF 0
ENDMDL
MODEL 6
REMARK VINA RESULT:    -3.514      2.412      3.953
REMARK INTER + INTRA:          -4.665
REMARK INTER:                  -5.249
REMARK INTRA:                   0.584
REMARK UNBOUND:                 0.288
REMARK SMILES CC1=CCC(=C(C)C)C(=O)CC(C)=CCC1
REMARK SMILES IDX 12 1 14 2 13 3 15 4 16 5 2 6 1 7 3 8 11 10 9 11 10 12 5 13
REMARK SMILES IDX 6 14 7 15 8 16 4 17
REMARK H PARENT
REMARK Flexibility Score: 60.00
ROOT
ATOM      1  C   UNL     1      48.362  23.339  21.312  1.00  0.00    -0.070 C 
ATOM      2  C   UNL     1      47.200  24.003  21.501  1.00  0.00    -0.027 C 
ATOM      3  C   UNL     1      48.367  22.189  20.337  1.00  0.00     0.039 C 
ENDROOT
BRANCH   2   4
ATOM      4  C   UNL     1      46.969  25.115  22.501  1.00  0.00     0.032 C 
BRANCH   4   5
ATOM      5  C   UNL     1      47.126  26.540  21.934  1.00  0.00     0.034 C 
BRANCH   5   6
ATOM      6  C   UNL     1      48.511  27.122  22.155  1.00  0.00    -0.077 C 
ATOM      7  C   UNL     1      48.754  27.886  23.432  1.00  0.00     0.039 C 
ATOM      8  C   UNL     1      49.519  27.060  21.251  1.00  0.00    -0.023 CG0
ATOM      9  G   UNL     1      49.510  26.336  19.919  1.00  0.00     0.000 G0
ENDBRANCH   5   6
ENDBRANCH   4   5
ENDBRANCH   2   4
BRANCH   1  10
ATOM     10  C   UNL     1      49.624  23.633  22.098  1.00  0.00     0.111 C 
BRANCH  10  11
ATOM     11  C   UNL     1      50.600  24.453  21.295  1.00  0.00     0.163 C 
ATOM     12  O   UNL     1      51.720  24.715  21.811  1.00  0.00    -0.294 OA
BRANCH  11  13
ATOM     13  C   UNL     1      50.263  25.010  19.952  1.00  0.00    -0.002 C 
ATOM     14  C   UNL     1      50.683  24.384  18.811  1.00  0.00    -0.069 C 
ATOM     15  C   UNL     1      50.497  25.004  17.443  1.00  0.00     0.039 C 
ATOM     16  C   UNL     1      51.361  23.033  18.861  1.00  0.00     0.039 C 
BRANCH  13  17
ATOM     17  C   UNL     1      49.525  26.339  19.914  1.00  0.00     0.066 CG0
ATOM     18  G   UNL     1      49.539  27.043  21.256  1.00  0.00     0.000 G0
ENDBRANCH  13  17
ENDBRANCH  11  13
ENDBRANCH  10  11
ENDBRANCH   1  10
TORSDOF 0
ENDMDL
MODEL 7
REMARK VINA RESULT:    -3.491      1.729      4.410
REMARK INTER + INTRA:          -4.632
REMARK INTER:                  -5.643
REMARK INTRA:                   1.011
REMARK UNBOUND:                 0.288
REMARK SMILES CC1=CCC(=C(C)C)C(=O)CC(C)=CCC1
REMARK SMILES IDX 12 1 14 2 13 3 15 4 16 5 2 6 1 7 3 8 11 10 9 11 10 12 5 13
REMARK SMILES IDX 6 14 7 15 8 16 4 17
REMARK H PARENT
REMARK Flexibility Score: 60.00
ROOT
ATOM      1  C   UNL     1      50.770  23.999  20.909  1.00  0.00    -0.070 C 
ATOM      2  C   UNL     1      51.162  25.249  21.239  1.00  0.00    -0.027 C 
ATOM      3  C   UNL     1      51.320  23.399  19.639  1.00  0.00     0.039 C 
ENDROOT
BRANCH   2   4
ATOM      4  C   UNL     1      50.649  26.054  22.413  1.00  0.00     0.032 C 
BRANCH   4   5
ATOM      5  C   UNL     1      50.012  27.409  22.042  1.00  0.00     0.034 C 
BRANCH   5   6
ATOM      6  C   UNL     1      48.955  27.294  20.958  1.00  0.00    -0.077 C 
ATOM      7  C   UNL     1      49.054  28.231  19.781  1.00  0.00     0.039 C 
ATOM      8  C   UNL     1      47.891  26.456  21.014  1.00  0.00    -0.023 CG0
ATOM      9  G   UNL     1      47.598  25.421  22.082  1.00  0.00     0.000 G0
ENDBRANCH   5   6
ENDBRANCH   4   5
ENDBRANCH   2   4
BRANCH   1  10
ATOM     10  C   UNL     1      49.740  23.215  21.697  1.00  0.00     0.111 C 
BRANCH  10  11
ATOM     11  C   UNL     1      48.396  23.220  21.014  1.00  0.00     0.163 C 
ATOM     12  O   UNL     1      48.262  22.535  19.965  1.00  0.00    -0.294 OA
BRANCH  11  13
ATOM     13  C   UNL     1      47.254  24.049  21.500  1.00  0.00    -0.002 C 
ATOM     14  C   UNL     1      45.965  23.622  21.343  1.00  0.00    -0.069 C 
ATOM     15  C   UNL     1      44.783  24.506  21.678  1.00  0.00     0.039 C 
ATOM     16  C   UNL     1      45.655  22.237  20.820  1.00  0.00     0.039 C 
BRANCH  13  17
ATOM     17  C   UNL     1      47.584  25.415  22.082  1.00  0.00     0.066 CG0
ATOM     18  G   UNL     1      47.887  26.440  21.008  1.00  0.00     0.000 G0
ENDBRANCH  13  17
ENDBRANCH  11  13
ENDBRANCH  10  11
ENDBRANCH   1  10
TORSDOF 0
ENDMDL
MODEL 8
REMARK VINA RESULT:    -3.476      3.494      5.264
REMARK INTER + INTRA:          -4.610
REMARK INTER:                  -4.851
REMARK INTRA:                   0.241
REMARK UNBOUND:                 0.288
REMARK SMILES CC1=CCC(=C(C)C)C(=O)CC(C)=CCC1
REMARK SMILES IDX 12 1 14 2 13 3 15 4 16 5 2 6 1 7 3 8 11 10 9 11 10 12 5 13
REMARK SMILES IDX 6 14 7 15 8 16 4 17
REMARK H PARENT
REMARK Flexibility Score: 60.00
ROOT
ATOM      1  C   UNL     1      51.142  25.248  17.465  1.00  0.00    -0.070 C 
ATOM      2  C   UNL     1      51.382  24.022  17.981  1.00  0.00    -0.027 C 
ATOM      3  C   UNL     1      52.054  25.745  16.371  1.00  0.00     0.039 C 
ENDROOT
BRANCH   2   4
ATOM      4  C   UNL     1      50.644  23.393  19.142  1.00  0.00     0.032 C 
BRANCH   4   5
ATOM      5  C   UNL     1      51.016  23.956  20.528  1.00  0.00     0.034 C 
BRANCH   5   6
ATOM      6  C   UNL     1      49.813  24.445  21.317  1.00  0.00    -0.077 C 
ATOM      7  C   UNL     1      48.775  23.426  21.714  1.00  0.00     0.039 C 
ATOM      8  C   UNL     1      49.578  25.743  21.627  1.00  0.00    -0.023 CG0
ATOM      9  G   UNL     1      50.483  26.927  21.349  1.00  0.00     0.000 G0
ENDBRANCH   5   6
ENDBRANCH   4   5
ENDBRANCH   2   4
BRANCH   1  10
ATOM     10  C   UNL     1      50.068  26.178  17.995  1.00  0.00     0.111 C 
BRANCH  10  11
ATOM     11  C   UNL     1      50.657  27.293  18.819  1.00  0.00     0.163 C 
ATOM     12  O   UNL     1      51.717  27.838  18.408  1.00  0.00    -0.294 OA
BRANCH  11  13
ATOM     13  C   UNL     1      50.066  27.726  20.120  1.00  0.00    -0.002 C 
ATOM     14  C   UNL     1      49.258  28.826  20.188  1.00  0.00    -0.069 C 
ATOM     15  C   UNL     1      48.775  29.383  21.510  1.00  0.00     0.039 C 
ATOM     16  C   UNL     1      48.807  29.548  18.938  1.00  0.00     0.039 C 
BRANCH  13  17
ATOM     17  C   UNL     1      50.478  26.953  21.362  1.00  0.00     0.066 CG0
ATOM     18  G   UNL     1      49.583  25.757  21.619  1.00  0.00     0.000 G0
ENDBRANCH  13  17
ENDBRANCH  11  13
ENDBRANCH  10  11
ENDBRANCH   1  10
TORSDOF 0
ENDMDL
MODEL 9
REMARK VINA RESULT:    -3.405      6.125      7.749
REMARK INTER + INTRA:          -4.511
REMARK INTER:                  -4.937
REMARK INTRA:                   0.426
REMARK UNBOUND:                 0.288
REMARK SMILES CC1=CCC(=C(C)C)C(=O)CC(C)=CCC1
REMARK SMILES IDX 12 1 14 2 13 3 15 4 16 5 2 6 1 7 3 8 11 10 9 11 10 12 5 13
REMARK SMILES IDX 6 14 7 15 8 16 4 17
REMARK H PARENT
REMARK Flexibility Score: 60.00
ROOT
ATOM      1  C   UNL     1      41.234  22.796  22.640  1.00  0.00    -0.070 C 
ATOM      2  C   UNL     1      40.237  22.241  23.364  1.00  0.00    -0.027 C 
ATOM      3  C   UNL     1      41.980  21.913  21.672  1.00  0.00     0.039 C 
ENDROOT
BRANCH   2   4
ATOM      4  C   UNL     1      39.441  22.934  24.449  1.00  0.00     0.032 C 
BRANCH   4   5
ATOM      5  C   UNL     1      37.922  23.007  24.192  1.00  0.00     0.034 C 
BRANCH   5   6
ATOM      6  C   UNL     1      37.573  23.611  22.843  1.00  0.00    -0.077 C 
ATOM      7  C   UNL     1      36.788  22.760  21.877  1.00  0.00     0.039 C 
ATOM      8  C   UNL     1      37.978  24.835  22.425  1.00  0.00    -0.023 CG0
ATOM      9  G   UNL     1      38.753  25.863  23.225  1.00  0.00     0.000 G0
ENDBRANCH   5   6
ENDBRANCH   4   5
ENDBRANCH   2   4
BRANCH   1  10
ATOM     10  C   UNL     1      41.696  24.228  22.822  1.00  0.00     0.111 C 
BRANCH  10  11
ATOM     11  C   UNL     1      40.880  25.185  21.991  1.00  0.00     0.163 C 
ATOM     12  O   UNL     1      40.942  25.081  20.736  1.00  0.00    -0.294 OA
BRANCH  11  13
ATOM     13  C   UNL     1      40.061  26.275  22.598  1.00  0.00    -0.002 C 
ATOM     14  C   UNL     1      40.532  27.558  22.645  1.00  0.00    -0.069 C 
ATOM     15  C   UNL     1      39.800  28.652  23.392  1.00  0.00     0.039 C 
ATOM     16  C   UNL     1      41.818  27.949  21.951  1.00  0.00     0.039 C 
BRANCH  13  17
ATOM     17  C   UNL     1      38.740  25.880  23.238  1.00  0.00     0.066 CG0
ATOM     18  G   UNL     1      38.001  24.830  22.431  1.00  0.00     0.000 G0
ENDBRANCH  13  17
ENDBRANCH  11  13
ENDBRANCH  10  11
ENDBRANCH   1  10
TORSDOF 0
ENDMDL
