MODEL 1
REMARK VINA RESULT:    -3.729      0.000      0.000
REMARK INTER + INTRA:          -4.326
REMARK INTER:                  -4.275
REMARK INTRA:                  -0.052
REMARK UNBOUND:                -0.052
REMARK SMILES CC(C)[C@@H]([NH3+])C(=O)[O-]
REMARK SMILES IDX 4 1 5 2 6 6 7 7 8 8 2 9 1 10 3 11
REMARK H PARENT 5 3 5 4 5 5
REMARK Flexibility Score: inf
ROOT
ATOM      1  C   UNL     1       1.770  11.295  17.866  1.00  0.00     0.230 C 
ENDROOT
BRANCH   1   2
ATOM      2  N   UNL     1       1.262  11.831  19.138  1.00  0.00    -0.350 N 
ATOM      3  H   UNL     1       2.001  12.420  19.587  1.00  0.00     0.345 HD
ATOM      4  H   UNL     1       1.001  11.066  19.800  1.00  0.00     0.345 HD
ATOM      5  H   UNL     1       0.431  12.443  18.971  1.00  0.00     0.345 HD
ENDBRANCH   1   2
BRANCH   1   6
ATOM      6  C   UNL     1       2.643  12.307  17.164  1.00  0.00     0.099 C 
ATOM      7  O   UNL     1       2.203  13.451  16.875  1.00  0.00    -0.544 OA
ATOM      8  O   UNL     1       3.964  11.992  16.875  1.00  0.00    -0.544 OA
ENDBRANCH   1   6
BRANCH   1   9
ATOM      9  C   UNL     1       2.516   9.937  18.030  1.00  0.00     0.047 C 
ATOM     10  C   UNL     1       2.176   8.957  16.896  1.00  0.00     0.014 C 
ATOM     11  C   UNL     1       2.286   9.268  19.395  1.00  0.00     0.014 C 
ENDBRANCH   1   9
TORSDOF 3
ENDMDL
MODEL 2
REMARK VINA RESULT:    -3.616      2.505      3.285
REMARK INTER + INTRA:          -4.196
REMARK INTER:                  -4.130
REMARK INTRA:                  -0.066
REMARK UNBOUND:                -0.052
REMARK SMILES CC(C)[C@@H]([NH3+])C(=O)[O-]
REMARK SMILES IDX 4 1 5 2 6 6 7 7 8 8 2 9 1 10 3 11
REMARK H PARENT 5 3 5 4 5 5
REMARK Flexibility Score: inf
ROOT
ATOM      1  C   UNL     1       2.093  10.800  18.586  1.00  0.00     0.230 C 
ENDROOT
BRANCH   1   2
ATOM      2  N   UNL     1       1.037  11.671  19.125  1.00  0.00    -0.350 N 
ATOM      3  H   UNL     1       1.328  12.671  19.027  1.00  0.00     0.345 HD
ATOM      4  H   UNL     1       0.858  11.475  20.136  1.00  0.00     0.345 HD
ATOM      5  H   UNL     1       0.150  11.546  18.586  1.00  0.00     0.345 HD
ENDBRANCH   1   2
BRANCH   1   6
ATOM      6  C   UNL     1       1.664   9.353  18.611  1.00  0.00     0.099 C 
ATOM      7  O   UNL     1       0.953   8.873  17.689  1.00  0.00    -0.544 OA
ATOM      8  O   UNL     1       2.099   8.524  19.638  1.00  0.00    -0.544 OA
ENDBRANCH   1   6
BRANCH   1   9
ATOM      9  C   UNL     1       2.560  11.216  17.159  1.00  0.00     0.047 C 
ATOM     10  C   UNL     1       4.001  10.766  16.875  1.00  0.00     0.014 C 
ATOM     11  C   UNL     1       2.409  12.719  16.875  1.00  0.00     0.014 C 
ENDBRANCH   1   9
TORSDOF 3
ENDMDL
MODEL 3
REMARK VINA RESULT:    -3.604      1.112      1.550
REMARK INTER + INTRA:          -4.183
REMARK INTER:                  -4.159
REMARK INTRA:                  -0.024
REMARK UNBOUND:                -0.052
REMARK SMILES CC(C)[C@@H]([NH3+])C(=O)[O-]
REMARK SMILES IDX 4 1 5 2 6 6 7 7 8 8 2 9 1 10 3 11
REMARK H PARENT 5 3 5 4 5 5
REMARK Flexibility Score: inf
ROOT
ATOM      1  C   UNL     1       1.643  11.055  17.986  1.00  0.00     0.230 C 
ENDROOT
BRANCH   1   2
ATOM      2  N   UNL     1       1.376  11.947  19.125  1.00  0.00    -0.350 N 
ATOM      3  H   UNL     1       1.799  11.541  19.992  1.00  0.00     0.345 HD
ATOM      4  H   UNL     1       0.350  12.070  19.283  1.00  0.00     0.345 HD
ATOM      5  H   UNL     1       1.816  12.882  18.968  1.00  0.00     0.345 HD
ENDBRANCH   1   2
BRANCH   1   6
ATOM      6  C   UNL     1       2.887  11.482  17.246  1.00  0.00     0.099 C 
ATOM      7  O   UNL     1       3.767  10.641  16.920  1.00  0.00    -0.544 OA
ATOM      8  O   UNL     1       3.045  12.811  16.876  1.00  0.00    -0.544 OA
ENDBRANCH   1   6
BRANCH   1   9
ATOM      9  C   UNL     1       1.726   9.553  18.393  1.00  0.00     0.047 C 
ATOM     10  C   UNL     1       0.350   8.872  18.351  1.00  0.00     0.014 C 
ATOM     11  C   UNL     1       2.391   9.320  19.759  1.00  0.00     0.014 C 
ENDBRANCH   1   9
TORSDOF 3
ENDMDL
MODEL 4
REMARK VINA RESULT:    -3.601      2.999      3.712
REMARK INTER + INTRA:          -4.180
REMARK INTER:                  -4.132
REMARK INTRA:                  -0.048
REMARK UNBOUND:                -0.052
REMARK SMILES CC(C)[C@@H]([NH3+])C(=O)[O-]
REMARK SMILES IDX 4 1 5 2 6 6 7 7 8 8 2 9 1 10 3 11
REMARK H PARENT 5 3 5 4 5 5
REMARK Flexibility Score: inf
ROOT
ATOM      1  C   UNL     1       2.244   9.617  17.313  1.00  0.00     0.230 C 
ENDROOT
BRANCH   1   2
ATOM      2  N   UNL     1       3.428   8.862  16.875  1.00  0.00    -0.350 N 
ATOM      3  H   UNL     1       4.181   8.945  17.598  1.00  0.00     0.345 HD
ATOM      4  H   UNL     1       3.799   9.223  15.967  1.00  0.00     0.345 HD
ATOM      5  H   UNL     1       3.198   7.847  16.776  1.00  0.00     0.345 HD
ENDBRANCH   1   2
BRANCH   1   6
ATOM      6  C   UNL     1       1.669   9.032  18.580  1.00  0.00     0.099 C 
ATOM      7  O   UNL     1       0.443   8.754  18.666  1.00  0.00    -0.544 OA
ATOM      8  O   UNL     1       2.508   8.750  19.650  1.00  0.00    -0.544 OA
ENDBRANCH   1   6
BRANCH   1   9
ATOM      9  C   UNL     1       2.519  11.142  17.480  1.00  0.00     0.047 C 
ATOM     10  C   UNL     1       1.369  11.994  16.922  1.00  0.00     0.014 C 
ATOM     11  C   UNL     1       3.857  11.597  16.875  1.00  0.00     0.014 C 
ENDBRANCH   1   9
TORSDOF 3
ENDMDL
MODEL 5
REMARK VINA RESULT:    -3.580      3.109      3.772
REMARK INTER + INTRA:          -4.155
REMARK INTER:                  -4.093
REMARK INTRA:                  -0.062
REMARK UNBOUND:                -0.052
REMARK SMILES CC(C)[C@@H]([NH3+])C(=O)[O-]
REMARK SMILES IDX 4 1 5 2 6 6 7 7 8 8 2 9 1 10 3 11
REMARK H PARENT 5 3 5 4 5 5
REMARK Flexibility Score: inf
ROOT
ATOM      1  C   UNL     1       2.293  10.039  19.206  1.00  0.00     0.230 C 
ENDROOT
BRANCH   1   2
ATOM      2  N   UNL     1       1.376  11.188  19.269  1.00  0.00    -0.350 N 
ATOM      3  H   UNL     1       1.096  11.356  20.263  1.00  0.00     0.345 HD
ATOM      4  H   UNL     1       0.512  11.020  18.705  1.00  0.00     0.345 HD
ATOM      5  H   UNL     1       1.851  12.054  18.925  1.00  0.00     0.345 HD
ENDBRANCH   1   2
BRANCH   1   6
ATOM      6  C   UNL     1       1.789   8.899  20.056  1.00  0.00     0.099 C 
ATOM      7  O   UNL     1       2.579   8.021  20.496  1.00  0.00    -0.544 OA
ATOM      8  O   UNL     1       0.445   8.841  20.402  1.00  0.00    -0.544 OA
ENDBRANCH   1   6
BRANCH   1   9
ATOM      9  C   UNL     1       2.576   9.563  17.749  1.00  0.00     0.047 C 
ATOM     10  C   UNL     1       3.508  10.530  17.002  1.00  0.00     0.014 C 
ATOM     11  C   UNL     1       1.304   9.310  16.924  1.00  0.00     0.014 C 
ENDBRANCH   1   9
TORSDOF 3
ENDMDL
MODEL 6
REMARK VINA RESULT:    -3.523      1.839      2.253
REMARK INTER + INTRA:          -4.089
REMARK INTER:                  -4.117
REMARK INTRA:                   0.028
REMARK UNBOUND:                -0.052
REMARK SMILES CC(C)[C@@H]([NH3+])C(=O)[O-]
REMARK SMILES IDX 4 1 5 2 6 6 7 7 8 8 2 9 1 10 3 11
REMARK H PARENT 5 3 5 4 5 5
REMARK Flexibility Score: inf
ROOT
ATOM      1  C   UNL     1       3.022   9.962  17.872  1.00  0.00     0.230 C 
ENDROOT
BRANCH   1   2
ATOM      2  N   UNL     1       3.176   8.886  16.880  1.00  0.00    -0.350 N 
ATOM      3  H   UNL     1       2.236   8.488  16.649  1.00  0.00     0.345 HD
ATOM      4  H   UNL     1       3.782   8.115  17.242  1.00  0.00     0.345 HD
ATOM      5  H   UNL     1       3.586   9.261  15.995  1.00  0.00     0.345 HD
ENDBRANCH   1   2
BRANCH   1   6
ATOM      6  C   UNL     1       2.905  11.306  17.196  1.00  0.00     0.099 C 
ATOM      7  O   UNL     1       1.777  11.815  16.958  1.00  0.00    -0.544 OA
ATOM      8  O   UNL     1       4.054  12.017  16.875  1.00  0.00    -0.544 OA
ENDBRANCH   1   6
BRANCH   1   9
ATOM      9  C   UNL     1       1.831   9.726  18.849  1.00  0.00     0.047 C 
ATOM     10  C   UNL     1       2.283   9.037  20.146  1.00  0.00     0.014 C 
ATOM     11  C   UNL     1       0.660   8.954  18.219  1.00  0.00     0.014 C 
ENDBRANCH   1   9
TORSDOF 3
ENDMDL
MODEL 7
REMARK VINA RESULT:    -3.485      2.353      3.088
REMARK INTER + INTRA:          -4.046
REMARK INTER:                  -3.970
REMARK INTRA:                  -0.076
REMARK UNBOUND:                -0.052
REMARK SMILES CC(C)[C@@H]([NH3+])C(=O)[O-]
REMARK SMILES IDX 4 1 5 2 6 6 7 7 8 8 2 9 1 10 3 11
REMARK H PARENT 5 3 5 4 5 5
REMARK Flexibility Score: inf
ROOT
ATOM      1  C   UNL     1       2.258   9.457  19.175  1.00  0.00     0.230 C 
ENDROOT
BRANCH   1   2
ATOM      2  N   UNL     1       2.780   8.235  19.808  1.00  0.00    -0.350 N 
ATOM      3  H   UNL     1       1.992   7.708  20.250  1.00  0.00     0.345 HD
ATOM      4  H   UNL     1       3.485   8.458  20.546  1.00  0.00     0.345 HD
ATOM      5  H   UNL     1       3.215   7.610  19.092  1.00  0.00     0.345 HD
ENDBRANCH   1   2
BRANCH   1   6
ATOM      6  C   UNL     1       2.683   9.540  17.730  1.00  0.00     0.099 C 
ATOM      7  O   UNL     1       2.234   8.731  16.875  1.00  0.00    -0.544 OA
ATOM      8  O   UNL     1       3.543  10.552  17.323  1.00  0.00    -0.544 OA
ENDBRANCH   1   6
BRANCH   1   9
ATOM      9  C   UNL     1       0.712   9.600  19.308  1.00  0.00     0.047 C 
ATOM     10  C   UNL     1       0.215  10.952  18.772  1.00  0.00     0.014 C 
ATOM     11  C   UNL     1       0.192   9.374  20.737  1.00  0.00     0.014 C 
ENDBRANCH   1   9
TORSDOF 3
ENDMDL
MODEL 8
REMARK VINA RESULT:    -3.332      2.128      2.695
REMARK INTER + INTRA:          -3.871
REMARK INTER:                  -3.928
REMARK INTRA:                   0.057
REMARK UNBOUND:                -0.052
REMARK SMILES CC(C)[C@@H]([NH3+])C(=O)[O-]
REMARK SMILES IDX 4 1 5 2 6 6 7 7 8 8 2 9 1 10 3 11
REMARK H PARENT 5 3 5 4 5 5
REMARK Flexibility Score: inf
ROOT
ATOM      1  C   UNL     1       2.482   9.853  18.553  1.00  0.00     0.230 C 
ENDROOT
BRANCH   1   2
ATOM      2  N   UNL     1       3.224   9.102  17.528  1.00  0.00    -0.350 N 
ATOM      3  H   UNL     1       2.597   8.378  17.105  1.00  0.00     0.345 HD
ATOM      4  H   UNL     1       4.058   8.622  17.934  1.00  0.00     0.345 HD
ATOM      5  H   UNL     1       3.531   9.740  16.760  1.00  0.00     0.345 HD
ENDBRANCH   1   2
BRANCH   1   6
ATOM      6  C   UNL     1       1.586  10.890  17.920  1.00  0.00     0.099 C 
ATOM      7  O   UNL     1       1.639  12.096  18.280  1.00  0.00    -0.544 OA
ATOM      8  O   UNL     1       0.726  10.522  16.894  1.00  0.00    -0.544 OA
ENDBRANCH   1   6
BRANCH   1   9
ATOM      9  C   UNL     1       1.672   8.934  19.517  1.00  0.00     0.047 C 
ATOM     10  C   UNL     1       0.531   9.696  20.210  1.00  0.00     0.014 C 
ATOM     11  C   UNL     1       2.542   8.218  20.563  1.00  0.00     0.014 C 
ENDBRANCH   1   9
TORSDOF 3
ENDMDL
MODEL 9
REMARK VINA RESULT:    -3.229      1.852      3.186
REMARK INTER + INTRA:          -3.753
REMARK INTER:                  -3.706
REMARK INTRA:                  -0.046
REMARK UNBOUND:                -0.052
REMARK SMILES CC(C)[C@@H]([NH3+])C(=O)[O-]
REMARK SMILES IDX 4 1 5 2 6 6 7 7 8 8 2 9 1 10 3 11
REMARK H PARENT 5 3 5 4 5 5
REMARK Flexibility Score: inf
ROOT
ATOM      1  C   UNL     1       2.149  11.284  18.178  1.00  0.00     0.230 C 
ENDROOT
BRANCH   1   2
ATOM      2  N   UNL     1       1.365  10.907  19.365  1.00  0.00    -0.350 N 
ATOM      3  H   UNL     1       1.137   9.886  19.321  1.00  0.00     0.345 HD
ATOM      4  H   UNL     1       0.471  11.444  19.420  1.00  0.00     0.345 HD
ATOM      5  H   UNL     1       1.920  11.068  20.236  1.00  0.00     0.345 HD
ENDBRANCH   1   2
BRANCH   1   6
ATOM      6  C   UNL     1       2.695  10.061  17.482  1.00  0.00     0.099 C 
ATOM      7  O   UNL     1       3.803  10.099  16.882  1.00  0.00    -0.544 OA
ATOM      8  O   UNL     1       1.994   8.864  17.542  1.00  0.00    -0.544 OA
ENDBRANCH   1   6
BRANCH   1   9
ATOM      9  C   UNL     1       1.356  12.182  17.182  1.00  0.00     0.047 C 
ATOM     10  C   UNL     1       2.029  13.550  16.987  1.00  0.00     0.014 C 
ATOM     11  C   UNL     1      -0.122  12.368  17.562  1.00  0.00     0.014 C 
ENDBRANCH   1   9
TORSDOF 3
ENDMDL
