MODEL 1
REMARK VINA RESULT:    -4.326      0.000      0.000
REMARK INTER + INTRA:          -6.397
REMARK INTER:                  -5.843
REMARK INTRA:                  -0.554
REMARK UNBOUND:                -0.554
REMARK SMILES CCCCCCCC(=O)[O-]
REMARK SMILES IDX 5 1 6 2 7 3 8 4 9 5 10 6 4 7 3 8 2 9 1 10
REMARK H PARENT
REMARK Flexibility Score: inf
ROOT
ATOM      1  C   UNL     1       0.322  57.598  23.569  1.00  0.00     0.000 C 
ENDROOT
BRANCH   1   2
ATOM      2  C   UNL     1       1.462  56.671  23.119  1.00  0.00     0.006 C 
BRANCH   2   3
ATOM      3  C   UNL     1       2.234  57.224  21.914  1.00  0.00     0.053 C 
BRANCH   3   4
ATOM      4  C   UNL     1       3.292  58.181  22.367  1.00  0.00     0.041 C 
ATOM      5  O   UNL     1       3.692  59.094  21.597  1.00  0.00    -0.550 OA
ATOM      6  O   UNL     1       3.800  58.096  23.656  1.00  0.00    -0.550 OA
ENDBRANCH   3   4
ENDBRANCH   2   3
ENDBRANCH   1   2
BRANCH   1   7
ATOM      7  C   UNL     1       0.515  58.113  25.007  1.00  0.00     0.000 C 
BRANCH   7   8
ATOM      8  C   UNL     1       0.140  59.599  25.165  1.00  0.00    -0.000 C 
BRANCH   8   9
ATOM      9  C   UNL     1       0.237  60.434  23.876  1.00  0.00    -0.003 C 
ATOM     10  C   UNL     1       1.585  61.135  23.717  1.00  0.00     0.004 C 
ENDBRANCH   8   9
ENDBRANCH   7   8
ENDBRANCH   1   7
TORSDOF 6
ENDMDL
MODEL 2
REMARK VINA RESULT:    -4.181      1.180      1.335
REMARK INTER + INTRA:          -6.201
REMARK INTER:                  -5.746
REMARK INTRA:                  -0.456
REMARK UNBOUND:                -0.554
REMARK SMILES CCCCCCCC(=O)[O-]
REMARK SMILES IDX 5 1 6 2 7 3 8 4 9 5 10 6 4 7 3 8 2 9 1 10
REMARK H PARENT
REMARK Flexibility Score: inf
ROOT
ATOM      1  C   UNL     1       0.561  58.067  24.254  1.00  0.00     0.000 C 
ENDROOT
BRANCH   1   2
ATOM      2  C   UNL     1       1.857  57.290  24.534  1.00  0.00     0.006 C 
BRANCH   2   3
ATOM      3  C   UNL     1       3.093  57.959  23.919  1.00  0.00     0.053 C 
BRANCH   3   4
ATOM      4  C   UNL     1       2.994  57.966  22.426  1.00  0.00     0.041 C 
ATOM      5  O   UNL     1       3.508  58.903  21.760  1.00  0.00    -0.550 OA
ATOM      6  O   UNL     1       2.375  56.912  21.766  1.00  0.00    -0.550 OA
ENDBRANCH   3   4
ENDBRANCH   2   3
ENDBRANCH   1   2
BRANCH   1   7
ATOM      7  C   UNL     1       0.110  58.913  25.458  1.00  0.00     0.000 C 
BRANCH   7   8
ATOM      8  C   UNL     1      -0.052  60.406  25.112  1.00  0.00    -0.000 C 
BRANCH   8   9
ATOM      9  C   UNL     1       0.397  60.797  23.693  1.00  0.00    -0.003 C 
ATOM     10  C   UNL     1       1.803  61.394  23.653  1.00  0.00     0.004 C 
ENDBRANCH   8   9
ENDBRANCH   7   8
ENDBRANCH   1   7
TORSDOF 6
ENDMDL
MODEL 3
REMARK VINA RESULT:    -4.157      2.106      3.861
REMARK INTER + INTRA:          -6.170
REMARK INTER:                  -5.683
REMARK INTRA:                  -0.487
REMARK UNBOUND:                -0.554
REMARK SMILES CCCCCCCC(=O)[O-]
REMARK SMILES IDX 5 1 6 2 7 3 8 4 9 5 10 6 4 7 3 8 2 9 1 10
REMARK H PARENT
REMARK Flexibility Score: inf
ROOT
ATOM      1  C   UNL     1       1.709  57.591  25.384  1.00  0.00     0.000 C 
ENDROOT
BRANCH   1   2
ATOM      2  C   UNL     1       0.484  58.167  24.655  1.00  0.00     0.006 C 
BRANCH   2   3
ATOM      3  C   UNL     1       0.160  59.603  25.087  1.00  0.00     0.053 C 
BRANCH   3   4
ATOM      4  C   UNL     1       0.413  60.556  23.962  1.00  0.00     0.041 C 
ATOM      5  O   UNL     1       1.589  60.913  23.686  1.00  0.00    -0.550 OA
ATOM      6  O   UNL     1      -0.646  61.014  23.188  1.00  0.00    -0.550 OA
ENDBRANCH   3   4
ENDBRANCH   2   3
ENDBRANCH   1   2
BRANCH   1   7
ATOM      7  C   UNL     1       2.729  56.965  24.416  1.00  0.00     0.000 C 
BRANCH   7   8
ATOM      8  C   UNL     1       3.524  58.019  23.623  1.00  0.00    -0.000 C 
BRANCH   8   9
ATOM      9  C   UNL     1       3.152  58.128  22.133  1.00  0.00    -0.003 C 
ATOM     10  C   UNL     1       2.198  57.027  21.672  1.00  0.00     0.004 C 
ENDBRANCH   8   9
ENDBRANCH   7   8
ENDBRANCH   1   7
TORSDOF 6
ENDMDL
MODEL 4
REMARK VINA RESULT:    -4.106     10.479     11.214
REMARK INTER + INTRA:          -6.100
REMARK INTER:                  -5.610
REMARK INTRA:                  -0.491
REMARK UNBOUND:                -0.554
REMARK SMILES CCCCCCCC(=O)[O-]
REMARK SMILES IDX 5 1 6 2 7 3 8 4 9 5 10 6 4 7 3 8 2 9 1 10
REMARK H PARENT
REMARK Flexibility Score: inf
ROOT
ATOM      1  C   UNL     1       3.121  47.357  25.343  1.00  0.00     0.000 C 
ENDROOT
BRANCH   1   2
ATOM      2  C   UNL     1       4.240  48.409  25.309  1.00  0.00     0.006 C 
BRANCH   2   3
ATOM      3  C   UNL     1       5.634  47.786  25.160  1.00  0.00     0.053 C 
BRANCH   3   4
ATOM      4  C   UNL     1       6.576  48.760  24.524  1.00  0.00     0.041 C 
ATOM      5  O   UNL     1       6.817  49.864  25.079  1.00  0.00    -0.550 OA
ATOM      6  O   UNL     1       7.224  48.427  23.341  1.00  0.00    -0.550 OA
ENDBRANCH   3   4
ENDBRANCH   2   3
ENDBRANCH   1   2
BRANCH   1   7
ATOM      7  C   UNL     1       2.022  47.632  24.302  1.00  0.00     0.000 C 
BRANCH   7   8
ATOM      8  C   UNL     1       2.570  48.257  23.006  1.00  0.00    -0.000 C 
BRANCH   8   9
ATOM      9  C   UNL     1       3.072  47.247  21.959  1.00  0.00    -0.003 C 
ATOM     10  C   UNL     1       4.419  47.636  21.349  1.00  0.00     0.004 C 
ENDBRANCH   8   9
ENDBRANCH   7   8
ENDBRANCH   1   7
TORSDOF 6
ENDMDL
MODEL 5
REMARK VINA RESULT:    -4.053     10.865     11.508
REMARK INTER + INTRA:          -6.030
REMARK INTER:                  -5.837
REMARK INTRA:                  -0.193
REMARK UNBOUND:                -0.554
REMARK SMILES CCCCCCCC(=O)[O-]
REMARK SMILES IDX 5 1 6 2 7 3 8 4 9 5 10 6 4 7 3 8 2 9 1 10
REMARK H PARENT
REMARK Flexibility Score: inf
ROOT
ATOM      1  C   UNL     1       3.191  48.104  24.226  1.00  0.00     0.000 C 
ENDROOT
BRANCH   1   2
ATOM      2  C   UNL     1       1.823  47.582  23.759  1.00  0.00     0.006 C 
BRANCH   2   3
ATOM      3  C   UNL     1       1.277  48.353  22.551  1.00  0.00     0.053 C 
BRANCH   3   4
ATOM      4  C   UNL     1       0.309  47.505  21.785  1.00  0.00     0.041 C 
ATOM      5  O   UNL     1      -0.785  47.164  22.307  1.00  0.00    -0.550 OA
ATOM      6  O   UNL     1       0.595  47.133  20.478  1.00  0.00    -0.550 OA
ENDBRANCH   3   4
ENDBRANCH   2   3
ENDBRANCH   1   2
BRANCH   1   7
ATOM      7  C   UNL     1       3.496  47.731  25.688  1.00  0.00     0.000 C 
BRANCH   7   8
ATOM      8  C   UNL     1       5.005  47.688  25.991  1.00  0.00    -0.000 C 
BRANCH   8   9
ATOM      9  C   UNL     1       5.913  48.173  24.847  1.00  0.00    -0.003 C 
ATOM     10  C   UNL     1       6.817  49.337  25.251  1.00  0.00     0.004 C 
ENDBRANCH   8   9
ENDBRANCH   7   8
ENDBRANCH   1   7
TORSDOF 6
ENDMDL
MODEL 6
REMARK VINA RESULT:    -4.049     10.945     11.572
REMARK INTER + INTRA:          -6.023
REMARK INTER:                  -5.613
REMARK INTRA:                  -0.410
REMARK UNBOUND:                -0.554
REMARK SMILES CCCCCCCC(=O)[O-]
REMARK SMILES IDX 5 1 6 2 7 3 8 4 9 5 10 6 4 7 3 8 2 9 1 10
REMARK H PARENT
REMARK Flexibility Score: inf
ROOT
ATOM      1  C   UNL     1       3.359  47.662  25.866  1.00  0.00     0.000 C 
ENDROOT
BRANCH   1   2
ATOM      2  C   UNL     1       2.410  47.511  24.666  1.00  0.00     0.006 C 
BRANCH   2   3
ATOM      3  C   UNL     1       2.991  48.100  23.374  1.00  0.00     0.053 C 
BRANCH   3   4
ATOM      4  C   UNL     1       2.231  47.601  22.186  1.00  0.00     0.041 C 
ATOM      5  O   UNL     1       0.991  47.802  22.097  1.00  0.00    -0.550 OA
ATOM      6  O   UNL     1       2.900  46.957  21.153  1.00  0.00    -0.550 OA
ENDBRANCH   3   4
ENDBRANCH   2   3
ENDBRANCH   1   2
BRANCH   1   7
ATOM      7  C   UNL     1       4.752  47.067  25.594  1.00  0.00     0.000 C 
BRANCH   7   8
ATOM      8  C   UNL     1       5.895  47.954  26.122  1.00  0.00    -0.000 C 
BRANCH   8   9
ATOM      9  C   UNL     1       6.477  48.943  25.097  1.00  0.00    -0.003 C 
ATOM     10  C   UNL     1       6.731  48.310  23.730  1.00  0.00     0.004 C 
ENDBRANCH   8   9
ENDBRANCH   7   8
ENDBRANCH   1   7
TORSDOF 6
ENDMDL
MODEL 7
REMARK VINA RESULT:    -4.029     10.506     11.342
REMARK INTER + INTRA:          -5.996
REMARK INTER:                  -5.661
REMARK INTRA:                  -0.335
REMARK UNBOUND:                -0.554
REMARK SMILES CCCCCCCC(=O)[O-]
REMARK SMILES IDX 5 1 6 2 7 3 8 4 9 5 10 6 4 7 3 8 2 9 1 10
REMARK H PARENT
REMARK Flexibility Score: inf
ROOT
ATOM      1  C   UNL     1       4.358  48.746  24.829  1.00  0.00     0.000 C 
ENDROOT
BRANCH   1   2
ATOM      2  C   UNL     1       5.702  48.114  25.225  1.00  0.00     0.006 C 
BRANCH   2   3
ATOM      3  C   UNL     1       6.906  48.954  24.780  1.00  0.00     0.053 C 
BRANCH   3   4
ATOM      4  C   UNL     1       7.688  49.416  25.970  1.00  0.00     0.041 C 
ATOM      5  O   UNL     1       7.618  48.786  27.058  1.00  0.00    -0.550 OA
ATOM      6  O   UNL     1       8.533  50.513  25.862  1.00  0.00    -0.550 OA
ENDBRANCH   3   4
ENDBRANCH   2   3
ENDBRANCH   1   2
BRANCH   1   7
ATOM      7  C   UNL     1       3.385  47.724  24.215  1.00  0.00     0.000 C 
BRANCH   7   8
ATOM      8  C   UNL     1       2.818  48.181  22.858  1.00  0.00    -0.000 C 
BRANCH   8   9
ATOM      9  C   UNL     1       3.231  47.313  21.656  1.00  0.00    -0.003 C 
ATOM     10  C   UNL     1       4.731  47.363  21.368  1.00  0.00     0.004 C 
ENDBRANCH   8   9
ENDBRANCH   7   8
ENDBRANCH   1   7
TORSDOF 6
ENDMDL
MODEL 8
REMARK VINA RESULT:    -4.003     10.323     11.234
REMARK INTER + INTRA:          -5.961
REMARK INTER:                  -5.489
REMARK INTRA:                  -0.472
REMARK UNBOUND:                -0.554
REMARK SMILES CCCCCCCC(=O)[O-]
REMARK SMILES IDX 5 1 6 2 7 3 8 4 9 5 10 6 4 7 3 8 2 9 1 10
REMARK H PARENT
REMARK Flexibility Score: inf
ROOT
ATOM      1  C   UNL     1       5.003  47.558  21.673  1.00  0.00     0.000 C 
ENDROOT
BRANCH   1   2
ATOM      2  C   UNL     1       5.772  47.284  22.976  1.00  0.00     0.006 C 
BRANCH   2   3
ATOM      3  C   UNL     1       6.936  48.258  23.192  1.00  0.00     0.053 C 
BRANCH   3   4
ATOM      4  C   UNL     1       6.798  48.952  24.511  1.00  0.00     0.041 C 
ATOM      5  O   UNL     1       5.656  49.179  24.991  1.00  0.00    -0.550 OA
ATOM      6  O   UNL     1       7.931  49.304  25.233  1.00  0.00    -0.550 OA
ENDBRANCH   3   4
ENDBRANCH   2   3
ENDBRANCH   1   2
BRANCH   1   7
ATOM      7  C   UNL     1       3.478  47.480  21.862  1.00  0.00     0.000 C 
BRANCH   7   8
ATOM      8  C   UNL     1       2.929  48.603  22.761  1.00  0.00    -0.000 C 
BRANCH   8   9
ATOM      9  C   UNL     1       1.916  48.147  23.826  1.00  0.00    -0.003 C 
ATOM     10  C   UNL     1       2.559  47.361  24.968  1.00  0.00     0.004 C 
ENDBRANCH   8   9
ENDBRANCH   7   8
ENDBRANCH   1   7
TORSDOF 6
ENDMDL
MODEL 9
REMARK VINA RESULT:    -3.905      2.300      4.403
REMARK INTER + INTRA:          -5.829
REMARK INTER:                  -5.489
REMARK INTRA:                  -0.340
REMARK UNBOUND:                -0.554
REMARK SMILES CCCCCCCC(=O)[O-]
REMARK SMILES IDX 5 1 6 2 7 3 8 4 9 5 10 6 4 7 3 8 2 9 1 10
REMARK H PARENT
REMARK Flexibility Score: inf
ROOT
ATOM      1  C   UNL     1       0.572  57.540  23.372  1.00  0.00     0.000 C 
ENDROOT
BRANCH   1   2
ATOM      2  C   UNL     1       0.830  58.061  24.795  1.00  0.00     0.006 C 
BRANCH   2   3
ATOM      3  C   UNL     1       0.110  59.385  25.079  1.00  0.00     0.053 C 
BRANCH   3   4
ATOM      4  C   UNL     1       0.392  60.376  23.994  1.00  0.00     0.041 C 
ATOM      5  O   UNL     1      -0.558  60.937  23.386  1.00  0.00    -0.550 OA
ATOM      6  O   UNL     1       1.703  60.717  23.689  1.00  0.00    -0.550 OA
ENDBRANCH   3   4
ENDBRANCH   2   3
ENDBRANCH   1   2
BRANCH   1   7
ATOM      7  C   UNL     1       1.785  56.794  22.789  1.00  0.00     0.000 C 
BRANCH   7   8
ATOM      8  C   UNL     1       2.804  56.377  23.867  1.00  0.00    -0.000 C 
BRANCH   8   9
ATOM      9  C   UNL     1       2.980  54.858  24.042  1.00  0.00    -0.003 C 
ATOM     10  C   UNL     1       2.406  54.050  22.879  1.00  0.00     0.004 C 
ENDBRANCH   8   9
ENDBRANCH   7   8
ENDBRANCH   1   7
TORSDOF 6
ENDMDL
