MODEL 1
REMARK VINA RESULT:    -2.391      0.000      0.000
REMARK INTER + INTRA:          -2.391
REMARK INTER:                  -2.391
REMARK INTRA:                   0.000
REMARK UNBOUND:                 0.000
REMARK SMILES CC(=O)[O-]
REMARK SMILES IDX 1 1 2 2 3 3 4 4
REMARK H PARENT
REMARK Flexibility Score: inf
ROOT
ATOM      1  C   UNL     1      38.738  18.851   7.252  1.00  0.00     0.063 C 
ATOM      2  C   UNL     1      37.611  19.733   7.672  1.00  0.00     0.038 C 
ATOM      3  O   UNL     1      36.665  19.265   8.359  1.00  0.00    -0.550 OA
ATOM      4  O   UNL     1      37.575  21.059   7.262  1.00  0.00    -0.550 OA
ENDROOT
TORSDOF 0
ENDMDL
MODEL 2
REMARK VINA RESULT:    -2.381      0.093      1.622
REMARK INTER + INTRA:          -2.381
REMARK INTER:                  -2.381
REMARK INTRA:                   0.000
REMARK UNBOUND:                 0.000
REMARK SMILES CC(=O)[O-]
REMARK SMILES IDX 1 1 2 2 3 3 4 4
REMARK H PARENT
REMARK Flexibility Score: inf
ROOT
ATOM      1  C   UNL     1      38.732  18.914   7.178  1.00  0.00     0.063 C 
ATOM      2  C   UNL     1      37.598  19.768   7.634  1.00  0.00     0.038 C 
ATOM      3  O   UNL     1      37.573  20.993   7.343  1.00  0.00    -0.550 OA
ATOM      4  O   UNL     1      36.594  19.226   8.425  1.00  0.00    -0.550 OA
ENDROOT
TORSDOF 0
ENDMDL
MODEL 3
REMARK VINA RESULT:    -2.352     10.919     11.441
REMARK INTER + INTRA:          -2.352
REMARK INTER:                  -2.352
REMARK INTRA:                   0.000
REMARK UNBOUND:                 0.000
REMARK SMILES CC(=O)[O-]
REMARK SMILES IDX 1 1 2 2 3 3 4 4
REMARK H PARENT
REMARK Flexibility Score: inf
ROOT
ATOM      1  C   UNL     1      29.555  18.404  16.830  1.00  0.00     0.063 C 
ATOM      2  C   UNL     1      29.441  18.311  15.346  1.00  0.00     0.038 C 
ATOM      3  O   UNL     1      28.910  17.300  14.815  1.00  0.00    -0.550 OA
ATOM      4  O   UNL     1      29.969  19.313  14.544  1.00  0.00    -0.550 OA
ENDROOT
TORSDOF 0
ENDMDL
MODEL 4
REMARK VINA RESULT:    -2.346      1.526      1.635
REMARK INTER + INTRA:          -2.346
REMARK INTER:                  -2.346
REMARK INTRA:                   0.000
REMARK UNBOUND:                 0.000
REMARK SMILES CC(=O)[O-]
REMARK SMILES IDX 1 1 2 2 3 3 4 4
REMARK H PARENT
REMARK Flexibility Score: inf
ROOT
ATOM      1  C   UNL     1      37.421  19.831   5.964  1.00  0.00     0.063 C 
ATOM      2  C   UNL     1      37.766  19.454   7.364  1.00  0.00     0.038 C 
ATOM      3  O   UNL     1      36.876  19.448   8.255  1.00  0.00    -0.550 OA
ATOM      4  O   UNL     1      39.081  19.162   7.703  1.00  0.00    -0.550 OA
ENDROOT
TORSDOF 0
ENDMDL
MODEL 5
REMARK VINA RESULT:    -2.290     11.195     11.617
REMARK INTER + INTRA:          -2.290
REMARK INTER:                  -2.290
REMARK INTRA:                   0.000
REMARK UNBOUND:                 0.000
REMARK SMILES CC(=O)[O-]
REMARK SMILES IDX 1 1 2 2 3 3 4 4
REMARK H PARENT
REMARK Flexibility Score: inf
ROOT
ATOM      1  C   UNL     1      30.020  19.389  14.867  1.00  0.00     0.063 C 
ATOM      2  C   UNL     1      29.451  18.227  15.608  1.00  0.00     0.038 C 
ATOM      3  O   UNL     1      29.540  18.173  16.863  1.00  0.00    -0.550 OA
ATOM      4  O   UNL     1      28.868  17.176  14.912  1.00  0.00    -0.550 OA
ENDROOT
TORSDOF 0
ENDMDL
MODEL 6
REMARK VINA RESULT:    -2.266      1.350      2.019
REMARK INTER + INTRA:          -2.266
REMARK INTER:                  -2.266
REMARK INTRA:                   0.000
REMARK UNBOUND:                 0.000
REMARK SMILES CC(=O)[O-]
REMARK SMILES IDX 1 1 2 2 3 3 4 4
REMARK H PARENT
REMARK Flexibility Score: inf
ROOT
ATOM      1  C   UNL     1      37.771  21.011   7.057  1.00  0.00     0.063 C 
ATOM      2  C   UNL     1      37.736  19.635   7.631  1.00  0.00     0.038 C 
ATOM      3  O   UNL     1      38.669  18.825   7.388  1.00  0.00    -0.550 OA
ATOM      4  O   UNL     1      36.648  19.226   8.391  1.00  0.00    -0.550 OA
ENDROOT
TORSDOF 0
ENDMDL
MODEL 7
REMARK VINA RESULT:    -2.223      1.358      1.480
REMARK INTER + INTRA:          -2.223
REMARK INTER:                  -2.223
REMARK INTRA:                   0.000
REMARK UNBOUND:                 0.000
REMARK SMILES CC(=O)[O-]
REMARK SMILES IDX 1 1 2 2 3 3 4 4
REMARK H PARENT
REMARK Flexibility Score: inf
ROOT
ATOM      1  C   UNL     1      37.315  19.823   5.688  1.00  0.00     0.063 C 
ATOM      2  C   UNL     1      37.706  20.045   7.109  1.00  0.00     0.038 C 
ATOM      3  O   UNL     1      38.187  19.098   7.787  1.00  0.00    -0.550 OA
ATOM      4  O   UNL     1      37.492  21.280   7.706  1.00  0.00    -0.550 OA
ENDROOT
TORSDOF 0
ENDMDL
MODEL 8
REMARK VINA RESULT:    -2.189      2.231      2.771
REMARK INTER + INTRA:          -2.189
REMARK INTER:                  -2.189
REMARK INTRA:                   0.000
REMARK UNBOUND:                 0.000
REMARK SMILES CC(=O)[O-]
REMARK SMILES IDX 1 1 2 2 3 3 4 4
REMARK H PARENT
REMARK Flexibility Score: inf
ROOT
ATOM      1  C   UNL     1      39.294  19.935   5.739  1.00  0.00     0.063 C 
ATOM      2  C   UNL     1      39.500  19.446   7.133  1.00  0.00     0.038 C 
ATOM      3  O   UNL     1      40.513  19.812   7.787  1.00  0.00    -0.550 OA
ATOM      4  O   UNL     1      38.606  18.545   7.694  1.00  0.00    -0.550 OA
ENDROOT
TORSDOF 0
ENDMDL
MODEL 9
REMARK VINA RESULT:    -2.181     11.031     11.534
REMARK INTER + INTRA:          -2.181
REMARK INTER:                  -2.181
REMARK INTRA:                   0.000
REMARK UNBOUND:                 0.000
REMARK SMILES CC(=O)[O-]
REMARK SMILES IDX 1 1 2 2 3 3 4 4
REMARK H PARENT
REMARK Flexibility Score: inf
ROOT
ATOM      1  C   UNL     1      28.898  17.214  14.998  1.00  0.00     0.063 C 
ATOM      2  C   UNL     1      29.542  18.458  15.508  1.00  0.00     0.038 C 
ATOM      3  O   UNL     1      29.818  19.397  14.715  1.00  0.00    -0.550 OA
ATOM      4  O   UNL     1      29.888  18.564  16.848  1.00  0.00    -0.550 OA
ENDROOT
TORSDOF 0
ENDMDL
