MODEL 1
REMARK VINA RESULT:    -5.214      0.000      0.000
REMARK INTER + INTRA:          -5.519
REMARK INTER:                  -5.519
REMARK INTRA:                   0.000
REMARK UNBOUND:                 0.000
REMARK SMILES Cc1cc(O)c(C)c(C)c1O
REMARK SMILES IDX 1 1 2 2 3 3 4 4 6 5 8 6 10 7 9 8 7 9 11 10 5 12
REMARK H PARENT 11 11 5 13
REMARK Flexibility Score: inf
ROOT
ATOM      1  C   UNL     1      10.121  11.811   6.178  1.00  0.00     0.048 C 
ATOM      2  C   UNL     1       8.671  11.422   6.284  1.00  0.00    -0.005 A 
ATOM      3  C   UNL     1       8.176  10.947   7.504  1.00  0.00     0.053 A 
ATOM      4  C   UNL     1       6.832  10.591   7.645  1.00  0.00     0.119 A 
ATOM      5  C   UNL     1       5.950  10.711   6.555  1.00  0.00    -0.003 A 
ATOM      6  C   UNL     1       6.448  11.141   5.298  1.00  0.00    -0.002 A 
ATOM      7  C   UNL     1       7.802  11.525   5.175  1.00  0.00     0.121 A 
ATOM      8  C   UNL     1       5.528  11.249   4.102  1.00  0.00     0.049 C 
ATOM      9  C   UNL     1       4.497  10.329   6.724  1.00  0.00     0.049 C 
ENDROOT
BRANCH   7  10
ATOM     10  O   UNL     1       8.264  12.007   3.944  1.00  0.00    -0.507 OA
ATOM     11  H   UNL     1       9.244  12.111   3.719  1.00  0.00     0.293 HD
ENDBRANCH   7  10
BRANCH   4  12
ATOM     12  O   UNL     1       6.374  10.117   8.876  1.00  0.00    -0.508 OA
ATOM     13  H   UNL     1       6.490  10.651   9.730  1.00  0.00     0.293 HD
ENDBRANCH   4  12
TORSDOF 2
ENDMDL
MODEL 2
REMARK VINA RESULT:    -5.027      1.952      2.378
REMARK INTER + INTRA:          -5.321
REMARK INTER:                  -5.321
REMARK INTRA:                   0.000
REMARK UNBOUND:                 0.000
REMARK SMILES Cc1cc(O)c(C)c(C)c1O
REMARK SMILES IDX 1 1 2 2 3 3 4 4 6 5 8 6 10 7 9 8 7 9 11 10 5 12
REMARK H PARENT 11 11 5 13
REMARK Flexibility Score: inf
ROOT
ATOM      1  C   UNL     1       9.083  11.163   6.033  1.00  0.00     0.048 C 
ATOM      2  C   UNL     1       7.847  11.373   6.867  1.00  0.00    -0.005 A 
ATOM      3  C   UNL     1       7.932  12.134   8.038  1.00  0.00     0.053 A 
ATOM      4  C   UNL     1       6.803  12.363   8.829  1.00  0.00     0.119 A 
ATOM      5  C   UNL     1       5.555  11.831   8.454  1.00  0.00    -0.003 A 
ATOM      6  C   UNL     1       5.465  11.014   7.298  1.00  0.00    -0.002 A 
ATOM      7  C   UNL     1       6.607  10.812   6.490  1.00  0.00     0.121 A 
ATOM      8  C   UNL     1       4.143  10.403   6.889  1.00  0.00     0.049 C 
ATOM      9  C   UNL     1       4.341  12.093   9.316  1.00  0.00     0.049 C 
ENDROOT
BRANCH   7  10
ATOM     10  O   UNL     1       6.487  10.055   5.319  1.00  0.00    -0.507 OA
ATOM     11  H   UNL     1       6.833  10.361   4.420  1.00  0.00     0.293 HD
ENDBRANCH   7  10
BRANCH   4  12
ATOM     12  O   UNL     1       6.925  13.125   9.994  1.00  0.00    -0.508 OA
ATOM     13  H   UNL     1       7.218  12.713  10.872  1.00  0.00     0.293 HD
ENDBRANCH   4  12
TORSDOF 2
ENDMDL
MODEL 3
REMARK VINA RESULT:    -4.974      2.328      3.520
REMARK INTER + INTRA:          -5.264
REMARK INTER:                  -5.264
REMARK INTRA:                   0.000
REMARK UNBOUND:                 0.000
REMARK SMILES Cc1cc(O)c(C)c(C)c1O
REMARK SMILES IDX 1 1 2 2 3 3 4 4 6 5 8 6 10 7 9 8 7 9 11 10 5 12
REMARK H PARENT 11 11 5 13
REMARK Flexibility Score: inf
ROOT
ATOM      1  C   UNL     1       6.013  11.426   4.358  1.00  0.00     0.048 C 
ATOM      2  C   UNL     1       5.560  11.346   5.791  1.00  0.00    -0.005 A 
ATOM      3  C   UNL     1       4.451  10.556   6.115  1.00  0.00     0.053 A 
ATOM      4  C   UNL     1       4.009  10.445   7.436  1.00  0.00     0.119 A 
ATOM      5  C   UNL     1       4.681  11.128   8.468  1.00  0.00    -0.003 A 
ATOM      6  C   UNL     1       5.774  11.973   8.147  1.00  0.00    -0.002 A 
ATOM      7  C   UNL     1       6.230  12.056   6.812  1.00  0.00     0.121 A 
ATOM      8  C   UNL     1       6.495  12.744   9.232  1.00  0.00     0.049 C 
ATOM      9  C   UNL     1       4.197  10.993   9.893  1.00  0.00     0.049 C 
ENDROOT
BRANCH   7  10
ATOM     10  O   UNL     1       7.348  12.846   6.521  1.00  0.00    -0.507 OA
ATOM     11  H   UNL     1       7.458  13.360   5.658  1.00  0.00     0.293 HD
ENDBRANCH   7  10
BRANCH   4  12
ATOM     12  O   UNL     1       2.896   9.651   7.723  1.00  0.00    -0.508 OA
ATOM     13  H   UNL     1       2.271   9.867   8.491  1.00  0.00     0.293 HD
ENDBRANCH   4  12
TORSDOF 2
ENDMDL
MODEL 4
REMARK VINA RESULT:    -4.929      2.290      4.150
REMARK INTER + INTRA:          -5.218
REMARK INTER:                  -5.218
REMARK INTRA:                   0.000
REMARK UNBOUND:                 0.000
REMARK SMILES Cc1cc(O)c(C)c(C)c1O
REMARK SMILES IDX 1 1 2 2 3 3 4 4 6 5 8 6 10 7 9 8 7 9 11 10 5 12
REMARK H PARENT 11 11 5 13
REMARK Flexibility Score: inf
ROOT
ATOM      1  C   UNL     1       2.869  10.899   8.899  1.00  0.00     0.048 C 
ATOM      2  C   UNL     1       4.298  11.212   8.542  1.00  0.00    -0.005 A 
ATOM      3  C   UNL     1       5.058  12.014   9.400  1.00  0.00     0.053 A 
ATOM      4  C   UNL     1       6.392  12.314   9.110  1.00  0.00     0.119 A 
ATOM      5  C   UNL     1       6.995  11.805   7.944  1.00  0.00    -0.003 A 
ATOM      6  C   UNL     1       6.221  11.033   7.039  1.00  0.00    -0.002 A 
ATOM      7  C   UNL     1       4.882  10.713   7.356  1.00  0.00     0.121 A 
ATOM      8  C   UNL     1       6.835  10.500   5.763  1.00  0.00     0.049 C 
ATOM      9  C   UNL     1       8.440  12.130   7.646  1.00  0.00     0.049 C 
ENDROOT
BRANCH   7  10
ATOM     10  O   UNL     1       4.151   9.900   6.483  1.00  0.00    -0.507 OA
ATOM     11  H   UNL     1       4.385   9.778   5.507  1.00  0.00     0.293 HD
ENDBRANCH   7  10
BRANCH   4  12
ATOM     12  O   UNL     1       7.120  13.121   9.987  1.00  0.00    -0.508 OA
ATOM     13  H   UNL     1       7.013  13.048  10.992  1.00  0.00     0.293 HD
ENDBRANCH   4  12
TORSDOF 2
ENDMDL
MODEL 5
REMARK VINA RESULT:    -4.893      2.042      3.296
REMARK INTER + INTRA:          -5.179
REMARK INTER:                  -5.179
REMARK INTRA:                   0.000
REMARK UNBOUND:                 0.000
REMARK SMILES Cc1cc(O)c(C)c(C)c1O
REMARK SMILES IDX 1 1 2 2 3 3 4 4 6 5 8 6 10 7 9 8 7 9 11 10 5 12
REMARK H PARENT 11 11 5 13
REMARK Flexibility Score: inf
ROOT
ATOM      1  C   UNL     1       9.296  12.947   8.049  1.00  0.00     0.048 C 
ATOM      2  C   UNL     1       7.987  12.244   7.812  1.00  0.00    -0.005 A 
ATOM      3  C   UNL     1       7.819  11.481   6.651  1.00  0.00     0.053 A 
ATOM      4  C   UNL     1       6.623  10.802   6.403  1.00  0.00     0.119 A 
ATOM      5  C   UNL     1       5.564  10.872   7.329  1.00  0.00    -0.003 A 
ATOM      6  C   UNL     1       5.701  11.683   8.484  1.00  0.00    -0.002 A 
ATOM      7  C   UNL     1       6.924  12.343   8.738  1.00  0.00     0.121 A 
ATOM      8  C   UNL     1       4.567  11.802   9.480  1.00  0.00     0.049 C 
ATOM      9  C   UNL     1       4.279  10.126   7.052  1.00  0.00     0.049 C 
ENDROOT
BRANCH   7  10
ATOM     10  O   UNL     1       7.065  13.090   9.914  1.00  0.00    -0.507 OA
ATOM     11  H   UNL     1       7.562  12.758  10.729  1.00  0.00     0.293 HD
ENDBRANCH   7  10
BRANCH   4  12
ATOM     12  O   UNL     1       6.489  10.053   5.233  1.00  0.00    -0.508 OA
ATOM     13  H   UNL     1       5.604   9.638   4.963  1.00  0.00     0.293 HD
ENDBRANCH   4  12
TORSDOF 2
ENDMDL
MODEL 6
REMARK VINA RESULT:    -4.707      2.361      4.807
REMARK INTER + INTRA:          -4.982
REMARK INTER:                  -4.982
REMARK INTRA:                   0.000
REMARK UNBOUND:                 0.000
REMARK SMILES Cc1cc(O)c(C)c(C)c1O
REMARK SMILES IDX 1 1 2 2 3 3 4 4 6 5 8 6 10 7 9 8 7 9 11 10 5 12
REMARK H PARENT 11 11 5 13
REMARK Flexibility Score: inf
ROOT
ATOM      1  C   UNL     1       3.643   8.623   8.826  1.00  0.00     0.048 C 
ATOM      2  C   UNL     1       4.393   9.777   8.216  1.00  0.00    -0.005 A 
ATOM      3  C   UNL     1       4.685   9.758   6.848  1.00  0.00     0.053 A 
ATOM      4  C   UNL     1       5.367  10.817   6.243  1.00  0.00     0.119 A 
ATOM      5  C   UNL     1       5.768  11.929   7.007  1.00  0.00    -0.003 A 
ATOM      6  C   UNL     1       5.526  11.939   8.405  1.00  0.00    -0.002 A 
ATOM      7  C   UNL     1       4.811  10.875   9.001  1.00  0.00     0.121 A 
ATOM      8  C   UNL     1       5.974  13.107   9.256  1.00  0.00     0.049 C 
ATOM      9  C   UNL     1       6.498  13.072   6.339  1.00  0.00     0.049 C 
ENDROOT
BRANCH   7  10
ATOM     10  O   UNL     1       4.525  10.929  10.370  1.00  0.00    -0.507 OA
ATOM     11  H   UNL     1       4.017  11.688  10.804  1.00  0.00     0.293 HD
ENDBRANCH   7  10
BRANCH   4  12
ATOM     12  O   UNL     1       5.645  10.763   4.875  1.00  0.00    -0.508 OA
ATOM     13  H   UNL     1       6.204  10.019   4.474  1.00  0.00     0.293 HD
ENDBRANCH   4  12
TORSDOF 2
ENDMDL
MODEL 7
REMARK VINA RESULT:    -4.690      1.750      3.361
REMARK INTER + INTRA:          -4.965
REMARK INTER:                  -4.965
REMARK INTRA:                   0.000
REMARK UNBOUND:                 0.000
REMARK SMILES Cc1cc(O)c(C)c(C)c1O
REMARK SMILES IDX 1 1 2 2 3 3 4 4 6 5 8 6 10 7 9 8 7 9 11 10 5 12
REMARK H PARENT 11 11 5 13
REMARK Flexibility Score: inf
ROOT
ATOM      1  C   UNL     1       5.219   9.910   8.891  1.00  0.00     0.048 C 
ATOM      2  C   UNL     1       6.064  10.487   7.787  1.00  0.00    -0.005 A 
ATOM      3  C   UNL     1       7.357  10.936   8.079  1.00  0.00     0.053 A 
ATOM      4  C   UNL     1       8.177  11.464   7.078  1.00  0.00     0.119 A 
ATOM      5  C   UNL     1       7.712  11.548   5.752  1.00  0.00    -0.003 A 
ATOM      6  C   UNL     1       6.385  11.146   5.452  1.00  0.00    -0.002 A 
ATOM      7  C   UNL     1       5.575  10.587   6.466  1.00  0.00     0.121 A 
ATOM      8  C   UNL     1       5.848  11.255   4.041  1.00  0.00     0.049 C 
ATOM      9  C   UNL     1       8.612  12.115   4.678  1.00  0.00     0.049 C 
ENDROOT
BRANCH   7  10
ATOM     10  O   UNL     1       4.290  10.138   6.141  1.00  0.00    -0.507 OA
ATOM     11  H   UNL     1       3.444  10.607   6.435  1.00  0.00     0.293 HD
ENDBRANCH   7  10
BRANCH   4  12
ATOM     12  O   UNL     1       9.461  11.906   7.405  1.00  0.00    -0.508 OA
ATOM     13  H   UNL     1      10.085  11.352   7.980  1.00  0.00     0.293 HD
ENDBRANCH   4  12
TORSDOF 2
ENDMDL
MODEL 8
REMARK VINA RESULT:    -4.688      1.930      3.657
REMARK INTER + INTRA:          -4.962
REMARK INTER:                  -4.962
REMARK INTRA:                   0.000
REMARK UNBOUND:                 0.000
REMARK SMILES Cc1cc(O)c(C)c(C)c1O
REMARK SMILES IDX 1 1 2 2 3 3 4 4 6 5 8 6 10 7 9 8 7 9 11 10 5 12
REMARK H PARENT 11 11 5 13
REMARK Flexibility Score: inf
ROOT
ATOM      1  C   UNL     1       3.861  10.486   7.337  1.00  0.00     0.048 C 
ATOM      2  C   UNL     1       5.240  11.070   7.492  1.00  0.00    -0.005 A 
ATOM      3  C   UNL     1       5.540  11.827   8.630  1.00  0.00     0.053 A 
ATOM      4  C   UNL     1       6.813  12.372   8.816  1.00  0.00     0.119 A 
ATOM      5  C   UNL     1       7.821  12.162   7.855  1.00  0.00    -0.003 A 
ATOM      6  C   UNL     1       7.516  11.442   6.671  1.00  0.00    -0.002 A 
ATOM      7  C   UNL     1       6.234  10.871   6.507  1.00  0.00     0.121 A 
ATOM      8  C   UNL     1       8.571  11.229   5.607  1.00  0.00     0.049 C 
ATOM      9  C   UNL     1       9.195  12.752   8.072  1.00  0.00     0.049 C 
ENDROOT
BRANCH   7  10
ATOM     10  O   UNL     1       5.968  10.111   5.362  1.00  0.00    -0.507 OA
ATOM     11  H   UNL     1       6.294   9.163   5.235  1.00  0.00     0.293 HD
ENDBRANCH   7  10
BRANCH   4  12
ATOM     12  O   UNL     1       7.077  13.125   9.962  1.00  0.00    -0.508 OA
ATOM     13  H   UNL     1       7.339  12.688  10.838  1.00  0.00     0.293 HD
ENDBRANCH   4  12
TORSDOF 2
ENDMDL
MODEL 9
REMARK VINA RESULT:    -4.630      1.981      4.469
REMARK INTER + INTRA:          -4.901
REMARK INTER:                  -4.901
REMARK INTRA:                   0.000
REMARK UNBOUND:                 0.000
REMARK SMILES Cc1cc(O)c(C)c(C)c1O
REMARK SMILES IDX 1 1 2 2 3 3 4 4 6 5 8 6 10 7 9 8 7 9 11 10 5 12
REMARK H PARENT 11 11 5 13
REMARK Flexibility Score: inf
ROOT
ATOM      1  C   UNL     1       3.578  10.476   9.412  1.00  0.00     0.048 C 
ATOM      2  C   UNL     1       4.566  10.892   8.355  1.00  0.00    -0.005 A 
ATOM      3  C   UNL     1       4.332  10.539   7.022  1.00  0.00     0.053 A 
ATOM      4  C   UNL     1       5.220  10.919   6.011  1.00  0.00     0.119 A 
ATOM      5  C   UNL     1       6.367  11.673   6.323  1.00  0.00    -0.003 A 
ATOM      6  C   UNL     1       6.644  11.993   7.677  1.00  0.00    -0.002 A 
ATOM      7  C   UNL     1       5.726  11.627   8.687  1.00  0.00     0.121 A 
ATOM      8  C   UNL     1       7.887  12.774   8.044  1.00  0.00     0.049 C 
ATOM      9  C   UNL     1       7.314  12.084   5.219  1.00  0.00     0.049 C 
ENDROOT
BRANCH   7  10
ATOM     10  O   UNL     1       5.983  12.004  10.010  1.00  0.00    -0.507 OA
ATOM     11  H   UNL     1       5.419  11.705  10.794  1.00  0.00     0.293 HD
ENDBRANCH   7  10
BRANCH   4  12
ATOM     12  O   UNL     1       4.957  10.546   4.691  1.00  0.00    -0.508 OA
ATOM     13  H   UNL     1       4.919   9.573   4.409  1.00  0.00     0.293 HD
ENDBRANCH   4  12
TORSDOF 2
ENDMDL
