MODEL 1
REMARK VINA RESULT:    -4.429      0.000      0.000
REMARK INTER + INTRA:          -5.899
REMARK INTER:                  -6.241
REMARK INTRA:                   0.342
REMARK UNBOUND:                 0.342
REMARK SMILES CC1=CCC(=C(C)C)C(=O)CC(C)=CCC1
REMARK SMILES IDX 12 1 14 2 13 3 15 4 16 5 2 6 1 7 3 8 11 10 9 11 10 12 5 13
REMARK SMILES IDX 6 14 7 15 8 16 4 17
REMARK H PARENT
REMARK Flexibility Score: 60.00
ROOT
ATOM      1  C   UNL     1      15.834 -11.426  64.536  1.00  0.00    -0.070 C 
ATOM      2  C   UNL     1      16.234 -10.532  63.604  1.00  0.00    -0.027 C 
ATOM      3  C   UNL     1      14.357 -11.543  64.814  1.00  0.00     0.039 C 
ENDROOT
BRANCH   2   4
ATOM      4  C   UNL     1      17.669 -10.202  63.256  1.00  0.00     0.032 C 
BRANCH   4   5
ATOM      5  C   UNL     1      18.352  -9.198  64.208  1.00  0.00     0.034 C 
BRANCH   5   6
ATOM      6  C   UNL     1      19.619  -9.743  64.842  1.00  0.00    -0.077 C 
ATOM      7  C   UNL     1      20.827  -9.920  63.956  1.00  0.00     0.039 C 
ATOM      8  C   UNL     1      19.716 -10.145  66.133  1.00  0.00    -0.023 CG0
ATOM      9  G   UNL     1      18.647 -10.046  67.204  1.00  0.00     0.000 G0
ENDBRANCH   5   6
ENDBRANCH   4   5
ENDBRANCH   2   4
BRANCH   1  10
ATOM     10  C   UNL     1      16.798 -12.243  65.373  1.00  0.00     0.111 C 
BRANCH  10  11
ATOM     11  C   UNL     1      16.792 -11.805  66.813  1.00  0.00     0.163 C 
ATOM     12  O   UNL     1      15.681 -11.715  67.402  1.00  0.00    -0.294 OA
BRANCH  11  13
ATOM     13  C   UNL     1      18.039 -11.416  67.538  1.00  0.00    -0.002 C 
ATOM     14  C   UNL     1      18.556 -12.217  68.518  1.00  0.00    -0.069 C 
ATOM     15  C   UNL     1      19.722 -11.780  69.376  1.00  0.00     0.039 C 
ATOM     16  C   UNL     1      17.983 -13.590  68.793  1.00  0.00     0.039 C 
BRANCH  13  17
ATOM     17  C   UNL     1      18.642 -10.060  67.207  1.00  0.00     0.066 CG0
ATOM     18  G   UNL     1      19.705 -10.151  66.130  1.00  0.00     0.000 G0
ENDBRANCH  13  17
ENDBRANCH  11  13
ENDBRANCH  10  11
ENDBRANCH   1  10
TORSDOF 0
ENDMDL
MODEL 2
REMARK VINA RESULT:    -4.417      2.622      5.011
REMARK INTER + INTRA:          -5.882
REMARK INTER:                  -6.319
REMARK INTRA:                   0.437
REMARK UNBOUND:                 0.342
REMARK SMILES CC1=CCC(=C(C)C)C(=O)CC(C)=CCC1
REMARK SMILES IDX 12 1 14 2 13 3 15 4 16 5 2 6 1 7 3 8 11 10 9 11 10 12 5 13
REMARK SMILES IDX 6 14 7 15 8 16 4 17
REMARK H PARENT
REMARK Flexibility Score: 60.00
ROOT
ATOM      1  C   UNL     1      14.880 -12.115  64.776  1.00  0.00    -0.070 C 
ATOM      2  C   UNL     1      15.412 -11.422  65.808  1.00  0.00    -0.027 C 
ATOM      3  C   UNL     1      13.378 -12.130  64.636  1.00  0.00     0.039 C 
ENDROOT
BRANCH   2   4
ATOM      4  C   UNL     1      16.880 -11.368  66.171  1.00  0.00     0.032 C 
BRANCH   4   5
ATOM      5  C   UNL     1      17.595 -10.057  65.784  1.00  0.00     0.034 C 
BRANCH   5   6
ATOM      6  C   UNL     1      18.320 -10.143  64.453  1.00  0.00    -0.077 C 
ATOM      7  C   UNL     1      19.803 -10.417  64.479  1.00  0.00     0.039 C 
ATOM      8  C   UNL     1      17.738  -9.923  63.249  1.00  0.00    -0.023 CG0
ATOM      9  G   UNL     1      16.270  -9.652  62.980  1.00  0.00     0.000 G0
ENDBRANCH   5   6
ENDBRANCH   4   5
ENDBRANCH   2   4
BRANCH   1  10
ATOM     10  C   UNL     1      15.708 -12.947  63.818  1.00  0.00     0.111 C 
BRANCH  10  11
ATOM     11  C   UNL     1      16.063 -12.174  62.576  1.00  0.00     0.163 C 
ATOM     12  O   UNL     1      16.877 -12.694  61.766  1.00  0.00    -0.294 OA
BRANCH  11  13
ATOM     13  C   UNL     1      15.539 -10.801  62.308  1.00  0.00    -0.002 C 
ATOM     14  C   UNL     1      14.508 -10.606  61.432  1.00  0.00    -0.069 C 
ATOM     15  C   UNL     1      14.060  -9.221  61.020  1.00  0.00     0.039 C 
ATOM     16  C   UNL     1      13.762 -11.774  60.825  1.00  0.00     0.039 C 
BRANCH  13  17
ATOM     17  C   UNL     1      16.259  -9.639  62.975  1.00  0.00     0.066 CG0
ATOM     18  G   UNL     1      17.716  -9.950  63.254  1.00  0.00     0.000 G0
ENDBRANCH  13  17
ENDBRANCH  11  13
ENDBRANCH  10  11
ENDBRANCH   1  10
TORSDOF 0
ENDMDL
MODEL 3
REMARK VINA RESULT:    -4.282      1.764      2.030
REMARK INTER + INTRA:          -5.693
REMARK INTER:                  -6.250
REMARK INTRA:                   0.557
REMARK UNBOUND:                 0.342
REMARK SMILES CC1=CCC(=C(C)C)C(=O)CC(C)=CCC1
REMARK SMILES IDX 12 1 14 2 13 3 15 4 16 5 2 6 1 7 3 8 11 10 9 11 10 12 5 13
REMARK SMILES IDX 6 14 7 15 8 16 4 17
REMARK H PARENT
REMARK Flexibility Score: 60.00
ROOT
ATOM      1  C   UNL     1      17.220 -11.741  65.888  1.00  0.00    -0.070 C 
ATOM      2  C   UNL     1      17.133 -10.819  64.905  1.00  0.00    -0.027 C 
ATOM      3  C   UNL     1      16.243 -11.648  67.033  1.00  0.00     0.039 C 
ENDROOT
BRANCH   2   4
ATOM      4  C   UNL     1      18.078 -10.688  63.730  1.00  0.00     0.032 C 
BRANCH   4   5
ATOM      5  C   UNL     1      18.948  -9.414  63.738  1.00  0.00     0.034 C 
BRANCH   5   6
ATOM      6  C   UNL     1      20.371  -9.665  64.201  1.00  0.00    -0.077 C 
ATOM      7  C   UNL     1      21.438  -9.810  63.145  1.00  0.00     0.039 C 
ATOM      8  C   UNL     1      20.735  -9.837  65.496  1.00  0.00    -0.023 CG0
ATOM      9  G   UNL     1      19.845  -9.720  66.718  1.00  0.00     0.000 G0
ENDBRANCH   5   6
ENDBRANCH   4   5
ENDBRANCH   2   4
BRANCH   1  10
ATOM     10  C   UNL     1      18.303 -12.800  65.942  1.00  0.00     0.111 C 
BRANCH  10  11
ATOM     11  C   UNL     1      19.573 -12.265  66.549  1.00  0.00     0.163 C 
ATOM     12  O   UNL     1      20.640 -12.910  66.359  1.00  0.00    -0.294 OA
BRANCH  11  13
ATOM     13  C   UNL     1      19.598 -11.045  67.410  1.00  0.00    -0.002 C 
ATOM     14  C   UNL     1      19.311 -11.125  68.744  1.00  0.00    -0.069 C 
ATOM     15  C   UNL     1      19.173  -9.892  69.609  1.00  0.00     0.039 C 
ATOM     16  C   UNL     1      19.114 -12.462  69.425  1.00  0.00     0.039 C 
BRANCH  13  17
ATOM     17  C   UNL     1      19.860  -9.714  66.723  1.00  0.00     0.066 CG0
ATOM     18  G   UNL     1      20.724  -9.864  65.487  1.00  0.00     0.000 G0
ENDBRANCH  13  17
ENDBRANCH  11  13
ENDBRANCH  10  11
ENDBRANCH   1  10
TORSDOF 0
ENDMDL
MODEL 4
REMARK VINA RESULT:    -4.279      1.754      4.572
REMARK INTER + INTRA:          -5.689
REMARK INTER:                  -6.387
REMARK INTRA:                   0.699
REMARK UNBOUND:                 0.342
REMARK SMILES CC1=CCC(=C(C)C)C(=O)CC(C)=CCC1
REMARK SMILES IDX 12 1 14 2 13 3 15 4 16 5 2 6 1 7 3 8 11 10 9 11 10 12 5 13
REMARK SMILES IDX 6 14 7 15 8 16 4 17
REMARK H PARENT
REMARK Flexibility Score: 60.00
ROOT
ATOM      1  C   UNL     1      19.553  -9.632  64.868  1.00  0.00    -0.070 C 
ATOM      2  C   UNL     1      19.984  -9.741  66.145  1.00  0.00    -0.027 C 
ATOM      3  C   UNL     1      20.583  -9.687  63.768  1.00  0.00     0.039 C 
ENDROOT
BRANCH   2   4
ATOM      4  C   UNL     1      19.122  -9.613  67.382  1.00  0.00     0.032 C 
BRANCH   4   5
ATOM      5  C   UNL     1      19.023 -10.893  68.238  1.00  0.00     0.034 C 
BRANCH   5   6
ATOM      6  C   UNL     1      18.817 -12.149  67.413  1.00  0.00    -0.077 C 
ATOM      7  C   UNL     1      19.894 -13.203  67.457  1.00  0.00     0.039 C 
ATOM      8  C   UNL     1      17.762 -12.356  66.586  1.00  0.00    -0.023 CG0
ATOM      9  G   UNL     1      16.560 -11.452  66.394  1.00  0.00     0.000 G0
ENDBRANCH   5   6
ENDBRANCH   4   5
ENDBRANCH   2   4
BRANCH   1  10
ATOM     10  C   UNL     1      18.108  -9.365  64.498  1.00  0.00     0.111 C 
BRANCH  10  11
ATOM     11  C   UNL     1      17.395 -10.628  64.095  1.00  0.00     0.163 C 
ATOM     12  O   UNL     1      17.722 -11.172  63.006  1.00  0.00    -0.294 OA
BRANCH  11  13
ATOM     13  C   UNL     1      16.284 -11.214  64.902  1.00  0.00    -0.002 C 
ATOM     14  C   UNL     1      15.053 -11.426  64.347  1.00  0.00    -0.069 C 
ATOM     15  C   UNL     1      13.867 -11.868  65.175  1.00  0.00     0.039 C 
ATOM     16  C   UNL     1      14.816 -11.227  62.866  1.00  0.00     0.039 C 
BRANCH  13  17
ATOM     17  C   UNL     1      16.555 -11.469  66.377  1.00  0.00     0.066 CG0
ATOM     18  G   UNL     1      17.755 -12.370  66.594  1.00  0.00     0.000 G0
ENDBRANCH  13  17
ENDBRANCH  11  13
ENDBRANCH  10  11
ENDBRANCH   1  10
TORSDOF 0
ENDMDL
MODEL 5
REMARK VINA RESULT:    -4.195      1.620      4.584
REMARK INTER + INTRA:          -5.570
REMARK INTER:                  -6.081
REMARK INTRA:                   0.511
REMARK UNBOUND:                 0.342
REMARK SMILES CC1=CCC(=C(C)C)C(=O)CC(C)=CCC1
REMARK SMILES IDX 12 1 14 2 13 3 15 4 16 5 2 6 1 7 3 8 11 10 9 11 10 12 5 13
REMARK SMILES IDX 6 14 7 15 8 16 4 17
REMARK H PARENT
REMARK Flexibility Score: 60.00
ROOT
ATOM      1  C   UNL     1      18.728  -9.994  66.217  1.00  0.00    -0.070 C 
ATOM      2  C   UNL     1      19.800 -10.338  66.965  1.00  0.00    -0.027 C 
ATOM      3  C   UNL     1      18.973  -9.533  64.802  1.00  0.00     0.039 C 
ENDROOT
BRANCH   2   4
ATOM      4  C   UNL     1      19.768 -10.730  68.426  1.00  0.00     0.032 C 
BRANCH   4   5
ATOM      5  C   UNL     1      20.046 -12.222  68.702  1.00  0.00     0.034 C 
BRANCH   5   6
ATOM      6  C   UNL     1      18.782 -13.042  68.885  1.00  0.00    -0.077 C 
ATOM      7  C   UNL     1      18.361 -13.377  70.294  1.00  0.00     0.039 C 
ATOM      8  C   UNL     1      18.045 -13.549  67.866  1.00  0.00    -0.023 CG0
ATOM      9  G   UNL     1      18.265 -13.330  66.382  1.00  0.00     0.000 G0
ENDBRANCH   5   6
ENDBRANCH   4   5
ENDBRANCH   2   4
BRANCH   1  10
ATOM     10  C   UNL     1      17.312  -9.962  66.757  1.00  0.00     0.111 C 
BRANCH  10  11
ATOM     11  C   UNL     1      16.650 -11.310  66.660  1.00  0.00     0.163 C 
ATOM     12  O   UNL     1      15.644 -11.532  67.387  1.00  0.00    -0.294 OA
BRANCH  11  13
ATOM     13  C   UNL     1      17.178 -12.402  65.788  1.00  0.00    -0.002 C 
ATOM     14  C   UNL     1      16.655 -12.618  64.543  1.00  0.00    -0.069 C 
ATOM     15  C   UNL     1      17.056 -13.809  63.702  1.00  0.00     0.039 C 
ATOM     16  C   UNL     1      15.640 -11.669  63.944  1.00  0.00     0.039 C 
BRANCH  13  17
ATOM     17  C   UNL     1      18.245 -13.311  66.380  1.00  0.00     0.066 CG0
ATOM     18  G   UNL     1      18.043 -13.543  67.864  1.00  0.00     0.000 G0
ENDBRANCH  13  17
ENDBRANCH  11  13
ENDBRANCH  10  11
ENDBRANCH   1  10
TORSDOF 0
ENDMDL
MODEL 6
REMARK VINA RESULT:    -4.142      1.551      4.132
REMARK INTER + INTRA:          -5.495
REMARK INTER:                  -5.956
REMARK INTRA:                   0.461
REMARK UNBOUND:                 0.342
REMARK SMILES CC1=CCC(=C(C)C)C(=O)CC(C)=CCC1
REMARK SMILES IDX 12 1 14 2 13 3 15 4 16 5 2 6 1 7 3 8 11 10 9 11 10 12 5 13
REMARK SMILES IDX 6 14 7 15 8 16 4 17
REMARK H PARENT
REMARK Flexibility Score: 60.00
ROOT
ATOM      1  C   UNL     1      17.785 -12.044  67.221  1.00  0.00    -0.070 C 
ATOM      2  C   UNL     1      18.820 -11.213  67.479  1.00  0.00    -0.027 C 
ATOM      3  C   UNL     1      17.998 -13.522  67.432  1.00  0.00     0.039 C 
ENDROOT
BRANCH   2   4
ATOM      4  C   UNL     1      18.833  -9.719  67.238  1.00  0.00     0.032 C 
BRANCH   4   5
ATOM      5  C   UNL     1      19.849  -9.242  66.179  1.00  0.00     0.034 C 
BRANCH   5   6
ATOM      6  C   UNL     1      19.793 -10.047  64.894  1.00  0.00    -0.077 C 
ATOM      7  C   UNL     1      21.019 -10.836  64.507  1.00  0.00     0.039 C 
ATOM      8  C   UNL     1      18.742 -10.050  64.038  1.00  0.00    -0.023 CG0
ATOM      9  G   UNL     1      17.409  -9.353  64.227  1.00  0.00     0.000 G0
ENDBRANCH   5   6
ENDBRANCH   4   5
ENDBRANCH   2   4
BRANCH   1  10
ATOM     10  C   UNL     1      16.464 -11.574  66.648  1.00  0.00     0.111 C 
BRANCH  10  11
ATOM     11  C   UNL     1      16.486 -11.556  65.143  1.00  0.00     0.163 C 
ATOM     12  O   UNL     1      16.768 -12.627  64.540  1.00  0.00    -0.294 OA
BRANCH  11  13
ATOM     13  C   UNL     1      16.251 -10.311  64.352  1.00  0.00    -0.002 C 
ATOM     14  C   UNL     1      15.065 -10.110  63.702  1.00  0.00    -0.069 C 
ATOM     15  C   UNL     1      14.853  -8.939  62.767  1.00  0.00     0.039 C 
ATOM     16  C   UNL     1      13.899 -11.056  63.886  1.00  0.00     0.039 C 
BRANCH  13  17
ATOM     17  C   UNL     1      17.411  -9.336  64.227  1.00  0.00     0.066 CG0
ATOM     18  G   UNL     1      18.740 -10.044  64.046  1.00  0.00     0.000 G0
ENDBRANCH  13  17
ENDBRANCH  11  13
ENDBRANCH  10  11
ENDBRANCH   1  10
TORSDOF 0
ENDMDL
MODEL 7
REMARK VINA RESULT:    -4.006      2.349      4.094
REMARK INTER + INTRA:          -5.303
REMARK INTER:                  -5.884
REMARK INTRA:                   0.581
REMARK UNBOUND:                 0.342
REMARK SMILES CC1=CCC(=C(C)C)C(=O)CC(C)=CCC1
REMARK SMILES IDX 12 1 14 2 13 3 15 4 16 5 2 6 1 7 3 8 11 10 9 11 10 12 5 13
REMARK SMILES IDX 6 14 7 15 8 16 4 17
REMARK H PARENT
REMARK Flexibility Score: 60.00
ROOT
ATOM      1  C   UNL     1      15.700  -9.444  63.310  1.00  0.00    -0.070 C 
ATOM      2  C   UNL     1      14.563 -10.174  63.322  1.00  0.00    -0.027 C 
ATOM      3  C   UNL     1      16.108  -8.793  62.012  1.00  0.00     0.039 C 
ENDROOT
BRANCH   2   4
ATOM      4  C   UNL     1      14.042 -10.978  64.494  1.00  0.00     0.032 C 
BRANCH   4   5
ATOM      5  C   UNL     1      14.136 -12.509  64.322  1.00  0.00     0.034 C 
BRANCH   5   6
ATOM      6  C   UNL     1      15.374 -12.949  63.563  1.00  0.00    -0.077 C 
ATOM      7  C   UNL     1      15.189 -13.468  62.159  1.00  0.00     0.039 C 
ATOM      8  C   UNL     1      16.625 -12.972  64.087  1.00  0.00    -0.023 CG0
ATOM      9  G   UNL     1      17.049 -12.485  65.459  1.00  0.00     0.000 G0
ENDBRANCH   5   6
ENDBRANCH   4   5
ENDBRANCH   2   4
BRANCH   1  10
ATOM     10  C   UNL     1      16.626  -9.326  64.504  1.00  0.00     0.111 C 
BRANCH  10  11
ATOM     11  C   UNL     1      17.802 -10.258  64.390  1.00  0.00     0.163 C 
ATOM     12  O   UNL     1      18.556 -10.143  63.386  1.00  0.00    -0.294 OA
BRANCH  11  13
ATOM     13  C   UNL     1      18.064 -11.344  65.382  1.00  0.00    -0.002 C 
ATOM     14  C   UNL     1      19.214 -11.352  66.122  1.00  0.00    -0.069 C 
ATOM     15  C   UNL     1      19.582 -12.515  67.016  1.00  0.00     0.039 C 
ATOM     16  C   UNL     1      20.182 -10.190  66.080  1.00  0.00     0.039 C 
BRANCH  13  17
ATOM     17  C   UNL     1      17.050 -12.475  65.460  1.00  0.00     0.066 CG0
ATOM     18  G   UNL     1      16.640 -12.975  64.088  1.00  0.00     0.000 G0
ENDBRANCH  13  17
ENDBRANCH  11  13
ENDBRANCH  10  11
ENDBRANCH   1  10
TORSDOF 0
ENDMDL
MODEL 8
REMARK VINA RESULT:    -3.935     15.956     17.968
REMARK INTER + INTRA:          -5.204
REMARK INTER:                  -5.585
REMARK INTRA:                   0.382
REMARK UNBOUND:                 0.342
REMARK SMILES CC1=CCC(=C(C)C)C(=O)CC(C)=CCC1
REMARK SMILES IDX 12 1 14 2 13 3 15 4 16 5 2 6 1 7 3 8 11 10 9 11 10 12 5 13
REMARK SMILES IDX 6 14 7 15 8 16 4 17
REMARK H PARENT
REMARK Flexibility Score: 60.00
ROOT
ATOM      1  C   UNL     1       9.313   1.674  62.967  1.00  0.00    -0.070 C 
ATOM      2  C   UNL     1       8.415   0.883  63.596  1.00  0.00    -0.027 C 
ATOM      3  C   UNL     1      10.458   1.008  62.247  1.00  0.00     0.039 C 
ENDROOT
BRANCH   2   4
ATOM      4  C   UNL     1       7.260   1.363  64.448  1.00  0.00     0.032 C 
BRANCH   4   5
ATOM      5  C   UNL     1       5.871   1.234  63.787  1.00  0.00     0.034 C 
BRANCH   5   6
ATOM      6  C   UNL     1       5.914   0.546  62.436  1.00  0.00    -0.077 C 
ATOM      7  C   UNL     1       5.865  -0.961  62.414  1.00  0.00     0.039 C 
ATOM      8  C   UNL     1       6.063   1.192  61.253  1.00  0.00    -0.023 CG0
ATOM      9  G   UNL     1       6.116   2.691  61.031  1.00  0.00     0.000 G0
ENDBRANCH   5   6
ENDBRANCH   4   5
ENDBRANCH   2   4
BRANCH   1  10
ATOM     10  C   UNL     1       9.276   3.188  63.030  1.00  0.00     0.111 C 
BRANCH  10  11
ATOM     11  C   UNL     1       8.028   3.740  62.395  1.00  0.00     0.163 C 
ATOM     12  O   UNL     1       7.364   4.598  63.038  1.00  0.00    -0.294 OA
BRANCH  11  13
ATOM     13  C   UNL     1       7.522   3.262  61.073  1.00  0.00    -0.002 C 
ATOM     14  C   UNL     1       8.279   3.404  59.943  1.00  0.00    -0.069 C 
ATOM     15  C   UNL     1       7.735   3.078  58.570  1.00  0.00     0.039 C 
ATOM     16  C   UNL     1       9.706   3.899  60.012  1.00  0.00     0.039 C 
BRANCH  13  17
ATOM     17  C   UNL     1       6.107   2.707  61.029  1.00  0.00     0.066 CG0
ATOM     18  G   UNL     1       6.070   1.207  61.243  1.00  0.00     0.000 G0
ENDBRANCH  13  17
ENDBRANCH  11  13
ENDBRANCH  10  11
ENDBRANCH   1  10
TORSDOF 0
ENDMDL
MODEL 9
REMARK VINA RESULT:    -3.874     15.211     16.880
REMARK INTER + INTRA:          -5.118
REMARK INTER:                  -5.437
REMARK INTRA:                   0.319
REMARK UNBOUND:                 0.342
REMARK SMILES CC1=CCC(=C(C)C)C(=O)CC(C)=CCC1
REMARK SMILES IDX 12 1 14 2 13 3 15 4 16 5 2 6 1 7 3 8 11 10 9 11 10 12 5 13
REMARK SMILES IDX 6 14 7 15 8 16 4 17
REMARK H PARENT
REMARK Flexibility Score: 60.00
ROOT
ATOM      1  C   UNL     1       5.970   1.301  64.506  1.00  0.00    -0.070 C 
ATOM      2  C   UNL     1       5.537   2.567  64.315  1.00  0.00    -0.027 C 
ATOM      3  C   UNL     1       5.122   0.384  65.351  1.00  0.00     0.039 C 
ENDROOT
BRANCH   2   4
ATOM      4  C   UNL     1       6.291   3.657  63.585  1.00  0.00     0.032 C 
BRANCH   4   5
ATOM      5  C   UNL     1       6.343   3.493  62.051  1.00  0.00     0.034 C 
BRANCH   5   6
ATOM      6  C   UNL     1       7.758   3.448  61.504  1.00  0.00    -0.077 C 
ATOM      7  C   UNL     1       8.611   4.681  61.664  1.00  0.00     0.039 C 
ATOM      8  C   UNL     1       8.281   2.400  60.821  1.00  0.00    -0.023 CG0
ATOM      9  G   UNL     1       7.622   1.061  60.557  1.00  0.00     0.000 G0
ENDBRANCH   5   6
ENDBRANCH   4   5
ENDBRANCH   2   4
BRANCH   1  10
ATOM     10  C   UNL     1       7.302   0.791  63.992  1.00  0.00     0.111 C 
BRANCH  10  11
ATOM     11  C   UNL     1       7.128  -0.107  62.796  1.00  0.00     0.163 C 
ATOM     12  O   UNL     1       6.253  -1.012  62.855  1.00  0.00    -0.294 OA
BRANCH  11  13
ATOM     13  C   UNL     1       7.993  -0.002  61.583  1.00  0.00    -0.002 C 
ATOM     14  C   UNL     1       9.115  -0.773  61.455  1.00  0.00    -0.069 C 
ATOM     15  C   UNL     1      10.094  -0.579  60.318  1.00  0.00     0.039 C 
ATOM     16  C   UNL     1       9.434  -1.865  62.453  1.00  0.00     0.039 C 
BRANCH  13  17
ATOM     17  C   UNL     1       7.624   1.057  60.556  1.00  0.00     0.066 CG0
ATOM     18  G   UNL     1       8.294   2.388  60.836  1.00  0.00     0.000 G0
ENDBRANCH  13  17
ENDBRANCH  11  13
ENDBRANCH  10  11
ENDBRANCH   1  10
TORSDOF 0
ENDMDL
