MODEL 1
REMARK VINA RESULT:    -4.889      0.000      0.000
REMARK INTER + INTRA:          -7.866
REMARK INTER:                  -7.462
REMARK INTRA:                  -0.404
REMARK UNBOUND:                -0.404
REMARK SMILES C[C@@H]1O[C@@H](Oc2cc(O)c3c(=O)c(O[C@@H]4O[C@H](C)[C@@H](O)[C@@H](O)[C@H]4O)c(-c4ccc(O)cc4)oc3c2)[C@H](O)[C@@H](O)[C@@H]1O
REMARK SMILES IDX 6 1 7 2 8 3 10 4 34 5 35 6 33 7 25 8 13 9 11 10 12 11 5 12
REMARK SMILES IDX 4 13 1 14 2 15 40 16 3 17 38 18 36 19 41 20 39 22 37 24 9 26
REMARK SMILES IDX 26 28 27 29 32 30 28 31 31 32 29 33 30 34 14 36 15 37 23 38
REMARK SMILES IDX 16 39 21 40 17 41 19 42 18 43 24 44 22 46 20 48
REMARK H PARENT 41 21 39 23 37 25 9 27 30 35 24 45 22 47 20 49
REMARK Flexibility Score: inf
ROOT
ATOM      1  C   UNL     1      18.822  42.125  74.956  1.00  0.00     0.130 A 
ATOM      2  C   UNL     1      19.663  42.904  74.147  1.00  0.00     0.093 A 
ATOM      3  C   UNL     1      19.246  44.149  73.659  1.00  0.00     0.134 A 
ATOM      4  C   UNL     1      17.973  44.666  74.037  1.00  0.00     0.111 A 
ATOM      5  C   UNL     1      17.122  43.855  74.834  1.00  0.00     0.146 A 
ATOM      6  C   UNL     1      17.556  42.609  75.291  1.00  0.00     0.094 A 
ATOM      7  O   UNL     1      15.896  44.259  75.149  1.00  0.00    -0.452 OA
ATOM      8  C   UNL     1      15.390  45.428  74.772  1.00  0.00     0.180 A 
ATOM      9  C   UNL     1      16.205  46.341  74.071  1.00  0.00     0.214 A 
ATOM     10  C   UNL     1      17.498  45.955  73.701  1.00  0.00     0.239 A 
ATOM     11  O   UNL     1      18.227  46.793  73.108  1.00  0.00    -0.285 OA
ENDROOT
BRANCH   1  12
ATOM     12  O   UNL     1      19.204  40.865  75.437  1.00  0.00    -0.462 OA
BRANCH  12  13
ATOM     13  C   UNL     1      19.041  40.442  76.795  1.00  0.00     0.339 C 
ATOM     14  C   UNL     1      20.125  37.285  77.816  1.00  0.00     0.042 C 
ATOM     15  C   UNL     1      20.085  38.281  76.648  1.00  0.00     0.151 C 
ATOM     16  C   UNL     1      18.927  37.969  75.652  1.00  0.00     0.174 C 
ATOM     17  O   UNL     1      20.118  39.603  77.185  1.00  0.00    -0.335 OA
ATOM     18  C   UNL     1      17.563  38.442  76.205  1.00  0.00     0.180 C 
ATOM     19  C   UNL     1      17.671  39.767  76.997  1.00  0.00     0.214 C 
BRANCH  16  20
ATOM     20  O   UNL     1      18.885  36.593  75.368  1.00  0.00    -0.388 OA
ATOM     21  H   UNL     1      18.644  36.501  74.409  1.00  0.00     0.211 HD
ENDBRANCH  16  20
BRANCH  18  22
ATOM     22  O   UNL     1      16.618  38.553  75.165  1.00  0.00    -0.387 OA
ATOM     23  H   UNL     1      17.086  38.896  74.359  1.00  0.00     0.211 HD
ENDBRANCH  18  22
BRANCH  19  24
ATOM     24  O   UNL     1      17.482  39.506  78.365  1.00  0.00    -0.384 OA
ATOM     25  H   UNL     1      17.424  40.385  78.824  1.00  0.00     0.211 HD
ENDBRANCH  19  24
ENDBRANCH  12  13
ENDBRANCH   1  12
BRANCH   3  26
ATOM     26  O   UNL     1      20.124  44.809  72.795  1.00  0.00    -0.507 OA
ATOM     27  H   UNL     1      19.886  45.618  72.241  1.00  0.00     0.293 HD
ENDBRANCH   3  26
BRANCH   8  28
ATOM     28  C   UNL     1      13.976  45.714  75.099  1.00  0.00     0.021 A 
ATOM     29  C   UNL     1      13.596  47.010  75.477  1.00  0.00     0.016 A 
ATOM     30  C   UNL     1      13.006  44.691  75.080  1.00  0.00     0.016 A 
ATOM     31  C   UNL     1      12.266  47.287  75.812  1.00  0.00     0.047 A 
ATOM     32  C   UNL     1      11.677  44.973  75.410  1.00  0.00     0.047 A 
ATOM     33  C   UNL     1      11.304  46.273  75.780  1.00  0.00     0.115 A 
BRANCH  33  34
ATOM     34  O   UNL     1       9.984  46.563  76.120  1.00  0.00    -0.508 OA
ATOM     35  H   UNL     1       9.381  47.099  75.509  1.00  0.00     0.293 HD
ENDBRANCH  33  34
ENDBRANCH   8  28
BRANCH   9  36
ATOM     36  O   UNL     1      15.757  47.625  73.731  1.00  0.00    -0.454 OA
BRANCH  36  37
ATOM     37  C   UNL     1      15.476  48.039  72.392  1.00  0.00     0.339 C 
ATOM     38  C   UNL     1      14.157  47.426  71.890  1.00  0.00     0.214 C 
ATOM     39  O   UNL     1      15.496  49.458  72.292  1.00  0.00    -0.335 OA
ATOM     40  C   UNL     1      12.964  48.050  72.627  1.00  0.00     0.180 C 
ATOM     41  C   UNL     1      14.427  50.103  72.982  1.00  0.00     0.151 C 
ATOM     42  C   UNL     1      13.027  49.585  72.558  1.00  0.00     0.174 C 
ATOM     43  C   UNL     1      14.624  50.125  74.506  1.00  0.00     0.042 C 
BRANCH  38  44
ATOM     44  O   UNL     1      14.052  47.636  70.503  1.00  0.00    -0.384 OA
ATOM     45  H   UNL     1      13.740  48.571  70.372  1.00  0.00     0.211 HD
ENDBRANCH  38  44
BRANCH  40  46
ATOM     46  O   UNL     1      11.760  47.583  72.076  1.00  0.00    -0.387 OA
ATOM     47  H   UNL     1      11.062  47.682  72.779  1.00  0.00     0.211 HD
ENDBRANCH  40  46
BRANCH  42  48
ATOM     48  O   UNL     1      12.741  50.012  71.252  1.00  0.00    -0.388 OA
ATOM     49  H   UNL     1      11.753  50.066  71.180  1.00  0.00     0.211 HD
ENDBRANCH  42  48
ENDBRANCH  36  37
ENDBRANCH   9  36
TORSDOF 13
ENDMDL
MODEL 2
REMARK VINA RESULT:    -4.203      3.455     10.257
REMARK INTER + INTRA:          -6.817
REMARK INTER:                  -6.968
REMARK INTRA:                   0.150
REMARK UNBOUND:                -0.404
REMARK SMILES C[C@@H]1O[C@@H](Oc2cc(O)c3c(=O)c(O[C@@H]4O[C@H](C)[C@@H](O)[C@@H](O)[C@H]4O)c(-c4ccc(O)cc4)oc3c2)[C@H](O)[C@@H](O)[C@@H]1O
REMARK SMILES IDX 6 1 7 2 8 3 10 4 34 5 35 6 33 7 25 8 13 9 11 10 12 11 5 12
REMARK SMILES IDX 4 13 1 14 2 15 40 16 3 17 38 18 36 19 41 20 39 22 37 24 9 26
REMARK SMILES IDX 26 28 27 29 32 30 28 31 31 32 29 33 30 34 14 36 15 37 23 38
REMARK SMILES IDX 16 39 21 40 17 41 19 42 18 43 24 44 22 46 20 48
REMARK H PARENT 41 21 39 23 37 25 9 27 30 35 24 45 22 47 20 49
REMARK Flexibility Score: inf
ROOT
ATOM      1  C   UNL     1      10.782  48.222  72.506  1.00  0.00     0.130 A 
ATOM      2  C   UNL     1      10.740  47.339  73.596  1.00  0.00     0.093 A 
ATOM      3  C   UNL     1      11.916  46.836  74.164  1.00  0.00     0.134 A 
ATOM      4  C   UNL     1      13.181  47.271  73.672  1.00  0.00     0.111 A 
ATOM      5  C   UNL     1      13.209  48.144  72.552  1.00  0.00     0.146 A 
ATOM      6  C   UNL     1      12.019  48.614  71.992  1.00  0.00     0.094 A 
ATOM      7  O   UNL     1      14.362  48.517  72.008  1.00  0.00    -0.452 OA
ATOM      8  C   UNL     1      15.548  48.132  72.467  1.00  0.00     0.180 A 
ATOM      9  C   UNL     1      15.615  47.354  73.642  1.00  0.00     0.214 A 
ATOM     10  C   UNL     1      14.428  46.921  74.241  1.00  0.00     0.239 A 
ATOM     11  O   UNL     1      14.502  46.259  75.310  1.00  0.00    -0.285 OA
ENDROOT
BRANCH   1  12
ATOM     12  O   UNL     1       9.619  48.721  71.902  1.00  0.00    -0.462 OA
BRANCH  12  13
ATOM     13  C   UNL     1       9.617  49.654  70.816  1.00  0.00     0.339 C 
ATOM     14  C   UNL     1       6.957  49.747  68.558  1.00  0.00     0.042 C 
ATOM     15  C   UNL     1       7.480  49.113  69.854  1.00  0.00     0.151 C 
ATOM     16  C   UNL     1       8.128  47.717  69.604  1.00  0.00     0.174 C 
ATOM     17  O   UNL     1       8.292  50.075  70.528  1.00  0.00    -0.335 OA
ATOM     18  C   UNL     1       9.546  47.852  69.004  1.00  0.00     0.180 C 
ATOM     19  C   UNL     1      10.323  49.060  69.583  1.00  0.00     0.214 C 
BRANCH  16  20
ATOM     20  O   UNL     1       7.314  46.946  68.755  1.00  0.00    -0.388 OA
ATOM     21  H   UNL     1       7.247  47.435  67.893  1.00  0.00     0.211 HD
ENDBRANCH  16  20
BRANCH  18  22
ATOM     22  O   UNL     1      10.273  46.657  69.177  1.00  0.00    -0.387 OA
ATOM     23  H   UNL     1       9.690  46.007  69.649  1.00  0.00     0.211 HD
ENDBRANCH  18  22
BRANCH  19  24
ATOM     24  O   UNL     1      10.439  50.052  68.594  1.00  0.00    -0.384 OA
ATOM     25  H   UNL     1      11.286  49.877  68.104  1.00  0.00     0.211 HD
ENDBRANCH  19  24
ENDBRANCH  12  13
ENDBRANCH   1  12
BRANCH   3  26
ATOM     26  O   UNL     1      11.765  45.900  75.191  1.00  0.00    -0.507 OA
ATOM     27  H   UNL     1      11.882  44.903  75.083  1.00  0.00     0.293 HD
ENDBRANCH   3  26
BRANCH   8  28
ATOM     28  C   UNL     1      16.753  48.532  71.709  1.00  0.00     0.021 A 
ATOM     29  C   UNL     1      16.764  49.747  71.007  1.00  0.00     0.016 A 
ATOM     30  C   UNL     1      17.881  47.690  71.643  1.00  0.00     0.016 A 
ATOM     31  C   UNL     1      17.889  50.125  70.267  1.00  0.00     0.047 A 
ATOM     32  C   UNL     1      19.006  48.074  70.907  1.00  0.00     0.047 A 
ATOM     33  C   UNL     1      19.011  49.293  70.214  1.00  0.00     0.115 A 
BRANCH  33  34
ATOM     34  O   UNL     1      20.124  49.680  69.469  1.00  0.00    -0.508 OA
ATOM     35  H   UNL     1      20.184  49.512  68.473  1.00  0.00     0.293 HD
ENDBRANCH  33  34
ENDBRANCH   8  28
BRANCH   9  36
ATOM     36  O   UNL     1      16.838  47.000  74.227  1.00  0.00    -0.454 OA
BRANCH  36  37
ATOM     37  C   UNL     1      16.994  45.915  75.145  1.00  0.00     0.339 C 
ATOM     38  C   UNL     1      17.213  44.587  74.400  1.00  0.00     0.214 C 
ATOM     39  O   UNL     1      18.029  46.196  76.081  1.00  0.00    -0.335 OA
ATOM     40  C   UNL     1      18.590  44.575  73.724  1.00  0.00     0.180 C 
ATOM     41  C   UNL     1      19.335  46.228  75.510  1.00  0.00     0.151 C 
ATOM     42  C   UNL     1      19.693  44.934  74.734  1.00  0.00     0.174 C 
ATOM     43  C   UNL     1      19.604  47.508  74.702  1.00  0.00     0.042 C 
BRANCH  38  44
ATOM     44  O   UNL     1      17.095  43.523  75.313  1.00  0.00    -0.384 OA
ATOM     45  H   UNL     1      17.147  42.680  74.788  1.00  0.00     0.211 HD
ENDBRANCH  38  44
BRANCH  40  46
ATOM     46  O   UNL     1      18.836  43.314  73.156  1.00  0.00    -0.387 OA
ATOM     47  H   UNL     1      19.581  43.430  72.504  1.00  0.00     0.211 HD
ENDBRANCH  40  46
BRANCH  42  48
ATOM     48  O   UNL     1      19.870  43.874  75.637  1.00  0.00    -0.388 OA
ATOM     49  H   UNL     1      20.708  43.413  75.375  1.00  0.00     0.211 HD
ENDBRANCH  42  48
ENDBRANCH  36  37
ENDBRANCH   9  36
TORSDOF 13
ENDMDL
MODEL 3
REMARK VINA RESULT:    -4.043      4.299     10.588
REMARK INTER + INTRA:          -6.574
REMARK INTER:                  -5.800
REMARK INTRA:                  -0.774
REMARK UNBOUND:                -0.404
REMARK SMILES C[C@@H]1O[C@@H](Oc2cc(O)c3c(=O)c(O[C@@H]4O[C@H](C)[C@@H](O)[C@@H](O)[C@H]4O)c(-c4ccc(O)cc4)oc3c2)[C@H](O)[C@@H](O)[C@@H]1O
REMARK SMILES IDX 6 1 7 2 8 3 10 4 34 5 35 6 33 7 25 8 13 9 11 10 12 11 5 12
REMARK SMILES IDX 4 13 1 14 2 15 40 16 3 17 38 18 36 19 41 20 39 22 37 24 9 26
REMARK SMILES IDX 26 28 27 29 32 30 28 31 31 32 29 33 30 34 14 36 15 37 23 38
REMARK SMILES IDX 16 39 21 40 17 41 19 42 18 43 24 44 22 46 20 48
REMARK H PARENT 41 21 39 23 37 25 9 27 30 35 24 45 22 47 20 49
REMARK Flexibility Score: inf
ROOT
ATOM      1  C   UNL     1       9.557  48.119  70.137  1.00  0.00     0.130 A 
ATOM      2  C   UNL     1      10.598  47.695  69.298  1.00  0.00     0.093 A 
ATOM      3  C   UNL     1      11.902  47.544  69.783  1.00  0.00     0.134 A 
ATOM      4  C   UNL     1      12.171  47.766  71.165  1.00  0.00     0.111 A 
ATOM      5  C   UNL     1      11.114  48.220  71.997  1.00  0.00     0.146 A 
ATOM      6  C   UNL     1       9.826  48.381  71.482  1.00  0.00     0.094 A 
ATOM      7  O   UNL     1      11.331  48.515  73.275  1.00  0.00    -0.452 OA
ATOM      8  C   UNL     1      12.516  48.391  73.864  1.00  0.00     0.180 A 
ATOM      9  C   UNL     1      13.595  47.842  73.141  1.00  0.00     0.214 A 
ATOM     10  C   UNL     1      13.420  47.533  71.787  1.00  0.00     0.239 A 
ATOM     11  O   UNL     1      14.381  47.010  71.163  1.00  0.00    -0.285 OA
ENDROOT
BRANCH   1  12
ATOM     12  O   UNL     1       8.247  48.302  69.671  1.00  0.00    -0.462 OA
BRANCH  12  13
ATOM     13  C   UNL     1       7.861  49.323  68.745  1.00  0.00     0.339 C 
ATOM     14  C   UNL     1       4.857  49.081  66.984  1.00  0.00     0.042 C 
ATOM     15  C   UNL     1       5.727  48.441  68.074  1.00  0.00     0.151 C 
ATOM     16  C   UNL     1       6.573  47.252  67.526  1.00  0.00     0.174 C 
ATOM     17  O   UNL     1       6.450  49.477  68.739  1.00  0.00    -0.335 OA
ATOM     18  C   UNL     1       7.800  47.752  66.729  1.00  0.00     0.180 C 
ATOM     19  C   UNL     1       8.423  49.030  67.341  1.00  0.00     0.214 C 
BRANCH  16  20
ATOM     20  O   UNL     1       5.778  46.419  66.718  1.00  0.00    -0.388 OA
ATOM     21  H   UNL     1       6.373  46.036  66.021  1.00  0.00     0.211 HD
ENDBRANCH  16  20
BRANCH  18  22
ATOM     22  O   UNL     1       8.763  46.730  66.610  1.00  0.00    -0.387 OA
ATOM     23  H   UNL     1       9.289  46.702  67.452  1.00  0.00     0.211 HD
ENDBRANCH  18  22
BRANCH  19  24
ATOM     24  O   UNL     1       8.158  50.123  66.500  1.00  0.00    -0.384 OA
ATOM     25  H   UNL     1       7.174  50.158  66.368  1.00  0.00     0.211 HD
ENDBRANCH  19  24
ENDBRANCH  12  13
ENDBRANCH   1  12
BRANCH   3  26
ATOM     26  O   UNL     1      12.882  47.197  68.849  1.00  0.00    -0.507 OA
ATOM     27  H   UNL     1      12.778  47.281  67.849  1.00  0.00     0.293 HD
ENDBRANCH   3  26
BRANCH   8  28
ATOM     28  C   UNL     1      12.649  48.850  75.263  1.00  0.00     0.021 A 
ATOM     29  C   UNL     1      13.712  49.692  75.623  1.00  0.00     0.016 A 
ATOM     30  C   UNL     1      11.748  48.420  76.258  1.00  0.00     0.016 A 
ATOM     31  C   UNL     1      13.863  50.114  76.948  1.00  0.00     0.047 A 
ATOM     32  C   UNL     1      11.898  48.848  77.580  1.00  0.00     0.047 A 
ATOM     33  C   UNL     1      12.960  49.695  77.929  1.00  0.00     0.115 A 
BRANCH  33  34
ATOM     34  O   UNL     1      13.124  50.120  79.246  1.00  0.00    -0.508 OA
ATOM     35  H   UNL     1      12.413  50.656  79.727  1.00  0.00     0.293 HD
ENDBRANCH  33  34
ENDBRANCH   8  28
BRANCH   9  36
ATOM     36  O   UNL     1      14.839  47.599  73.737  1.00  0.00    -0.454 OA
BRANCH  36  37
ATOM     37  C   UNL     1      15.029  46.719  74.848  1.00  0.00     0.339 C 
ATOM     38  C   UNL     1      14.719  45.263  74.460  1.00  0.00     0.214 C 
ATOM     39  O   UNL     1      16.334  46.876  75.394  1.00  0.00    -0.335 OA
ATOM     40  C   UNL     1      15.790  44.727  73.499  1.00  0.00     0.180 C 
ATOM     41  C   UNL     1      17.380  46.423  74.536  1.00  0.00     0.151 C 
ATOM     42  C   UNL     1      17.197  44.953  74.076  1.00  0.00     0.174 C 
ATOM     43  C   UNL     1      17.660  47.387  73.373  1.00  0.00     0.042 C 
BRANCH  38  44
ATOM     44  O   UNL     1      14.658  44.480  75.627  1.00  0.00    -0.384 OA
ATOM     45  H   UNL     1      13.711  44.484  75.931  1.00  0.00     0.211 HD
ENDBRANCH  38  44
BRANCH  40  46
ATOM     46  O   UNL     1      15.573  43.362  73.251  1.00  0.00    -0.387 OA
ATOM     47  H   UNL     1      14.889  43.303  72.530  1.00  0.00     0.211 HD
ENDBRANCH  40  46
BRANCH  42  48
ATOM     48  O   UNL     1      17.407  44.088  75.161  1.00  0.00    -0.388 OA
ATOM     49  H   UNL     1      17.538  43.181  74.782  1.00  0.00     0.211 HD
ENDBRANCH  42  48
ENDBRANCH  36  37
ENDBRANCH   9  36
TORSDOF 13
ENDMDL
MODEL 4
REMARK VINA RESULT:    -3.838      4.591     10.725
REMARK INTER + INTRA:          -6.261
REMARK INTER:                  -5.457
REMARK INTRA:                  -0.804
REMARK UNBOUND:                -0.404
REMARK SMILES C[C@@H]1O[C@@H](Oc2cc(O)c3c(=O)c(O[C@@H]4O[C@H](C)[C@@H](O)[C@@H](O)[C@H]4O)c(-c4ccc(O)cc4)oc3c2)[C@H](O)[C@@H](O)[C@@H]1O
REMARK SMILES IDX 6 1 7 2 8 3 10 4 34 5 35 6 33 7 25 8 13 9 11 10 12 11 5 12
REMARK SMILES IDX 4 13 1 14 2 15 40 16 3 17 38 18 36 19 41 20 39 22 37 24 9 26
REMARK SMILES IDX 26 28 27 29 32 30 28 31 31 32 29 33 30 34 14 36 15 37 23 38
REMARK SMILES IDX 16 39 21 40 17 41 19 42 18 43 24 44 22 46 20 48
REMARK H PARENT 41 21 39 23 37 25 9 27 30 35 24 45 22 47 20 49
REMARK Flexibility Score: inf
ROOT
ATOM      1  C   UNL     1       9.581  48.280  70.011  1.00  0.00     0.130 A 
ATOM      2  C   UNL     1      10.637  47.790  69.228  1.00  0.00     0.093 A 
ATOM      3  C   UNL     1      11.897  47.546  69.787  1.00  0.00     0.134 A 
ATOM      4  C   UNL     1      12.100  47.738  71.184  1.00  0.00     0.111 A 
ATOM      5  C   UNL     1      11.030  48.258  71.959  1.00  0.00     0.146 A 
ATOM      6  C   UNL     1       9.789  48.512  71.372  1.00  0.00     0.094 A 
ATOM      7  O   UNL     1      11.192  48.528  73.250  1.00  0.00    -0.452 OA
ATOM      8  C   UNL     1      12.328  48.317  73.906  1.00  0.00     0.180 A 
ATOM      9  C   UNL     1      13.407  47.700  73.239  1.00  0.00     0.214 A 
ATOM     10  C   UNL     1      13.291  47.414  71.875  1.00  0.00     0.239 A 
ATOM     11  O   UNL     1      14.248  46.830  71.301  1.00  0.00    -0.285 OA
ENDROOT
BRANCH   1  12
ATOM     12  O   UNL     1       8.316  48.557  69.472  1.00  0.00    -0.462 OA
BRANCH  12  13
ATOM     13  C   UNL     1       8.070  49.556  68.478  1.00  0.00     0.339 C 
ATOM     14  C   UNL     1       5.002  49.696  66.818  1.00  0.00     0.042 C 
ATOM     15  C   UNL     1       5.794  49.000  67.934  1.00  0.00     0.151 C 
ATOM     16  C   UNL     1       6.409  47.648  67.461  1.00  0.00     0.174 C 
ATOM     17  O   UNL     1       6.705  49.946  68.494  1.00  0.00    -0.335 OA
ATOM     18  C   UNL     1       7.670  47.873  66.596  1.00  0.00     0.180 C 
ATOM     19  C   UNL     1       8.521  49.069  67.088  1.00  0.00     0.214 C 
BRANCH  16  20
ATOM     20  O   UNL     1       5.456  46.903  66.743  1.00  0.00    -0.388 OA
ATOM     21  H   UNL     1       4.792  47.549  66.385  1.00  0.00     0.211 HD
ENDBRANCH  16  20
BRANCH  18  22
ATOM     22  O   UNL     1       8.444  46.696  66.534  1.00  0.00    -0.387 OA
ATOM     23  H   UNL     1       9.402  46.953  66.590  1.00  0.00     0.211 HD
ENDBRANCH  18  22
BRANCH  19  24
ATOM     24  O   UNL     1       8.410  50.125  66.168  1.00  0.00    -0.384 OA
ATOM     25  H   UNL     1       9.109  49.984  65.477  1.00  0.00     0.211 HD
ENDBRANCH  19  24
ENDBRANCH  12  13
ENDBRANCH   1  12
BRANCH   3  26
ATOM     26  O   UNL     1      12.904  47.138  68.907  1.00  0.00    -0.507 OA
ATOM     27  H   UNL     1      12.964  47.409  67.936  1.00  0.00     0.293 HD
ENDBRANCH   3  26
BRANCH   8  28
ATOM     28  C   UNL     1      12.411  48.756  75.315  1.00  0.00     0.021 A 
ATOM     29  C   UNL     1      11.499  48.257  76.257  1.00  0.00     0.016 A 
ATOM     30  C   UNL     1      13.370  49.706  75.724  1.00  0.00     0.016 A 
ATOM     31  C   UNL     1      11.553  48.683  77.588  1.00  0.00     0.047 A 
ATOM     32  C   UNL     1      13.424  50.125  77.056  1.00  0.00     0.047 A 
ATOM     33  C   UNL     1      12.513  49.616  77.992  1.00  0.00     0.115 A 
BRANCH  33  34
ATOM     34  O   UNL     1      12.552  50.034  79.321  1.00  0.00    -0.508 OA
ATOM     35  H   UNL     1      13.205  49.639  79.986  1.00  0.00     0.293 HD
ENDBRANCH  33  34
ENDBRANCH   8  28
BRANCH   9  36
ATOM     36  O   UNL     1      14.595  47.366  73.903  1.00  0.00    -0.454 OA
BRANCH  36  37
ATOM     37  C   UNL     1      15.884  47.853  73.518  1.00  0.00     0.339 C 
ATOM     38  C   UNL     1      16.452  48.811  74.579  1.00  0.00     0.214 C 
ATOM     39  O   UNL     1      16.762  46.770  73.229  1.00  0.00    -0.335 OA
ATOM     40  C   UNL     1      16.819  48.040  75.854  1.00  0.00     0.180 C 
ATOM     41  C   UNL     1      17.120  45.993  74.370  1.00  0.00     0.151 C 
ATOM     42  C   UNL     1      17.723  46.841  75.520  1.00  0.00     0.174 C 
ATOM     43  C   UNL     1      15.991  45.061  74.838  1.00  0.00     0.042 C 
BRANCH  38  44
ATOM     44  O   UNL     1      17.579  49.466  74.049  1.00  0.00    -0.384 OA
ATOM     45  H   UNL     1      18.218  49.600  74.799  1.00  0.00     0.211 HD
ENDBRANCH  38  44
BRANCH  40  46
ATOM     46  O   UNL     1      17.455  48.895  76.767  1.00  0.00    -0.387 OA
ATOM     47  H   UNL     1      18.408  48.609  76.818  1.00  0.00     0.211 HD
ENDBRANCH  40  46
BRANCH  42  48
ATOM     48  O   UNL     1      18.997  47.299  75.152  1.00  0.00    -0.388 OA
ATOM     49  H   UNL     1      19.345  46.661  74.476  1.00  0.00     0.211 HD
ENDBRANCH  42  48
ENDBRANCH  36  37
ENDBRANCH   9  36
TORSDOF 13
ENDMDL
MODEL 5
REMARK VINA RESULT:    -3.402      3.573      9.858
REMARK INTER + INTRA:          -5.595
REMARK INTER:                  -5.774
REMARK INTRA:                   0.179
REMARK UNBOUND:                -0.404
REMARK SMILES C[C@@H]1O[C@@H](Oc2cc(O)c3c(=O)c(O[C@@H]4O[C@H](C)[C@@H](O)[C@@H](O)[C@H]4O)c(-c4ccc(O)cc4)oc3c2)[C@H](O)[C@@H](O)[C@@H]1O
REMARK SMILES IDX 6 1 7 2 8 3 10 4 34 5 35 6 33 7 25 8 13 9 11 10 12 11 5 12
REMARK SMILES IDX 4 13 1 14 2 15 40 16 3 17 38 18 36 19 41 20 39 22 37 24 9 26
REMARK SMILES IDX 26 28 27 29 32 30 28 31 31 32 29 33 30 34 14 36 15 37 23 38
REMARK SMILES IDX 16 39 21 40 17 41 19 42 18 43 24 44 22 46 20 48
REMARK H PARENT 41 21 39 23 37 25 9 27 30 35 24 45 22 47 20 49
REMARK Flexibility Score: inf
ROOT
ATOM      1  C   UNL     1      12.293  48.101  72.481  1.00  0.00     0.130 A 
ATOM      2  C   UNL     1      12.347  49.106  73.459  1.00  0.00     0.093 A 
ATOM      3  C   UNL     1      13.373  49.133  74.411  1.00  0.00     0.134 A 
ATOM      4  C   UNL     1      14.415  48.163  74.354  1.00  0.00     0.111 A 
ATOM      5  C   UNL     1      14.334  47.137  73.376  1.00  0.00     0.146 A 
ATOM      6  C   UNL     1      13.288  47.123  72.450  1.00  0.00     0.094 A 
ATOM      7  O   UNL     1      15.239  46.165  73.331  1.00  0.00    -0.452 OA
ATOM      8  C   UNL     1      16.275  46.090  74.160  1.00  0.00     0.180 A 
ATOM      9  C   UNL     1      16.493  47.127  75.091  1.00  0.00     0.214 A 
ATOM     10  C   UNL     1      15.557  48.162  75.188  1.00  0.00     0.239 A 
ATOM     11  O   UNL     1      15.784  49.100  75.998  1.00  0.00    -0.285 OA
ENDROOT
BRANCH   1  12
ATOM     12  O   UNL     1      11.264  48.036  71.531  1.00  0.00    -0.462 OA
BRANCH  12  13
ATOM     13  C   UNL     1      10.895  49.122  70.674  1.00  0.00     0.339 C 
ATOM     14  C   UNL     1       7.539  49.753  69.950  1.00  0.00     0.042 C 
ATOM     15  C   UNL     1       8.503  48.892  70.777  1.00  0.00     0.151 C 
ATOM     16  C   UNL     1       8.770  47.507  70.113  1.00  0.00     0.174 C 
ATOM     17  O   UNL     1       9.655  49.677  71.085  1.00  0.00    -0.335 OA
ATOM     18  C   UNL     1       9.763  47.628  68.935  1.00  0.00     0.180 C 
ATOM     19  C   UNL     1      10.874  48.673  69.200  1.00  0.00     0.214 C 
BRANCH  16  20
ATOM     20  O   UNL     1       7.563  46.936  69.672  1.00  0.00    -0.388 OA
ATOM     21  H   UNL     1       7.793  46.085  69.216  1.00  0.00     0.211 HD
ENDBRANCH  16  20
BRANCH  18  22
ATOM     22  O   UNL     1      10.320  46.370  68.625  1.00  0.00    -0.387 OA
ATOM     23  H   UNL     1      10.978  46.496  67.892  1.00  0.00     0.211 HD
ENDBRANCH  18  22
BRANCH  19  24
ATOM     24  O   UNL     1      10.661  49.793  68.379  1.00  0.00    -0.384 OA
ATOM     25  H   UNL     1      10.218  49.468  67.552  1.00  0.00     0.211 HD
ENDBRANCH  19  24
ENDBRANCH  12  13
ENDBRANCH   1  12
BRANCH   3  26
ATOM     26  O   UNL     1      13.290  50.125  75.392  1.00  0.00    -0.507 OA
ATOM     27  H   UNL     1      13.703  50.061  76.311  1.00  0.00     0.293 HD
ENDBRANCH   3  26
BRANCH   8  28
ATOM     28  C   UNL     1      17.152  44.903  74.073  1.00  0.00     0.021 A 
ATOM     29  C   UNL     1      18.310  44.946  73.282  1.00  0.00     0.016 A 
ATOM     30  C   UNL     1      16.822  43.706  74.740  1.00  0.00     0.016 A 
ATOM     31  C   UNL     1      19.135  43.822  73.172  1.00  0.00     0.047 A 
ATOM     32  C   UNL     1      17.651  42.586  74.634  1.00  0.00     0.047 A 
ATOM     33  C   UNL     1      18.810  42.641  73.846  1.00  0.00     0.115 A 
BRANCH  33  34
ATOM     34  O   UNL     1      19.639  41.527  73.725  1.00  0.00    -0.508 OA
ATOM     35  H   UNL     1      20.069  41.092  74.532  1.00  0.00     0.293 HD
ENDBRANCH  33  34
ENDBRANCH   8  28
BRANCH   9  36
ATOM     36  O   UNL     1      17.620  47.150  75.924  1.00  0.00    -0.454 OA
BRANCH  36  37
ATOM     37  C   UNL     1      18.201  48.350  76.440  1.00  0.00     0.339 C 
ATOM     38  C   UNL     1      17.578  48.728  77.795  1.00  0.00     0.214 C 
ATOM     39  O   UNL     1      19.619  48.234  76.500  1.00  0.00    -0.335 OA
ATOM     40  C   UNL     1      18.007  47.727  78.877  1.00  0.00     0.180 C 
ATOM     41  C   UNL     1      20.083  47.296  77.469  1.00  0.00     0.151 C 
ATOM     42  C   UNL     1      19.536  47.570  78.894  1.00  0.00     0.174 C 
ATOM     43  C   UNL     1      19.899  45.836  77.025  1.00  0.00     0.042 C 
BRANCH  38  44
ATOM     44  O   UNL     1      17.977  50.033  78.135  1.00  0.00    -0.384 OA
ATOM     45  H   UNL     1      17.798  50.149  79.107  1.00  0.00     0.211 HD
ENDBRANCH  38  44
BRANCH  40  46
ATOM     46  O   UNL     1      17.542  48.149  80.133  1.00  0.00    -0.387 OA
ATOM     47  H   UNL     1      17.860  49.084  80.261  1.00  0.00     0.211 HD
ENDBRANCH  40  46
BRANCH  42  48
ATOM     48  O   UNL     1      20.125  48.735  79.410  1.00  0.00    -0.388 OA
ATOM     49  H   UNL     1      20.803  48.442  80.073  1.00  0.00     0.211 HD
ENDBRANCH  42  48
ENDBRANCH  36  37
ENDBRANCH   9  36
TORSDOF 13
ENDMDL
MODEL 6
REMARK VINA RESULT:    -3.193      7.257     11.139
REMARK INTER + INTRA:          -5.277
REMARK INTER:                  -6.471
REMARK INTRA:                   1.193
REMARK UNBOUND:                -0.404
REMARK SMILES C[C@@H]1O[C@@H](Oc2cc(O)c3c(=O)c(O[C@@H]4O[C@H](C)[C@@H](O)[C@@H](O)[C@H]4O)c(-c4ccc(O)cc4)oc3c2)[C@H](O)[C@@H](O)[C@@H]1O
REMARK SMILES IDX 6 1 7 2 8 3 10 4 34 5 35 6 33 7 25 8 13 9 11 10 12 11 5 12
REMARK SMILES IDX 4 13 1 14 2 15 40 16 3 17 38 18 36 19 41 20 39 22 37 24 9 26
REMARK SMILES IDX 26 28 27 29 32 30 28 31 31 32 29 33 30 34 14 36 15 37 23 38
REMARK SMILES IDX 16 39 21 40 17 41 19 42 18 43 24 44 22 46 20 48
REMARK H PARENT 41 21 39 23 37 25 9 27 30 35 24 45 22 47 20 49
REMARK Flexibility Score: inf
ROOT
ATOM      1  C   UNL     1      10.487  48.644  71.755  1.00  0.00     0.130 A 
ATOM      2  C   UNL     1      10.767  49.412  70.614  1.00  0.00     0.093 A 
ATOM      3  C   UNL     1       9.939  49.358  69.486  1.00  0.00     0.134 A 
ATOM      4  C   UNL     1       8.759  48.560  69.513  1.00  0.00     0.111 A 
ATOM      5  C   UNL     1       8.502  47.768  70.663  1.00  0.00     0.146 A 
ATOM      6  C   UNL     1       9.355  47.826  71.767  1.00  0.00     0.094 A 
ATOM      7  O   UNL     1       7.457  46.949  70.707  1.00  0.00    -0.452 OA
ATOM      8  C   UNL     1       6.581  46.824  69.715  1.00  0.00     0.180 A 
ATOM      9  C   UNL     1       6.699  47.654  68.581  1.00  0.00     0.214 A 
ATOM     10  C   UNL     1       7.793  48.520  68.480  1.00  0.00     0.239 A 
ATOM     11  O   UNL     1       7.865  49.281  67.480  1.00  0.00    -0.285 OA
ENDROOT
BRANCH   1  12
ATOM     12  O   UNL     1      11.312  48.659  72.888  1.00  0.00    -0.462 OA
BRANCH  12  13
ATOM     13  C   UNL     1      12.406  47.761  73.095  1.00  0.00     0.339 C 
ATOM     14  C   UNL     1      12.279  45.355  75.621  1.00  0.00     0.042 C 
ATOM     15  C   UNL     1      11.490  46.452  74.892  1.00  0.00     0.151 C 
ATOM     16  C   UNL     1      11.510  47.803  75.670  1.00  0.00     0.174 C 
ATOM     17  O   UNL     1      11.933  46.497  73.536  1.00  0.00    -0.335 OA
ATOM     18  C   UNL     1      12.857  48.540  75.487  1.00  0.00     0.180 C 
ATOM     19  C   UNL     1      13.439  48.368  74.063  1.00  0.00     0.214 C 
BRANCH  16  20
ATOM     20  O   UNL     1      11.258  47.585  77.036  1.00  0.00    -0.388 OA
ATOM     21  H   UNL     1      11.399  46.616  77.206  1.00  0.00     0.211 HD
ENDBRANCH  16  20
BRANCH  18  22
ATOM     22  O   UNL     1      12.723  49.904  75.815  1.00  0.00    -0.387 OA
ATOM     23  H   UNL     1      13.493  50.393  75.422  1.00  0.00     0.211 HD
ENDBRANCH  18  22
BRANCH  19  24
ATOM     24  O   UNL     1      14.566  47.532  74.122  1.00  0.00    -0.384 OA
ATOM     25  H   UNL     1      14.785  47.404  75.082  1.00  0.00     0.211 HD
ENDBRANCH  19  24
ENDBRANCH  12  13
ENDBRANCH   1  12
BRANCH   3  26
ATOM     26  O   UNL     1      10.349  50.097  68.373  1.00  0.00    -0.507 OA
ATOM     27  H   UNL     1      10.177  51.083  68.241  1.00  0.00     0.293 HD
ENDBRANCH   3  26
BRANCH   8  28
ATOM     28  C   UNL     1       5.521  45.802  69.845  1.00  0.00     0.021 A 
ATOM     29  C   UNL     1       4.620  45.593  68.791  1.00  0.00     0.016 A 
ATOM     30  C   UNL     1       5.371  45.059  71.034  1.00  0.00     0.016 A 
ATOM     31  C   UNL     1       3.598  44.645  68.912  1.00  0.00     0.047 A 
ATOM     32  C   UNL     1       4.353  44.109  71.149  1.00  0.00     0.047 A 
ATOM     33  C   UNL     1       3.460  43.902  70.088  1.00  0.00     0.115 A 
BRANCH  33  34
ATOM     34  O   UNL     1       2.435  42.964  70.196  1.00  0.00    -0.508 OA
ATOM     35  H   UNL     1       1.493  43.230  70.453  1.00  0.00     0.293 HD
ENDBRANCH  33  34
ENDBRANCH   8  28
BRANCH   9  36
ATOM     36  O   UNL     1       5.752  47.635  67.548  1.00  0.00    -0.454 OA
BRANCH  36  37
ATOM     37  C   UNL     1       6.054  47.960  66.188  1.00  0.00     0.339 C 
ATOM     38  C   UNL     1       5.077  47.266  65.223  1.00  0.00     0.214 C 
ATOM     39  O   UNL     1       6.093  49.372  66.008  1.00  0.00    -0.335 OA
ATOM     40  C   UNL     1       3.676  47.880  65.349  1.00  0.00     0.180 C 
ATOM     41  C   UNL     1       4.824  50.009  66.141  1.00  0.00     0.151 C 
ATOM     42  C   UNL     1       3.740  49.410  65.207  1.00  0.00     0.174 C 
ATOM     43  C   UNL     1       4.363  50.125  67.602  1.00  0.00     0.042 C 
BRANCH  38  44
ATOM     44  O   UNL     1       5.562  47.392  63.909  1.00  0.00    -0.384 OA
ATOM     45  H   UNL     1       4.771  47.430  63.309  1.00  0.00     0.211 HD
ENDBRANCH  38  44
BRANCH  40  46
ATOM     46  O   UNL     1       2.823  47.332  64.378  1.00  0.00    -0.387 OA
ATOM     47  H   UNL     1       3.106  47.704  63.499  1.00  0.00     0.211 HD
ENDBRANCH  40  46
BRANCH  42  48
ATOM     48  O   UNL     1       4.023  49.749  63.875  1.00  0.00    -0.388 OA
ATOM     49  H   UNL     1       3.387  49.239  63.310  1.00  0.00     0.211 HD
ENDBRANCH  42  48
ENDBRANCH  36  37
ENDBRANCH   9  36
TORSDOF 13
ENDMDL
MODEL 7
REMARK VINA RESULT:    -2.763      3.104      9.533
REMARK INTER + INTRA:          -4.621
REMARK INTER:                  -5.562
REMARK INTRA:                   0.940
REMARK UNBOUND:                -0.404
REMARK SMILES C[C@@H]1O[C@@H](Oc2cc(O)c3c(=O)c(O[C@@H]4O[C@H](C)[C@@H](O)[C@@H](O)[C@H]4O)c(-c4ccc(O)cc4)oc3c2)[C@H](O)[C@@H](O)[C@@H]1O
REMARK SMILES IDX 6 1 7 2 8 3 10 4 34 5 35 6 33 7 25 8 13 9 11 10 12 11 5 12
REMARK SMILES IDX 4 13 1 14 2 15 40 16 3 17 38 18 36 19 41 20 39 22 37 24 9 26
REMARK SMILES IDX 26 28 27 29 32 30 28 31 31 32 29 33 30 34 14 36 15 37 23 38
REMARK SMILES IDX 16 39 21 40 17 41 19 42 18 43 24 44 22 46 20 48
REMARK H PARENT 41 21 39 23 37 25 9 27 30 35 24 45 22 47 20 49
REMARK Flexibility Score: inf
ROOT
ATOM      1  C   UNL     1      12.051  48.008  72.423  1.00  0.00     0.130 A 
ATOM      2  C   UNL     1      12.251  49.012  73.383  1.00  0.00     0.093 A 
ATOM      3  C   UNL     1      13.309  48.935  74.298  1.00  0.00     0.134 A 
ATOM      4  C   UNL     1      14.235  47.856  74.218  1.00  0.00     0.111 A 
ATOM      5  C   UNL     1      14.005  46.835  73.259  1.00  0.00     0.146 A 
ATOM      6  C   UNL     1      12.931  46.926  72.371  1.00  0.00     0.094 A 
ATOM      7  O   UNL     1      14.796  45.768  73.195  1.00  0.00    -0.452 OA
ATOM      8  C   UNL     1      15.848  45.588  73.987  1.00  0.00     0.180 A 
ATOM      9  C   UNL     1      16.213  46.605  74.894  1.00  0.00     0.214 A 
ATOM     10  C   UNL     1      15.401  47.738  75.010  1.00  0.00     0.239 A 
ATOM     11  O   UNL     1      15.759  48.654  75.797  1.00  0.00    -0.285 OA
ENDROOT
BRANCH   1  12
ATOM     12  O   UNL     1      10.985  48.047  71.512  1.00  0.00    -0.462 OA
BRANCH  12  13
ATOM     13  C   UNL     1      10.680  49.174  70.684  1.00  0.00     0.339 C 
ATOM     14  C   UNL     1       7.390  49.828  69.718  1.00  0.00     0.042 C 
ATOM     15  C   UNL     1       8.289  48.929  70.577  1.00  0.00     0.151 C 
ATOM     16  C   UNL     1       8.622  47.582  69.866  1.00  0.00     0.174 C 
ATOM     17  O   UNL     1       9.405  49.702  71.019  1.00  0.00    -0.335 OA
ATOM     18  C   UNL     1       9.709  47.769  68.782  1.00  0.00     0.180 C 
ATOM     19  C   UNL     1      10.784  48.803  69.193  1.00  0.00     0.214 C 
BRANCH  16  20
ATOM     20  O   UNL     1       7.461  47.030  69.298  1.00  0.00    -0.388 OA
ATOM     21  H   UNL     1       7.261  47.553  68.477  1.00  0.00     0.211 HD
ENDBRANCH  16  20
BRANCH  18  22
ATOM     22  O   UNL     1      10.299  46.531  68.455  1.00  0.00    -0.387 OA
ATOM     23  H   UNL     1       9.748  45.810  68.858  1.00  0.00     0.211 HD
ENDBRANCH  18  22
BRANCH  19  24
ATOM     24  O   UNL     1      10.631  49.964  68.416  1.00  0.00    -0.384 OA
ATOM     25  H   UNL     1      11.400  49.998  67.788  1.00  0.00     0.211 HD
ENDBRANCH  19  24
ENDBRANCH  12  13
ENDBRANCH   1  12
BRANCH   3  26
ATOM     26  O   UNL     1      13.373  49.941  75.266  1.00  0.00    -0.507 OA
ATOM     27  H   UNL     1      14.040  50.699  75.265  1.00  0.00     0.293 HD
ENDBRANCH   3  26
BRANCH   8  28
ATOM     28  C   UNL     1      16.585  44.311  73.886  1.00  0.00     0.021 A 
ATOM     29  C   UNL     1      16.090  43.166  74.529  1.00  0.00     0.016 A 
ATOM     30  C   UNL     1      17.808  44.231  73.189  1.00  0.00     0.016 A 
ATOM     31  C   UNL     1      16.792  41.958  74.461  1.00  0.00     0.047 A 
ATOM     32  C   UNL     1      18.503  43.021  73.118  1.00  0.00     0.047 A 
ATOM     33  C   UNL     1      17.997  41.881  73.757  1.00  0.00     0.115 A 
BRANCH  33  34
ATOM     34  O   UNL     1      18.688  40.671  73.701  1.00  0.00    -0.508 OA
ATOM     35  H   UNL     1      18.277  39.841  73.293  1.00  0.00     0.293 HD
ENDBRANCH  33  34
ENDBRANCH   8  28
BRANCH   9  36
ATOM     36  O   UNL     1      17.366  46.512  75.686  1.00  0.00    -0.454 OA
BRANCH  36  37
ATOM     37  C   UNL     1      18.672  46.876  75.232  1.00  0.00     0.339 C 
ATOM     38  C   UNL     1      18.594  47.796  74.001  1.00  0.00     0.214 C 
ATOM     39  O   UNL     1      19.432  47.442  76.294  1.00  0.00    -0.335 OA
ATOM     40  C   UNL     1      18.048  49.174  74.400  1.00  0.00     0.180 C 
ATOM     41  C   UNL     1      18.958  48.713  76.732  1.00  0.00     0.151 C 
ATOM     42  C   UNL     1      18.842  49.750  75.584  1.00  0.00     0.174 C 
ATOM     43  C   UNL     1      17.683  48.616  77.585  1.00  0.00     0.042 C 
BRANCH  38  44
ATOM     44  O   UNL     1      19.874  47.912  73.432  1.00  0.00    -0.384 OA
ATOM     45  H   UNL     1      20.372  47.083  73.664  1.00  0.00     0.211 HD
ENDBRANCH  38  44
BRANCH  40  46
ATOM     46  O   UNL     1      18.100  50.048  73.302  1.00  0.00    -0.387 OA
ATOM     47  H   UNL     1      18.373  49.506  72.513  1.00  0.00     0.211 HD
ENDBRANCH  40  46
BRANCH  42  48
ATOM     48  O   UNL     1      20.125  50.125  75.154  1.00  0.00    -0.388 OA
ATOM     49  H   UNL     1      20.150  49.980  74.173  1.00  0.00     0.211 HD
ENDBRANCH  42  48
ENDBRANCH  36  37
ENDBRANCH   9  36
TORSDOF 13
ENDMDL
