MODEL 1
REMARK VINA RESULT:    -2.057      0.000      0.000
REMARK INTER + INTRA:          -2.062
REMARK INTER:                  -2.899
REMARK INTRA:                   0.837
REMARK UNBOUND:                 0.837
REMARK SMILES CC1=CCC(=C(C)C)C(=O)CC(C)=CCC1
REMARK SMILES IDX 12 1 14 2 13 3 15 4 16 5 2 6 1 7 3 8 11 10 9 11 10 12 5 13
REMARK SMILES IDX 6 14 7 15 8 16 4 17
REMARK H PARENT
REMARK Flexibility Score: 60.00
ROOT
ATOM      1  C   UNL     1      11.049  21.666  22.383  1.00  0.00    -0.070 C 
ATOM      2  C   UNL     1      11.002  21.114  23.619  1.00  0.00    -0.027 C 
ATOM      3  C   UNL     1      11.124  20.725  21.205  1.00  0.00     0.039 C 
ENDROOT
BRANCH   2   4
ATOM      4  C   UNL     1      11.031  21.860  24.932  1.00  0.00     0.032 C 
BRANCH   4   5
ATOM      5  C   UNL     1       9.629  22.302  25.392  1.00  0.00     0.034 C 
BRANCH   5   6
ATOM      6  C   UNL     1       9.448  23.805  25.314  1.00  0.00    -0.077 C 
ATOM      7  C   UNL     1      10.028  24.655  26.417  1.00  0.00     0.039 C 
ATOM      8  C   UNL     1       8.819  24.434  24.295  1.00  0.00    -0.023 CG0
ATOM      9  G   UNL     1       8.207  23.763  23.088  1.00  0.00     0.000 G0
ENDBRANCH   5   6
ENDBRANCH   4   5
ENDBRANCH   2   4
BRANCH   1  10
ATOM     10  C   UNL     1      11.096  23.162  22.127  1.00  0.00     0.111 C 
BRANCH  10  11
ATOM     11  C   UNL     1       9.954  23.611  21.250  1.00  0.00     0.163 C 
ATOM     12  O   UNL     1      10.011  23.347  20.018  1.00  0.00    -0.294 OA
BRANCH  11  13
ATOM     13  C   UNL     1       8.751  24.305  21.809  1.00  0.00    -0.002 C 
ATOM     14  C   UNL     1       8.227  25.422  21.219  1.00  0.00    -0.069 C 
ATOM     15  C   UNL     1       6.988  26.095  21.769  1.00  0.00     0.039 C 
ATOM     16  C   UNL     1       8.877  26.061  20.012  1.00  0.00     0.039 C 
BRANCH  13  17
ATOM     17  C   UNL     1       8.181  23.759  23.105  1.00  0.00     0.066 CG0
ATOM     18  G   UNL     1       8.838  24.441  24.281  1.00  0.00     0.000 G0
ENDBRANCH  13  17
ENDBRANCH  11  13
ENDBRANCH  10  11
ENDBRANCH   1  10
TORSDOF 0
ENDMDL
MODEL 2
REMARK VINA RESULT:    -1.785      2.091      5.224
REMARK INTER + INTRA:          -1.678
REMARK INTER:                  -2.164
REMARK INTRA:                   0.486
REMARK UNBOUND:                 0.837
REMARK SMILES CC1=CCC(=C(C)C)C(=O)CC(C)=CCC1
REMARK SMILES IDX 12 1 14 2 13 3 15 4 16 5 2 6 1 7 3 8 11 10 9 11 10 12 5 13
REMARK SMILES IDX 6 14 7 15 8 16 4 17
REMARK H PARENT
REMARK Flexibility Score: 60.00
ROOT
ATOM      1  C   UNL     1       6.766  25.454  21.897  1.00  0.00    -0.070 C 
ATOM      2  C   UNL     1       7.283  26.125  20.841  1.00  0.00    -0.027 C 
ATOM      3  C   UNL     1       5.557  26.052  22.576  1.00  0.00     0.039 C 
ENDROOT
BRANCH   2   4
ATOM      4  C   UNL     1       8.542  25.769  20.086  1.00  0.00     0.032 C 
BRANCH   4   5
ATOM      5  C   UNL     1       9.810  25.925  20.945  1.00  0.00     0.034 C 
BRANCH   5   6
ATOM      6  C   UNL     1      10.669  24.676  20.930  1.00  0.00    -0.077 C 
ATOM      7  C   UNL     1      11.112  24.128  19.597  1.00  0.00     0.039 C 
ATOM      8  C   UNL     1      11.084  24.037  22.047  1.00  0.00    -0.023 CG0
ATOM      9  G   UNL     1      10.776  24.450  23.466  1.00  0.00     0.000 G0
ENDBRANCH   5   6
ENDBRANCH   4   5
ENDBRANCH   2   4
BRANCH   1  10
ATOM     10  C   UNL     1       7.370  24.183  22.469  1.00  0.00     0.111 C 
BRANCH  10  11
ATOM     11  C   UNL     1       8.206  24.468  23.692  1.00  0.00     0.163 C 
ATOM     12  O   UNL     1       7.767  25.302  24.531  1.00  0.00    -0.294 OA
BRANCH  11  13
ATOM     13  C   UNL     1       9.496  23.755  23.953  1.00  0.00    -0.002 C 
ATOM     14  C   UNL     1       9.538  22.575  24.643  1.00  0.00    -0.069 C 
ATOM     15  C   UNL     1      10.842  21.842  24.870  1.00  0.00     0.039 C 
ATOM     16  C   UNL     1       8.292  21.963  25.245  1.00  0.00     0.039 C 
BRANCH  13  17
ATOM     17  C   UNL     1      10.767  24.437  23.483  1.00  0.00     0.066 CG0
ATOM     18  G   UNL     1      11.071  24.028  22.061  1.00  0.00     0.000 G0
ENDBRANCH  13  17
ENDBRANCH  11  13
ENDBRANCH  10  11
ENDBRANCH   1  10
TORSDOF 0
ENDMDL
MODEL 3
REMARK VINA RESULT:    -1.176      1.731      4.230
REMARK INTER + INTRA:          -0.820
REMARK INTER:                  -1.393
REMARK INTRA:                   0.573
REMARK UNBOUND:                 0.837
REMARK SMILES CC1=CCC(=C(C)C)C(=O)CC(C)=CCC1
REMARK SMILES IDX 12 1 14 2 13 3 15 4 16 5 2 6 1 7 3 8 11 10 9 11 10 12 5 13
REMARK SMILES IDX 6 14 7 15 8 16 4 17
REMARK H PARENT
REMARK Flexibility Score: 60.00
ROOT
ATOM      1  C   UNL     1       5.869  25.412  21.493  1.00  0.00    -0.070 C 
ATOM      2  C   UNL     1       5.748  25.898  22.751  1.00  0.00    -0.027 C 
ATOM      3  C   UNL     1       4.978  26.008  20.430  1.00  0.00     0.039 C 
ENDROOT
BRANCH   2   4
ATOM      4  C   UNL     1       6.457  25.381  23.981  1.00  0.00     0.032 C 
BRANCH   4   5
ATOM      5  C   UNL     1       7.776  26.125  24.258  1.00  0.00     0.034 C 
BRANCH   5   6
ATOM      6  C   UNL     1       8.893  25.180  24.660  1.00  0.00    -0.077 C 
ATOM      7  C   UNL     1       8.870  24.594  26.050  1.00  0.00     0.039 C 
ATOM      8  C   UNL     1       9.896  24.809  23.833  1.00  0.00    -0.023 CG0
ATOM      9  G   UNL     1      10.071  25.257  22.402  1.00  0.00     0.000 G0
ENDBRANCH   5   6
ENDBRANCH   4   5
ENDBRANCH   2   4
BRANCH   1  10
ATOM     10  C   UNL     1       6.795  24.269  21.114  1.00  0.00     0.111 C 
BRANCH  10  11
ATOM     11  C   UNL     1       8.171  24.769  20.747  1.00  0.00     0.163 C 
ATOM     12  O   UNL     1       8.264  25.650  19.851  1.00  0.00    -0.294 OA
BRANCH  11  13
ATOM     13  C   UNL     1       9.401  24.286  21.450  1.00  0.00    -0.002 C 
ATOM     14  C   UNL     1       9.856  23.004  21.305  1.00  0.00    -0.069 C 
ATOM     15  C   UNL     1      11.122  22.536  21.989  1.00  0.00     0.039 C 
ATOM     16  C   UNL     1       9.099  21.983  20.486  1.00  0.00     0.039 C 
BRANCH  13  17
ATOM     17  C   UNL     1      10.084  25.260  22.393  1.00  0.00     0.066 CG0
ATOM     18  G   UNL     1       9.906  24.801  23.820  1.00  0.00     0.000 G0
ENDBRANCH  13  17
ENDBRANCH  11  13
ENDBRANCH  10  11
ENDBRANCH   1  10
TORSDOF 0
ENDMDL
MODEL 4
REMARK VINA RESULT:    -0.204      1.821      3.647
REMARK INTER + INTRA:           0.550
REMARK INTER:                  -2.220
REMARK INTRA:                   2.770
REMARK UNBOUND:                 0.837
REMARK SMILES CC1=CCC(=C(C)C)C(=O)CC(C)=CCC1
REMARK SMILES IDX 12 1 14 2 13 3 15 4 16 5 2 6 1 7 3 8 11 10 9 11 10 12 5 13
REMARK SMILES IDX 6 14 7 15 8 16 4 17
REMARK H PARENT
REMARK Flexibility Score: 60.00
ROOT
ATOM      1  C   UNL     1       9.247  22.681  24.828  1.00  0.00    -0.070 C 
ATOM      2  C   UNL     1      10.169  22.257  23.931  1.00  0.00    -0.027 C 
ATOM      3  C   UNL     1       8.350  21.637  25.448  1.00  0.00     0.039 C 
ENDROOT
BRANCH   2   4
ATOM      4  C   UNL     1      11.091  23.133  23.116  1.00  0.00     0.032 C 
BRANCH   4   5
ATOM      5  C   UNL     1      11.125  22.732  21.630  1.00  0.00     0.034 C 
BRANCH   5   6
ATOM      6  C   UNL     1       9.744  22.742  21.003  1.00  0.00    -0.077 C 
ATOM      7  C   UNL     1       9.222  21.462  20.399  1.00  0.00     0.039 C 
ATOM      8  C   UNL     1       8.939  23.828  20.977  1.00  0.00    -0.023 CG0
ATOM      9  G   UNL     1       9.266  25.183  21.558  1.00  0.00     0.000 G0
ENDBRANCH   5   6
ENDBRANCH   4   5
ENDBRANCH   2   4
BRANCH   1  10
ATOM     10  C   UNL     1       9.028  24.140  25.189  1.00  0.00     0.111 C 
BRANCH  10  11
ATOM     11  C   UNL     1       9.498  25.060  24.089  1.00  0.00     0.163 C 
ATOM     12  O   UNL     1      10.667  25.525  24.162  1.00  0.00    -0.294 OA
BRANCH  11  13
ATOM     13  C   UNL     1       8.638  25.384  22.907  1.00  0.00    -0.002 C 
ATOM     14  C   UNL     1       7.331  25.762  23.052  1.00  0.00    -0.069 C 
ATOM     15  C   UNL     1       6.480  26.125  21.854  1.00  0.00     0.039 C 
ATOM     16  C   UNL     1       6.662  25.800  24.407  1.00  0.00     0.039 C 
BRANCH  13  17
ATOM     17  C   UNL     1       9.257  25.205  21.534  1.00  0.00     0.066 CG0
ATOM     18  G   UNL     1       8.943  23.826  21.007  1.00  0.00     0.000 G0
ENDBRANCH  13  17
ENDBRANCH  11  13
ENDBRANCH  10  11
ENDBRANCH   1  10
TORSDOF 0
ENDMDL
