MODEL 1
REMARK VINA RESULT:    -6.084      0.000      0.000
REMARK INTER + INTRA:          -6.084
REMARK INTER:                  -6.084
REMARK INTRA:                   0.000
REMARK UNBOUND:                 0.000
REMARK SMILES CC1=CC[C@@]2(C)CCCC(C)(C)[C@]23C[C@H]13
REMARK SMILES IDX 1 1 2 2 3 3 4 4 5 5 7 6 8 7 9 8 10 9 13 10 15 11 14 12 11 13
REMARK SMILES IDX 12 14 6 15
REMARK H PARENT
REMARK Flexibility Score: inf
ROOT
ATOM      1  C   UNL     1     111.993 105.143 129.586  1.00  0.00     0.039 C 
ATOM      2  C   UNL     1     111.472 105.794 128.336  1.00  0.00    -0.074 C 
ATOM      3  C   UNL     1     111.875 107.030 128.007  1.00  0.00    -0.027 C 
ATOM      4  C   UNL     1     111.327 107.711 126.785  1.00  0.00     0.034 C 
ATOM      5  C   UNL     1     109.801 107.467 126.636  1.00  0.00    -0.022 C 
ATOM      6  C   UNL     1     109.344 108.132 125.307  1.00  0.00     0.008 C 
ATOM      7  C   UNL     1     108.001 107.584 124.842  1.00  0.00     0.001 C 
ATOM      8  C   UNL     1     108.099 106.114 124.417  1.00  0.00     0.007 C 
ATOM      9  C   UNL     1     109.119 105.228 125.220  1.00  0.00    -0.029 C 
ATOM     10  C   UNL     1     109.504 105.902 126.610  1.00  0.00    -0.012 C 
ATOM     11  C   UNL     1     110.479 105.056 127.472  1.00  0.00     0.022 C 
ATOM     12  C   UNL     1     109.039 105.222 127.926  1.00  0.00     0.017 C 
ATOM     13  C   UNL     1     108.474 103.822 125.357  1.00  0.00     0.012 C 
ATOM     14  C   UNL     1     110.406 105.038 124.373  1.00  0.00     0.012 C 
ATOM     15  C   UNL     1     109.061 108.194 127.798  1.00  0.00     0.012 C 
ENDROOT
TORSDOF 0
ENDMDL
MODEL 2
REMARK VINA RESULT:    -6.045      3.575      5.684
REMARK INTER + INTRA:          -6.045
REMARK INTER:                  -6.045
REMARK INTRA:                   0.000
REMARK UNBOUND:                 0.000
REMARK SMILES CC1=CC[C@@]2(C)CCCC(C)(C)[C@]23C[C@H]13
REMARK SMILES IDX 1 1 2 2 3 3 4 4 5 5 7 6 8 7 9 8 10 9 13 10 15 11 14 12 11 13
REMARK SMILES IDX 12 14 6 15
REMARK H PARENT
REMARK Flexibility Score: inf
ROOT
ATOM      1  C   UNL     1     107.411 111.989 129.617  1.00  0.00     0.039 C 
ATOM      2  C   UNL     1     106.735 111.431 128.397  1.00  0.00    -0.074 C 
ATOM      3  C   UNL     1     105.498 111.834 128.073  1.00  0.00    -0.027 C 
ATOM      4  C   UNL     1     104.792 111.250 126.883  1.00  0.00     0.034 C 
ATOM      5  C   UNL     1     105.019 109.717 126.784  1.00  0.00    -0.022 C 
ATOM      6  C   UNL     1     104.327 109.221 125.483  1.00  0.00     0.008 C 
ATOM      7  C   UNL     1     104.856 107.856 125.057  1.00  0.00     0.001 C 
ATOM      8  C   UNL     1     106.319 107.925 124.605  1.00  0.00     0.007 C 
ATOM      9  C   UNL     1     107.227 108.963 125.357  1.00  0.00    -0.029 C 
ATOM     10  C   UNL     1     106.580 109.404 126.743  1.00  0.00    -0.012 C 
ATOM     11  C   UNL     1     107.450 110.400 127.556  1.00  0.00     0.022 C 
ATOM     12  C   UNL     1     107.277 108.979 128.064  1.00  0.00     0.017 C 
ATOM     13  C   UNL     1     108.630 108.310 125.494  1.00  0.00     0.012 C 
ATOM     14  C   UNL     1     107.416 110.218 124.462  1.00  0.00     0.012 C 
ATOM     15  C   UNL     1     104.304 109.026 127.983  1.00  0.00     0.012 C 
ENDROOT
TORSDOF 0
ENDMDL
MODEL 3
REMARK VINA RESULT:    -5.990      3.622      5.708
REMARK INTER + INTRA:          -5.990
REMARK INTER:                  -5.990
REMARK INTRA:                   0.000
REMARK UNBOUND:                 0.000
REMARK SMILES CC1=CC[C@@]2(C)CCCC(C)(C)[C@]23C[C@H]13
REMARK SMILES IDX 1 1 2 2 3 3 4 4 5 5 7 6 8 7 9 8 10 9 13 10 15 11 14 12 11 13
REMARK SMILES IDX 12 14 6 15
REMARK H PARENT
REMARK Flexibility Score: inf
ROOT
ATOM      1  C   UNL     1     105.183 100.676 129.547  1.00  0.00     0.039 C 
ATOM      2  C   UNL     1     105.869 101.097 128.279  1.00  0.00    -0.074 C 
ATOM      3  C   UNL     1     107.133 100.714 128.042  1.00  0.00    -0.027 C 
ATOM      4  C   UNL     1     107.847 101.166 126.800  1.00  0.00     0.034 C 
ATOM      5  C   UNL     1     107.554 102.659 126.489  1.00  0.00    -0.022 C 
ATOM      6  C   UNL     1     108.260 103.009 125.149  1.00  0.00     0.008 C 
ATOM      7  C   UNL     1     107.684 104.277 124.529  1.00  0.00     0.001 C 
ATOM      8  C   UNL     1     106.239 104.076 124.056  1.00  0.00     0.007 C 
ATOM      9  C   UNL     1     105.357 103.106 124.921  1.00  0.00    -0.029 C 
ATOM     10  C   UNL     1     105.981 102.888 126.369  1.00  0.00    -0.012 C 
ATOM     11  C   UNL     1     105.134 101.969 127.289  1.00  0.00     0.022 C 
ATOM     12  C   UNL     1     105.227 103.452 127.603  1.00  0.00     0.017 C 
ATOM     13  C   UNL     1     103.923 103.703 124.935  1.00  0.00     0.012 C 
ATOM     14  C   UNL     1     105.252 101.735 124.200  1.00  0.00     0.012 C 
ATOM     15  C   UNL     1     108.200 103.540 127.599  1.00  0.00     0.012 C 
ENDROOT
TORSDOF 0
ENDMDL
MODEL 4
REMARK VINA RESULT:    -5.989      5.980      7.906
REMARK INTER + INTRA:          -5.989
REMARK INTER:                  -5.989
REMARK INTRA:                   0.000
REMARK UNBOUND:                 0.000
REMARK SMILES CC1=CC[C@@]2(C)CCCC(C)(C)[C@]23C[C@H]13
REMARK SMILES IDX 1 1 2 2 3 3 4 4 5 5 7 6 8 7 9 8 10 9 13 10 15 11 14 12 11 13
REMARK SMILES IDX 12 14 6 15
REMARK H PARENT
REMARK Flexibility Score: inf
ROOT
ATOM      1  C   UNL     1     100.378 107.486 129.621  1.00  0.00     0.039 C 
ATOM      2  C   UNL     1     101.083 106.781 128.498  1.00  0.00    -0.074 C 
ATOM      3  C   UNL     1     100.729 105.531 128.165  1.00  0.00    -0.027 C 
ATOM      4  C   UNL     1     101.456 104.797 127.075  1.00  0.00     0.034 C 
ATOM      5  C   UNL     1     102.988 105.035 127.155  1.00  0.00    -0.022 C 
ATOM      6  C   UNL     1     103.643 104.311 125.944  1.00  0.00     0.008 C 
ATOM      7  C   UNL     1     105.046 104.840 125.670  1.00  0.00     0.001 C 
ATOM      8  C   UNL     1     105.023 106.289 125.170  1.00  0.00     0.007 C 
ATOM      9  C   UNL     1     103.897 107.209 125.765  1.00  0.00    -0.029 C 
ATOM     10  C   UNL     1     103.296 106.598 127.106  1.00  0.00    -0.012 C 
ATOM     11  C   UNL     1     102.203 107.480 127.767  1.00  0.00     0.022 C 
ATOM     12  C   UNL     1     103.554 107.336 128.447  1.00  0.00     0.017 C 
ATOM     13  C   UNL     1     104.521 108.620 125.938  1.00  0.00     0.012 C 
ATOM     14  C   UNL     1     102.758 107.360 124.720  1.00  0.00     0.012 C 
ATOM     15  C   UNL     1     103.534 104.361 128.449  1.00  0.00     0.012 C 
ENDROOT
TORSDOF 0
ENDMDL
MODEL 5
REMARK VINA RESULT:    -5.845      1.291      3.465
REMARK INTER + INTRA:          -5.845
REMARK INTER:                  -5.845
REMARK INTRA:                   0.000
REMARK UNBOUND:                 0.000
REMARK SMILES CC1=CC[C@@]2(C)CCCC(C)(C)[C@]23C[C@H]13
REMARK SMILES IDX 1 1 2 2 3 3 4 4 5 5 7 6 8 7 9 8 10 9 13 10 15 11 14 12 11 13
REMARK SMILES IDX 12 14 6 15
REMARK H PARENT
REMARK Flexibility Score: inf
ROOT
ATOM      1  C   UNL     1     107.472 109.283 129.256  1.00  0.00     0.039 C 
ATOM      2  C   UNL     1     108.154 108.727 128.039  1.00  0.00    -0.074 C 
ATOM      3  C   UNL     1     107.791 109.146 126.817  1.00  0.00    -0.027 C 
ATOM      4  C   UNL     1     108.432 108.565 125.590  1.00  0.00     0.034 C 
ATOM      5  C   UNL     1     108.613 107.028 125.718  1.00  0.00    -0.022 C 
ATOM      6  C   UNL     1     109.357 106.533 124.446  1.00  0.00     0.008 C 
ATOM      7  C   UNL     1     109.977 105.157 124.662  1.00  0.00     0.001 C 
ATOM      8  C   UNL     1     111.126 105.201 125.677  1.00  0.00     0.007 C 
ATOM      9  C   UNL     1     110.971 106.231 126.853  1.00  0.00    -0.029 C 
ATOM     10  C   UNL     1     109.457 106.691 127.027  1.00  0.00    -0.012 C 
ATOM     11  C   UNL     1     109.229 107.680 128.201  1.00  0.00     0.022 C 
ATOM     12  C   UNL     1     108.687 106.265 128.305  1.00  0.00     0.017 C 
ATOM     13  C   UNL     1     111.575 105.558 128.115  1.00  0.00     0.012 C 
ATOM     14  C   UNL     1     111.850 107.476 126.559  1.00  0.00     0.012 C 
ATOM     15  C   UNL     1     107.208 106.356 125.726  1.00  0.00     0.012 C 
ENDROOT
TORSDOF 0
ENDMDL
MODEL 6
REMARK VINA RESULT:    -5.840      4.438      6.624
REMARK INTER + INTRA:          -5.840
REMARK INTER:                  -5.840
REMARK INTRA:                   0.000
REMARK UNBOUND:                 0.000
REMARK SMILES CC1=CC[C@@]2(C)CCCC(C)(C)[C@]23C[C@H]13
REMARK SMILES IDX 1 1 2 2 3 3 4 4 5 5 7 6 8 7 9 8 10 9 13 10 15 11 14 12 11 13
REMARK SMILES IDX 12 14 6 15
REMARK H PARENT
REMARK Flexibility Score: inf
ROOT
ATOM      1  C   UNL     1     103.069 107.403 129.249  1.00  0.00     0.039 C 
ATOM      2  C   UNL     1     103.675 108.085 128.056  1.00  0.00    -0.074 C 
ATOM      3  C   UNL     1     103.334 107.698 126.818  1.00  0.00    -0.027 C 
ATOM      4  C   UNL     1     103.966 108.340 125.617  1.00  0.00     0.034 C 
ATOM      5  C   UNL     1     105.489 108.563 125.828  1.00  0.00    -0.022 C 
ATOM      6  C   UNL     1     106.035 109.305 124.576  1.00  0.00     0.008 C 
ATOM      7  C   UNL     1     107.380 109.963 124.860  1.00  0.00     0.001 C 
ATOM      8  C   UNL     1     107.250 111.122 125.856  1.00  0.00     0.007 C 
ATOM      9  C   UNL     1     106.161 110.953 126.976  1.00  0.00    -0.029 C 
ATOM     10  C   UNL     1     105.731 109.430 127.143  1.00  0.00    -0.012 C 
ATOM     11  C   UNL     1     104.683 109.190 128.263  1.00  0.00     0.022 C 
ATOM     12  C   UNL     1     106.104 108.686 128.453  1.00  0.00     0.017 C 
ATOM     13  C   UNL     1     106.747 111.589 128.266  1.00  0.00     0.012 C 
ATOM     14  C   UNL     1     104.912 111.797 126.602  1.00  0.00     0.012 C 
ATOM     15  C   UNL     1     106.195 107.176 125.891  1.00  0.00     0.012 C 
ENDROOT
TORSDOF 0
ENDMDL
MODEL 7
REMARK VINA RESULT:    -5.818      2.748      4.540
REMARK INTER + INTRA:          -5.818
REMARK INTER:                  -5.818
REMARK INTRA:                   0.000
REMARK UNBOUND:                 0.000
REMARK SMILES CC1=CC[C@@]2(C)CCCC(C)(C)[C@]23C[C@H]13
REMARK SMILES IDX 1 1 2 2 3 3 4 4 5 5 7 6 8 7 9 8 10 9 13 10 15 11 14 12 11 13
REMARK SMILES IDX 12 14 6 15
REMARK H PARENT
REMARK Flexibility Score: inf
ROOT
ATOM      1  C   UNL     1     109.261 105.159 129.241  1.00  0.00     0.039 C 
ATOM      2  C   UNL     1     108.755 104.427 128.031  1.00  0.00    -0.074 C 
ATOM      3  C   UNL     1     109.212 104.752 126.813  1.00  0.00    -0.027 C 
ATOM      4  C   UNL     1     108.680 104.060 125.590  1.00  0.00     0.034 C 
ATOM      5  C   UNL     1     107.141 103.864 125.673  1.00  0.00    -0.022 C 
ATOM      6  C   UNL     1     106.698 103.069 124.412  1.00  0.00     0.008 C 
ATOM      7  C   UNL     1     105.324 102.440 124.605  1.00  0.00     0.001 C 
ATOM      8  C   UNL     1     105.346 101.328 125.661  1.00  0.00     0.007 C 
ATOM      9  C   UNL     1     106.334 101.538 126.865  1.00  0.00    -0.029 C 
ATOM     10  C   UNL     1     106.770 103.063 126.999  1.00  0.00    -0.012 C 
ATOM     11  C   UNL     1     107.716 103.345 128.197  1.00  0.00     0.022 C 
ATOM     12  C   UNL     1     106.292 103.873 128.234  1.00  0.00     0.017 C 
ATOM     13  C   UNL     1     105.625 100.971 128.125  1.00  0.00     0.012 C 
ATOM     14  C   UNL     1     107.598 100.665 126.645  1.00  0.00     0.012 C 
ATOM     15  C   UNL     1     106.453 105.260 125.608  1.00  0.00     0.012 C 
ENDROOT
TORSDOF 0
ENDMDL
MODEL 8
REMARK VINA RESULT:    -5.813      5.595      7.210
REMARK INTER + INTRA:          -5.813
REMARK INTER:                  -5.813
REMARK INTRA:                   0.000
REMARK UNBOUND:                 0.000
REMARK SMILES CC1=CC[C@@]2(C)CCCC(C)(C)[C@]23C[C@H]13
REMARK SMILES IDX 1 1 2 2 3 3 4 4 5 5 7 6 8 7 9 8 10 9 13 10 15 11 14 12 11 13
REMARK SMILES IDX 12 14 6 15
REMARK H PARENT
REMARK Flexibility Score: inf
ROOT
ATOM      1  C   UNL     1     105.090 103.178 129.192  1.00  0.00     0.039 C 
ATOM      2  C   UNL     1     104.392 103.743 127.987  1.00  0.00    -0.074 C 
ATOM      3  C   UNL     1     104.736 103.328 126.759  1.00  0.00    -0.027 C 
ATOM      4  C   UNL     1     104.080 103.918 125.543  1.00  0.00     0.034 C 
ATOM      5  C   UNL     1     103.906 105.455 125.681  1.00  0.00    -0.022 C 
ATOM      6  C   UNL     1     103.146 105.959 124.422  1.00  0.00     0.008 C 
ATOM      7  C   UNL     1     102.534 107.335 124.654  1.00  0.00     0.001 C 
ATOM      8  C   UNL     1     101.400 107.291 125.685  1.00  0.00     0.007 C 
ATOM      9  C   UNL     1     101.568 106.255 126.855  1.00  0.00    -0.029 C 
ATOM     10  C   UNL     1     103.083 105.789 127.004  1.00  0.00    -0.012 C 
ATOM     11  C   UNL     1     103.323 104.793 128.170  1.00  0.00     0.022 C 
ATOM     12  C   UNL     1     103.873 106.205 128.273  1.00  0.00     0.017 C 
ATOM     13  C   UNL     1     100.985 106.925 128.129  1.00  0.00     0.012 C 
ATOM     14  C   UNL     1     100.680 105.014 126.567  1.00  0.00     0.012 C 
ATOM     15  C   UNL     1     105.314 106.122 125.672  1.00  0.00     0.012 C 
ENDROOT
TORSDOF 0
ENDMDL
MODEL 9
REMARK VINA RESULT:    -5.791      3.797      5.759
REMARK INTER + INTRA:          -5.791
REMARK INTER:                  -5.791
REMARK INTRA:                   0.000
REMARK UNBOUND:                 0.000
REMARK SMILES CC1=CC[C@@]2(C)CCCC(C)(C)[C@]23C[C@H]13
REMARK SMILES IDX 1 1 2 2 3 3 4 4 5 5 7 6 8 7 9 8 10 9 13 10 15 11 14 12 11 13
REMARK SMILES IDX 12 14 6 15
REMARK H PARENT
REMARK Flexibility Score: inf
ROOT
ATOM      1  C   UNL     1     108.980 108.999 124.051  1.00  0.00     0.039 C 
ATOM      2  C   UNL     1     107.767 109.469 124.802  1.00  0.00    -0.074 C 
ATOM      3  C   UNL     1     107.369 110.745 124.700  1.00  0.00    -0.027 C 
ATOM      4  C   UNL     1     106.185 111.240 125.481  1.00  0.00     0.034 C 
ATOM      5  C   UNL     1     106.185 110.677 126.929  1.00  0.00    -0.022 C 
ATOM      6  C   UNL     1     104.887 111.170 127.627  1.00  0.00     0.008 C 
ATOM      7  C   UNL     1     104.563 110.332 128.859  1.00  0.00     0.001 C 
ATOM      8  C   UNL     1     104.171 108.898 128.488  1.00  0.00     0.007 C 
ATOM      9  C   UNL     1     104.900 108.282 127.239  1.00  0.00    -0.029 C 
ATOM     10  C   UNL     1     106.229 109.084 126.889  1.00  0.00    -0.012 C 
ATOM     11  C   UNL     1     107.019 108.500 125.686  1.00  0.00     0.022 C 
ATOM     12  C   UNL     1     107.600 108.384 127.085  1.00  0.00     0.017 C 
ATOM     13  C   UNL     1     105.134 106.780 127.557  1.00  0.00     0.012 C 
ATOM     14  C   UNL     1     103.942 108.326 126.018  1.00  0.00     0.012 C 
ATOM     15  C   UNL     1     107.391 111.285 127.704  1.00  0.00     0.012 C 
ENDROOT
TORSDOF 0
ENDMDL
