MODEL 1
REMARK VINA RESULT:     0.564      0.000      0.000
REMARK INTER + INTRA:           4.376
REMARK INTER:                   0.794
REMARK INTRA:                   3.582
REMARK UNBOUND:                 3.582
REMARK SMILES CC1=CCC(=C(C)C)C(=O)CC(C)=CCC1
REMARK SMILES IDX 12 1 14 2 13 3 15 4 16 5 2 6 1 7 3 8 11 10 9 11 10 12 5 13
REMARK SMILES IDX 6 14 7 15 8 16 4 17
REMARK H PARENT
REMARK Flexibility Score: 60.00
ROOT
ATOM      1  C   UNL     1      25.647  23.059  24.278  1.00  0.00    -0.070 C 
ATOM      2  C   UNL     1      24.513  23.084  25.017  1.00  0.00    -0.027 C 
ATOM      3  C   UNL     1      25.523  23.221  22.784  1.00  0.00     0.039 C 
ENDROOT
BRANCH   2   4
ATOM      4  C   UNL     1      24.444  22.877  26.513  1.00  0.00     0.032 C 
BRANCH   4   5
ATOM      5  C   UNL     1      23.292  23.675  27.142  1.00  0.00     0.034 C 
BRANCH   5   6
ATOM      6  C   UNL     1      23.703  25.058  27.624  1.00  0.00    -0.077 C 
ATOM      7  C   UNL     1      22.634  26.009  28.101  1.00  0.00     0.039 C 
ATOM      8  C   UNL     1      24.983  25.495  27.632  1.00  0.00    -0.023 CG0
ATOM      9  G   UNL     1      26.192  24.668  27.260  1.00  0.00     0.000 G0
ENDBRANCH   5   6
ENDBRANCH   4   5
ENDBRANCH   2   4
BRANCH   1  10
ATOM     10  C   UNL     1      27.024  22.880  24.886  1.00  0.00     0.111 C 
BRANCH  10  11
ATOM     11  C   UNL     1      27.666  24.210  25.171  1.00  0.00     0.163 C 
ATOM     12  O   UNL     1      28.769  24.493  24.631  1.00  0.00    -0.294 OA
BRANCH  11  13
ATOM     13  C   UNL     1      27.037  25.188  26.095  1.00  0.00    -0.002 C 
ATOM     14  C   UNL     1      27.199  26.525  25.895  1.00  0.00    -0.069 C 
ATOM     15  C   UNL     1      28.092  27.047  24.792  1.00  0.00     0.039 C 
ATOM     16  C   UNL     1      26.525  27.535  26.794  1.00  0.00     0.039 C 
BRANCH  13  17
ATOM     17  C   UNL     1      26.211  24.674  27.270  1.00  0.00     0.066 CG0
ATOM     18  G   UNL     1      25.011  25.534  27.590  1.00  0.00     0.000 G0
ENDBRANCH  13  17
ENDBRANCH  11  13
ENDBRANCH  10  11
ENDBRANCH   1  10
TORSDOF 0
ENDMDL
MODEL 2
REMARK VINA RESULT:     0.886      1.702      4.560
REMARK INTER + INTRA:           4.830
REMARK INTER:                   1.718
REMARK INTRA:                   3.112
REMARK UNBOUND:                 3.582
REMARK SMILES CC1=CCC(=C(C)C)C(=O)CC(C)=CCC1
REMARK SMILES IDX 12 1 14 2 13 3 15 4 16 5 2 6 1 7 3 8 11 10 9 11 10 12 5 13
REMARK SMILES IDX 6 14 7 15 8 16 4 17
REMARK H PARENT
REMARK Flexibility Score: 60.00
ROOT
ATOM      1  C   UNL     1      27.521  25.748  25.987  1.00  0.00    -0.070 C 
ATOM      2  C   UNL     1      28.220  25.338  24.904  1.00  0.00    -0.027 C 
ATOM      3  C   UNL     1      27.459  27.227  26.273  1.00  0.00     0.039 C 
ENDROOT
BRANCH   2   4
ATOM      4  C   UNL     1      28.439  23.896  24.502  1.00  0.00     0.032 C 
BRANCH   4   5
ATOM      5  C   UNL     1      27.331  22.983  25.047  1.00  0.00     0.034 C 
BRANCH   5   6
ATOM      6  C   UNL     1      26.034  23.061  24.254  1.00  0.00    -0.077 C 
ATOM      7  C   UNL     1      26.106  23.180  22.753  1.00  0.00     0.039 C 
ATOM      8  C   UNL     1      24.809  23.047  24.828  1.00  0.00    -0.023 CG0
ATOM      9  G   UNL     1      24.535  22.863  26.302  1.00  0.00     0.000 G0
ENDBRANCH   5   6
ENDBRANCH   4   5
ENDBRANCH   2   4
BRANCH   1  10
ATOM     10  C   UNL     1      26.800  24.790  26.915  1.00  0.00     0.111 C 
BRANCH  10  11
ATOM     11  C   UNL     1      25.366  25.198  27.107  1.00  0.00     0.163 C 
ATOM     12  O   UNL     1      25.094  26.400  27.370  1.00  0.00    -0.294 OA
BRANCH  11  13
ATOM     13  C   UNL     1      24.263  24.207  27.017  1.00  0.00    -0.002 C 
ATOM     14  C   UNL     1      23.046  24.481  27.563  1.00  0.00    -0.069 C 
ATOM     15  C   UNL     1      22.812  25.751  28.351  1.00  0.00     0.039 C 
ATOM     16  C   UNL     1      21.897  23.508  27.436  1.00  0.00     0.039 C 
BRANCH  13  17
ATOM     17  C   UNL     1      24.513  22.880  26.307  1.00  0.00     0.066 CG0
ATOM     18  G   UNL     1      24.805  23.026  24.832  1.00  0.00     0.000 G0
ENDBRANCH  13  17
ENDBRANCH  11  13
ENDBRANCH  10  11
ENDBRANCH   1  10
TORSDOF 0
ENDMDL
MODEL 3
REMARK VINA RESULT:     1.109      1.789      4.512
REMARK INTER + INTRA:           5.144
REMARK INTER:                   3.294
REMARK INTRA:                   1.850
REMARK UNBOUND:                 3.582
REMARK SMILES CC1=CCC(=C(C)C)C(=O)CC(C)=CCC1
REMARK SMILES IDX 12 1 14 2 13 3 15 4 16 5 2 6 1 7 3 8 11 10 9 11 10 12 5 13
REMARK SMILES IDX 6 14 7 15 8 16 4 17
REMARK H PARENT
REMARK Flexibility Score: 60.00
ROOT
ATOM      1  C   UNL     1      23.903  25.823  27.917  1.00  0.00    -0.070 C 
ATOM      2  C   UNL     1      24.540  26.974  27.601  1.00  0.00    -0.027 C 
ATOM      3  C   UNL     1      22.413  25.876  28.139  1.00  0.00     0.039 C 
ENDROOT
BRANCH   2   4
ATOM      4  C   UNL     1      26.033  27.117  27.404  1.00  0.00     0.032 C 
BRANCH   4   5
ATOM      5  C   UNL     1      26.440  26.851  25.948  1.00  0.00     0.034 C 
BRANCH   5   6
ATOM      6  C   UNL     1      27.855  26.313  25.800  1.00  0.00    -0.077 C 
ATOM      7  C   UNL     1      28.929  27.228  25.267  1.00  0.00     0.039 C 
ATOM      8  C   UNL     1      28.205  25.043  26.107  1.00  0.00    -0.023 CG0
ATOM      9  G   UNL     1      27.290  24.006  26.717  1.00  0.00     0.000 G0
ENDBRANCH   5   6
ENDBRANCH   4   5
ENDBRANCH   2   4
BRANCH   1  10
ATOM     10  C   UNL     1      24.618  24.493  28.051  1.00  0.00     0.111 C 
BRANCH  10  11
ATOM     11  C   UNL     1      24.714  23.794  26.724  1.00  0.00     0.163 C 
ATOM     12  O   UNL     1      23.681  23.279  26.220  1.00  0.00    -0.294 OA
BRANCH  11  13
ATOM     13  C   UNL     1      26.009  23.677  26.006  1.00  0.00    -0.002 C 
ATOM     14  C   UNL     1      26.037  23.311  24.694  1.00  0.00    -0.069 C 
ATOM     15  C   UNL     1      24.770  22.926  23.963  1.00  0.00     0.039 C 
ATOM     16  C   UNL     1      27.340  23.237  23.932  1.00  0.00     0.039 C 
BRANCH  13  17
ATOM     17  C   UNL     1      27.304  23.969  26.756  1.00  0.00     0.066 CG0
ATOM     18  G   UNL     1      28.162  25.025  26.099  1.00  0.00     0.000 G0
ENDBRANCH  13  17
ENDBRANCH  11  13
ENDBRANCH  10  11
ENDBRANCH   1  10
TORSDOF 0
ENDMDL
MODEL 4
REMARK VINA RESULT:     1.671      1.825      2.885
REMARK INTER + INTRA:           5.937
REMARK INTER:                   4.759
REMARK INTRA:                   1.178
REMARK UNBOUND:                 3.582
REMARK SMILES CC1=CCC(=C(C)C)C(=O)CC(C)=CCC1
REMARK SMILES IDX 12 1 14 2 13 3 15 4 16 5 2 6 1 7 3 8 11 10 9 11 10 12 5 13
REMARK SMILES IDX 6 14 7 15 8 16 4 17
REMARK H PARENT
REMARK Flexibility Score: 60.00
ROOT
ATOM      1  C   UNL     1      23.725  24.095  27.033  1.00  0.00    -0.070 C 
ATOM      2  C   UNL     1      22.618  24.832  27.286  1.00  0.00    -0.027 C 
ATOM      3  C   UNL     1      23.679  23.113  25.891  1.00  0.00     0.039 C 
ENDROOT
BRANCH   2   4
ATOM      4  C   UNL     1      22.467  25.816  28.424  1.00  0.00     0.032 C 
BRANCH   4   5
ATOM      5  C   UNL     1      22.580  27.267  27.935  1.00  0.00     0.034 C 
BRANCH   5   6
ATOM      6  C   UNL     1      23.888  27.940  28.325  1.00  0.00    -0.077 C 
ATOM      7  C   UNL     1      23.913  28.833  29.540  1.00  0.00     0.039 C 
ATOM      8  C   UNL     1      25.037  27.795  27.625  1.00  0.00    -0.023 CG0
ATOM      9  G   UNL     1      25.225  26.893  26.428  1.00  0.00     0.000 G0
ENDBRANCH   5   6
ENDBRANCH   4   5
ENDBRANCH   2   4
BRANCH   1  10
ATOM     10  C   UNL     1      25.001  24.220  27.843  1.00  0.00     0.111 C 
BRANCH  10  11
ATOM     11  C   UNL     1      26.172  24.552  26.960  1.00  0.00     0.163 C 
ATOM     12  O   UNL     1      26.982  23.643  26.638  1.00  0.00    -0.294 OA
BRANCH  11  13
ATOM     13  C   UNL     1      26.406  25.938  26.480  1.00  0.00    -0.002 C 
ATOM     14  C   UNL     1      27.655  26.335  26.109  1.00  0.00    -0.069 C 
ATOM     15  C   UNL     1      28.845  25.415  26.263  1.00  0.00     0.039 C 
ATOM     16  C   UNL     1      27.904  27.724  25.569  1.00  0.00     0.039 C 
BRANCH  13  17
ATOM     17  C   UNL     1      25.232  26.909  26.409  1.00  0.00     0.066 CG0
ATOM     18  G   UNL     1      25.062  27.750  27.652  1.00  0.00     0.000 G0
ENDBRANCH  13  17
ENDBRANCH  11  13
ENDBRANCH  10  11
ENDBRANCH   1  10
TORSDOF 0
ENDMDL
MODEL 5
REMARK VINA RESULT:     3.269      2.175      3.911
REMARK INTER + INTRA:           8.188
REMARK INTER:                   6.649
REMARK INTRA:                   1.539
REMARK UNBOUND:                 3.582
REMARK SMILES CC1=CCC(=C(C)C)C(=O)CC(C)=CCC1
REMARK SMILES IDX 12 1 14 2 13 3 15 4 16 5 2 6 1 7 3 8 11 10 9 11 10 12 5 13
REMARK SMILES IDX 6 14 7 15 8 16 4 17
REMARK H PARENT
REMARK Flexibility Score: 60.00
ROOT
ATOM      1  C   UNL     1      24.219  27.727  28.077  1.00  0.00    -0.070 C 
ATOM      2  C   UNL     1      23.579  26.537  28.166  1.00  0.00    -0.027 C 
ATOM      3  C   UNL     1      24.204  28.632  29.282  1.00  0.00     0.039 C 
ENDROOT
BRANCH   2   4
ATOM      4  C   UNL     1      23.442  25.535  27.043  1.00  0.00     0.032 C 
BRANCH   4   5
ATOM      5  C   UNL     1      23.713  24.103  27.525  1.00  0.00     0.034 C 
BRANCH   5   6
ATOM      6  C   UNL     1      25.171  23.845  27.875  1.00  0.00    -0.077 C 
ATOM      7  C   UNL     1      25.491  22.878  28.988  1.00  0.00     0.039 C 
ATOM      8  C   UNL     1      26.206  24.453  27.251  1.00  0.00    -0.023 CG0
ATOM      9  G   UNL     1      26.088  25.392  26.074  1.00  0.00     0.000 G0
ENDBRANCH   5   6
ENDBRANCH   4   5
ENDBRANCH   2   4
BRANCH   1  10
ATOM     10  C   UNL     1      24.949  28.179  26.827  1.00  0.00     0.111 C 
BRANCH  10  11
ATOM     11  C   UNL     1      26.412  27.842  26.903  1.00  0.00     0.163 C 
ATOM     12  O   UNL     1      27.186  28.587  27.562  1.00  0.00    -0.294 OA
BRANCH  11  13
ATOM     13  C   UNL     1      26.969  26.661  26.195  1.00  0.00    -0.002 C 
ATOM     14  C   UNL     1      28.229  26.700  25.680  1.00  0.00    -0.069 C 
ATOM     15  C   UNL     1      29.055  27.965  25.731  1.00  0.00     0.039 C 
ATOM     16  C   UNL     1      28.832  25.491  25.002  1.00  0.00     0.039 C 
BRANCH  13  17
ATOM     17  C   UNL     1      26.111  25.408  26.051  1.00  0.00     0.066 CG0
ATOM     18  G   UNL     1      26.208  24.467  27.229  1.00  0.00     0.000 G0
ENDBRANCH  13  17
ENDBRANCH  11  13
ENDBRANCH  10  11
ENDBRANCH   1  10
TORSDOF 0
ENDMDL
