MODEL 1
REMARK VINA RESULT:    -6.686      0.000      0.000
REMARK INTER + INTRA:          -7.321
REMARK INTER:                  -7.272
REMARK INTRA:                  -0.049
REMARK UNBOUND:                -0.049
REMARK SMILES COc1cc2ccc(=O)oc2cc1O
REMARK SMILES IDX 3 1 13 2 12 3 11 4 5 5 4 6 6 7 7 8 8 9 9 10 10 11 2 12 1 13
REMARK SMILES IDX 14 14
REMARK H PARENT 14 15
REMARK Flexibility Score: inf
ROOT
ATOM      1  C   UNL     1       9.993   2.979  18.390  1.00  0.00     0.161 A 
ATOM      2  C   UNL     1      11.328   3.244  18.029  1.00  0.00     0.161 A 
ATOM      3  C   UNL     1      12.010   4.327  18.595  1.00  0.00     0.098 A 
ATOM      4  C   UNL     1      11.374   5.157  19.520  1.00  0.00     0.142 A 
ATOM      5  C   UNL     1      10.037   4.901  19.888  1.00  0.00     0.022 A 
ATOM      6  C   UNL     1       9.350   3.817  19.324  1.00  0.00     0.062 A 
ATOM      7  C   UNL     1       9.427   5.750  20.818  1.00  0.00     0.019 A 
ATOM      8  C   UNL     1      10.152   6.815  21.350  1.00  0.00     0.094 A 
ATOM      9  C   UNL     1      11.475   7.008  20.939  1.00  0.00     0.336 A 
ATOM     10  O   UNL     1      12.147   7.963  21.407  1.00  0.00    -0.246 OA
ATOM     11  O   UNL     1      12.031   6.185  20.052  1.00  0.00    -0.423 OA
ENDROOT
BRANCH   1  12
ATOM     12  O   UNL     1       9.338   1.883  17.803  1.00  0.00    -0.493 OA
ATOM     13  C   UNL     1       8.499   0.972  18.506  1.00  0.00     0.278 C 
ENDBRANCH   1  12
BRANCH   2  14
ATOM     14  O   UNL     1      11.998   2.437  17.107  1.00  0.00    -0.504 OA
ATOM     15  H   UNL     1      11.816   2.489  16.113  1.00  0.00     0.293 HD
ENDBRANCH   2  14
TORSDOF 2
ENDMDL
MODEL 2
REMARK VINA RESULT:    -6.343     18.618     19.271
REMARK INTER + INTRA:          -6.948
REMARK INTER:                  -6.902
REMARK INTRA:                  -0.046
REMARK UNBOUND:                -0.049
REMARK SMILES COc1cc2ccc(=O)oc2cc1O
REMARK SMILES IDX 3 1 13 2 12 3 11 4 5 5 4 6 6 7 7 8 8 9 9 10 10 11 2 12 1 13
REMARK SMILES IDX 14 14
REMARK H PARENT 14 15
REMARK Flexibility Score: inf
ROOT
ATOM      1  C   UNL     1      19.356  -3.051  34.631  1.00  0.00     0.161 A 
ATOM      2  C   UNL     1      20.117  -3.749  33.674  1.00  0.00     0.161 A 
ATOM      3  C   UNL     1      19.571  -4.852  33.007  1.00  0.00     0.098 A 
ATOM      4  C   UNL     1      18.270  -5.273  33.285  1.00  0.00     0.142 A 
ATOM      5  C   UNL     1      17.499  -4.582  34.243  1.00  0.00     0.022 A 
ATOM      6  C   UNL     1      18.041  -3.476  34.913  1.00  0.00     0.062 A 
ATOM      7  C   UNL     1      16.198  -5.028  34.499  1.00  0.00     0.019 A 
ATOM      8  C   UNL     1      15.704  -6.133  33.807  1.00  0.00     0.094 A 
ATOM      9  C   UNL     1      16.526  -6.769  32.871  1.00  0.00     0.336 A 
ATOM     10  O   UNL     1      16.100  -7.768  32.236  1.00  0.00    -0.246 OA
ATOM     11  O   UNL     1      17.761  -6.324  32.646  1.00  0.00    -0.423 OA
ENDROOT
BRANCH   1  12
ATOM     12  O   UNL     1      19.933  -1.948  35.281  1.00  0.00    -0.493 OA
ATOM     13  C   UNL     1      19.214  -0.799  35.718  1.00  0.00     0.278 C 
ENDBRANCH   1  12
BRANCH   2  14
ATOM     14  O   UNL     1      21.422  -3.358  33.369  1.00  0.00    -0.504 OA
ATOM     15  H   UNL     1      22.143  -3.286  34.076  1.00  0.00     0.293 HD
ENDBRANCH   2  14
TORSDOF 2
ENDMDL
MODEL 3
REMARK VINA RESULT:    -6.282      1.369      5.531
REMARK INTER + INTRA:          -6.882
REMARK INTER:                  -6.837
REMARK INTRA:                  -0.044
REMARK UNBOUND:                -0.049
REMARK SMILES COc1cc2ccc(=O)oc2cc1O
REMARK SMILES IDX 3 1 13 2 12 3 11 4 5 5 4 6 6 7 7 8 8 9 9 10 10 11 2 12 1 13
REMARK SMILES IDX 14 14
REMARK H PARENT 14 15
REMARK Flexibility Score: inf
ROOT
ATOM      1  C   UNL     1      11.197   7.285  20.936  1.00  0.00     0.161 A 
ATOM      2  C   UNL     1       9.902   6.998  21.407  1.00  0.00     0.161 A 
ATOM      3  C   UNL     1       9.237   5.842  20.982  1.00  0.00     0.098 A 
ATOM      4  C   UNL     1       9.849   4.964  20.085  1.00  0.00     0.142 A 
ATOM      5  C   UNL     1      11.146   5.243  19.606  1.00  0.00     0.022 A 
ATOM      6  C   UNL     1      11.816   6.399  20.030  1.00  0.00     0.062 A 
ATOM      7  C   UNL     1      11.733   4.344  18.709  1.00  0.00     0.019 A 
ATOM      8  C   UNL     1      11.026   3.208  18.317  1.00  0.00     0.094 A 
ATOM      9  C   UNL     1       9.743   2.996  18.834  1.00  0.00     0.336 A 
ATOM     10  O   UNL     1       9.088   1.978  18.492  1.00  0.00    -0.246 OA
ATOM     11  O   UNL     1       9.208   3.868  19.686  1.00  0.00    -0.423 OA
ENDROOT
BRANCH   1  12
ATOM     12  O   UNL     1      11.836   8.453  21.384  1.00  0.00    -0.493 OA
ATOM     13  C   UNL     1      13.245   8.657  21.377  1.00  0.00     0.278 C 
ENDBRANCH   1  12
BRANCH   2  14
ATOM     14  O   UNL     1       9.257   7.851  22.304  1.00  0.00    -0.504 OA
ATOM     15  H   UNL     1       8.298   7.704  22.594  1.00  0.00     0.293 HD
ENDBRANCH   2  14
TORSDOF 2
ENDMDL
MODEL 4
REMARK VINA RESULT:    -6.007     18.611     18.816
REMARK INTER + INTRA:          -6.583
REMARK INTER:                  -6.537
REMARK INTRA:                  -0.047
REMARK UNBOUND:                -0.049
REMARK SMILES COc1cc2ccc(=O)oc2cc1O
REMARK SMILES IDX 3 1 13 2 12 3 11 4 5 5 4 6 6 7 7 8 8 9 9 10 10 11 2 12 1 13
REMARK SMILES IDX 14 14
REMARK H PARENT 14 15
REMARK Flexibility Score: inf
ROOT
ATOM      1  C   UNL     1      16.816  -7.463  32.857  1.00  0.00     0.161 A 
ATOM      2  C   UNL     1      15.797  -6.738  33.505  1.00  0.00     0.161 A 
ATOM      3  C   UNL     1      16.066  -5.478  34.051  1.00  0.00     0.098 A 
ATOM      4  C   UNL     1      17.345  -4.927  33.961  1.00  0.00     0.142 A 
ATOM      5  C   UNL     1      18.373  -5.645  33.315  1.00  0.00     0.022 A 
ATOM      6  C   UNL     1      18.108  -6.907  32.766  1.00  0.00     0.062 A 
ATOM      7  C   UNL     1      19.645  -5.066  33.241  1.00  0.00     0.019 A 
ATOM      8  C   UNL     1      19.858  -3.808  33.802  1.00  0.00     0.094 A 
ATOM      9  C   UNL     1      18.791  -3.154  34.427  1.00  0.00     0.336 A 
ATOM     10  O   UNL     1      18.963  -2.019  34.940  1.00  0.00    -0.246 OA
ATOM     11  O   UNL     1      17.591  -3.727  34.484  1.00  0.00    -0.423 OA
ENDROOT
BRANCH   1  12
ATOM     12  O   UNL     1      16.512  -8.725  32.320  1.00  0.00    -0.493 OA
ATOM     13  C   UNL     1      16.021  -8.945  31.001  1.00  0.00     0.278 C 
ENDBRANCH   1  12
BRANCH   2  14
ATOM     14  O   UNL     1      14.505  -7.255  33.615  1.00  0.00    -0.504 OA
ATOM     15  H   UNL     1      14.082  -7.811  32.881  1.00  0.00     0.293 HD
ENDBRANCH   2  14
TORSDOF 2
ENDMDL
MODEL 5
REMARK VINA RESULT:    -5.932      1.930      5.456
REMARK INTER + INTRA:          -6.501
REMARK INTER:                  -6.445
REMARK INTRA:                  -0.056
REMARK UNBOUND:                -0.049
REMARK SMILES COc1cc2ccc(=O)oc2cc1O
REMARK SMILES IDX 3 1 13 2 12 3 11 4 5 5 4 6 6 7 7 8 8 9 9 10 10 11 2 12 1 13
REMARK SMILES IDX 14 14
REMARK H PARENT 14 15
REMARK Flexibility Score: inf
ROOT
ATOM      1  C   UNL     1      12.762   7.913  21.049  1.00  0.00     0.161 A 
ATOM      2  C   UNL     1      13.095   8.018  19.685  1.00  0.00     0.161 A 
ATOM      3  C   UNL     1      12.537   7.136  18.752  1.00  0.00     0.098 A 
ATOM      4  C   UNL     1      11.648   6.141  19.164  1.00  0.00     0.142 A 
ATOM      5  C   UNL     1      11.309   6.026  20.528  1.00  0.00     0.022 A 
ATOM      6  C   UNL     1      11.864   6.908  21.465  1.00  0.00     0.062 A 
ATOM      7  C   UNL     1      10.415   5.020  20.910  1.00  0.00     0.019 A 
ATOM      8  C   UNL     1       9.889   4.167  19.940  1.00  0.00     0.094 A 
ATOM      9  C   UNL     1      10.271   4.341  18.606  1.00  0.00     0.336 A 
ATOM     10  O   UNL     1       9.809   3.581  17.715  1.00  0.00    -0.246 OA
ATOM     11  O   UNL     1      11.124   5.306  18.269  1.00  0.00    -0.423 OA
ENDROOT
BRANCH   1  12
ATOM     12  O   UNL     1      13.338   8.815  21.958  1.00  0.00    -0.493 OA
ATOM     13  C   UNL     1      12.759  10.058  22.341  1.00  0.00     0.278 C 
ENDBRANCH   1  12
BRANCH   2  14
ATOM     14  O   UNL     1      13.979   9.000  19.234  1.00  0.00    -0.504 OA
ATOM     15  H   UNL     1      14.209   9.815  19.789  1.00  0.00     0.293 HD
ENDBRANCH   2  14
TORSDOF 2
ENDMDL
MODEL 6
REMARK VINA RESULT:    -5.786      1.316      5.009
REMARK INTER + INTRA:          -6.342
REMARK INTER:                  -6.283
REMARK INTRA:                  -0.059
REMARK UNBOUND:                -0.049
REMARK SMILES COc1cc2ccc(=O)oc2cc1O
REMARK SMILES IDX 3 1 13 2 12 3 11 4 5 5 4 6 6 7 7 8 8 9 9 10 10 11 2 12 1 13
REMARK SMILES IDX 14 14
REMARK H PARENT 14 15
REMARK Flexibility Score: inf
ROOT
ATOM      1  C   UNL     1      11.042   4.990  19.055  1.00  0.00     0.161 A 
ATOM      2  C   UNL     1      11.850   4.194  18.219  1.00  0.00     0.161 A 
ATOM      3  C   UNL     1      11.338   3.020  17.654  1.00  0.00     0.098 A 
ATOM      4  C   UNL     1      10.025   2.624  17.914  1.00  0.00     0.142 A 
ATOM      5  C   UNL     1       9.208   3.413  18.750  1.00  0.00     0.022 A 
ATOM      6  C   UNL     1       9.716   4.590  19.318  1.00  0.00     0.062 A 
ATOM      7  C   UNL     1       7.896   2.990  18.991  1.00  0.00     0.019 A 
ATOM      8  C   UNL     1       7.438   1.812  18.404  1.00  0.00     0.094 A 
ATOM      9  C   UNL     1       8.305   1.081  17.585  1.00  0.00     0.336 A 
ATOM     10  O   UNL     1       7.911   0.014  17.046  1.00  0.00    -0.246 OA
ATOM     11  O   UNL     1       9.549   1.505  17.372  1.00  0.00    -0.423 OA
ENDROOT
BRANCH   1  12
ATOM     12  O   UNL     1      11.586   6.162  19.604  1.00  0.00    -0.493 OA
ATOM     13  C   UNL     1      11.778   6.389  20.997  1.00  0.00     0.278 C 
ENDBRANCH   1  12
BRANCH   2  14
ATOM     14  O   UNL     1      13.168   4.557  17.936  1.00  0.00    -0.504 OA
ATOM     15  H   UNL     1      13.411   5.114  17.127  1.00  0.00     0.293 HD
ENDBRANCH   2  14
TORSDOF 2
ENDMDL
MODEL 7
REMARK VINA RESULT:    -5.723      1.821      2.819
REMARK INTER + INTRA:          -6.274
REMARK INTER:                  -6.297
REMARK INTRA:                   0.023
REMARK UNBOUND:                -0.049
REMARK SMILES COc1cc2ccc(=O)oc2cc1O
REMARK SMILES IDX 3 1 13 2 12 3 11 4 5 5 4 6 6 7 7 8 8 9 9 10 10 11 2 12 1 13
REMARK SMILES IDX 14 14
REMARK H PARENT 14 15
REMARK Flexibility Score: inf
ROOT
ATOM      1  C   UNL     1       8.848   2.007  18.784  1.00  0.00     0.161 A 
ATOM      2  C   UNL     1       7.724   2.851  18.861  1.00  0.00     0.161 A 
ATOM      3  C   UNL     1       7.886   4.223  19.090  1.00  0.00     0.098 A 
ATOM      4  C   UNL     1       9.162   4.767  19.247  1.00  0.00     0.142 A 
ATOM      5  C   UNL     1      10.294   3.930  19.172  1.00  0.00     0.022 A 
ATOM      6  C   UNL     1      10.137   2.556  18.942  1.00  0.00     0.062 A 
ATOM      7  C   UNL     1      11.560   4.505  19.333  1.00  0.00     0.019 A 
ATOM      8  C   UNL     1      11.665   5.877  19.560  1.00  0.00     0.094 A 
ATOM      9  C   UNL     1      10.497   6.645  19.622  1.00  0.00     0.336 A 
ATOM     10  O   UNL     1      10.570   7.884  19.826  1.00  0.00    -0.246 OA
ATOM     11  O   UNL     1       9.305   6.072  19.466  1.00  0.00    -0.423 OA
ENDROOT
BRANCH   1  12
ATOM     12  O   UNL     1       8.650   0.636  18.551  1.00  0.00    -0.493 OA
ATOM     13  C   UNL     1       8.337   0.068  17.284  1.00  0.00     0.278 C 
ENDBRANCH   1  12
BRANCH   2  14
ATOM     14  O   UNL     1       6.432   2.345  18.709  1.00  0.00    -0.504 OA
ATOM     15  H   UNL     1       5.892   2.486  17.864  1.00  0.00     0.293 HD
ENDBRANCH   2  14
TORSDOF 2
ENDMDL
MODEL 8
REMARK VINA RESULT:    -5.723      1.890      2.438
REMARK INTER + INTRA:          -6.273
REMARK INTER:                  -6.223
REMARK INTRA:                  -0.050
REMARK UNBOUND:                -0.049
REMARK SMILES COc1cc2ccc(=O)oc2cc1O
REMARK SMILES IDX 3 1 13 2 12 3 11 4 5 5 4 6 6 7 7 8 8 9 9 10 10 11 2 12 1 13
REMARK SMILES IDX 14 14
REMARK H PARENT 14 15
REMARK Flexibility Score: inf
ROOT
ATOM      1  C   UNL     1       8.941   4.275  19.146  1.00  0.00     0.161 A 
ATOM      2  C   UNL     1       8.653   5.513  18.540  1.00  0.00     0.161 A 
ATOM      3  C   UNL     1       9.363   6.661  18.909  1.00  0.00     0.098 A 
ATOM      4  C   UNL     1      10.361   6.593  19.883  1.00  0.00     0.142 A 
ATOM      5  C   UNL     1      10.656   5.358  20.497  1.00  0.00     0.022 A 
ATOM      6  C   UNL     1       9.948   4.205  20.130  1.00  0.00     0.062 A 
ATOM      7  C   UNL     1      11.662   5.321  21.469  1.00  0.00     0.019 A 
ATOM      8  C   UNL     1      12.337   6.495  21.801  1.00  0.00     0.094 A 
ATOM      9  C   UNL     1      11.990   7.684  21.149  1.00  0.00     0.336 A 
ATOM     10  O   UNL     1      12.587   8.754  21.434  1.00  0.00    -0.246 OA
ATOM     11  O   UNL     1      11.029   7.691  20.228  1.00  0.00    -0.423 OA
ENDROOT
BRANCH   1  12
ATOM     12  O   UNL     1       8.211   3.142  18.751  1.00  0.00    -0.493 OA
ATOM     13  C   UNL     1       8.784   1.873  18.455  1.00  0.00     0.278 C 
ENDBRANCH   1  12
BRANCH   2  14
ATOM     14  O   UNL     1       7.662   5.622  17.562  1.00  0.00    -0.504 OA
ATOM     15  H   UNL     1       7.315   4.817  17.055  1.00  0.00     0.293 HD
ENDBRANCH   2  14
TORSDOF 2
ENDMDL
MODEL 9
REMARK VINA RESULT:    -5.678      2.043      3.424
REMARK INTER + INTRA:          -6.225
REMARK INTER:                  -6.165
REMARK INTRA:                  -0.061
REMARK UNBOUND:                -0.049
REMARK SMILES COc1cc2ccc(=O)oc2cc1O
REMARK SMILES IDX 3 1 13 2 12 3 11 4 5 5 4 6 6 7 7 8 8 9 9 10 10 11 2 12 1 13
REMARK SMILES IDX 14 14
REMARK H PARENT 14 15
REMARK Flexibility Score: inf
ROOT
ATOM      1  C   UNL     1      10.368   5.617  18.585  1.00  0.00     0.161 A 
ATOM      2  C   UNL     1       9.559   5.872  19.709  1.00  0.00     0.161 A 
ATOM      3  C   UNL     1       9.977   6.782  20.687  1.00  0.00     0.098 A 
ATOM      4  C   UNL     1      11.199   7.444  20.560  1.00  0.00     0.142 A 
ATOM      5  C   UNL     1      12.017   7.196  19.438  1.00  0.00     0.022 A 
ATOM      6  C   UNL     1      11.602   6.286  18.456  1.00  0.00     0.062 A 
ATOM      7  C   UNL     1      13.236   7.875  19.339  1.00  0.00     0.019 A 
ATOM      8  C   UNL     1      13.605   8.771  20.342  1.00  0.00     0.094 A 
ATOM      9  C   UNL     1      12.742   8.966  21.426  1.00  0.00     0.336 A 
ATOM     10  O   UNL     1      13.056   9.770  22.342  1.00  0.00    -0.246 OA
ATOM     11  O   UNL     1      11.588   8.307  21.496  1.00  0.00    -0.423 OA
ENDROOT
BRANCH   1  12
ATOM     12  O   UNL     1       9.917   4.699  17.622  1.00  0.00    -0.493 OA
ATOM     13  C   UNL     1      10.252   3.315  17.605  1.00  0.00     0.278 C 
ENDBRANCH   1  12
BRANCH   2  14
ATOM     14  O   UNL     1       8.330   5.229  19.872  1.00  0.00    -0.504 OA
ATOM     15  H   UNL     1       7.853   5.196  20.764  1.00  0.00     0.293 HD
ENDBRANCH   2  14
TORSDOF 2
ENDMDL
