MODEL 1
REMARK VINA RESULT:    -4.221      0.000      0.000
REMARK INTER + INTRA:          -4.221
REMARK INTER:                  -4.221
REMARK INTRA:                   0.000
REMARK UNBOUND:                 0.000
REMARK SMILES CC1=CC[C@]2(C)CCCC(C)(C)[C@@]23C[C@@H]13
REMARK SMILES IDX 1 1 2 2 3 3 4 4 5 5 7 6 8 7 9 8 10 9 13 10 15 11 14 12 11 13
REMARK SMILES IDX 12 14 6 15
REMARK H PARENT
REMARK Flexibility Score: inf
ROOT
ATOM      1  C   UNL     1      53.875  42.249  42.621  1.00  0.00     0.039 C 
ATOM      2  C   UNL     1      54.869  43.346  42.365  1.00  0.00    -0.074 C 
ATOM      3  C   UNL     1      54.454  44.528  41.884  1.00  0.00    -0.027 C 
ATOM      4  C   UNL     1      55.430  45.649  41.668  1.00  0.00     0.034 C 
ATOM      5  C   UNL     1      56.448  45.748  42.836  1.00  0.00    -0.022 C 
ATOM      6  C   UNL     1      57.464  46.872  42.484  1.00  0.00     0.008 C 
ATOM      7  C   UNL     1      58.735  46.755  43.313  1.00  0.00     0.001 C 
ATOM      8  C   UNL     1      59.544  45.503  42.948  1.00  0.00     0.007 C 
ATOM      9  C   UNL     1      58.709  44.239  42.533  1.00  0.00    -0.029 C 
ATOM     10  C   UNL     1      57.198  44.354  43.020  1.00  0.00    -0.012 C 
ATOM     11  C   UNL     1      56.329  43.114  42.674  1.00  0.00     0.022 C 
ATOM     12  C   UNL     1      56.691  43.389  44.124  1.00  0.00     0.017 C 
ATOM     13  C   UNL     1      59.463  43.003  43.100  1.00  0.00     0.012 C 
ATOM     14  C   UNL     1      58.737  44.095  40.987  1.00  0.00     0.012 C 
ATOM     15  C   UNL     1      55.692  46.191  44.125  1.00  0.00     0.012 C 
ENDROOT
TORSDOF 0
ENDMDL
MODEL 2
REMARK VINA RESULT:    -4.186     21.507     23.379
REMARK INTER + INTRA:          -4.186
REMARK INTER:                  -4.186
REMARK INTRA:                   0.000
REMARK UNBOUND:                 0.000
REMARK SMILES CC1=CC[C@]2(C)CCCC(C)(C)[C@@]23C[C@@H]13
REMARK SMILES IDX 1 1 2 2 3 3 4 4 5 5 7 6 8 7 9 8 10 9 13 10 15 11 14 12 11 13
REMARK SMILES IDX 12 14 6 15
REMARK H PARENT
REMARK Flexibility Score: inf
ROOT
ATOM      1  C   UNL     1      57.634  26.875  26.129  1.00  0.00     0.039 C 
ATOM      2  C   UNL     1      56.554  27.894  26.351  1.00  0.00    -0.074 C 
ATOM      3  C   UNL     1      56.868  29.117  26.804  1.00  0.00    -0.027 C 
ATOM      4  C   UNL     1      55.803  30.161  26.984  1.00  0.00     0.034 C 
ATOM      5  C   UNL     1      54.790  30.148  25.807  1.00  0.00    -0.022 C 
ATOM      6  C   UNL     1      53.685  31.196  26.123  1.00  0.00     0.008 C 
ATOM      7  C   UNL     1      52.434  30.956  25.289  1.00  0.00     0.001 C 
ATOM      8  C   UNL     1      51.726  29.653  25.681  1.00  0.00     0.007 C 
ATOM      9  C   UNL     1      52.655  28.470  26.134  1.00  0.00    -0.029 C 
ATOM     10  C   UNL     1      54.157  28.694  25.654  1.00  0.00    -0.012 C 
ATOM     11  C   UNL     1      55.120  27.538  26.037  1.00  0.00     0.022 C 
ATOM     12  C   UNL     1      54.750  27.746  24.579  1.00  0.00     0.017 C 
ATOM     13  C   UNL     1      52.008  27.164  25.593  1.00  0.00     0.012 C 
ATOM     14  C   UNL     1      52.626  28.363  27.682  1.00  0.00     0.012 C 
ATOM     15  C   UNL     1      55.520  30.619  24.513  1.00  0.00     0.012 C 
ENDROOT
TORSDOF 0
ENDMDL
MODEL 3
REMARK VINA RESULT:    -4.128     17.626     19.997
REMARK INTER + INTRA:          -4.128
REMARK INTER:                  -4.128
REMARK INTRA:                   0.000
REMARK UNBOUND:                 0.000
REMARK SMILES CC1=CC[C@]2(C)CCCC(C)(C)[C@@]23C[C@@H]13
REMARK SMILES IDX 1 1 2 2 3 3 4 4 5 5 7 6 8 7 9 8 10 9 13 10 15 11 14 12 11 13
REMARK SMILES IDX 12 14 6 15
REMARK H PARENT
REMARK Flexibility Score: inf
ROOT
ATOM      1  C   UNL     1      48.094  28.571  29.158  1.00  0.00     0.039 C 
ATOM      2  C   UNL     1      48.438  30.021  29.345  1.00  0.00    -0.074 C 
ATOM      3  C   UNL     1      48.021  30.673  30.440  1.00  0.00    -0.027 C 
ATOM      4  C   UNL     1      48.398  32.109  30.663  1.00  0.00     0.034 C 
ATOM      5  C   UNL     1      49.878  32.375  30.277  1.00  0.00    -0.022 C 
ATOM      6  C   UNL     1      50.150  33.896  30.458  1.00  0.00     0.008 C 
ATOM      7  C   UNL     1      51.394  34.334  29.698  1.00  0.00     0.001 C 
ATOM      8  C   UNL     1      51.197  34.249  28.179  1.00  0.00     0.007 C 
ATOM      9  C   UNL     1      50.287  33.076  27.665  1.00  0.00    -0.029 C 
ATOM     10  C   UNL     1      50.130  31.937  28.766  1.00  0.00    -0.012 C 
ATOM     11  C   UNL     1      49.273  30.728  28.303  1.00  0.00     0.022 C 
ATOM     12  C   UNL     1      50.768  30.547  28.502  1.00  0.00     0.017 C 
ATOM     13  C   UNL     1      50.910  32.583  26.330  1.00  0.00     0.012 C 
ATOM     14  C   UNL     1      48.884  33.638  27.311  1.00  0.00     0.012 C 
ATOM     15  C   UNL     1      50.802  31.616  31.278  1.00  0.00     0.012 C 
ENDROOT
TORSDOF 0
ENDMDL
MODEL 4
REMARK VINA RESULT:    -3.973      1.024      4.031
REMARK INTER + INTRA:          -3.973
REMARK INTER:                  -3.973
REMARK INTRA:                   0.000
REMARK UNBOUND:                 0.000
REMARK SMILES CC1=CC[C@]2(C)CCCC(C)(C)[C@@]23C[C@@H]13
REMARK SMILES IDX 1 1 2 2 3 3 4 4 5 5 7 6 8 7 9 8 10 9 13 10 15 11 14 12 11 13
REMARK SMILES IDX 12 14 6 15
REMARK H PARENT
REMARK Flexibility Score: inf
ROOT
ATOM      1  C   UNL     1      61.036  44.074  42.586  1.00  0.00     0.039 C 
ATOM      2  C   UNL     1      59.679  44.622  42.922  1.00  0.00    -0.074 C 
ATOM      3  C   UNL     1      59.570  45.782  43.587  1.00  0.00    -0.027 C 
ATOM      4  C   UNL     1      58.220  46.366  43.887  1.00  0.00     0.034 C 
ATOM      5  C   UNL     1      57.256  46.221  42.678  1.00  0.00    -0.022 C 
ATOM      6  C   UNL     1      55.867  46.771  43.111  1.00  0.00     0.008 C 
ATOM      7  C   UNL     1      54.760  46.277  42.189  1.00  0.00     0.001 C 
ATOM      8  C   UNL     1      54.534  44.766  42.325  1.00  0.00     0.007 C 
ATOM      9  C   UNL     1      55.811  43.900  42.619  1.00  0.00    -0.029 C 
ATOM     10  C   UNL     1      57.145  44.689  42.255  1.00  0.00    -0.012 C 
ATOM     11  C   UNL     1      58.444  43.870  42.486  1.00  0.00     0.022 C 
ATOM     12  C   UNL     1      58.009  44.192  41.067  1.00  0.00     0.017 C 
ATOM     13  C   UNL     1      55.633  42.567  41.839  1.00  0.00     0.012 C 
ATOM     14  C   UNL     1      55.836  43.524  44.125  1.00  0.00     0.012 C 
ATOM     15  C   UNL     1      57.772  47.123  41.515  1.00  0.00     0.012 C 
ENDROOT
TORSDOF 0
ENDMDL
MODEL 5
REMARK VINA RESULT:    -3.891     18.084     20.533
REMARK INTER + INTRA:          -3.891
REMARK INTER:                  -3.891
REMARK INTRA:                   0.000
REMARK UNBOUND:                 0.000
REMARK SMILES CC1=CC[C@]2(C)CCCC(C)(C)[C@@]23C[C@@H]13
REMARK SMILES IDX 1 1 2 2 3 3 4 4 5 5 7 6 8 7 9 8 10 9 13 10 15 11 14 12 11 13
REMARK SMILES IDX 12 14 6 15
REMARK H PARENT
REMARK Flexibility Score: inf
ROOT
ATOM      1  C   UNL     1      48.999  30.193  25.248  1.00  0.00     0.039 C 
ATOM      2  C   UNL     1      49.005  30.677  26.670  1.00  0.00    -0.074 C 
ATOM      3  C   UNL     1      48.309  30.016  27.606  1.00  0.00    -0.027 C 
ATOM      4  C   UNL     1      48.344  30.462  29.040  1.00  0.00     0.034 C 
ATOM      5  C   UNL     1      49.778  30.875  29.471  1.00  0.00    -0.022 C 
ATOM      6  C   UNL     1      49.699  31.400  30.933  1.00  0.00     0.008 C 
ATOM      7  C   UNL     1      50.922  32.232  31.293  1.00  0.00     0.001 C 
ATOM      8  C   UNL     1      50.968  33.550  30.509  1.00  0.00     0.007 C 
ATOM      9  C   UNL     1      50.404  33.502  29.044  1.00  0.00    -0.029 C 
ATOM     10  C   UNL     1      50.330  32.008  28.498  1.00  0.00    -0.012 C 
ATOM     11  C   UNL     1      49.817  31.897  27.037  1.00  0.00     0.022 C 
ATOM     12  C   UNL     1      51.272  31.586  27.340  1.00  0.00     0.017 C 
ATOM     13  C   UNL     1      51.302  34.442  28.191  1.00  0.00     0.012 C 
ATOM     14  C   UNL     1      48.982  34.123  29.025  1.00  0.00     0.012 C 
ATOM     15  C   UNL     1      50.684  29.606  29.481  1.00  0.00     0.012 C 
ENDROOT
TORSDOF 0
ENDMDL
MODEL 6
REMARK VINA RESULT:    -3.862     17.354     19.938
REMARK INTER + INTRA:          -3.862
REMARK INTER:                  -3.862
REMARK INTRA:                   0.000
REMARK UNBOUND:                 0.000
REMARK SMILES CC1=CC[C@]2(C)CCCC(C)(C)[C@@]23C[C@@H]13
REMARK SMILES IDX 1 1 2 2 3 3 4 4 5 5 7 6 8 7 9 8 10 9 13 10 15 11 14 12 11 13
REMARK SMILES IDX 12 14 6 15
REMARK H PARENT
REMARK Flexibility Score: inf
ROOT
ATOM      1  C   UNL     1      52.410  35.637  28.336  1.00  0.00     0.039 C 
ATOM      2  C   UNL     1      51.703  34.432  28.887  1.00  0.00    -0.074 C 
ATOM      3  C   UNL     1      51.606  34.260  30.214  1.00  0.00    -0.027 C 
ATOM      4  C   UNL     1      50.861  33.085  30.779  1.00  0.00     0.034 C 
ATOM      5  C   UNL     1      49.549  32.814  29.994  1.00  0.00    -0.022 C 
ATOM      6  C   UNL     1      48.895  31.536  30.592  1.00  0.00     0.008 C 
ATOM      7  C   UNL     1      47.875  30.932  29.637  1.00  0.00     0.001 C 
ATOM      8  C   UNL     1      48.539  30.361  28.377  1.00  0.00     0.007 C 
ATOM      9  C   UNL     1      49.805  31.130  27.854  1.00  0.00    -0.029 C 
ATOM     10  C   UNL     1      49.875  32.605  28.449  1.00  0.00    -0.012 C 
ATOM     11  C   UNL     1      51.086  33.433  27.937  1.00  0.00     0.022 C 
ATOM     12  C   UNL     1      49.684  33.810  27.490  1.00  0.00     0.017 C 
ATOM     13  C   UNL     1      49.747  31.077  26.302  1.00  0.00     0.012 C 
ATOM     14  C   UNL     1      51.081  30.352  28.270  1.00  0.00     0.012 C 
ATOM     15  C   UNL     1      48.564  33.997  30.239  1.00  0.00     0.012 C 
ENDROOT
TORSDOF 0
ENDMDL
MODEL 7
REMARK VINA RESULT:    -3.741     18.442     20.795
REMARK INTER + INTRA:          -3.741
REMARK INTER:                  -3.741
REMARK INTRA:                   0.000
REMARK UNBOUND:                 0.000
REMARK SMILES CC1=CC[C@]2(C)CCCC(C)(C)[C@@]23C[C@@H]13
REMARK SMILES IDX 1 1 2 2 3 3 4 4 5 5 7 6 8 7 9 8 10 9 13 10 15 11 14 12 11 13
REMARK SMILES IDX 12 14 6 15
REMARK H PARENT
REMARK Flexibility Score: inf
ROOT
ATOM      1  C   UNL     1      51.587  28.467  27.093  1.00  0.00     0.039 C 
ATOM      2  C   UNL     1      51.256  29.865  27.530  1.00  0.00    -0.074 C 
ATOM      3  C   UNL     1      51.816  30.913  26.906  1.00  0.00    -0.027 C 
ATOM      4  C   UNL     1      51.458  32.317  27.300  1.00  0.00     0.034 C 
ATOM      5  C   UNL     1      49.934  32.461  27.566  1.00  0.00    -0.022 C 
ATOM      6  C   UNL     1      49.674  33.916  28.050  1.00  0.00     0.008 C 
ATOM      7  C   UNL     1      48.330  34.038  28.755  1.00  0.00     0.001 C 
ATOM      8  C   UNL     1      48.312  33.277  30.087  1.00  0.00     0.007 C 
ATOM      9  C   UNL     1      49.154  31.952  30.138  1.00  0.00    -0.029 C 
ATOM     10  C   UNL     1      49.477  31.412  28.675  1.00  0.00    -0.012 C 
ATOM     11  C   UNL     1      50.274  30.080  28.657  1.00  0.00     0.022 C 
ATOM     12  C   UNL     1      48.824  30.086  28.205  1.00  0.00     0.017 C 
ATOM     13  C   UNL     1      48.354  30.951  31.018  1.00  0.00     0.012 C 
ATOM     14  C   UNL     1      50.486  32.223  30.886  1.00  0.00     0.012 C 
ATOM     15  C   UNL     1      49.170  32.275  26.220  1.00  0.00     0.012 C 
ENDROOT
TORSDOF 0
ENDMDL
MODEL 8
REMARK VINA RESULT:    -3.374     21.363     23.139
REMARK INTER + INTRA:          -3.374
REMARK INTER:                  -3.374
REMARK INTRA:                   0.000
REMARK UNBOUND:                 0.000
REMARK SMILES CC1=CC[C@]2(C)CCCC(C)(C)[C@@]23C[C@@H]13
REMARK SMILES IDX 1 1 2 2 3 3 4 4 5 5 7 6 8 7 9 8 10 9 13 10 15 11 14 12 11 13
REMARK SMILES IDX 12 14 6 15
REMARK H PARENT
REMARK Flexibility Score: inf
ROOT
ATOM      1  C   UNL     1      51.484  31.811  25.269  1.00  0.00     0.039 C 
ATOM      2  C   UNL     1      52.416  30.790  25.855  1.00  0.00    -0.074 C 
ATOM      3  C   UNL     1      51.971  29.929  26.782  1.00  0.00    -0.027 C 
ATOM      4  C   UNL     1      52.880  28.872  27.342  1.00  0.00     0.034 C 
ATOM      5  C   UNL     1      53.755  28.231  26.232  1.00  0.00    -0.022 C 
ATOM      6  C   UNL     1      54.718  27.218  26.914  1.00  0.00     0.008 C 
ATOM      7  C   UNL     1      55.897  26.875  26.014  1.00  0.00     0.001 C 
ATOM      8  C   UNL     1      56.830  28.076  25.811  1.00  0.00     0.007 C 
ATOM      9  C   UNL     1      56.140  29.486  25.766  1.00  0.00    -0.029 C 
ATOM     10  C   UNL     1      54.580  29.362  25.472  1.00  0.00    -0.012 C 
ATOM     11  C   UNL     1      53.847  30.727  25.375  1.00  0.00     0.022 C 
ATOM     12  C   UNL     1      54.029  29.890  24.121  1.00  0.00     0.017 C 
ATOM     13  C   UNL     1      56.916  30.328  24.714  1.00  0.00     0.012 C 
ATOM     14  C   UNL     1      56.345  30.197  27.131  1.00  0.00     0.012 C 
ATOM     15  C   UNL     1      52.833  27.420  25.271  1.00  0.00     0.012 C 
ENDROOT
TORSDOF 0
ENDMDL
