MODEL 1
REMARK VINA RESULT:    -4.462      0.000      0.000
REMARK INTER + INTRA:          -5.870
REMARK INTER:                  -5.505
REMARK INTRA:                  -0.365
REMARK UNBOUND:                -0.365
REMARK SMILES COC(=O)c1ccccc1C(=O)OC
REMARK SMILES IDX 5 1 6 2 7 3 8 4 9 5 10 6 3 7 4 8 2 9 1 10 11 11 12 12 13 13
REMARK SMILES IDX 14 14
REMARK H PARENT
REMARK Flexibility Score: inf
ROOT
ATOM      1  C   UNL     1      10.514 -11.836 -44.482  1.00  0.00     0.074 A 
ATOM      2  C   UNL     1       9.594 -12.788 -44.962  1.00  0.00     0.016 A 
ATOM      3  C   UNL     1       8.423 -12.387 -45.605  1.00  0.00     0.001 A 
ATOM      4  C   UNL     1       8.150 -11.033 -45.779  1.00  0.00     0.001 A 
ATOM      5  C   UNL     1       9.035 -10.072 -45.290  1.00  0.00     0.016 A 
ATOM      6  C   UNL     1      10.212 -10.452 -44.619  1.00  0.00     0.074 A 
ENDROOT
BRANCH   1   7
ATOM      7  C   UNL     1      11.788 -12.332 -43.913  1.00  0.00     0.338 C 
ATOM      8  O   UNL     1      11.815 -12.838 -42.757  1.00  0.00    -0.246 OA
BRANCH   7   9
ATOM      9  O   UNL     1      12.972 -12.181 -44.641  1.00  0.00    -0.465 OA
ATOM     10  C   UNL     1      14.174 -11.691 -44.058  1.00  0.00     0.282 C 
ENDBRANCH   7   9
ENDBRANCH   1   7
BRANCH   6  11
ATOM     11  C   UNL     1      11.048  -9.382 -44.028  1.00  0.00     0.338 C 
ATOM     12  O   UNL     1      12.032  -8.916 -44.666  1.00  0.00    -0.246 OA
BRANCH  11  13
ATOM     13  O   UNL     1      10.775  -8.932 -42.731  1.00  0.00    -0.465 OA
ATOM     14  C   UNL     1      10.006  -7.764 -42.471  1.00  0.00     0.282 C 
ENDBRANCH  11  13
ENDBRANCH   6  11
TORSDOF 4
ENDMDL
MODEL 2
REMARK VINA RESULT:    -4.458      0.093      3.666
REMARK INTER + INTRA:          -5.865
REMARK INTER:                  -5.515
REMARK INTRA:                  -0.350
REMARK UNBOUND:                -0.365
REMARK SMILES COC(=O)c1ccccc1C(=O)OC
REMARK SMILES IDX 5 1 6 2 7 3 8 4 9 5 10 6 3 7 4 8 2 9 1 10 11 11 12 12 13 13
REMARK SMILES IDX 14 14
REMARK H PARENT
REMARK Flexibility Score: inf
ROOT
ATOM      1  C   UNL     1      10.271 -10.456 -44.602  1.00  0.00     0.074 A 
ATOM      2  C   UNL     1       9.113 -10.040 -45.286  1.00  0.00     0.016 A 
ATOM      3  C   UNL     1       8.206 -10.974 -45.788  1.00  0.00     0.001 A 
ATOM      4  C   UNL     1       8.439 -12.336 -45.616  1.00  0.00     0.001 A 
ATOM      5  C   UNL     1       9.592 -12.771 -44.962  1.00  0.00     0.016 A 
ATOM      6  C   UNL     1      10.531 -11.849 -44.467  1.00  0.00     0.074 A 
ENDROOT
BRANCH   1   7
ATOM      7  C   UNL     1      11.130  -9.412 -43.997  1.00  0.00     0.338 C 
ATOM      8  O   UNL     1      12.118  -8.954 -44.634  1.00  0.00    -0.246 OA
BRANCH   7   9
ATOM      9  O   UNL     1      10.873  -8.979 -42.692  1.00  0.00    -0.465 OA
ATOM     10  C   UNL     1      10.094  -7.824 -42.406  1.00  0.00     0.282 C 
ENDBRANCH   7   9
ENDBRANCH   1   7
BRANCH   6  11
ATOM     11  C   UNL     1      11.785 -12.382 -43.885  1.00  0.00     0.338 C 
ATOM     12  O   UNL     1      11.774 -12.947 -42.757  1.00  0.00    -0.246 OA
BRANCH  11  13
ATOM     13  O   UNL     1      12.992 -12.202 -44.569  1.00  0.00    -0.465 OA
ATOM     14  C   UNL     1      14.186 -11.783 -43.919  1.00  0.00     0.282 C 
ENDBRANCH  11  13
ENDBRANCH   6  11
TORSDOF 4
ENDMDL
MODEL 3
REMARK VINA RESULT:    -4.324      2.049      3.431
REMARK INTER + INTRA:          -5.700
REMARK INTER:                  -5.307
REMARK INTRA:                  -0.393
REMARK UNBOUND:                -0.365
REMARK SMILES COC(=O)c1ccccc1C(=O)OC
REMARK SMILES IDX 5 1 6 2 7 3 8 4 9 5 10 6 3 7 4 8 2 9 1 10 11 11 12 12 13 13
REMARK SMILES IDX 14 14
REMARK H PARENT
REMARK Flexibility Score: inf
ROOT
ATOM      1  C   UNL     1      10.855 -11.378 -43.499  1.00  0.00     0.074 A 
ATOM      2  C   UNL     1      11.296 -10.257 -42.772  1.00  0.00     0.016 A 
ATOM      3  C   UNL     1      10.882  -8.971 -43.120  1.00  0.00     0.001 A 
ATOM      4  C   UNL     1      10.022  -8.783 -44.200  1.00  0.00     0.001 A 
ATOM      5  C   UNL     1       9.591  -9.878 -44.950  1.00  0.00     0.016 A 
ATOM      6  C   UNL     1      10.013 -11.181 -44.630  1.00  0.00     0.074 A 
ENDROOT
BRANCH   1   7
ATOM      7  C   UNL     1      11.242 -12.720 -43.005  1.00  0.00     0.338 C 
ATOM      8  O   UNL     1      10.434 -13.401 -42.316  1.00  0.00    -0.246 OA
BRANCH   7   9
ATOM      9  O   UNL     1      12.530 -13.202 -43.259  1.00  0.00    -0.465 OA
ATOM     10  C   UNL     1      13.205 -12.977 -44.490  1.00  0.00     0.282 C 
ENDBRANCH   7   9
ENDBRANCH   1   7
BRANCH   6  11
ATOM     11  C   UNL     1       9.609 -12.281 -45.536  1.00  0.00     0.338 C 
ATOM     12  O   UNL     1      10.336 -12.599 -46.517  1.00  0.00    -0.246 OA
BRANCH  11  13
ATOM     13  O   UNL     1       8.385 -12.927 -45.330  1.00  0.00    -0.465 OA
ATOM     14  C   UNL     1       7.183 -12.512 -45.968  1.00  0.00     0.282 C 
ENDBRANCH  11  13
ENDBRANCH   6  11
TORSDOF 4
ENDMDL
MODEL 4
REMARK VINA RESULT:    -4.322      2.046      4.330
REMARK INTER + INTRA:          -5.698
REMARK INTER:                  -5.312
REMARK INTRA:                  -0.386
REMARK UNBOUND:                -0.365
REMARK SMILES COC(=O)c1ccccc1C(=O)OC
REMARK SMILES IDX 5 1 6 2 7 3 8 4 9 5 10 6 3 7 4 8 2 9 1 10 11 11 12 12 13 13
REMARK SMILES IDX 14 14
REMARK H PARENT
REMARK Flexibility Score: inf
ROOT
ATOM      1  C   UNL     1      10.024 -11.155 -44.667  1.00  0.00     0.074 A 
ATOM      2  C   UNL     1       9.637  -9.843 -44.998  1.00  0.00     0.016 A 
ATOM      3  C   UNL     1      10.073  -8.757 -44.238  1.00  0.00     0.001 A 
ATOM      4  C   UNL     1      10.902  -8.963 -43.138  1.00  0.00     0.001 A 
ATOM      5  C   UNL     1      11.278 -10.257 -42.777  1.00  0.00     0.016 A 
ATOM      6  C   UNL     1      10.832 -11.369 -43.515  1.00  0.00     0.074 A 
ENDROOT
BRANCH   1   7
ATOM      7  C   UNL     1       9.617 -12.247 -45.581  1.00  0.00     0.338 C 
ATOM      8  O   UNL     1      10.368 -12.592 -46.535  1.00  0.00    -0.246 OA
BRANCH   7   9
ATOM      9  O   UNL     1       8.369 -12.855 -45.416  1.00  0.00    -0.465 OA
ATOM     10  C   UNL     1       7.191 -12.376 -46.054  1.00  0.00     0.282 C 
ENDBRANCH   7   9
ENDBRANCH   1   7
BRANCH   6  11
ATOM     11  C   UNL     1      11.177 -12.717 -43.010  1.00  0.00     0.338 C 
ATOM     12  O   UNL     1      10.337 -13.382 -42.343  1.00  0.00    -0.246 OA
BRANCH  11  13
ATOM     13  O   UNL     1      12.462 -13.226 -43.227  1.00  0.00    -0.465 OA
ATOM     14  C   UNL     1      13.183 -13.000 -44.433  1.00  0.00     0.282 C 
ENDBRANCH  11  13
ENDBRANCH   6  11
TORSDOF 4
ENDMDL
MODEL 5
REMARK VINA RESULT:    -4.317      2.149      3.798
REMARK INTER + INTRA:          -5.692
REMARK INTER:                  -5.600
REMARK INTRA:                  -0.091
REMARK UNBOUND:                -0.365
REMARK SMILES COC(=O)c1ccccc1C(=O)OC
REMARK SMILES IDX 5 1 6 2 7 3 8 4 9 5 10 6 3 7 4 8 2 9 1 10 11 11 12 12 13 13
REMARK SMILES IDX 14 14
REMARK H PARENT
REMARK Flexibility Score: inf
ROOT
ATOM      1  C   UNL     1      10.921 -11.098 -44.732  1.00  0.00     0.074 A 
ATOM      2  C   UNL     1      11.853 -10.227 -44.138  1.00  0.00     0.016 A 
ATOM      3  C   UNL     1      11.496  -8.921 -43.802  1.00  0.00     0.001 A 
ATOM      4  C   UNL     1      10.205  -8.464 -44.053  1.00  0.00     0.001 A 
ATOM      5  C   UNL     1       9.271  -9.303 -44.662  1.00  0.00     0.016 A 
ATOM      6  C   UNL     1       9.616 -10.616 -45.030  1.00  0.00     0.074 A 
ENDROOT
BRANCH   1   7
ATOM      7  C   UNL     1      11.334 -12.503 -44.958  1.00  0.00     0.338 C 
ATOM      8  O   UNL     1      11.491 -12.940 -46.131  1.00  0.00    -0.246 OA
BRANCH   7   9
ATOM      9  O   UNL     1      11.491 -13.359 -43.863  1.00  0.00    -0.465 OA
ATOM     10  C   UNL     1      10.614 -13.340 -42.742  1.00  0.00     0.282 C 
ENDBRANCH   7   9
ENDBRANCH   1   7
BRANCH   6  11
ATOM     11  C   UNL     1       8.612 -11.412 -45.774  1.00  0.00     0.338 C 
ATOM     12  O   UNL     1       8.106 -10.964 -46.839  1.00  0.00    -0.246 OA
BRANCH  11  13
ATOM     13  O   UNL     1       8.186 -12.640 -45.256  1.00  0.00    -0.465 OA
ATOM     14  C   UNL     1       7.032 -13.317 -45.739  1.00  0.00     0.282 C 
ENDBRANCH  11  13
ENDBRANCH   6  11
TORSDOF 4
ENDMDL
MODEL 6
REMARK VINA RESULT:    -4.236      1.828      3.432
REMARK INTER + INTRA:          -5.591
REMARK INTER:                  -5.341
REMARK INTRA:                  -0.250
REMARK UNBOUND:                -0.365
REMARK SMILES COC(=O)c1ccccc1C(=O)OC
REMARK SMILES IDX 5 1 6 2 7 3 8 4 9 5 10 6 3 7 4 8 2 9 1 10 11 11 12 12 13 13
REMARK SMILES IDX 14 14
REMARK H PARENT
REMARK Flexibility Score: inf
ROOT
ATOM      1  C   UNL     1      10.578 -11.317 -44.827  1.00  0.00     0.074 A 
ATOM      2  C   UNL     1       9.396 -10.577 -45.019  1.00  0.00     0.016 A 
ATOM      3  C   UNL     1       9.335  -9.227 -44.676  1.00  0.00     0.001 A 
ATOM      4  C   UNL     1      10.451  -8.592 -44.137  1.00  0.00     0.001 A 
ATOM      5  C   UNL     1      11.626  -9.311 -43.916  1.00  0.00     0.016 A 
ATOM      6  C   UNL     1      11.704 -10.679 -44.233  1.00  0.00     0.074 A 
ENDROOT
BRANCH   1   7
ATOM      7  C   UNL     1      10.608 -12.714 -45.317  1.00  0.00     0.338 C 
ATOM      8  O   UNL     1      10.057 -13.634 -44.652  1.00  0.00    -0.246 OA
BRANCH   7   9
ATOM      9  O   UNL     1      11.301 -13.017 -46.493  1.00  0.00    -0.465 OA
ATOM     10  C   UNL     1      12.374 -13.950 -46.533  1.00  0.00     0.282 C 
ENDBRANCH   7   9
ENDBRANCH   1   7
BRANCH   6  11
ATOM     11  C   UNL     1      12.941 -11.405 -43.867  1.00  0.00     0.338 C 
ATOM     12  O   UNL     1      12.896 -12.378 -43.065  1.00  0.00    -0.246 OA
BRANCH  11  13
ATOM     13  O   UNL     1      14.171 -10.967 -44.371  1.00  0.00    -0.465 OA
ATOM     14  C   UNL     1      15.284 -11.837 -44.541  1.00  0.00     0.282 C 
ENDBRANCH  11  13
ENDBRANCH   6  11
TORSDOF 4
ENDMDL
MODEL 7
REMARK VINA RESULT:    -4.234      1.770      3.684
REMARK INTER + INTRA:          -5.589
REMARK INTER:                  -5.201
REMARK INTRA:                  -0.388
REMARK UNBOUND:                -0.365
REMARK SMILES COC(=O)c1ccccc1C(=O)OC
REMARK SMILES IDX 5 1 6 2 7 3 8 4 9 5 10 6 3 7 4 8 2 9 1 10 11 11 12 12 13 13
REMARK SMILES IDX 14 14
REMARK H PARENT
REMARK Flexibility Score: inf
ROOT
ATOM      1  C   UNL     1      11.475 -12.348 -44.944  1.00  0.00     0.074 A 
ATOM      2  C   UNL     1      12.267 -13.351 -45.533  1.00  0.00     0.016 A 
ATOM      3  C   UNL     1      13.635 -13.427 -45.271  1.00  0.00     0.001 A 
ATOM      4  C   UNL     1      14.234 -12.504 -44.416  1.00  0.00     0.001 A 
ATOM      5  C   UNL     1      13.472 -11.487 -43.839  1.00  0.00     0.016 A 
ATOM      6  C   UNL     1      12.096 -11.378 -44.108  1.00  0.00     0.074 A 
ENDROOT
BRANCH   1   7
ATOM      7  C   UNL     1      10.013 -12.395 -45.177  1.00  0.00     0.338 C 
ATOM      8  O   UNL     1       9.304 -13.264 -44.599  1.00  0.00    -0.246 OA
BRANCH   7   9
ATOM      9  O   UNL     1       9.431 -11.507 -46.087  1.00  0.00    -0.465 OA
ATOM     10  C   UNL     1       8.272 -10.742 -45.779  1.00  0.00     0.282 C 
ENDBRANCH   7   9
ENDBRANCH   1   7
BRANCH   6  11
ATOM     11  C   UNL     1      11.374 -10.210 -43.554  1.00  0.00     0.338 C 
ATOM     12  O   UNL     1      10.915 -10.243 -42.379  1.00  0.00    -0.246 OA
BRANCH  11  13
ATOM     13  O   UNL     1      11.152  -9.090 -44.363  1.00  0.00    -0.465 OA
ATOM     14  C   UNL     1      10.271  -8.037 -43.990  1.00  0.00     0.282 C 
ENDBRANCH  11  13
ENDBRANCH   6  11
TORSDOF 4
ENDMDL
MODEL 8
REMARK VINA RESULT:    -4.152      1.756      2.223
REMARK INTER + INTRA:          -5.487
REMARK INTER:                  -5.144
REMARK INTRA:                  -0.343
REMARK UNBOUND:                -0.365
REMARK SMILES COC(=O)c1ccccc1C(=O)OC
REMARK SMILES IDX 5 1 6 2 7 3 8 4 9 5 10 6 3 7 4 8 2 9 1 10 11 11 12 12 13 13
REMARK SMILES IDX 14 14
REMARK H PARENT
REMARK Flexibility Score: inf
ROOT
ATOM      1  C   UNL     1      10.042 -12.582 -45.647  1.00  0.00     0.074 A 
ATOM      2  C   UNL     1       8.972 -13.011 -46.454  1.00  0.00     0.016 A 
ATOM      3  C   UNL     1       7.878 -12.179 -46.693  1.00  0.00     0.001 A 
ATOM      4  C   UNL     1       7.835 -10.905 -46.131  1.00  0.00     0.001 A 
ATOM      5  C   UNL     1       8.874 -10.467 -45.309  1.00  0.00     0.016 A 
ATOM      6  C   UNL     1       9.975 -11.298 -45.036  1.00  0.00     0.074 A 
ENDROOT
BRANCH   1   7
ATOM      7  C   UNL     1      11.220 -13.472 -45.529  1.00  0.00     0.338 C 
ATOM      8  O   UNL     1      12.062 -13.541 -46.466  1.00  0.00    -0.246 OA
BRANCH   7   9
ATOM      9  O   UNL     1      11.362 -14.279 -44.395  1.00  0.00    -0.465 OA
ATOM     10  C   UNL     1      12.572 -14.348 -43.649  1.00  0.00     0.282 C 
ENDBRANCH   7   9
ENDBRANCH   1   7
BRANCH   6  11
ATOM     11  C   UNL     1      10.984 -10.813 -44.066  1.00  0.00     0.338 C 
ATOM     12  O   UNL     1      10.882 -11.103 -42.842  1.00  0.00    -0.246 OA
BRANCH  11  13
ATOM     13  O   UNL     1      12.019  -9.982 -44.507  1.00  0.00    -0.465 OA
ATOM     14  C   UNL     1      11.870  -8.572 -44.631  1.00  0.00     0.282 C 
ENDBRANCH  11  13
ENDBRANCH   6  11
TORSDOF 4
ENDMDL
MODEL 9
REMARK VINA RESULT:    -4.082      1.767      3.636
REMARK INTER + INTRA:          -5.401
REMARK INTER:                  -5.078
REMARK INTRA:                  -0.323
REMARK UNBOUND:                -0.365
REMARK SMILES COC(=O)c1ccccc1C(=O)OC
REMARK SMILES IDX 5 1 6 2 7 3 8 4 9 5 10 6 3 7 4 8 2 9 1 10 11 11 12 12 13 13
REMARK SMILES IDX 14 14
REMARK H PARENT
REMARK Flexibility Score: inf
ROOT
ATOM      1  C   UNL     1       9.954 -11.322 -45.012  1.00  0.00     0.074 A 
ATOM      2  C   UNL     1       8.844 -10.512 -45.315  1.00  0.00     0.016 A 
ATOM      3  C   UNL     1       7.817 -10.984 -46.132  1.00  0.00     0.001 A 
ATOM      4  C   UNL     1       7.880 -12.272 -46.659  1.00  0.00     0.001 A 
ATOM      5  C   UNL     1       8.983 -13.084 -46.391  1.00  0.00     0.016 A 
ATOM      6  C   UNL     1      10.041 -12.621 -45.589  1.00  0.00     0.074 A 
ENDROOT
BRANCH   1   7
ATOM      7  C   UNL     1      10.950 -10.799 -44.049  1.00  0.00     0.338 C 
ATOM      8  O   UNL     1      10.841 -11.056 -42.818  1.00  0.00    -0.246 OA
BRANCH   7   9
ATOM      9  O   UNL     1      11.980  -9.969 -44.504  1.00  0.00    -0.465 OA
ATOM     10  C   UNL     1      11.827  -8.562 -44.641  1.00  0.00     0.282 C 
ENDBRANCH   7   9
ENDBRANCH   1   7
BRANCH   6  11
ATOM     11  C   UNL     1      11.229 -13.492 -45.439  1.00  0.00     0.338 C 
ATOM     12  O   UNL     1      12.086 -13.564 -46.362  1.00  0.00    -0.246 OA
BRANCH  11  13
ATOM     13  O   UNL     1      11.364 -14.280 -44.291  1.00  0.00    -0.465 OA
ATOM     14  C   UNL     1      12.621 -14.517 -43.667  1.00  0.00     0.282 C 
ENDBRANCH  11  13
ENDBRANCH   6  11
TORSDOF 4
ENDMDL
