MODEL 1
REMARK VINA RESULT:    -6.201      0.000      0.000
REMARK INTER + INTRA:         -20.813
REMARK INTER:                 -15.626
REMARK INTRA:                  -5.187
REMARK UNBOUND:                -5.187
REMARK SMILES CCCCCCCCCCCCCCCCCCCCCCCCCCCC(=O)[O-]
REMARK SMILES IDX 15 1 16 2 17 3 18 4 19 5 20 6 21 7 22 8 23 9 24 10 25 11
REMARK SMILES IDX 26 12 27 13 28 14 29 15 30 16 14 17 13 18 12 19 11 20 10 21
REMARK SMILES IDX 9 22 8 23 7 24 6 25 5 26 4 27 3 28 2 29 1 30
REMARK H PARENT
REMARK Flexibility Score: inf
ROOT
ATOM      1  C   UNL     1      14.348  -3.621  15.514  1.00  0.00     0.000 C 
ENDROOT
BRANCH   1   2
ATOM      2  C   UNL     1      14.386  -3.388  17.037  1.00  0.00     0.000 C 
BRANCH   2   3
ATOM      3  C   UNL     1      15.612  -2.598  17.532  1.00  0.00     0.000 C 
BRANCH   3   4
ATOM      4  C   UNL     1      16.882  -2.902  16.715  1.00  0.00     0.000 C 
BRANCH   4   5
ATOM      5  C   UNL     1      17.516  -4.262  17.085  1.00  0.00     0.000 C 
BRANCH   5   6
ATOM      6  C   UNL     1      18.054  -5.038  15.868  1.00  0.00     0.000 C 
BRANCH   6   7
ATOM      7  C   UNL     1      19.270  -4.394  15.173  1.00  0.00     0.000 C 
BRANCH   7   8
ATOM      8  C   UNL     1      19.428  -4.763  13.687  1.00  0.00     0.000 C 
BRANCH   8   9
ATOM      9  C   UNL     1      19.089  -3.590  12.753  1.00  0.00     0.000 C 
BRANCH   9  10
ATOM     10  C   UNL     1      17.793  -2.864  13.156  1.00  0.00     0.000 C 
BRANCH  10  11
ATOM     11  C   UNL     1      17.905  -1.328  13.228  1.00  0.00     0.000 C 
BRANCH  11  12
ATOM     12  C   UNL     1      16.556  -0.599  13.048  1.00  0.00     0.006 C 
BRANCH  12  13
ATOM     13  C   UNL     1      15.474  -1.521  12.470  1.00  0.00     0.053 C 
BRANCH  13  14
ATOM     14  C   UNL     1      14.284  -0.731  12.022  1.00  0.00     0.041 C 
ATOM     15  O   UNL     1      13.124  -1.074  12.373  1.00  0.00    -0.550 OA
ATOM     16  O   UNL     1      14.461   0.408  11.244  1.00  0.00    -0.550 OA
ENDBRANCH  13  14
ENDBRANCH  12  13
ENDBRANCH  11  12
ENDBRANCH  10  11
ENDBRANCH   9  10
ENDBRANCH   8   9
ENDBRANCH   7   8
ENDBRANCH   6   7
ENDBRANCH   5   6
ENDBRANCH   4   5
ENDBRANCH   3   4
ENDBRANCH   2   3
ENDBRANCH   1   2
BRANCH   1  17
ATOM     17  C   UNL     1      12.966  -3.401  14.873  1.00  0.00     0.000 C 
BRANCH  17  18
ATOM     18  C   UNL     1      12.793  -4.180  13.560  1.00  0.00     0.000 C 
BRANCH  18  19
ATOM     19  C   UNL     1      11.366  -4.032  13.014  1.00  0.00     0.000 C 
BRANCH  19  20
ATOM     20  C   UNL     1      11.298  -4.101  11.478  1.00  0.00     0.000 C 
BRANCH  20  21
ATOM     21  C   UNL     1      12.663  -4.147  10.762  1.00  0.00     0.000 C 
BRANCH  21  22
ATOM     22  C   UNL     1      12.889  -5.371   9.850  1.00  0.00    -0.000 C 
BRANCH  22  23
ATOM     23  C   UNL     1      14.358  -5.661   9.501  1.00  0.00    -0.000 C 
BRANCH  23  24
ATOM     24  C   UNL     1      15.344  -4.951  10.442  1.00  0.00    -0.000 C 
BRANCH  24  25
ATOM     25  C   UNL     1      16.663  -5.725  10.626  1.00  0.00    -0.000 C 
BRANCH  25  26
ATOM     26  C   UNL     1      16.810  -6.457  11.973  1.00  0.00    -0.000 C 
BRANCH  26  27
ATOM     27  C   UNL     1      15.816  -5.961  13.038  1.00  0.00    -0.000 C 
BRANCH  27  28
ATOM     28  C   UNL     1      15.003  -7.101  13.675  1.00  0.00    -0.000 C 
BRANCH  28  29
ATOM     29  C   UNL     1      15.531  -7.587  15.036  1.00  0.00    -0.003 C 
ATOM     30  C   UNL     1      14.622  -7.205  16.203  1.00  0.00     0.004 C 
ENDBRANCH  28  29
ENDBRANCH  27  28
ENDBRANCH  26  27
ENDBRANCH  25  26
ENDBRANCH  24  25
ENDBRANCH  23  24
ENDBRANCH  22  23
ENDBRANCH  21  22
ENDBRANCH  20  21
ENDBRANCH  19  20
ENDBRANCH  18  19
ENDBRANCH  17  18
ENDBRANCH   1  17
TORSDOF 26
ENDMDL
MODEL 2
REMARK VINA RESULT:    -6.155      2.226      5.150
REMARK INTER + INTRA:         -20.696
REMARK INTER:                 -15.784
REMARK INTRA:                  -4.912
REMARK UNBOUND:                -5.187
REMARK SMILES CCCCCCCCCCCCCCCCCCCCCCCCCCCC(=O)[O-]
REMARK SMILES IDX 15 1 16 2 17 3 18 4 19 5 20 6 21 7 22 8 23 9 24 10 25 11
REMARK SMILES IDX 26 12 27 13 28 14 29 15 30 16 14 17 13 18 12 19 11 20 10 21
REMARK SMILES IDX 9 22 8 23 7 24 6 25 5 26 4 27 3 28 2 29 1 30
REMARK H PARENT
REMARK Flexibility Score: inf
ROOT
ATOM      1  C   UNL     1      15.950  -7.146  13.086  1.00  0.00     0.000 C 
ENDROOT
BRANCH   1   2
ATOM      2  C   UNL     1      14.665  -6.995  13.926  1.00  0.00     0.000 C 
BRANCH   2   3
ATOM      3  C   UNL     1      14.899  -6.955  15.447  1.00  0.00     0.000 C 
BRANCH   3   4
ATOM      4  C   UNL     1      15.175  -5.531  15.966  1.00  0.00     0.000 C 
BRANCH   4   5
ATOM      5  C   UNL     1      13.881  -4.711  16.170  1.00  0.00     0.000 C 
BRANCH   5   6
ATOM      6  C   UNL     1      14.120  -3.351  16.853  1.00  0.00     0.000 C 
BRANCH   6   7
ATOM      7  C   UNL     1      15.598  -2.919  16.938  1.00  0.00     0.000 C 
BRANCH   7   8
ATOM      8  C   UNL     1      16.068  -2.522  18.350  1.00  0.00     0.000 C 
BRANCH   8   9
ATOM      9  C   UNL     1      17.520  -2.946  18.624  1.00  0.00     0.000 C 
BRANCH   9  10
ATOM     10  C   UNL     1      18.170  -3.654  17.421  1.00  0.00     0.000 C 
BRANCH  10  11
ATOM     11  C   UNL     1      19.408  -2.942  16.841  1.00  0.00     0.000 C 
BRANCH  11  12
ATOM     12  C   UNL     1      19.463  -2.954  15.299  1.00  0.00     0.006 C 
BRANCH  12  13
ATOM     13  C   UNL     1      19.179  -4.347  14.722  1.00  0.00     0.053 C 
BRANCH  13  14
ATOM     14  C   UNL     1      19.610  -4.430  13.290  1.00  0.00     0.041 C 
ATOM     15  O   UNL     1      19.500  -3.429  12.534  1.00  0.00    -0.550 OA
ATOM     16  O   UNL     1      20.168  -5.606  12.801  1.00  0.00    -0.550 OA
ENDBRANCH  13  14
ENDBRANCH  12  13
ENDBRANCH  11  12
ENDBRANCH  10  11
ENDBRANCH   9  10
ENDBRANCH   8   9
ENDBRANCH   7   8
ENDBRANCH   6   7
ENDBRANCH   5   6
ENDBRANCH   4   5
ENDBRANCH   3   4
ENDBRANCH   2   3
ENDBRANCH   1   2
BRANCH   1  17
ATOM     17  C   UNL     1      16.518  -5.818  12.554  1.00  0.00     0.000 C 
BRANCH  17  18
ATOM     18  C   UNL     1      17.010  -5.927  11.102  1.00  0.00     0.000 C 
BRANCH  18  19
ATOM     19  C   UNL     1      15.856  -5.721  10.111  1.00  0.00     0.000 C 
BRANCH  19  20
ATOM     20  C   UNL     1      14.799  -4.723  10.616  1.00  0.00     0.000 C 
BRANCH  20  21
ATOM     21  C   UNL     1      13.381  -5.303  10.793  1.00  0.00     0.000 C 
BRANCH  21  22
ATOM     22  C   UNL     1      12.235  -4.416  10.262  1.00  0.00    -0.000 C 
BRANCH  22  23
ATOM     23  C   UNL     1      11.387  -3.728  11.345  1.00  0.00    -0.000 C 
BRANCH  23  24
ATOM     24  C   UNL     1      11.860  -4.060  12.769  1.00  0.00    -0.000 C 
BRANCH  24  25
ATOM     25  C   UNL     1      12.263  -2.811  13.575  1.00  0.00    -0.000 C 
BRANCH  25  26
ATOM     26  C   UNL     1      12.652  -1.584  12.728  1.00  0.00    -0.000 C 
BRANCH  26  27
ATOM     27  C   UNL     1      14.157  -1.523  12.414  1.00  0.00    -0.000 C 
BRANCH  27  28
ATOM     28  C   UNL     1      14.992  -2.470  13.295  1.00  0.00    -0.000 C 
BRANCH  28  29
ATOM     29  C   UNL     1      16.491  -2.131  13.364  1.00  0.00    -0.003 C 
ATOM     30  C   UNL     1      16.781  -0.649  13.136  1.00  0.00     0.004 C 
ENDBRANCH  28  29
ENDBRANCH  27  28
ENDBRANCH  26  27
ENDBRANCH  25  26
ENDBRANCH  24  25
ENDBRANCH  23  24
ENDBRANCH  22  23
ENDBRANCH  21  22
ENDBRANCH  20  21
ENDBRANCH  19  20
ENDBRANCH  18  19
ENDBRANCH  17  18
ENDBRANCH   1  17
TORSDOF 26
ENDMDL
MODEL 3
REMARK VINA RESULT:    -6.106      1.865      4.882
REMARK INTER + INTRA:         -20.574
REMARK INTER:                 -15.385
REMARK INTRA:                  -5.190
REMARK UNBOUND:                -5.187
REMARK SMILES CCCCCCCCCCCCCCCCCCCCCCCCCCCC(=O)[O-]
REMARK SMILES IDX 15 1 16 2 17 3 18 4 19 5 20 6 21 7 22 8 23 9 24 10 25 11
REMARK SMILES IDX 26 12 27 13 28 14 29 15 30 16 14 17 13 18 12 19 11 20 10 21
REMARK SMILES IDX 9 22 8 23 7 24 6 25 5 26 4 27 3 28 2 29 1 30
REMARK H PARENT
REMARK Flexibility Score: inf
ROOT
ATOM      1  C   UNL     1      18.439  -3.432  16.906  1.00  0.00     0.000 C 
ENDROOT
BRANCH   1   2
ATOM      2  C   UNL     1      17.359  -3.288  17.997  1.00  0.00     0.000 C 
BRANCH   2   3
ATOM      3  C   UNL     1      16.224  -2.309  17.645  1.00  0.00     0.000 C 
BRANCH   3   4
ATOM      4  C   UNL     1      14.858  -3.008  17.512  1.00  0.00     0.000 C 
BRANCH   4   5
ATOM      5  C   UNL     1      14.340  -3.028  16.056  1.00  0.00     0.000 C 
BRANCH   5   6
ATOM      6  C   UNL     1      13.012  -3.792  15.890  1.00  0.00     0.000 C 
BRANCH   6   7
ATOM      7  C   UNL     1      11.999  -3.131  14.935  1.00  0.00     0.000 C 
BRANCH   7   8
ATOM      8  C   UNL     1      12.519  -2.912  13.502  1.00  0.00     0.000 C 
BRANCH   8   9
ATOM      9  C   UNL     1      12.620  -1.422  13.137  1.00  0.00     0.000 C 
BRANCH   9  10
ATOM     10  C   UNL     1      13.762  -1.128  12.147  1.00  0.00     0.000 C 
BRANCH  10  11
ATOM     11  C   UNL     1      15.054  -1.931  12.390  1.00  0.00     0.000 C 
BRANCH  11  12
ATOM     12  C   UNL     1      16.193  -1.098  13.016  1.00  0.00     0.006 C 
BRANCH  12  13
ATOM     13  C   UNL     1      17.096  -1.945  13.923  1.00  0.00     0.053 C 
BRANCH  13  14
ATOM     14  C   UNL     1      18.512  -1.921  13.438  1.00  0.00     0.041 C 
ATOM     15  O   UNL     1      19.224  -0.896  13.603  1.00  0.00    -0.550 OA
ATOM     16  O   UNL     1      19.056  -3.049  12.834  1.00  0.00    -0.550 OA
ENDBRANCH  13  14
ENDBRANCH  12  13
ENDBRANCH  11  12
ENDBRANCH  10  11
ENDBRANCH   9  10
ENDBRANCH   8   9
ENDBRANCH   7   8
ENDBRANCH   6   7
ENDBRANCH   5   6
ENDBRANCH   4   5
ENDBRANCH   3   4
ENDBRANCH   2   3
ENDBRANCH   1   2
BRANCH   1  17
ATOM     17  C   UNL     1      18.434  -4.791  16.185  1.00  0.00     0.000 C 
BRANCH  17  18
ATOM     18  C   UNL     1      17.031  -5.199  15.705  1.00  0.00     0.000 C 
BRANCH  18  19
ATOM     19  C   UNL     1      16.462  -6.335  16.566  1.00  0.00     0.000 C 
BRANCH  19  20
ATOM     20  C   UNL     1      15.148  -6.913  16.011  1.00  0.00     0.000 C 
BRANCH  20  21
ATOM     21  C   UNL     1      15.308  -8.146  15.099  1.00  0.00     0.000 C 
BRANCH  21  22
ATOM     22  C   UNL     1      15.371  -7.844  13.587  1.00  0.00    -0.000 C 
BRANCH  22  23
ATOM     23  C   UNL     1      14.362  -6.795  13.089  1.00  0.00    -0.000 C 
BRANCH  23  24
ATOM     24  C   UNL     1      15.010  -5.428  12.821  1.00  0.00    -0.000 C 
BRANCH  24  25
ATOM     25  C   UNL     1      16.424  -5.539  12.221  1.00  0.00    -0.000 C 
BRANCH  25  26
ATOM     26  C   UNL     1      16.472  -5.746  10.696  1.00  0.00    -0.000 C 
BRANCH  26  27
ATOM     27  C   UNL     1      15.353  -4.998   9.951  1.00  0.00    -0.000 C 
BRANCH  27  28
ATOM     28  C   UNL     1      14.493  -5.925   9.074  1.00  0.00    -0.000 C 
BRANCH  28  29
ATOM     29  C   UNL     1      12.986  -5.891   9.385  1.00  0.00    -0.003 C 
ATOM     30  C   UNL     1      12.570  -4.668  10.199  1.00  0.00     0.004 C 
ENDBRANCH  28  29
ENDBRANCH  27  28
ENDBRANCH  26  27
ENDBRANCH  25  26
ENDBRANCH  24  25
ENDBRANCH  23  24
ENDBRANCH  22  23
ENDBRANCH  21  22
ENDBRANCH  20  21
ENDBRANCH  19  20
ENDBRANCH  18  19
ENDBRANCH  17  18
ENDBRANCH   1  17
TORSDOF 26
ENDMDL
MODEL 4
REMARK VINA RESULT:    -6.081      1.145      6.265
REMARK INTER + INTRA:         -20.511
REMARK INTER:                 -15.664
REMARK INTRA:                  -4.847
REMARK UNBOUND:                -5.187
REMARK SMILES CCCCCCCCCCCCCCCCCCCCCCCCCCCC(=O)[O-]
REMARK SMILES IDX 15 1 16 2 17 3 18 4 19 5 20 6 21 7 22 8 23 9 24 10 25 11
REMARK SMILES IDX 26 12 27 13 28 14 29 15 30 16 14 17 13 18 12 19 11 20 10 21
REMARK SMILES IDX 9 22 8 23 7 24 6 25 5 26 4 27 3 28 2 29 1 30
REMARK H PARENT
REMARK Flexibility Score: inf
ROOT
ATOM      1  C   UNL     1      16.326  -6.521  13.257  1.00  0.00     0.000 C 
ENDROOT
BRANCH   1   2
ATOM      2  C   UNL     1      15.653  -5.618  12.204  1.00  0.00     0.000 C 
BRANCH   2   3
ATOM      3  C   UNL     1      16.291  -5.683  10.805  1.00  0.00     0.000 C 
BRANCH   3   4
ATOM      4  C   UNL     1      15.411  -5.031   9.722  1.00  0.00     0.000 C 
BRANCH   4   5
ATOM      5  C   UNL     1      14.339  -5.996   9.167  1.00  0.00     0.000 C 
BRANCH   5   6
ATOM      6  C   UNL     1      12.905  -5.631   9.601  1.00  0.00     0.000 C 
BRANCH   6   7
ATOM      7  C   UNL     1      12.782  -4.314  10.392  1.00  0.00     0.000 C 
BRANCH   7   8
ATOM      8  C   UNL     1      11.337  -3.903  10.729  1.00  0.00     0.000 C 
BRANCH   8   9
ATOM      9  C   UNL     1      10.964  -4.218  12.187  1.00  0.00     0.000 C 
BRANCH   9  10
ATOM     10  C   UNL     1      12.188  -4.256  13.119  1.00  0.00     0.000 C 
BRANCH  10  11
ATOM     11  C   UNL     1      12.399  -2.985  13.965  1.00  0.00     0.000 C 
BRANCH  11  12
ATOM     12  C   UNL     1      13.111  -1.846  13.205  1.00  0.00     0.006 C 
BRANCH  12  13
ATOM     13  C   UNL     1      14.595  -2.152  12.964  1.00  0.00     0.053 C 
BRANCH  13  14
ATOM     14  C   UNL     1      15.291  -0.971  12.361  1.00  0.00     0.041 C 
ATOM     15  O   UNL     1      14.643  -0.122  11.694  1.00  0.00    -0.550 OA
ATOM     16  O   UNL     1      16.655  -0.791  12.567  1.00  0.00    -0.550 OA
ENDBRANCH  13  14
ENDBRANCH  12  13
ENDBRANCH  11  12
ENDBRANCH  10  11
ENDBRANCH   9  10
ENDBRANCH   8   9
ENDBRANCH   7   8
ENDBRANCH   6   7
ENDBRANCH   5   6
ENDBRANCH   4   5
ENDBRANCH   3   4
ENDBRANCH   2   3
ENDBRANCH   1   2
BRANCH   1  17
ATOM     17  C   UNL     1      15.444  -7.680  13.754  1.00  0.00     0.000 C 
BRANCH  17  18
ATOM     18  C   UNL     1      14.613  -7.301  14.990  1.00  0.00     0.000 C 
BRANCH  18  19
ATOM     19  C   UNL     1      15.360  -6.284  15.865  1.00  0.00     0.000 C 
BRANCH  19  20
ATOM     20  C   UNL     1      14.546  -5.005  16.132  1.00  0.00     0.000 C 
BRANCH  20  21
ATOM     21  C   UNL     1      15.361  -3.697  16.131  1.00  0.00     0.000 C 
BRANCH  21  22
ATOM     22  C   UNL     1      15.206  -2.823  17.394  1.00  0.00    -0.000 C 
BRANCH  22  23
ATOM     23  C   UNL     1      16.482  -2.663  18.237  1.00  0.00    -0.000 C 
BRANCH  23  24
ATOM     24  C   UNL     1      17.564  -3.693  17.879  1.00  0.00    -0.000 C 
BRANCH  24  25
ATOM     25  C   UNL     1      18.951  -3.059  17.662  1.00  0.00    -0.000 C 
BRANCH  25  26
ATOM     26  C   UNL     1      19.380  -2.912  16.191  1.00  0.00    -0.000 C 
BRANCH  26  27
ATOM     27  C   UNL     1      18.856  -4.047  15.295  1.00  0.00    -0.000 C 
BRANCH  27  28
ATOM     28  C   UNL     1      18.242  -3.538  13.979  1.00  0.00    -0.000 C 
BRANCH  28  29
ATOM     29  C   UNL     1      19.126  -3.740  12.735  1.00  0.00    -0.003 C 
ATOM     30  C   UNL     1      19.745  -5.135  12.660  1.00  0.00     0.004 C 
ENDBRANCH  28  29
ENDBRANCH  27  28
ENDBRANCH  26  27
ENDBRANCH  25  26
ENDBRANCH  24  25
ENDBRANCH  23  24
ENDBRANCH  22  23
ENDBRANCH  21  22
ENDBRANCH  20  21
ENDBRANCH  19  20
ENDBRANCH  18  19
ENDBRANCH  17  18
ENDBRANCH   1  17
TORSDOF 26
ENDMDL
MODEL 5
REMARK VINA RESULT:    -6.049      2.013      6.114
REMARK INTER + INTRA:         -20.430
REMARK INTER:                 -15.912
REMARK INTRA:                  -4.517
REMARK UNBOUND:                -5.187
REMARK SMILES CCCCCCCCCCCCCCCCCCCCCCCCCCCC(=O)[O-]
REMARK SMILES IDX 15 1 16 2 17 3 18 4 19 5 20 6 21 7 22 8 23 9 24 10 25 11
REMARK SMILES IDX 26 12 27 13 28 14 29 15 30 16 14 17 13 18 12 19 11 20 10 21
REMARK SMILES IDX 9 22 8 23 7 24 6 25 5 26 4 27 3 28 2 29 1 30
REMARK H PARENT
REMARK Flexibility Score: inf
ROOT
ATOM      1  C   UNL     1      18.484  -4.969  13.182  1.00  0.00     0.000 C 
ENDROOT
BRANCH   1   2
ATOM      2  C   UNL     1      19.445  -3.859  12.711  1.00  0.00     0.000 C 
BRANCH   2   3
ATOM      3  C   UNL     1      18.912  -2.428  12.906  1.00  0.00     0.000 C 
BRANCH   3   4
ATOM      4  C   UNL     1      17.420  -2.398  13.286  1.00  0.00     0.000 C 
BRANCH   4   5
ATOM      5  C   UNL     1      16.836  -0.967  13.291  1.00  0.00     0.000 C 
BRANCH   5   6
ATOM      6  C   UNL     1      15.502  -0.849  12.530  1.00  0.00     0.000 C 
BRANCH   6   7
ATOM      7  C   UNL     1      14.495  -1.983  12.805  1.00  0.00     0.000 C 
BRANCH   7   8
ATOM      8  C   UNL     1      13.063  -1.507  13.110  1.00  0.00     0.000 C 
BRANCH   8   9
ATOM      9  C   UNL     1      12.257  -2.547  13.906  1.00  0.00     0.000 C 
BRANCH   9  10
ATOM     10  C   UNL     1      12.265  -3.938  13.247  1.00  0.00     0.000 C 
BRANCH  10  11
ATOM     11  C   UNL     1      11.293  -4.099  12.061  1.00  0.00     0.000 C 
BRANCH  11  12
ATOM     12  C   UNL     1      11.996  -4.167  10.689  1.00  0.00     0.006 C 
BRANCH  12  13
ATOM     13  C   UNL     1      13.072  -5.260  10.644  1.00  0.00     0.053 C 
BRANCH  13  14
ATOM     14  C   UNL     1      13.241  -5.786   9.253  1.00  0.00     0.041 C 
ATOM     15  O   UNL     1      12.240  -5.935   8.503  1.00  0.00    -0.550 OA
ATOM     16  O   UNL     1      14.512  -6.078   8.771  1.00  0.00    -0.550 OA
ENDBRANCH  13  14
ENDBRANCH  12  13
ENDBRANCH  11  12
ENDBRANCH  10  11
ENDBRANCH   9  10
ENDBRANCH   8   9
ENDBRANCH   7   8
ENDBRANCH   6   7
ENDBRANCH   5   6
ENDBRANCH   4   5
ENDBRANCH   3   4
ENDBRANCH   2   3
ENDBRANCH   1   2
BRANCH   1  17
ATOM     17  C   UNL     1      18.052  -5.944  12.073  1.00  0.00     0.000 C 
BRANCH  17  18
ATOM     18  C   UNL     1      16.610  -5.698  11.601  1.00  0.00     0.000 C 
BRANCH  18  19
ATOM     19  C   UNL     1      15.627  -5.752  12.779  1.00  0.00     0.000 C 
BRANCH  19  20
ATOM     20  C   UNL     1      15.619  -7.113  13.497  1.00  0.00     0.000 C 
BRANCH  20  21
ATOM     21  C   UNL     1      14.668  -7.211  14.707  1.00  0.00     0.000 C 
BRANCH  21  22
ATOM     22  C   UNL     1      15.056  -6.343  15.922  1.00  0.00    -0.000 C 
BRANCH  22  23
ATOM     23  C   UNL     1      14.221  -5.064  16.104  1.00  0.00    -0.000 C 
BRANCH  23  24
ATOM     24  C   UNL     1      15.074  -3.787  16.062  1.00  0.00    -0.000 C 
BRANCH  24  25
ATOM     25  C   UNL     1      14.989  -2.964  17.361  1.00  0.00    -0.000 C 
BRANCH  25  26
ATOM     26  C   UNL     1      16.264  -2.180  17.723  1.00  0.00    -0.000 C 
BRANCH  26  27
ATOM     27  C   UNL     1      17.062  -2.825  18.869  1.00  0.00    -0.000 C 
BRANCH  27  28
ATOM     28  C   UNL     1      18.481  -3.247  18.448  1.00  0.00    -0.000 C 
BRANCH  28  29
ATOM     29  C   UNL     1      18.670  -3.450  16.934  1.00  0.00    -0.003 C 
ATOM     30  C   UNL     1      19.774  -2.573  16.346  1.00  0.00     0.004 C 
ENDBRANCH  28  29
ENDBRANCH  27  28
ENDBRANCH  26  27
ENDBRANCH  25  26
ENDBRANCH  24  25
ENDBRANCH  23  24
ENDBRANCH  22  23
ENDBRANCH  21  22
ENDBRANCH  20  21
ENDBRANCH  19  20
ENDBRANCH  18  19
ENDBRANCH  17  18
ENDBRANCH   1  17
TORSDOF 26
ENDMDL
MODEL 6
REMARK VINA RESULT:    -6.044      2.249      5.782
REMARK INTER + INTRA:         -20.418
REMARK INTER:                 -15.670
REMARK INTRA:                  -4.748
REMARK UNBOUND:                -5.187
REMARK SMILES CCCCCCCCCCCCCCCCCCCCCCCCCCCC(=O)[O-]
REMARK SMILES IDX 15 1 16 2 17 3 18 4 19 5 20 6 21 7 22 8 23 9 24 10 25 11
REMARK SMILES IDX 26 12 27 13 28 14 29 15 30 16 14 17 13 18 12 19 11 20 10 21
REMARK SMILES IDX 9 22 8 23 7 24 6 25 5 26 4 27 3 28 2 29 1 30
REMARK H PARENT
REMARK Flexibility Score: inf
ROOT
ATOM      1  C   UNL     1      12.958  -5.585   9.596  1.00  0.00     0.000 C 
ENDROOT
BRANCH   1   2
ATOM      2  C   UNL     1      12.956  -4.529  10.720  1.00  0.00     0.000 C 
BRANCH   2   3
ATOM      3  C   UNL     1      12.328  -5.005  12.042  1.00  0.00     0.000 C 
BRANCH   3   4
ATOM      4  C   UNL     1      12.912  -4.282  13.270  1.00  0.00     0.000 C 
BRANCH   4   5
ATOM      5  C   UNL     1      11.923  -3.272  13.892  1.00  0.00     0.000 C 
BRANCH   5   6
ATOM      6  C   UNL     1      12.393  -1.808  13.783  1.00  0.00     0.000 C 
BRANCH   6   7
ATOM      7  C   UNL     1      12.709  -1.334  12.350  1.00  0.00     0.000 C 
BRANCH   7   8
ATOM      8  C   UNL     1      14.207  -1.123  12.062  1.00  0.00     0.000 C 
BRANCH   8   9
ATOM      9  C   UNL     1      15.086  -1.418  13.289  1.00  0.00     0.000 C 
BRANCH   9  10
ATOM     10  C   UNL     1      16.480  -1.948  12.908  1.00  0.00     0.000 C 
BRANCH  10  11
ATOM     11  C   UNL     1      17.651  -1.019  13.283  1.00  0.00     0.000 C 
BRANCH  11  12
ATOM     12  C   UNL     1      18.898  -1.771  13.797  1.00  0.00     0.006 C 
BRANCH  12  13
ATOM     13  C   UNL     1      18.677  -3.289  13.847  1.00  0.00     0.053 C 
BRANCH  13  14
ATOM     14  C   UNL     1      19.137  -3.851  15.156  1.00  0.00     0.041 C 
ATOM     15  O   UNL     1      19.955  -3.213  15.871  1.00  0.00    -0.550 OA
ATOM     16  O   UNL     1      18.634  -5.068  15.604  1.00  0.00    -0.550 OA
ENDBRANCH  13  14
ENDBRANCH  12  13
ENDBRANCH  11  12
ENDBRANCH  10  11
ENDBRANCH   9  10
ENDBRANCH   8   9
ENDBRANCH   7   8
ENDBRANCH   6   7
ENDBRANCH   5   6
ENDBRANCH   4   5
ENDBRANCH   3   4
ENDBRANCH   2   3
ENDBRANCH   1   2
BRANCH   1  17
ATOM     17  C   UNL     1      14.362  -6.005   9.125  1.00  0.00     0.000 C 
BRANCH  17  18
ATOM     18  C   UNL     1      15.459  -5.043   9.609  1.00  0.00     0.000 C 
BRANCH  18  19
ATOM     19  C   UNL     1      16.482  -5.772  10.492  1.00  0.00     0.000 C 
BRANCH  19  20
ATOM     20  C   UNL     1      16.274  -5.512  11.995  1.00  0.00     0.000 C 
BRANCH  20  21
ATOM     21  C   UNL     1      16.391  -6.757  12.898  1.00  0.00     0.000 C 
BRANCH  21  22
ATOM     22  C   UNL     1      15.086  -7.188  13.599  1.00  0.00    -0.000 C 
BRANCH  22  23
ATOM     23  C   UNL     1      15.275  -7.880  14.959  1.00  0.00    -0.000 C 
BRANCH  23  24
ATOM     24  C   UNL     1      14.829  -7.002  16.139  1.00  0.00    -0.000 C 
BRANCH  24  25
ATOM     25  C   UNL     1      15.055  -5.499  15.889  1.00  0.00    -0.000 C 
BRANCH  25  26
ATOM     26  C   UNL     1      14.040  -4.563  16.571  1.00  0.00    -0.000 C 
BRANCH  26  27
ATOM     27  C   UNL     1      14.515  -3.101  16.631  1.00  0.00    -0.000 C 
BRANCH  27  28
ATOM     28  C   UNL     1      16.033  -2.974  16.853  1.00  0.00    -0.000 C 
BRANCH  28  29
ATOM     29  C   UNL     1      16.447  -2.634  18.295  1.00  0.00    -0.003 C 
ATOM     30  C   UNL     1      17.837  -3.154  18.657  1.00  0.00     0.004 C 
ENDBRANCH  28  29
ENDBRANCH  27  28
ENDBRANCH  26  27
ENDBRANCH  25  26
ENDBRANCH  24  25
ENDBRANCH  23  24
ENDBRANCH  22  23
ENDBRANCH  21  22
ENDBRANCH  20  21
ENDBRANCH  19  20
ENDBRANCH  18  19
ENDBRANCH  17  18
ENDBRANCH   1  17
TORSDOF 26
ENDMDL
MODEL 7
REMARK VINA RESULT:    -6.038      2.100      5.338
REMARK INTER + INTRA:         -20.403
REMARK INTER:                 -15.730
REMARK INTRA:                  -4.673
REMARK UNBOUND:                -5.187
REMARK SMILES CCCCCCCCCCCCCCCCCCCCCCCCCCCC(=O)[O-]
REMARK SMILES IDX 15 1 16 2 17 3 18 4 19 5 20 6 21 7 22 8 23 9 24 10 25 11
REMARK SMILES IDX 26 12 27 13 28 14 29 15 30 16 14 17 13 18 12 19 11 20 10 21
REMARK SMILES IDX 9 22 8 23 7 24 6 25 5 26 4 27 3 28 2 29 1 30
REMARK H PARENT
REMARK Flexibility Score: inf
ROOT
ATOM      1  C   UNL     1      17.348  -5.758  11.740  1.00  0.00     0.000 C 
ENDROOT
BRANCH   1   2
ATOM      2  C   UNL     1      17.808  -4.914  12.946  1.00  0.00     0.000 C 
BRANCH   2   3
ATOM      3  C   UNL     1      19.333  -4.886  13.161  1.00  0.00     0.000 C 
BRANCH   3   4
ATOM      4  C   UNL     1      19.720  -4.639  14.631  1.00  0.00     0.000 C 
BRANCH   4   5
ATOM      5  C   UNL     1      18.489  -4.529  15.559  1.00  0.00     0.000 C 
BRANCH   5   6
ATOM      6  C   UNL     1      18.434  -3.206  16.348  1.00  0.00     0.000 C 
BRANCH   6   7
ATOM      7  C   UNL     1      18.305  -3.367  17.876  1.00  0.00     0.000 C 
BRANCH   7   8
ATOM      8  C   UNL     1      16.998  -2.809  18.469  1.00  0.00     0.000 C 
BRANCH   8   9
ATOM      9  C   UNL     1      16.041  -2.284  17.386  1.00  0.00     0.000 C 
BRANCH   9  10
ATOM     10  C   UNL     1      14.839  -3.216  17.151  1.00  0.00     0.000 C 
BRANCH  10  11
ATOM     11  C   UNL     1      14.881  -4.008  15.829  1.00  0.00     0.000 C 
BRANCH  11  12
ATOM     12  C   UNL     1      14.410  -5.471  15.968  1.00  0.00     0.006 C 
BRANCH  12  13
ATOM     13  C   UNL     1      15.495  -6.469  15.542  1.00  0.00     0.053 C 
BRANCH  13  14
ATOM     14  C   UNL     1      15.055  -7.257  14.348  1.00  0.00     0.041 C 
ATOM     15  O   UNL     1      15.713  -8.263  13.970  1.00  0.00    -0.550 OA
ATOM     16  O   UNL     1      13.893  -6.900  13.671  1.00  0.00    -0.550 OA
ENDBRANCH  13  14
ENDBRANCH  12  13
ENDBRANCH  11  12
ENDBRANCH  10  11
ENDBRANCH   9  10
ENDBRANCH   8   9
ENDBRANCH   7   8
ENDBRANCH   6   7
ENDBRANCH   5   6
ENDBRANCH   4   5
ENDBRANCH   3   4
ENDBRANCH   2   3
ENDBRANCH   1   2
BRANCH   1  17
ATOM     17  C   UNL     1      15.937  -5.416  11.230  1.00  0.00     0.000 C 
BRANCH  17  18
ATOM     18  C   UNL     1      15.821  -5.523   9.701  1.00  0.00     0.000 C 
BRANCH  18  19
ATOM     19  C   UNL     1      14.360  -5.714   9.270  1.00  0.00     0.000 C 
BRANCH  19  20
ATOM     20  C   UNL     1      13.360  -5.511  10.423  1.00  0.00     0.000 C 
BRANCH  20  21
ATOM     21  C   UNL     1      12.169  -4.586  10.102  1.00  0.00     0.000 C 
BRANCH  21  22
ATOM     22  C   UNL     1      11.463  -3.971  11.328  1.00  0.00    -0.000 C 
BRANCH  22  23
ATOM     23  C   UNL     1      12.208  -4.143  12.663  1.00  0.00    -0.000 C 
BRANCH  23  24
ATOM     24  C   UNL     1      11.992  -2.960  13.620  1.00  0.00    -0.000 C 
BRANCH  24  25
ATOM     25  C   UNL     1      13.118  -1.912  13.544  1.00  0.00    -0.000 C 
BRANCH  25  26
ATOM     26  C   UNL     1      14.278  -2.267  12.596  1.00  0.00    -0.000 C 
BRANCH  26  27
ATOM     27  C   UNL     1      15.348  -1.165  12.515  1.00  0.00    -0.000 C 
BRANCH  27  28
ATOM     28  C   UNL     1      16.745  -1.654  12.936  1.00  0.00    -0.000 C 
BRANCH  28  29
ATOM     29  C   UNL     1      17.735  -0.536  13.307  1.00  0.00    -0.003 C 
ATOM     30  C   UNL     1      19.134  -1.058  13.633  1.00  0.00     0.004 C 
ENDBRANCH  28  29
ENDBRANCH  27  28
ENDBRANCH  26  27
ENDBRANCH  25  26
ENDBRANCH  24  25
ENDBRANCH  23  24
ENDBRANCH  22  23
ENDBRANCH  21  22
ENDBRANCH  20  21
ENDBRANCH  19  20
ENDBRANCH  18  19
ENDBRANCH  17  18
ENDBRANCH   1  17
TORSDOF 26
ENDMDL
MODEL 8
REMARK VINA RESULT:    -6.018      2.623      5.941
REMARK INTER + INTRA:         -20.352
REMARK INTER:                 -15.771
REMARK INTRA:                  -4.580
REMARK UNBOUND:                -5.187
REMARK SMILES CCCCCCCCCCCCCCCCCCCCCCCCCCCC(=O)[O-]
REMARK SMILES IDX 15 1 16 2 17 3 18 4 19 5 20 6 21 7 22 8 23 9 24 10 25 11
REMARK SMILES IDX 26 12 27 13 28 14 29 15 30 16 14 17 13 18 12 19 11 20 10 21
REMARK SMILES IDX 9 22 8 23 7 24 6 25 5 26 4 27 3 28 2 29 1 30
REMARK H PARENT
REMARK Flexibility Score: inf
ROOT
ATOM      1  C   UNL     1      17.823  -5.961  11.749  1.00  0.00     0.000 C 
ENDROOT
BRANCH   1   2
ATOM      2  C   UNL     1      16.423  -5.833  12.382  1.00  0.00     0.000 C 
BRANCH   2   3
ATOM      3  C   UNL     1      15.915  -7.112  13.072  1.00  0.00     0.000 C 
BRANCH   3   4
ATOM      4  C   UNL     1      14.716  -6.848  14.002  1.00  0.00     0.000 C 
BRANCH   4   5
ATOM      5  C   UNL     1      15.033  -7.153  15.483  1.00  0.00     0.000 C 
BRANCH   5   6
ATOM      6  C   UNL     1      15.939  -6.096  16.144  1.00  0.00     0.000 C 
BRANCH   6   7
ATOM      7  C   UNL     1      15.657  -4.641  15.719  1.00  0.00     0.000 C 
BRANCH   7   8
ATOM      8  C   UNL     1      14.491  -3.971  16.469  1.00  0.00     0.000 C 
BRANCH   8   9
ATOM      9  C   UNL     1      14.975  -2.928  17.490  1.00  0.00     0.000 C 
BRANCH   9  10
ATOM     10  C   UNL     1      16.483  -2.640  17.377  1.00  0.00     0.000 C 
BRANCH  10  11
ATOM     11  C   UNL     1      17.297  -2.939  18.651  1.00  0.00     0.000 C 
BRANCH  11  12
ATOM     12  C   UNL     1      18.824  -2.942  18.425  1.00  0.00     0.006 C 
BRANCH  12  13
ATOM     13  C   UNL     1      19.189  -3.181  16.954  1.00  0.00     0.053 C 
BRANCH  13  14
ATOM     14  C   UNL     1      20.522  -2.582  16.631  1.00  0.00     0.041 C 
ATOM     15  O   UNL     1      21.579  -3.108  17.070  1.00  0.00    -0.550 OA
ATOM     16  O   UNL     1      20.599  -1.459  15.814  1.00  0.00    -0.550 OA
ENDBRANCH  13  14
ENDBRANCH  12  13
ENDBRANCH  11  12
ENDBRANCH  10  11
ENDBRANCH   9  10
ENDBRANCH   8   9
ENDBRANCH   7   8
ENDBRANCH   6   7
ENDBRANCH   5   6
ENDBRANCH   4   5
ENDBRANCH   3   4
ENDBRANCH   2   3
ENDBRANCH   1   2
BRANCH   1  17
ATOM     17  C   UNL     1      18.939  -5.242  12.528  1.00  0.00     0.000 C 
BRANCH  17  18
ATOM     18  C   UNL     1      18.390  -4.336  13.642  1.00  0.00     0.000 C 
BRANCH  18  19
ATOM     19  C   UNL     1      18.550  -2.853  13.276  1.00  0.00     0.000 C 
BRANCH  19  20
ATOM     20  C   UNL     1      17.336  -1.998  13.679  1.00  0.00     0.000 C 
BRANCH  20  21
ATOM     21  C   UNL     1      16.021  -2.343  12.951  1.00  0.00     0.000 C 
BRANCH  21  22
ATOM     22  C   UNL     1      15.098  -1.143  12.653  1.00  0.00    -0.000 C 
BRANCH  22  23
ATOM     23  C   UNL     1      13.675  -1.511  12.200  1.00  0.00    -0.000 C 
BRANCH  23  24
ATOM     24  C   UNL     1      12.662  -1.497  13.355  1.00  0.00    -0.000 C 
BRANCH  24  25
ATOM     25  C   UNL     1      12.408  -2.895  13.948  1.00  0.00    -0.000 C 
BRANCH  25  26
ATOM     26  C   UNL     1      12.575  -4.065  12.960  1.00  0.00    -0.000 C 
BRANCH  26  27
ATOM     27  C   UNL     1      11.579  -4.010  11.789  1.00  0.00    -0.000 C 
BRANCH  27  28
ATOM     28  C   UNL     1      12.200  -4.450  10.452  1.00  0.00    -0.000 C 
BRANCH  28  29
ATOM     29  C   UNL     1      13.357  -5.457  10.579  1.00  0.00    -0.003 C 
ATOM     30  C   UNL     1      14.159  -5.615   9.289  1.00  0.00     0.004 C 
ENDBRANCH  28  29
ENDBRANCH  27  28
ENDBRANCH  26  27
ENDBRANCH  25  26
ENDBRANCH  24  25
ENDBRANCH  23  24
ENDBRANCH  22  23
ENDBRANCH  21  22
ENDBRANCH  20  21
ENDBRANCH  19  20
ENDBRANCH  18  19
ENDBRANCH  17  18
ENDBRANCH   1  17
TORSDOF 26
ENDMDL
MODEL 9
REMARK VINA RESULT:    -5.995      1.592      4.305
REMARK INTER + INTRA:         -20.293
REMARK INTER:                 -14.960
REMARK INTRA:                  -5.333
REMARK UNBOUND:                -5.187
REMARK SMILES CCCCCCCCCCCCCCCCCCCCCCCCCCCC(=O)[O-]
REMARK SMILES IDX 15 1 16 2 17 3 18 4 19 5 20 6 21 7 22 8 23 9 24 10 25 11
REMARK SMILES IDX 26 12 27 13 28 14 29 15 30 16 14 17 13 18 12 19 11 20 10 21
REMARK SMILES IDX 9 22 8 23 7 24 6 25 5 26 4 27 3 28 2 29 1 30
REMARK H PARENT
REMARK Flexibility Score: inf
ROOT
ATOM      1  C   UNL     1      14.876  -5.862  14.104  1.00  0.00     0.000 C 
ENDROOT
BRANCH   1   2
ATOM      2  C   UNL     1      15.284  -5.356  15.503  1.00  0.00     0.000 C 
BRANCH   2   3
ATOM      3  C   UNL     1      14.113  -4.852  16.366  1.00  0.00     0.000 C 
BRANCH   3   4
ATOM      4  C   UNL     1      14.294  -3.389  16.813  1.00  0.00     0.000 C 
BRANCH   4   5
ATOM      5  C   UNL     1      15.698  -2.835  16.481  1.00  0.00     0.000 C 
BRANCH   5   6
ATOM      6  C   UNL     1      16.614  -2.713  17.714  1.00  0.00     0.000 C 
BRANCH   6   7
ATOM      7  C   UNL     1      17.829  -3.663  17.717  1.00  0.00     0.000 C 
BRANCH   7   8
ATOM      8  C   UNL     1      19.162  -2.996  17.331  1.00  0.00     0.000 C 
BRANCH   8   9
ATOM      9  C   UNL     1      19.687  -3.482  15.970  1.00  0.00     0.000 C 
BRANCH   9  10
ATOM     10  C   UNL     1      18.872  -4.658  15.403  1.00  0.00     0.000 C 
BRANCH  10  11
ATOM     11  C   UNL     1      18.857  -4.756  13.865  1.00  0.00     0.000 C 
BRANCH  11  12
ATOM     12  C   UNL     1      18.992  -3.391  13.156  1.00  0.00     0.006 C 
BRANCH  12  13
ATOM     13  C   UNL     1      17.735  -2.527  13.324  1.00  0.00     0.053 C 
BRANCH  13  14
ATOM     14  C   UNL     1      18.097  -1.081  13.455  1.00  0.00     0.041 C 
ATOM     15  O   UNL     1      19.283  -0.741  13.709  1.00  0.00    -0.550 OA
ATOM     16  O   UNL     1      17.127  -0.103  13.261  1.00  0.00    -0.550 OA
ENDBRANCH  13  14
ENDBRANCH  12  13
ENDBRANCH  11  12
ENDBRANCH  10  11
ENDBRANCH   9  10
ENDBRANCH   8   9
ENDBRANCH   7   8
ENDBRANCH   6   7
ENDBRANCH   5   6
ENDBRANCH   4   5
ENDBRANCH   3   4
ENDBRANCH   2   3
ENDBRANCH   1   2
BRANCH   1  17
ATOM     17  C   UNL     1      15.762  -6.995  13.557  1.00  0.00     0.000 C 
BRANCH  17  18
ATOM     18  C   UNL     1      16.499  -6.598  12.268  1.00  0.00     0.000 C 
BRANCH  18  19
ATOM     19  C   UNL     1      15.872  -5.345  11.638  1.00  0.00     0.000 C 
BRANCH  19  20
ATOM     20  C   UNL     1      15.850  -5.390  10.100  1.00  0.00     0.000 C 
BRANCH  20  21
ATOM     21  C   UNL     1      14.455  -5.576   9.469  1.00  0.00     0.000 C 
BRANCH  21  22
ATOM     22  C   UNL     1      13.273  -5.534  10.460  1.00  0.00    -0.000 C 
BRANCH  22  23
ATOM     23  C   UNL     1      12.170  -4.518  10.117  1.00  0.00    -0.000 C 
BRANCH  23  24
ATOM     24  C   UNL     1      11.466  -3.962  11.364  1.00  0.00    -0.000 C 
BRANCH  24  25
ATOM     25  C   UNL     1      12.175  -4.346  12.676  1.00  0.00    -0.000 C 
BRANCH  25  26
ATOM     26  C   UNL     1      11.821  -3.468  13.892  1.00  0.00    -0.000 C 
BRANCH  26  27
ATOM     27  C   UNL     1      12.457  -2.069  13.828  1.00  0.00    -0.000 C 
BRANCH  27  28
ATOM     28  C   UNL     1      13.890  -2.087  13.267  1.00  0.00    -0.000 C 
BRANCH  28  29
ATOM     29  C   UNL     1      14.164  -1.051  12.163  1.00  0.00    -0.003 C 
ATOM     30  C   UNL     1      12.898  -0.608  11.430  1.00  0.00     0.004 C 
ENDBRANCH  28  29
ENDBRANCH  27  28
ENDBRANCH  26  27
ENDBRANCH  25  26
ENDBRANCH  24  25
ENDBRANCH  23  24
ENDBRANCH  22  23
ENDBRANCH  21  22
ENDBRANCH  20  21
ENDBRANCH  19  20
ENDBRANCH  18  19
ENDBRANCH  17  18
ENDBRANCH   1  17
TORSDOF 26
ENDMDL
