MODEL 1
REMARK VINA RESULT:     8.513      0.000      0.000
REMARK INTER + INTRA:          11.902
REMARK INTER:                  11.250
REMARK INTRA:                   0.652
REMARK UNBOUND:                 0.652
REMARK SMILES CC(C)=CCC[C@@H](C(=O)[O-])[C@H]1CC[C@@]2(C)C3=C(CC[C@]12C)[C@@]1(C)CC[C@@H](O)C(C)(C)[C@H]1CC3
REMARK SMILES IDX 6 1 7 2 8 3 9 4 10 5 11 6 12 7 20 8 13 9 14 10 19 11 21 12
REMARK SMILES IDX 15 13 16 14 18 15 17 16 33 17 22 18 32 19 31 20 24 21 23 22
REMARK SMILES IDX 28 23 25 24 26 25 29 26 30 27 27 28 5 30 4 31 2 32 1 33 3 34
REMARK H PARENT 27 29
REMARK Flexibility Score: inf
ROOT
ATOM      1  C   UNL     1      26.551  30.807  24.176  1.00  0.00     0.014 C 
ENDROOT
BRANCH   1   2
ATOM      2  C   UNL     1      27.394  31.667  25.170  1.00  0.00     0.039 C 
BRANCH   2   3
ATOM      3  C   UNL     1      28.471  30.833  25.831  1.00  0.00     0.045 C 
ATOM      4  O   UNL     1      28.960  29.830  25.237  1.00  0.00    -0.550 OA
ATOM      5  O   UNL     1      28.903  31.149  27.116  1.00  0.00    -0.550 OA
ENDBRANCH   2   3
BRANCH   2   6
ATOM      6  C   UNL     1      28.035  32.864  24.402  1.00  0.00     0.004 C 
ATOM      7  C   UNL     1      29.125  32.442  23.387  1.00  0.00     0.006 C 
ATOM      8  C   UNL     1      27.130  33.824  23.576  1.00  0.00    -0.020 C 
ATOM      9  C   UNL     1      29.082  33.449  22.220  1.00  0.00     0.012 C 
ATOM     10  C   UNL     1      28.201  34.596  22.747  1.00  0.00    -0.006 C 
ATOM     11  C   UNL     1      26.297  34.837  24.382  1.00  0.00     0.012 C 
ATOM     12  C   UNL     1      26.141  32.997  22.690  1.00  0.00     0.012 C 
ATOM     13  C   UNL     1      29.125  35.546  23.589  1.00  0.00     0.017 C 
ATOM     14  C   UNL     1      27.514  35.496  21.724  1.00  0.00    -0.064 C 
ATOM     15  C   UNL     1      25.863  36.081  23.554  1.00  0.00     0.032 C 
ATOM     16  C   UNL     1      26.471  36.274  22.138  1.00  0.00    -0.064 C 
ATOM     17  C   UNL     1      28.193  35.757  20.408  1.00  0.00     0.032 C 
ATOM     18  C   UNL     1      26.017  37.515  21.314  1.00  0.00    -0.008 C 
ATOM     19  C   UNL     1      27.172  36.169  19.370  1.00  0.00     0.009 C 
ATOM     20  C   UNL     1      26.435  37.472  19.768  1.00  0.00     0.007 C 
ATOM     21  C   UNL     1      26.627  38.753  22.015  1.00  0.00     0.014 C 
ATOM     22  C   UNL     1      24.478  37.618  21.390  1.00  0.00     0.016 C 
ATOM     23  C   UNL     1      27.078  38.802  19.172  1.00  0.00    -0.006 C 
ATOM     24  C   UNL     1      26.328  40.085  21.324  1.00  0.00     0.033 C 
ATOM     25  C   UNL     1      26.376  40.062  19.784  1.00  0.00     0.120 C 
ATOM     26  C   UNL     1      28.619  38.878  19.367  1.00  0.00     0.014 C 
ATOM     27  C   UNL     1      26.822  38.850  17.637  1.00  0.00     0.014 C 
BRANCH  25  28
ATOM     28  O   UNL     1      27.006  41.238  19.345  1.00  0.00    -0.393 OA
ATOM     29  H   UNL     1      26.320  41.871  19.017  1.00  0.00     0.210 HD
ENDBRANCH  25  28
ENDBRANCH   2   6
ENDBRANCH   1   2
BRANCH   1  30
ATOM     30  C   UNL     1      26.082  29.440  24.727  1.00  0.00     0.028 C 
BRANCH  30  31
ATOM     31  C   UNL     1      25.298  29.627  26.010  1.00  0.00    -0.028 C 
ATOM     32  C   UNL     1      25.220  28.682  26.984  1.00  0.00    -0.080 C 
ATOM     33  C   UNL     1      24.427  28.946  28.240  1.00  0.00     0.039 C 
ATOM     34  C   UNL     1      25.976  27.373  26.899  1.00  0.00     0.039 C 
ENDBRANCH  30  31
ENDBRANCH   1  30
TORSDOF 6
ENDMDL
