MODEL 1
REMARK VINA RESULT:    -3.690      0.000      0.000
REMARK INTER + INTRA:          -3.690
REMARK INTER:                  -3.690
REMARK INTRA:                   0.000
REMARK UNBOUND:                 0.000
REMARK SMILES CC1=CC(=O)[C@H]2C[C@@H]1C2(C)C
REMARK SMILES IDX 1 1 2 2 3 3 4 4 5 5 6 6 7 7 8 8 9 9 10 10 11 11
REMARK H PARENT
REMARK Flexibility Score: inf
ROOT
ATOM      1  C   UNL     1      83.123  38.292  29.986  1.00  0.00     0.040 C 
ATOM      2  C   UNL     1      84.085  37.218  29.588  1.00  0.00    -0.066 C 
ATOM      3  C   UNL     1      84.640  36.385  30.513  1.00  0.00     0.047 C 
ATOM      4  C   UNL     1      85.612  35.371  29.992  1.00  0.00     0.159 C 
ATOM      5  O   UNL     1      86.220  34.572  30.752  1.00  0.00    -0.295 OA
ATOM      6  C   UNL     1      85.817  35.377  28.477  1.00  0.00     0.067 C 
ATOM      7  C   UNL     1      84.385  35.460  27.904  1.00  0.00     0.021 C 
ATOM      8  C   UNL     1      84.484  36.988  28.115  1.00  0.00     0.022 C 
ATOM      9  C   UNL     1      86.030  36.845  28.012  1.00  0.00    -0.019 C 
ATOM     10  C   UNL     1      86.915  37.777  28.888  1.00  0.00     0.012 C 
ATOM     11  C   UNL     1      86.534  36.932  26.549  1.00  0.00     0.012 C 
ENDROOT
TORSDOF 0
ENDMDL
MODEL 2
REMARK VINA RESULT:    -3.639      6.400      7.772
REMARK INTER + INTRA:          -3.639
REMARK INTER:                  -3.639
REMARK INTRA:                   0.000
REMARK UNBOUND:                 0.000
REMARK SMILES CC1=CC(=O)[C@H]2C[C@@H]1C2(C)C
REMARK SMILES IDX 1 1 2 2 3 3 4 4 5 5 6 6 7 7 8 8 9 9 10 10 11 11
REMARK H PARENT
REMARK Flexibility Score: inf
ROOT
ATOM      1  C   UNL     1      85.576  34.803  23.346  1.00  0.00     0.040 C 
ATOM      2  C   UNL     1      84.215  35.238  22.905  1.00  0.00    -0.066 C 
ATOM      3  C   UNL     1      83.190  34.348  22.786  1.00  0.00     0.047 C 
ATOM      4  C   UNL     1      81.883  34.902  22.306  1.00  0.00     0.159 C 
ATOM      5  O   UNL     1      80.873  34.174  22.119  1.00  0.00    -0.295 OA
ATOM      6  C   UNL     1      81.863  36.410  22.058  1.00  0.00     0.067 C 
ATOM      7  C   UNL     1      82.561  37.006  23.300  1.00  0.00     0.021 C 
ATOM      8  C   UNL     1      83.898  36.713  22.581  1.00  0.00     0.022 C 
ATOM      9  C   UNL     1      83.125  36.793  21.233  1.00  0.00    -0.019 C 
ATOM     10  C   UNL     1      83.564  35.852  20.076  1.00  0.00     0.012 C 
ATOM     11  C   UNL     1      83.050  38.239  20.680  1.00  0.00     0.012 C 
ENDROOT
TORSDOF 0
ENDMDL
MODEL 3
REMARK VINA RESULT:    -3.633      1.890      3.376
REMARK INTER + INTRA:          -3.633
REMARK INTER:                  -3.633
REMARK INTRA:                   0.000
REMARK UNBOUND:                 0.000
REMARK SMILES CC1=CC(=O)[C@H]2C[C@@H]1C2(C)C
REMARK SMILES IDX 1 1 2 2 3 3 4 4 5 5 6 6 7 7 8 8 9 9 10 10 11 11
REMARK H PARENT
REMARK Flexibility Score: inf
ROOT
ATOM      1  C   UNL     1      86.167  34.196  30.544  1.00  0.00     0.040 C 
ATOM      2  C   UNL     1      85.347  35.241  29.858  1.00  0.00    -0.066 C 
ATOM      3  C   UNL     1      85.246  35.285  28.499  1.00  0.00     0.047 C 
ATOM      4  C   UNL     1      84.420  36.398  27.932  1.00  0.00     0.159 C 
ATOM      5  O   UNL     1      84.283  36.569  26.692  1.00  0.00    -0.295 OA
ATOM      6  C   UNL     1      83.758  37.314  28.962  1.00  0.00     0.067 C 
ATOM      7  C   UNL     1      83.159  36.341  30.001  1.00  0.00     0.021 C 
ATOM      8  C   UNL     1      84.562  36.308  30.649  1.00  0.00     0.022 C 
ATOM      9  C   UNL     1      84.820  37.711  30.027  1.00  0.00    -0.019 C 
ATOM     10  C   UNL     1      86.259  38.048  29.544  1.00  0.00     0.012 C 
ATOM     11  C   UNL     1      84.333  38.862  30.943  1.00  0.00     0.012 C 
ENDROOT
TORSDOF 0
ENDMDL
MODEL 4
REMARK VINA RESULT:    -3.597      3.445      5.304
REMARK INTER + INTRA:          -3.597
REMARK INTER:                  -3.597
REMARK INTRA:                   0.000
REMARK UNBOUND:                 0.000
REMARK SMILES CC1=CC(=O)[C@H]2C[C@@H]1C2(C)C
REMARK SMILES IDX 1 1 2 2 3 3 4 4 5 5 6 6 7 7 8 8 9 9 10 10 11 11
REMARK H PARENT
REMARK Flexibility Score: inf
ROOT
ATOM      1  C   UNL     1      83.898  34.486  34.151  1.00  0.00     0.040 C 
ATOM      2  C   UNL     1      84.899  34.169  33.086  1.00  0.00    -0.066 C 
ATOM      3  C   UNL     1      84.914  34.846  31.903  1.00  0.00     0.047 C 
ATOM      4  C   UNL     1      85.945  34.415  30.905  1.00  0.00     0.159 C 
ATOM      5  O   UNL     1      86.034  34.936  29.763  1.00  0.00    -0.295 OA
ATOM      6  C   UNL     1      86.879  33.297  31.370  1.00  0.00     0.067 C 
ATOM      7  C   UNL     1      87.293  33.721  32.796  1.00  0.00     0.021 C 
ATOM      8  C   UNL     1      85.973  33.077  33.277  1.00  0.00     0.022 C 
ATOM      9  C   UNL     1      86.021  32.171  32.013  1.00  0.00    -0.019 C 
ATOM     10  C   UNL     1      84.677  31.786  31.332  1.00  0.00     0.012 C 
ATOM     11  C   UNL     1      86.835  30.873  32.249  1.00  0.00     0.012 C 
ENDROOT
TORSDOF 0
ENDMDL
MODEL 5
REMARK VINA RESULT:    -3.594      1.952      3.468
REMARK INTER + INTRA:          -3.594
REMARK INTER:                  -3.594
REMARK INTRA:                   0.000
REMARK UNBOUND:                 0.000
REMARK SMILES CC1=CC(=O)[C@H]2C[C@@H]1C2(C)C
REMARK SMILES IDX 1 1 2 2 3 3 4 4 5 5 6 6 7 7 8 8 9 9 10 10 11 11
REMARK H PARENT
REMARK Flexibility Score: inf
ROOT
ATOM      1  C   UNL     1      86.874  37.115  27.801  1.00  0.00     0.040 C 
ATOM      2  C   UNL     1      85.666  37.297  28.664  1.00  0.00    -0.066 C 
ATOM      3  C   UNL     1      85.647  38.211  29.674  1.00  0.00     0.047 C 
ATOM      4  C   UNL     1      84.390  38.276  30.486  1.00  0.00     0.159 C 
ATOM      5  O   UNL     1      84.264  39.052  31.470  1.00  0.00    -0.295 OA
ATOM      6  C   UNL     1      83.272  37.333  30.038  1.00  0.00     0.067 C 
ATOM      7  C   UNL     1      83.227  37.503  28.504  1.00  0.00     0.021 C 
ATOM      8  C   UNL     1      84.379  36.474  28.445  1.00  0.00     0.022 C 
ATOM      9  C   UNL     1      83.878  35.920  29.810  1.00  0.00    -0.019 C 
ATOM     10  C   UNL     1      84.935  35.396  30.823  1.00  0.00     0.012 C 
ATOM     11  C   UNL     1      82.788  34.832  29.641  1.00  0.00     0.012 C 
ENDROOT
TORSDOF 0
ENDMDL
MODEL 6
REMARK VINA RESULT:    -3.573      3.737      4.964
REMARK INTER + INTRA:          -3.573
REMARK INTER:                  -3.573
REMARK INTRA:                   0.000
REMARK UNBOUND:                 0.000
REMARK SMILES CC1=CC(=O)[C@H]2C[C@@H]1C2(C)C
REMARK SMILES IDX 1 1 2 2 3 3 4 4 5 5 6 6 7 7 8 8 9 9 10 10 11 11
REMARK H PARENT
REMARK Flexibility Score: inf
ROOT
ATOM      1  C   UNL     1      83.506  37.061  23.221  1.00  0.00     0.040 C 
ATOM      2  C   UNL     1      84.393  36.097  23.943  1.00  0.00    -0.066 C 
ATOM      3  C   UNL     1      84.520  36.129  25.300  1.00  0.00     0.047 C 
ATOM      4  C   UNL     1      85.462  35.132  25.901  1.00  0.00     0.159 C 
ATOM      5  O   UNL     1      85.694  35.087  27.138  1.00  0.00    -0.295 OA
ATOM      6  C   UNL     1      86.125  34.175  24.909  1.00  0.00     0.067 C 
ATOM      7  C   UNL     1      84.965  33.713  24.000  1.00  0.00     0.021 C 
ATOM      8  C   UNL     1      85.195  35.012  23.194  1.00  0.00     0.022 C 
ATOM      9  C   UNL     1      86.664  35.004  23.708  1.00  0.00    -0.019 C 
ATOM     10  C   UNL     1      87.348  36.369  24.000  1.00  0.00     0.012 C 
ATOM     11  C   UNL     1      87.603  34.175  22.796  1.00  0.00     0.012 C 
ENDROOT
TORSDOF 0
ENDMDL
MODEL 7
REMARK VINA RESULT:    -3.568      4.711      5.909
REMARK INTER + INTRA:          -3.568
REMARK INTER:                  -3.568
REMARK INTRA:                   0.000
REMARK UNBOUND:                 0.000
REMARK SMILES CC1=CC(=O)[C@H]2C[C@@H]1C2(C)C
REMARK SMILES IDX 1 1 2 2 3 3 4 4 5 5 6 6 7 7 8 8 9 9 10 10 11 11
REMARK H PARENT
REMARK Flexibility Score: inf
ROOT
ATOM      1  C   UNL     1      85.622  32.445  25.945  1.00  0.00     0.040 C 
ATOM      2  C   UNL     1      85.373  33.638  25.078  1.00  0.00    -0.066 C 
ATOM      3  C   UNL     1      84.520  33.579  24.017  1.00  0.00     0.047 C 
ATOM      4  C   UNL     1      84.380  34.832  23.208  1.00  0.00     0.159 C 
ATOM      5  O   UNL     1      83.653  34.891  22.182  1.00  0.00    -0.295 OA
ATOM      6  C   UNL     1      85.184  36.030  23.713  1.00  0.00     0.067 C 
ATOM      7  C   UNL     1      84.924  36.044  25.234  1.00  0.00     0.021 C 
ATOM      8  C   UNL     1      86.055  34.996  25.349  1.00  0.00     0.022 C 
ATOM      9  C   UNL     1      86.634  35.560  24.019  1.00  0.00    -0.019 C 
ATOM     10  C   UNL     1      87.314  34.568  23.034  1.00  0.00     0.012 C 
ATOM     11  C   UNL     1      87.601  36.748  24.255  1.00  0.00     0.012 C 
ENDROOT
TORSDOF 0
ENDMDL
MODEL 8
REMARK VINA RESULT:    -3.544      3.364      4.955
REMARK INTER + INTRA:          -3.544
REMARK INTER:                  -3.544
REMARK INTRA:                   0.000
REMARK UNBOUND:                 0.000
REMARK SMILES CC1=CC(=O)[C@H]2C[C@@H]1C2(C)C
REMARK SMILES IDX 1 1 2 2 3 3 4 4 5 5 6 6 7 7 8 8 9 9 10 10 11 11
REMARK H PARENT
REMARK Flexibility Score: inf
ROOT
ATOM      1  C   UNL     1      85.484  35.644  29.997  1.00  0.00     0.040 C 
ATOM      2  C   UNL     1      85.154  34.752  31.151  1.00  0.00    -0.066 C 
ATOM      3  C   UNL     1      84.568  35.241  32.280  1.00  0.00     0.047 C 
ATOM      4  C   UNL     1      84.316  34.252  33.377  1.00  0.00     0.159 C 
ATOM      5  O   UNL     1      83.816  34.588  34.483  1.00  0.00    -0.295 OA
ATOM      6  C   UNL     1      84.710  32.809  33.062  1.00  0.00     0.067 C 
ATOM      7  C   UNL     1      84.152  32.568  31.642  1.00  0.00     0.021 C 
ATOM      8  C   UNL     1      85.443  33.237  31.116  1.00  0.00     0.022 C 
ATOM      9  C   UNL     1      86.137  32.810  32.442  1.00  0.00    -0.019 C 
ATOM     10  C   UNL     1      87.206  33.760  33.051  1.00  0.00     0.012 C 
ATOM     11  C   UNL     1      86.743  31.386  32.359  1.00  0.00     0.012 C 
ENDROOT
TORSDOF 0
ENDMDL
MODEL 9
REMARK VINA RESULT:    -3.528      2.789      4.317
REMARK INTER + INTRA:          -3.528
REMARK INTER:                  -3.528
REMARK INTRA:                   0.000
REMARK UNBOUND:                 0.000
REMARK SMILES CC1=CC(=O)[C@H]2C[C@@H]1C2(C)C
REMARK SMILES IDX 1 1 2 2 3 3 4 4 5 5 6 6 7 7 8 8 9 9 10 10 11 11
REMARK H PARENT
REMARK Flexibility Score: inf
ROOT
ATOM      1  C   UNL     1      84.340  36.968  30.390  1.00  0.00     0.040 C 
ATOM      2  C   UNL     1      84.387  35.544  30.847  1.00  0.00    -0.066 C 
ATOM      3  C   UNL     1      83.249  34.808  30.990  1.00  0.00     0.047 C 
ATOM      4  C   UNL     1      83.425  33.404  31.484  1.00  0.00     0.159 C 
ATOM      5  O   UNL     1      82.449  32.638  31.693  1.00  0.00    -0.295 OA
ATOM      6  C   UNL     1      84.873  32.970  31.719  1.00  0.00     0.067 C 
ATOM      7  C   UNL     1      85.622  33.461  30.462  1.00  0.00     0.021 C 
ATOM      8  C   UNL     1      85.720  34.835  31.164  1.00  0.00     0.022 C 
ATOM      9  C   UNL     1      85.600  34.086  32.522  1.00  0.00    -0.019 C 
ATOM     10  C   UNL     1      84.831  34.783  33.681  1.00  0.00     0.012 C 
ATOM     11  C   UNL     1      86.976  33.620  33.063  1.00  0.00     0.012 C 
ENDROOT
TORSDOF 0
ENDMDL
