MODEL 1
REMARK VINA RESULT:    -4.265      0.000      0.000
REMARK INTER + INTRA:          -6.392
REMARK INTER:                  -5.761
REMARK INTRA:                  -0.631
REMARK UNBOUND:                -0.631
REMARK SMILES O=C[C@@H](O)[C@@H](O)[C@H](O)CO
REMARK SMILES IDX 7 1 9 2 10 3 5 5 3 6 2 7 1 8 4 9 6 11 8 13
REMARK H PARENT 10 4 4 10 6 12 8 14
REMARK Flexibility Score: inf
ROOT
ATOM      1  C   UNL     1     173.412 177.536 163.700  1.00  0.00     0.171 C 
ENDROOT
BRANCH   1   2
ATOM      2  C   UNL     1     172.728 176.477 164.589  1.00  0.00     0.190 C 
BRANCH   2   3
ATOM      3  O   UNL     1     172.288 175.377 163.835  1.00  0.00    -0.394 OA
ATOM      4  H   UNL     1     172.201 174.613 164.461  1.00  0.00     0.210 HD
ENDBRANCH   2   3
ENDBRANCH   1   2
BRANCH   1   5
ATOM      5  C   UNL     1     174.922 177.239 163.462  1.00  0.00     0.181 C 
BRANCH   5   6
ATOM      6  C   UNL     1     175.838 178.458 163.741  1.00  0.00     0.209 C 
BRANCH   6   7
ATOM      7  C   UNL     1     177.242 178.075 164.133  1.00  0.00     0.258 C 
ATOM      8  O   UNL     1     177.526 177.823 165.294  1.00  0.00    -0.300 OA
ENDBRANCH   6   7
BRANCH   6   9
ATOM      9  O   UNL     1     175.868 179.286 162.607  1.00  0.00    -0.383 OA
ATOM     10  H   UNL     1     175.498 180.166 162.883  1.00  0.00     0.211 HD
ENDBRANCH   6   9
ENDBRANCH   5   6
BRANCH   5  11
ATOM     11  O   UNL     1     175.358 176.087 164.143  1.00  0.00    -0.387 OA
ATOM     12  H   UNL     1     174.657 175.393 164.064  1.00  0.00     0.211 HD
ENDBRANCH   5  11
ENDBRANCH   1   5
BRANCH   1  13
ATOM     13  O   UNL     1     173.197 178.836 164.192  1.00  0.00    -0.388 OA
ATOM     14  H   UNL     1     172.753 178.766 165.077  1.00  0.00     0.211 HD
ENDBRANCH   1  13
TORSDOF 8
ENDMDL
MODEL 2
REMARK VINA RESULT:    -4.259      1.371      2.161
REMARK INTER + INTRA:          -6.384
REMARK INTER:                  -5.845
REMARK INTRA:                  -0.539
REMARK UNBOUND:                -0.631
REMARK SMILES O=C[C@@H](O)[C@@H](O)[C@H](O)CO
REMARK SMILES IDX 7 1 9 2 10 3 5 5 3 6 2 7 1 8 4 9 6 11 8 13
REMARK H PARENT 10 4 4 10 6 12 8 14
REMARK Flexibility Score: inf
ROOT
ATOM      1  C   UNL     1     173.802 176.280 164.058  1.00  0.00     0.171 C 
ENDROOT
BRANCH   1   2
ATOM      2  C   UNL     1     172.448 176.392 164.789  1.00  0.00     0.190 C 
BRANCH   2   3
ATOM      3  O   UNL     1     171.702 177.487 164.324  1.00  0.00    -0.394 OA
ATOM      4  H   UNL     1     171.860 178.235 164.957  1.00  0.00     0.210 HD
ENDBRANCH   2   3
ENDBRANCH   1   2
BRANCH   1   5
ATOM      5  C   UNL     1     174.736 177.495 164.328  1.00  0.00     0.181 C 
BRANCH   5   6
ATOM      6  C   UNL     1     176.180 177.289 163.803  1.00  0.00     0.209 C 
BRANCH   6   7
ATOM      7  C   UNL     1     177.154 178.323 164.307  1.00  0.00     0.258 C 
ATOM      8  O   UNL     1     177.169 179.453 163.843  1.00  0.00    -0.300 OA
ENDBRANCH   6   7
BRANCH   6   9
ATOM      9  O   UNL     1     176.623 176.004 164.155  1.00  0.00    -0.383 OA
ATOM     10  H   UNL     1     176.092 175.722 164.946  1.00  0.00     0.211 HD
ENDBRANCH   6   9
ENDBRANCH   5   6
BRANCH   5  11
ATOM     11  O   UNL     1     174.182 178.709 163.880  1.00  0.00    -0.387 OA
ATOM     12  H   UNL     1     173.312 178.517 163.449  1.00  0.00     0.211 HD
ENDBRANCH   5  11
ENDBRANCH   1   5
BRANCH   1  13
ATOM     13  O   UNL     1     173.625 176.040 162.683  1.00  0.00    -0.388 OA
ATOM     14  H   UNL     1     174.398 175.509 162.357  1.00  0.00     0.211 HD
ENDBRANCH   1  13
TORSDOF 8
ENDMDL
MODEL 3
REMARK VINA RESULT:    -4.204      9.201     10.007
REMARK INTER + INTRA:          -6.310
REMARK INTER:                  -5.585
REMARK INTRA:                  -0.725
REMARK UNBOUND:                -0.631
REMARK SMILES O=C[C@@H](O)[C@@H](O)[C@H](O)CO
REMARK SMILES IDX 7 1 9 2 10 3 5 5 3 6 2 7 1 8 4 9 6 11 8 13
REMARK H PARENT 10 4 4 10 6 12 8 14
REMARK Flexibility Score: inf
ROOT
ATOM      1  C   UNL     1     173.394 181.261 155.501  1.00  0.00     0.171 C 
ENDROOT
BRANCH   1   2
ATOM      2  C   UNL     1     171.969 181.721 155.129  1.00  0.00     0.190 C 
BRANCH   2   3
ATOM      3  O   UNL     1     171.955 182.412 153.906  1.00  0.00    -0.394 OA
ATOM      4  H   UNL     1     171.312 183.162 154.005  1.00  0.00     0.210 HD
ENDBRANCH   2   3
ENDBRANCH   1   2
BRANCH   1   5
ATOM      5  C   UNL     1     174.433 182.418 155.452  1.00  0.00     0.181 C 
BRANCH   5   6
ATOM      6  C   UNL     1     175.703 182.140 156.296  1.00  0.00     0.209 C 
BRANCH   6   7
ATOM      7  C   UNL     1     176.903 181.758 155.466  1.00  0.00     0.258 C 
ATOM      8  O   UNL     1     176.858 180.814 154.692  1.00  0.00    -0.300 OA
ENDBRANCH   6   7
BRANCH   6   9
ATOM      9  O   UNL     1     176.001 183.271 157.073  1.00  0.00    -0.383 OA
ATOM     10  H   UNL     1     175.391 183.251 157.857  1.00  0.00     0.211 HD
ENDBRANCH   6   9
ENDBRANCH   5   6
BRANCH   5  11
ATOM     11  O   UNL     1     174.752 182.799 154.135  1.00  0.00    -0.387 OA
ATOM     12  H   UNL     1     174.355 182.139 153.513  1.00  0.00     0.211 HD
ENDBRANCH   5  11
ENDBRANCH   1   5
BRANCH   1  13
ATOM     13  O   UNL     1     173.794 180.153 154.732  1.00  0.00    -0.388 OA
ATOM     14  H   UNL     1     173.182 179.397 154.931  1.00  0.00     0.211 HD
ENDBRANCH   1  13
TORSDOF 8
ENDMDL
MODEL 4
REMARK VINA RESULT:    -4.033      1.352      4.098
REMARK INTER + INTRA:          -6.078
REMARK INTER:                  -5.960
REMARK INTRA:                  -0.118
REMARK UNBOUND:                -0.631
REMARK SMILES O=C[C@@H](O)[C@@H](O)[C@H](O)CO
REMARK SMILES IDX 7 1 9 2 10 3 5 5 3 6 2 7 1 8 4 9 6 11 8 13
REMARK H PARENT 10 4 4 10 6 12 8 14
REMARK Flexibility Score: inf
ROOT
ATOM      1  C   UNL     1     176.181 177.676 164.142  1.00  0.00     0.171 C 
ENDROOT
BRANCH   1   2
ATOM      2  C   UNL     1     176.724 176.246 164.343  1.00  0.00     0.190 C 
BRANCH   2   3
ATOM      3  O   UNL     1     178.116 176.247 164.531  1.00  0.00    -0.394 OA
ATOM      4  H   UNL     1     178.415 177.191 164.478  1.00  0.00     0.210 HD
ENDBRANCH   2   3
ENDBRANCH   1   2
BRANCH   1   5
ATOM      5  C   UNL     1     174.734 177.696 163.567  1.00  0.00     0.181 C 
BRANCH   5   6
ATOM      6  C   UNL     1     173.935 176.402 163.869  1.00  0.00     0.209 C 
BRANCH   6   7
ATOM      7  C   UNL     1     172.747 176.628 164.769  1.00  0.00     0.258 C 
ATOM      8  O   UNL     1     171.985 175.715 165.047  1.00  0.00    -0.300 OA
ENDBRANCH   6   7
BRANCH   6   9
ATOM      9  O   UNL     1     173.515 175.823 162.661  1.00  0.00    -0.383 OA
ATOM     10  H   UNL     1     173.683 174.846 162.735  1.00  0.00     0.211 HD
ENDBRANCH   6   9
ENDBRANCH   5   6
BRANCH   5  11
ATOM     11  O   UNL     1     174.023 178.852 163.939  1.00  0.00    -0.387 OA
ATOM     12  H   UNL     1     173.387 178.610 164.658  1.00  0.00     0.211 HD
ENDBRANCH   5  11
ENDBRANCH   1   5
BRANCH   1  13
ATOM     13  O   UNL     1     177.067 178.461 163.381  1.00  0.00    -0.388 OA
ATOM     14  H   UNL     1     177.761 178.826 163.989  1.00  0.00     0.211 HD
ENDBRANCH   1  13
TORSDOF 8
ENDMDL
MODEL 5
REMARK VINA RESULT:    -3.970      6.384      7.951
REMARK INTER + INTRA:          -5.993
REMARK INTER:                  -5.081
REMARK INTRA:                  -0.912
REMARK UNBOUND:                -0.631
REMARK SMILES O=C[C@@H](O)[C@@H](O)[C@H](O)CO
REMARK SMILES IDX 7 1 9 2 10 3 5 5 3 6 2 7 1 8 4 9 6 11 8 13
REMARK H PARENT 10 4 4 10 6 12 8 14
REMARK Flexibility Score: inf
ROOT
ATOM      1  C   UNL     1     172.767 184.316 163.078  1.00  0.00     0.171 C 
ENDROOT
BRANCH   1   2
ATOM      2  C   UNL     1     173.905 183.279 163.179  1.00  0.00     0.190 C 
BRANCH   2   3
ATOM      3  O   UNL     1     174.549 183.099 161.945  1.00  0.00    -0.394 OA
ATOM      4  H   UNL     1     174.497 182.132 161.729  1.00  0.00     0.210 HD
ENDBRANCH   2   3
ENDBRANCH   1   2
BRANCH   1   5
ATOM      5  C   UNL     1     171.474 183.731 162.440  1.00  0.00     0.181 C 
BRANCH   5   6
ATOM      6  C   UNL     1     171.016 184.493 161.170  1.00  0.00     0.209 C 
BRANCH   6   7
ATOM      7  C   UNL     1     171.546 183.900 159.890  1.00  0.00     0.258 C 
ATOM      8  O   UNL     1     172.741 183.698 159.737  1.00  0.00    -0.300 OA
ENDBRANCH   6   7
BRANCH   6   9
ATOM      9  O   UNL     1     169.612 184.533 161.133  1.00  0.00    -0.383 OA
ATOM     10  H   UNL     1     169.308 184.829 162.031  1.00  0.00     0.211 HD
ENDBRANCH   6   9
ENDBRANCH   5   6
BRANCH   5  11
ATOM     11  O   UNL     1     171.564 182.344 162.215  1.00  0.00    -0.387 OA
ATOM     12  H   UNL     1     171.554 181.884 163.091  1.00  0.00     0.211 HD
ENDBRANCH   5  11
ENDBRANCH   1   5
BRANCH   1  13
ATOM     13  O   UNL     1     173.197 185.488 162.429  1.00  0.00    -0.388 OA
ATOM     14  H   UNL     1     172.491 186.178 162.530  1.00  0.00     0.211 HD
ENDBRANCH   1  13
TORSDOF 8
ENDMDL
MODEL 6
REMARK VINA RESULT:    -3.967      6.363      8.082
REMARK INTER + INTRA:          -5.990
REMARK INTER:                  -5.530
REMARK INTRA:                  -0.459
REMARK UNBOUND:                -0.631
REMARK SMILES O=C[C@@H](O)[C@@H](O)[C@H](O)CO
REMARK SMILES IDX 7 1 9 2 10 3 5 5 3 6 2 7 1 8 4 9 6 11 8 13
REMARK H PARENT 10 4 4 10 6 12 8 14
REMARK Flexibility Score: inf
ROOT
ATOM      1  C   UNL     1     172.854 184.092 162.614  1.00  0.00     0.171 C 
ENDROOT
BRANCH   1   2
ATOM      2  C   UNL     1     174.008 183.329 163.295  1.00  0.00     0.190 C 
BRANCH   2   3
ATOM      3  O   UNL     1     174.993 182.951 162.368  1.00  0.00    -0.394 OA
ATOM      4  H   UNL     1     175.546 183.755 162.189  1.00  0.00     0.210 HD
ENDBRANCH   2   3
ENDBRANCH   1   2
BRANCH   1   5
ATOM      5  C   UNL     1     172.565 183.586 161.171  1.00  0.00     0.181 C 
BRANCH   5   6
ATOM      6  C   UNL     1     171.053 183.413 160.872  1.00  0.00     0.209 C 
BRANCH   6   7
ATOM      7  C   UNL     1     170.677 183.770 159.457  1.00  0.00     0.258 C 
ATOM      8  O   UNL     1     171.138 183.154 158.509  1.00  0.00    -0.300 OA
ENDBRANCH   6   7
BRANCH   6   9
ATOM      9  O   UNL     1     170.675 182.089 161.147  1.00  0.00    -0.383 OA
ATOM     10  H   UNL     1     171.070 181.521 160.433  1.00  0.00     0.211 HD
ENDBRANCH   6   9
ENDBRANCH   5   6
BRANCH   5  11
ATOM     11  O   UNL     1     173.208 184.363 160.190  1.00  0.00    -0.387 OA
ATOM     12  H   UNL     1     174.114 184.592 160.515  1.00  0.00     0.211 HD
ENDBRANCH   5  11
ENDBRANCH   1   5
BRANCH   1  13
ATOM     13  O   UNL     1     173.061 185.483 162.659  1.00  0.00    -0.388 OA
ATOM     14  H   UNL     1     173.446 185.713 163.544  1.00  0.00     0.211 HD
ENDBRANCH   1  13
TORSDOF 8
ENDMDL
MODEL 7
REMARK VINA RESULT:    -3.924      8.612      9.394
REMARK INTER + INTRA:          -5.931
REMARK INTER:                  -5.464
REMARK INTRA:                  -0.467
REMARK UNBOUND:                -0.631
REMARK SMILES O=C[C@@H](O)[C@@H](O)[C@H](O)CO
REMARK SMILES IDX 7 1 9 2 10 3 5 5 3 6 2 7 1 8 4 9 6 11 8 13
REMARK H PARENT 10 4 4 10 6 12 8 14
REMARK Flexibility Score: inf
ROOT
ATOM      1  C   UNL     1     175.521 175.561 156.372  1.00  0.00     0.171 C 
ENDROOT
BRANCH   1   2
ATOM      2  C   UNL     1     175.082 177.027 156.568  1.00  0.00     0.190 C 
BRANCH   2   3
ATOM      3  O   UNL     1     174.616 177.255 157.873  1.00  0.00    -0.394 OA
ATOM      4  H   UNL     1     174.176 178.144 157.872  1.00  0.00     0.210 HD
ENDBRANCH   2   3
ENDBRANCH   1   2
BRANCH   1   5
ATOM      5  C   UNL     1     175.505 175.121 154.879  1.00  0.00     0.181 C 
BRANCH   5   6
ATOM      6  C   UNL     1     176.709 174.226 154.489  1.00  0.00     0.209 C 
BRANCH   6   7
ATOM      7  C   UNL     1     176.436 172.752 154.644  1.00  0.00     0.258 C 
ATOM      8  O   UNL     1     175.982 172.302 155.685  1.00  0.00    -0.300 OA
ENDBRANCH   6   7
BRANCH   6   9
ATOM      9  O   UNL     1     177.086 174.506 153.165  1.00  0.00    -0.383 OA
ATOM     10  H   UNL     1     176.251 174.703 152.663  1.00  0.00     0.211 HD
ENDBRANCH   6   9
ENDBRANCH   5   6
BRANCH   5  11
ATOM     11  O   UNL     1     174.278 174.543 154.501  1.00  0.00    -0.387 OA
ATOM     12  H   UNL     1     174.135 173.728 155.044  1.00  0.00     0.211 HD
ENDBRANCH   5  11
ENDBRANCH   1   5
BRANCH   1  13
ATOM     13  O   UNL     1     174.780 174.689 157.191  1.00  0.00    -0.388 OA
ATOM     14  H   UNL     1     175.415 174.091 157.665  1.00  0.00     0.211 HD
ENDBRANCH   1  13
TORSDOF 8
ENDMDL
MODEL 8
REMARK VINA RESULT:    -3.908      8.748     10.079
REMARK INTER + INTRA:          -5.909
REMARK INTER:                  -5.382
REMARK INTRA:                  -0.527
REMARK UNBOUND:                -0.631
REMARK SMILES O=C[C@@H](O)[C@@H](O)[C@H](O)CO
REMARK SMILES IDX 7 1 9 2 10 3 5 5 3 6 2 7 1 8 4 9 6 11 8 13
REMARK H PARENT 10 4 4 10 6 12 8 14
REMARK Flexibility Score: inf
ROOT
ATOM      1  C   UNL     1     175.452 182.062 156.499  1.00  0.00     0.171 C 
ENDROOT
BRANCH   1   2
ATOM      2  C   UNL     1     176.815 182.607 156.024  1.00  0.00     0.190 C 
BRANCH   2   3
ATOM      3  O   UNL     1     177.282 183.630 156.864  1.00  0.00    -0.394 OA
ATOM      4  H   UNL     1     177.155 183.319 157.798  1.00  0.00     0.210 HD
ENDBRANCH   2   3
ENDBRANCH   1   2
BRANCH   1   5
ATOM      5  C   UNL     1     174.390 182.022 155.362  1.00  0.00     0.181 C 
BRANCH   5   6
ATOM      6  C   UNL     1     173.171 181.122 155.692  1.00  0.00     0.209 C 
BRANCH   6   7
ATOM      7  C   UNL     1     171.948 181.897 156.109  1.00  0.00     0.258 C 
ATOM      8  O   UNL     1     171.958 182.597 157.110  1.00  0.00    -0.300 OA
ENDBRANCH   6   7
BRANCH   6   9
ATOM      9  O   UNL     1     172.872 180.320 154.579  1.00  0.00    -0.383 OA
ATOM     10  H   UNL     1     172.858 179.378 154.896  1.00  0.00     0.211 HD
ENDBRANCH   6   9
ENDBRANCH   5   6
BRANCH   5  11
ATOM     11  O   UNL     1     173.995 183.308 154.948  1.00  0.00    -0.387 OA
ATOM     12  H   UNL     1     173.914 183.884 155.749  1.00  0.00     0.211 HD
ENDBRANCH   5  11
ENDBRANCH   1   5
BRANCH   1  13
ATOM     13  O   UNL     1     174.991 182.753 157.634  1.00  0.00    -0.388 OA
ATOM     14  H   UNL     1     175.473 183.619 157.690  1.00  0.00     0.211 HD
ENDBRANCH   1  13
TORSDOF 8
ENDMDL
MODEL 9
REMARK VINA RESULT:    -3.880      9.056      9.787
REMARK INTER + INTRA:          -5.872
REMARK INTER:                  -5.175
REMARK INTRA:                  -0.696
REMARK UNBOUND:                -0.631
REMARK SMILES O=C[C@@H](O)[C@@H](O)[C@H](O)CO
REMARK SMILES IDX 7 1 9 2 10 3 5 5 3 6 2 7 1 8 4 9 6 11 8 13
REMARK H PARENT 10 4 4 10 6 12 8 14
REMARK Flexibility Score: inf
ROOT
ATOM      1  C   UNL     1     172.680 172.002 156.055  1.00  0.00     0.171 C 
ENDROOT
BRANCH   1   2
ATOM      2  C   UNL     1     172.041 171.269 154.857  1.00  0.00     0.190 C 
BRANCH   2   3
ATOM      3  O   UNL     1     172.667 170.036 154.614  1.00  0.00    -0.394 OA
ATOM      4  H   UNL     1     171.989 169.444 154.196  1.00  0.00     0.210 HD
ENDBRANCH   2   3
ENDBRANCH   1   2
BRANCH   1   5
ATOM      5  C   UNL     1     174.065 172.625 155.712  1.00  0.00     0.181 C 
BRANCH   5   6
ATOM      6  C   UNL     1     175.020 172.706 156.931  1.00  0.00     0.209 C 
BRANCH   6   7
ATOM      7  C   UNL     1     176.380 173.258 156.590  1.00  0.00     0.258 C 
ATOM      8  O   UNL     1     177.152 172.636 155.877  1.00  0.00    -0.300 OA
ENDBRANCH   6   7
BRANCH   6   9
ATOM      9  O   UNL     1     174.425 173.486 157.936  1.00  0.00    -0.383 OA
ATOM     10  H   UNL     1     173.459 173.554 157.715  1.00  0.00     0.211 HD
ENDBRANCH   6   9
ENDBRANCH   5   6
BRANCH   5  11
ATOM     11  O   UNL     1     174.675 172.004 154.607  1.00  0.00    -0.387 OA
ATOM     12  H   UNL     1     175.342 172.628 154.226  1.00  0.00     0.211 HD
ENDBRANCH   5  11
ENDBRANCH   1   5
BRANCH   1  13
ATOM     13  O   UNL     1     172.735 171.175 157.192  1.00  0.00    -0.388 OA
ATOM     14  H   UNL     1     171.848 170.747 157.311  1.00  0.00     0.211 HD
ENDBRANCH   1  13
TORSDOF 8
ENDMDL
