MODEL 1
REMARK VINA RESULT:    -2.660      0.000      0.000
REMARK INTER + INTRA:          -2.660
REMARK INTER:                  -2.660
REMARK INTRA:                   0.000
REMARK UNBOUND:                 0.000
REMARK SMILES CC(=O)[O-]
REMARK SMILES IDX 1 1 2 2 3 3 4 4
REMARK H PARENT
REMARK Flexibility Score: inf
ROOT
ATOM      1  C   UNL     1      -5.791  21.780 -14.071  1.00  0.00     0.063 C 
ATOM      2  C   UNL     1      -5.428  21.717 -12.625  1.00  0.00     0.038 C 
ATOM      3  O   UNL     1      -4.738  22.633 -12.106  1.00  0.00    -0.550 OA
ATOM      4  O   UNL     1      -5.805  20.620 -11.860  1.00  0.00    -0.550 OA
ENDROOT
TORSDOF 0
ENDMDL
MODEL 2
REMARK VINA RESULT:    -2.521     17.885     18.188
REMARK INTER + INTRA:          -2.521
REMARK INTER:                  -2.521
REMARK INTRA:                   0.000
REMARK UNBOUND:                 0.000
REMARK SMILES CC(=O)[O-]
REMARK SMILES IDX 1 1 2 2 3 3 4 4
REMARK H PARENT
REMARK Flexibility Score: inf
ROOT
ATOM      1  C   UNL     1     -15.541  33.799 -19.559  1.00  0.00     0.063 C 
ATOM      2  C   UNL     1     -16.911  34.145 -19.080  1.00  0.00     0.038 C 
ATOM      3  O   UNL     1     -17.923  33.674 -19.664  1.00  0.00    -0.550 OA
ATOM      4  O   UNL     1     -17.076  35.030 -18.023  1.00  0.00    -0.550 OA
ENDROOT
TORSDOF 0
ENDMDL
MODEL 3
REMARK VINA RESULT:    -2.497     17.850     18.164
REMARK INTER + INTRA:          -2.497
REMARK INTER:                  -2.497
REMARK INTRA:                   0.000
REMARK UNBOUND:                 0.000
REMARK SMILES CC(=O)[O-]
REMARK SMILES IDX 1 1 2 2 3 3 4 4
REMARK H PARENT
REMARK Flexibility Score: inf
ROOT
ATOM      1  C   UNL     1     -15.562  33.777 -19.564  1.00  0.00     0.063 C 
ATOM      2  C   UNL     1     -16.892  34.225 -19.059  1.00  0.00     0.038 C 
ATOM      3  O   UNL     1     -16.964  35.010 -18.077  1.00  0.00    -0.550 OA
ATOM      4  O   UNL     1     -18.057  33.735 -19.636  1.00  0.00    -0.550 OA
ENDROOT
TORSDOF 0
ENDMDL
MODEL 4
REMARK VINA RESULT:    -2.476     11.641     12.039
REMARK INTER + INTRA:          -2.476
REMARK INTER:                  -2.476
REMARK INTRA:                   0.000
REMARK UNBOUND:                 0.000
REMARK SMILES CC(=O)[O-]
REMARK SMILES IDX 1 1 2 2 3 3 4 4
REMARK H PARENT
REMARK Flexibility Score: inf
ROOT
ATOM      1  C   UNL     1      -8.374  19.250  -1.244  1.00  0.00     0.063 C 
ATOM      2  C   UNL     1      -6.970  18.747  -1.251  1.00  0.00     0.038 C 
ATOM      3  O   UNL     1      -6.717  17.572  -0.875  1.00  0.00    -0.550 OA
ATOM      4  O   UNL     1      -5.930  19.591  -1.620  1.00  0.00    -0.550 OA
ENDROOT
TORSDOF 0
ENDMDL
MODEL 5
REMARK VINA RESULT:    -2.431     18.267     18.546
REMARK INTER + INTRA:          -2.431
REMARK INTER:                  -2.431
REMARK INTRA:                   0.000
REMARK UNBOUND:                 0.000
REMARK SMILES CC(=O)[O-]
REMARK SMILES IDX 1 1 2 2 3 3 4 4
REMARK H PARENT
REMARK Flexibility Score: inf
ROOT
ATOM      1  C   UNL     1     -20.657  26.641  -1.121  1.00  0.00     0.063 C 
ATOM      2  C   UNL     1     -19.896  25.658  -1.946  1.00  0.00     0.038 C 
ATOM      3  O   UNL     1     -19.512  25.969  -3.104  1.00  0.00    -0.550 OA
ATOM      4  O   UNL     1     -19.656  24.379  -1.460  1.00  0.00    -0.550 OA
ENDROOT
TORSDOF 0
ENDMDL
MODEL 6
REMARK VINA RESULT:    -2.056      1.377      1.883
REMARK INTER + INTRA:          -2.056
REMARK INTER:                  -2.056
REMARK INTRA:                   0.000
REMARK UNBOUND:                 0.000
REMARK SMILES CC(=O)[O-]
REMARK SMILES IDX 1 1 2 2 3 3 4 4
REMARK H PARENT
REMARK Flexibility Score: inf
ROOT
ATOM      1  C   UNL     1      -5.044  22.740 -12.489  1.00  0.00     0.063 C 
ATOM      2  C   UNL     1      -5.694  21.413 -12.692  1.00  0.00     0.038 C 
ATOM      3  O   UNL     1      -5.764  20.591 -11.741  1.00  0.00    -0.550 OA
ATOM      4  O   UNL     1      -6.177  21.059 -13.946  1.00  0.00    -0.550 OA
ENDROOT
TORSDOF 0
ENDMDL
MODEL 7
REMARK VINA RESULT:    -1.958     18.728     19.067
REMARK INTER + INTRA:          -1.958
REMARK INTER:                  -1.958
REMARK INTRA:                   0.000
REMARK UNBOUND:                 0.000
REMARK SMILES CC(=O)[O-]
REMARK SMILES IDX 1 1 2 2 3 3 4 4
REMARK H PARENT
REMARK Flexibility Score: inf
ROOT
ATOM      1  C   UNL     1     -17.847  35.553 -18.516  1.00  0.00     0.063 C 
ATOM      2  C   UNL     1     -18.001  34.250 -19.226  1.00  0.00     0.038 C 
ATOM      3  O   UNL     1     -17.040  33.438 -19.274  1.00  0.00    -0.550 OA
ATOM      4  O   UNL     1     -19.188  33.952 -19.883  1.00  0.00    -0.550 OA
ENDROOT
TORSDOF 0
ENDMDL
