MODEL 1
REMARK VINA RESULT:    -3.858      0.000      0.000
REMARK INTER + INTRA:          -4.282
REMARK INTER:                  -4.197
REMARK INTRA:                  -0.085
REMARK UNBOUND:                -0.085
REMARK SMILES O=C([O-])c1ccccc1O
REMARK SMILES IDX 4 1 9 2 5 3 8 4 6 5 7 6 2 7 1 8 3 9 10 10
REMARK H PARENT 10 11
REMARK Flexibility Score: inf
ROOT
ATOM      1  C   UNL     1      -2.315 -18.930 -22.240  1.00  0.00     0.039 A 
ATOM      2  C   UNL     1      -2.109 -18.928 -20.841  1.00  0.00     0.124 A 
ATOM      3  C   UNL     1      -1.275 -19.380 -23.079  1.00  0.00     0.014 A 
ATOM      4  C   UNL     1      -0.886 -19.372 -20.312  1.00  0.00     0.047 A 
ATOM      5  C   UNL     1      -0.063 -19.818 -22.540  1.00  0.00     0.001 A 
ATOM      6  C   UNL     1       0.131 -19.814 -21.159  1.00  0.00     0.004 A 
ENDROOT
BRANCH   1   7
ATOM      7  C   UNL     1      -3.593 -18.470 -22.843  1.00  0.00     0.075 C 
ATOM      8  O   UNL     1      -4.505 -19.297 -23.109  1.00  0.00    -0.545 OA
ATOM      9  O   UNL     1      -3.811 -17.127 -23.125  1.00  0.00    -0.545 OA
ENDBRANCH   1   7
BRANCH   2  10
ATOM     10  O   UNL     1      -3.109 -18.492 -19.973  1.00  0.00    -0.507 OA
ATOM     11  H   UNL     1      -4.068 -18.808 -20.063  1.00  0.00     0.293 HD
ENDBRANCH   2  10
TORSDOF 2
ENDMDL
MODEL 2
REMARK VINA RESULT:    -3.820     22.556     23.466
REMARK INTER + INTRA:          -4.240
REMARK INTER:                  -3.999
REMARK INTRA:                  -0.242
REMARK UNBOUND:                -0.085
REMARK SMILES O=C([O-])c1ccccc1O
REMARK SMILES IDX 4 1 9 2 5 3 8 4 6 5 7 6 2 7 1 8 3 9 10 10
REMARK H PARENT 10 11
REMARK Flexibility Score: inf
ROOT
ATOM      1  C   UNL     1      -5.228  -3.542  -4.921  1.00  0.00     0.039 A 
ATOM      2  C   UNL     1      -4.315  -2.497  -4.647  1.00  0.00     0.124 A 
ATOM      3  C   UNL     1      -5.677  -3.722  -6.245  1.00  0.00     0.014 A 
ATOM      4  C   UNL     1      -3.872  -1.664  -5.687  1.00  0.00     0.047 A 
ATOM      5  C   UNL     1      -5.229  -2.886  -7.269  1.00  0.00     0.001 A 
ATOM      6  C   UNL     1      -4.328  -1.858  -6.991  1.00  0.00     0.004 A 
ENDROOT
BRANCH   1   7
ATOM      7  C   UNL     1      -5.723  -4.448  -3.851  1.00  0.00     0.075 C 
ATOM      8  O   UNL     1      -4.912  -5.135  -3.174  1.00  0.00    -0.545 OA
ATOM      9  O   UNL     1      -7.080  -4.558  -3.575  1.00  0.00    -0.545 OA
ENDBRANCH   1   7
BRANCH   2  10
ATOM     10  O   UNL     1      -3.844  -2.282  -3.352  1.00  0.00    -0.507 OA
ATOM     11  H   UNL     1      -4.332  -1.676  -2.702  1.00  0.00     0.293 HD
ENDBRANCH   2  10
TORSDOF 2
ENDMDL
MODEL 3
REMARK VINA RESULT:    -3.772     12.100     13.185
REMARK INTER + INTRA:          -4.187
REMARK INTER:                  -3.939
REMARK INTRA:                  -0.248
REMARK UNBOUND:                -0.085
REMARK SMILES O=C([O-])c1ccccc1O
REMARK SMILES IDX 4 1 9 2 5 3 8 4 6 5 7 6 2 7 1 8 3 9 10 10
REMARK H PARENT 10 11
REMARK Flexibility Score: inf
ROOT
ATOM      1  C   UNL     1      -6.012 -19.018  -9.680  1.00  0.00     0.039 A 
ATOM      2  C   UNL     1      -6.492 -17.936  -8.906  1.00  0.00     0.124 A 
ATOM      3  C   UNL     1      -4.655 -19.383  -9.568  1.00  0.00     0.014 A 
ATOM      4  C   UNL     1      -5.620 -17.249  -8.045  1.00  0.00     0.047 A 
ATOM      5  C   UNL     1      -3.799 -18.691  -8.710  1.00  0.00     0.001 A 
ATOM      6  C   UNL     1      -4.281 -17.626  -7.949  1.00  0.00     0.004 A 
ENDROOT
BRANCH   1   7
ATOM      7  C   UNL     1      -6.899 -19.773 -10.603  1.00  0.00     0.075 C 
ATOM      8  O   UNL     1      -8.051 -20.124 -10.233  1.00  0.00    -0.545 OA
ATOM      9  O   UNL     1      -6.482 -20.107 -11.886  1.00  0.00    -0.545 OA
ENDBRANCH   1   7
BRANCH   2  10
ATOM     10  O   UNL     1      -7.827 -17.539  -8.983  1.00  0.00    -0.507 OA
ATOM     11  H   UNL     1      -8.095 -16.563  -8.942  1.00  0.00     0.293 HD
ENDBRANCH   2  10
TORSDOF 2
ENDMDL
MODEL 4
REMARK VINA RESULT:    -3.667     22.332     23.468
REMARK INTER + INTRA:          -4.073
REMARK INTER:                  -3.875
REMARK INTRA:                  -0.198
REMARK UNBOUND:                -0.085
REMARK SMILES O=C([O-])c1ccccc1O
REMARK SMILES IDX 4 1 9 2 5 3 8 4 6 5 7 6 2 7 1 8 3 9 10 10
REMARK H PARENT 10 11
REMARK Flexibility Score: inf
ROOT
ATOM      1  C   UNL     1      -4.268  -2.223  -5.713  1.00  0.00     0.039 A 
ATOM      2  C   UNL     1      -5.169  -3.271  -6.016  1.00  0.00     0.124 A 
ATOM      3  C   UNL     1      -4.053  -1.883  -4.362  1.00  0.00     0.014 A 
ATOM      4  C   UNL     1      -5.828  -3.950  -4.979  1.00  0.00     0.047 A 
ATOM      5  C   UNL     1      -4.716  -2.565  -3.340  1.00  0.00     0.001 A 
ATOM      6  C   UNL     1      -5.602  -3.597  -3.648  1.00  0.00     0.004 A 
ENDROOT
BRANCH   1   7
ATOM      7  C   UNL     1      -3.549  -1.478  -6.779  1.00  0.00     0.075 C 
ATOM      8  O   UNL     1      -2.642  -2.041  -7.449  1.00  0.00    -0.545 OA
ATOM      9  O   UNL     1      -3.856  -0.152  -7.059  1.00  0.00    -0.545 OA
ENDBRANCH   1   7
BRANCH   2  10
ATOM     10  O   UNL     1      -5.413  -3.642  -7.338  1.00  0.00    -0.507 OA
ATOM     11  H   UNL     1      -6.076  -3.141  -7.919  1.00  0.00     0.293 HD
ENDBRANCH   2  10
TORSDOF 2
ENDMDL
MODEL 5
REMARK VINA RESULT:    -3.620     13.445     15.005
REMARK INTER + INTRA:          -4.022
REMARK INTER:                  -3.816
REMARK INTRA:                  -0.206
REMARK UNBOUND:                -0.085
REMARK SMILES O=C([O-])c1ccccc1O
REMARK SMILES IDX 4 1 9 2 5 3 8 4 6 5 7 6 2 7 1 8 3 9 10 10
REMARK H PARENT 10 11
REMARK Flexibility Score: inf
ROOT
ATOM      1  C   UNL     1      -4.228 -17.959  -7.660  1.00  0.00     0.039 A 
ATOM      2  C   UNL     1      -3.885 -18.514  -6.405  1.00  0.00     0.124 A 
ATOM      3  C   UNL     1      -4.410 -16.565  -7.759  1.00  0.00     0.014 A 
ATOM      4  C   UNL     1      -3.731 -17.676  -5.288  1.00  0.00     0.047 A 
ATOM      5  C   UNL     1      -4.254 -15.744  -6.641  1.00  0.00     0.001 A 
ATOM      6  C   UNL     1      -3.915 -16.299  -5.407  1.00  0.00     0.004 A 
ENDROOT
BRANCH   1   7
ATOM      7  C   UNL     1      -4.401 -18.808  -8.868  1.00  0.00     0.075 C 
ATOM      8  O   UNL     1      -3.408 -19.383  -9.389  1.00  0.00    -0.545 OA
ATOM      9  O   UNL     1      -5.652 -18.986  -9.447  1.00  0.00    -0.545 OA
ENDBRANCH   1   7
BRANCH   2  10
ATOM     10  O   UNL     1      -3.695 -19.887  -6.259  1.00  0.00    -0.507 OA
ATOM     11  H   UNL     1      -4.384 -20.475  -5.802  1.00  0.00     0.293 HD
ENDBRANCH   2  10
TORSDOF 2
ENDMDL
MODEL 6
REMARK VINA RESULT:    -3.611     14.548     16.101
REMARK INTER + INTRA:          -4.013
REMARK INTER:                  -3.764
REMARK INTRA:                  -0.249
REMARK UNBOUND:                -0.085
REMARK SMILES O=C([O-])c1ccccc1O
REMARK SMILES IDX 4 1 9 2 5 3 8 4 6 5 7 6 2 7 1 8 3 9 10 10
REMARK H PARENT 10 11
REMARK Flexibility Score: inf
ROOT
ATOM      1  C   UNL     1      -4.147 -17.026  -6.506  1.00  0.00     0.039 A 
ATOM      2  C   UNL     1      -3.569 -17.956  -5.610  1.00  0.00     0.124 A 
ATOM      3  C   UNL     1      -4.295 -15.687  -6.092  1.00  0.00     0.014 A 
ATOM      4  C   UNL     1      -3.155 -17.536  -4.336  1.00  0.00     0.047 A 
ATOM      5  C   UNL     1      -3.879 -15.283  -4.822  1.00  0.00     0.001 A 
ATOM      6  C   UNL     1      -3.310 -16.206  -3.945  1.00  0.00     0.004 A 
ENDROOT
BRANCH   1   7
ATOM      7  C   UNL     1      -4.600 -17.427  -7.864  1.00  0.00     0.075 C 
ATOM      8  O   UNL     1      -3.871 -18.157  -8.588  1.00  0.00    -0.545 OA
ATOM      9  O   UNL     1      -5.827 -17.008  -8.363  1.00  0.00    -0.545 OA
ENDBRANCH   1   7
BRANCH   2  10
ATOM     10  O   UNL     1      -3.403 -19.291  -5.976  1.00  0.00    -0.507 OA
ATOM     11  H   UNL     1      -3.811 -20.046  -5.436  1.00  0.00     0.293 HD
ENDBRANCH   2  10
TORSDOF 2
ENDMDL
MODEL 7
REMARK VINA RESULT:    -3.598     13.290     14.579
REMARK INTER + INTRA:          -3.999
REMARK INTER:                  -3.747
REMARK INTRA:                  -0.252
REMARK UNBOUND:                -0.085
REMARK SMILES O=C([O-])c1ccccc1O
REMARK SMILES IDX 4 1 9 2 5 3 8 4 6 5 7 6 2 7 1 8 3 9 10 10
REMARK H PARENT 10 11
REMARK Flexibility Score: inf
ROOT
ATOM      1  C   UNL     1      -5.094 -17.441  -7.854  1.00  0.00     0.039 A 
ATOM      2  C   UNL     1      -6.321 -17.769  -8.479  1.00  0.00     0.124 A 
ATOM      3  C   UNL     1      -3.928 -18.127  -8.248  1.00  0.00     0.014 A 
ATOM      4  C   UNL     1      -6.357 -18.761  -9.472  1.00  0.00     0.047 A 
ATOM      5  C   UNL     1      -3.978 -19.111  -9.236  1.00  0.00     0.001 A 
ATOM      6  C   UNL     1      -5.191 -19.428  -9.848  1.00  0.00     0.004 A 
ENDROOT
BRANCH   1   7
ATOM      7  C   UNL     1      -5.010 -16.398  -6.798  1.00  0.00     0.075 C 
ATOM      8  O   UNL     1      -4.044 -15.588  -6.780  1.00  0.00    -0.545 OA
ATOM      9  O   UNL     1      -5.984 -16.293  -5.814  1.00  0.00    -0.545 OA
ENDBRANCH   1   7
BRANCH   2  10
ATOM     10  O   UNL     1      -7.501 -17.117  -8.121  1.00  0.00    -0.507 OA
ATOM     11  H   UNL     1      -8.411 -17.506  -8.340  1.00  0.00     0.293 HD
ENDBRANCH   2  10
TORSDOF 2
ENDMDL
MODEL 8
REMARK VINA RESULT:    -3.503     12.370     13.640
REMARK INTER + INTRA:          -3.896
REMARK INTER:                  -3.658
REMARK INTRA:                  -0.238
REMARK UNBOUND:                -0.085
REMARK SMILES O=C([O-])c1ccccc1O
REMARK SMILES IDX 4 1 9 2 5 3 8 4 6 5 7 6 2 7 1 8 3 9 10 10
REMARK H PARENT 10 11
REMARK Flexibility Score: inf
ROOT
ATOM      1  C   UNL     1      -6.782 -18.316  -9.316  1.00  0.00     0.039 A 
ATOM      2  C   UNL     1      -7.991 -18.318 -10.052  1.00  0.00     0.124 A 
ATOM      3  C   UNL     1      -5.716 -19.124  -9.761  1.00  0.00     0.014 A 
ATOM      4  C   UNL     1      -8.108 -19.114 -11.203  1.00  0.00     0.047 A 
ATOM      5  C   UNL     1      -5.847 -19.911 -10.907  1.00  0.00     0.001 A 
ATOM      6  C   UNL     1      -7.041 -19.906 -11.627  1.00  0.00     0.004 A 
ENDROOT
BRANCH   1   7
ATOM      7  C   UNL     1      -6.614 -17.490  -8.093  1.00  0.00     0.075 C 
ATOM      8  O   UNL     1      -5.487 -17.005  -7.803  1.00  0.00    -0.545 OA
ATOM      9  O   UNL     1      -7.685 -17.234  -7.246  1.00  0.00    -0.545 OA
ENDBRANCH   1   7
BRANCH   2  10
ATOM     10  O   UNL     1      -9.072 -17.535  -9.650  1.00  0.00    -0.507 OA
ATOM     11  H   UNL     1      -9.333 -16.691 -10.148  1.00  0.00     0.293 HD
ENDBRANCH   2  10
TORSDOF 2
ENDMDL
MODEL 9
REMARK VINA RESULT:    -3.448     13.464     14.906
REMARK INTER + INTRA:          -3.835
REMARK INTER:                  -3.584
REMARK INTRA:                  -0.251
REMARK UNBOUND:                -0.085
REMARK SMILES O=C([O-])c1ccccc1O
REMARK SMILES IDX 4 1 9 2 5 3 8 4 6 5 7 6 2 7 1 8 3 9 10 10
REMARK H PARENT 10 11
REMARK Flexibility Score: inf
ROOT
ATOM      1  C   UNL     1      -5.827 -17.650  -7.898  1.00  0.00     0.039 A 
ATOM      2  C   UNL     1      -4.457 -17.461  -7.604  1.00  0.00     0.124 A 
ATOM      3  C   UNL     1      -6.790 -17.116  -7.018  1.00  0.00     0.014 A 
ATOM      4  C   UNL     1      -4.079 -16.751  -6.453  1.00  0.00     0.047 A 
ATOM      5  C   UNL     1      -6.401 -16.412  -5.877  1.00  0.00     0.001 A 
ATOM      6  C   UNL     1      -5.048 -16.230  -5.595  1.00  0.00     0.004 A 
ENDROOT
BRANCH   1   7
ATOM      7  C   UNL     1      -6.272 -18.395  -9.105  1.00  0.00     0.075 C 
ATOM      8  O   UNL     1      -5.765 -19.515  -9.384  1.00  0.00    -0.545 OA
ATOM      9  O   UNL     1      -7.250 -17.880  -9.947  1.00  0.00    -0.545 OA
ENDBRANCH   1   7
BRANCH   2  10
ATOM     10  O   UNL     1      -3.469 -17.971  -8.445  1.00  0.00    -0.507 OA
ATOM     11  H   UNL     1      -2.664 -18.469  -8.081  1.00  0.00     0.293 HD
ENDBRANCH   2  10
TORSDOF 2
ENDMDL
