MODEL 1
REMARK VINA RESULT:    -3.923      0.000      0.000
REMARK INTER + INTRA:          -6.009
REMARK INTER:                  -5.300
REMARK INTRA:                  -0.710
REMARK UNBOUND:                -0.710
REMARK SMILES CCCCCCC=CC(=O)[O-]
REMARK SMILES IDX 5 1 6 2 7 3 8 4 9 5 10 6 11 7 4 8 3 9 2 10 1 11
REMARK H PARENT
REMARK Flexibility Score: inf
ROOT
ATOM      1  C   UNL     1       0.365  -0.971  -7.488  1.00  0.00     0.004 C 
ENDROOT
BRANCH   1   2
ATOM      2  C   UNL     1       1.302  -1.110  -6.277  1.00  0.00     0.027 C 
BRANCH   2   3
ATOM      3  C   UNL     1       2.133  -2.361  -6.339  1.00  0.00    -0.025 C 
ATOM      4  C   UNL     1       1.577  -3.575  -6.257  1.00  0.00     0.020 C 
BRANCH   4   5
ATOM      5  C   UNL     1       2.373  -4.812  -6.308  1.00  0.00     0.064 C 
ATOM      6  O   UNL     1       2.523  -5.533  -5.286  1.00  0.00    -0.545 OA
ATOM      7  O   UNL     1       2.971  -5.189  -7.503  1.00  0.00    -0.545 OA
ENDBRANCH   4   5
ENDBRANCH   2   3
ENDBRANCH   1   2
BRANCH   1   8
ATOM      8  C   UNL     1       1.141  -0.893  -8.813  1.00  0.00     0.000 C 
BRANCH   8   9
ATOM      9  C   UNL     1       0.546  -1.801  -9.901  1.00  0.00    -0.000 C 
BRANCH   9  10
ATOM     10  C   UNL     1      -0.309  -2.937  -9.320  1.00  0.00    -0.003 C 
ATOM     11  C   UNL     1       0.277  -4.300  -9.672  1.00  0.00     0.004 C 
ENDBRANCH   9  10
ENDBRANCH   8   9
ENDBRANCH   1   8
TORSDOF 6
ENDMDL
MODEL 2
REMARK VINA RESULT:    -3.851      3.060      4.230
REMARK INTER + INTRA:          -5.911
REMARK INTER:                  -5.228
REMARK INTRA:                  -0.683
REMARK UNBOUND:                -0.710
REMARK SMILES CCCCCCC=CC(=O)[O-]
REMARK SMILES IDX 5 1 6 2 7 3 8 4 9 5 10 6 11 7 4 8 3 9 2 10 1 11
REMARK H PARENT
REMARK Flexibility Score: inf
ROOT
ATOM      1  C   UNL     1       1.206  -3.352  -5.819  1.00  0.00     0.004 C 
ENDROOT
BRANCH   1   2
ATOM      2  C   UNL     1       1.948  -2.016  -5.979  1.00  0.00     0.027 C 
BRANCH   2   3
ATOM      3  C   UNL     1       1.613  -1.328  -7.273  1.00  0.00    -0.025 C 
ATOM      4  C   UNL     1       0.358  -0.979  -7.576  1.00  0.00     0.020 C 
BRANCH   4   5
ATOM      5  C   UNL     1       0.008  -0.311  -8.841  1.00  0.00     0.064 C 
ATOM      6  O   UNL     1      -0.986  -0.684  -9.520  1.00  0.00    -0.545 OA
ATOM      7  O   UNL     1       0.788   0.744  -9.293  1.00  0.00    -0.545 OA
ENDBRANCH   4   5
ENDBRANCH   2   3
ENDBRANCH   1   2
BRANCH   1   8
ATOM      8  C   UNL     1       2.089  -4.553  -6.198  1.00  0.00     0.000 C 
BRANCH   8   9
ATOM      9  C   UNL     1       2.009  -4.896  -7.693  1.00  0.00    -0.000 C 
BRANCH   9  10
ATOM     10  C   UNL     1       0.570  -5.157  -8.163  1.00  0.00    -0.003 C 
ATOM     11  C   UNL     1       0.182  -4.212  -9.296  1.00  0.00     0.004 C 
ENDBRANCH   9  10
ENDBRANCH   8   9
ENDBRANCH   1   8
TORSDOF 6
ENDMDL
MODEL 3
REMARK VINA RESULT:    -3.847      1.850      3.106
REMARK INTER + INTRA:          -5.906
REMARK INTER:                  -5.208
REMARK INTRA:                  -0.698
REMARK UNBOUND:                -0.710
REMARK SMILES CCCCCCC=CC(=O)[O-]
REMARK SMILES IDX 5 1 6 2 7 3 8 4 9 5 10 6 11 7 4 8 3 9 2 10 1 11
REMARK H PARENT
REMARK Flexibility Score: inf
ROOT
ATOM      1  C   UNL     1       1.208  -3.030  -5.761  1.00  0.00     0.004 C 
ENDROOT
BRANCH   1   2
ATOM      2  C   UNL     1       2.253  -4.128  -6.017  1.00  0.00     0.027 C 
BRANCH   2   3
ATOM      3  C   UNL     1       2.005  -4.864  -7.304  1.00  0.00    -0.025 C 
ATOM      4  C   UNL     1       0.766  -5.107  -7.744  1.00  0.00     0.020 C 
BRANCH   4   5
ATOM      5  C   UNL     1       0.501  -5.831  -8.998  1.00  0.00     0.064 C 
ATOM      6  O   UNL     1      -0.564  -5.646  -9.644  1.00  0.00    -0.545 OA
ATOM      7  O   UNL     1       1.440  -6.736  -9.474  1.00  0.00    -0.545 OA
ENDBRANCH   4   5
ENDBRANCH   2   3
ENDBRANCH   1   2
BRANCH   1   8
ATOM      8  C   UNL     1       1.683  -1.654  -6.256  1.00  0.00     0.000 C 
BRANCH   8   9
ATOM      9  C   UNL     1       0.633  -0.942  -7.122  1.00  0.00    -0.000 C 
BRANCH   9  10
ATOM     10  C   UNL     1       0.806  -1.235  -8.620  1.00  0.00    -0.003 C 
ATOM     11  C   UNL     1      -0.417  -1.952  -9.184  1.00  0.00     0.004 C 
ENDBRANCH   9  10
ENDBRANCH   8   9
ENDBRANCH   1   8
TORSDOF 6
ENDMDL
MODEL 4
REMARK VINA RESULT:    -3.767      2.962      4.978
REMARK INTER + INTRA:          -5.798
REMARK INTER:                  -5.083
REMARK INTRA:                  -0.715
REMARK UNBOUND:                -0.710
REMARK SMILES CCCCCCC=CC(=O)[O-]
REMARK SMILES IDX 5 1 6 2 7 3 8 4 9 5 10 6 11 7 4 8 3 9 2 10 1 11
REMARK H PARENT
REMARK Flexibility Score: inf
ROOT
ATOM      1  C   UNL     1       1.063  -5.183  -8.156  1.00  0.00     0.004 C 
ENDROOT
BRANCH   1   2
ATOM      2  C   UNL     1       0.516  -4.385  -9.350  1.00  0.00     0.027 C 
BRANCH   2   3
ATOM      3  C   UNL     1       0.023  -3.022  -8.950  1.00  0.00    -0.025 C 
ATOM      4  C   UNL     1       0.510  -1.909  -9.510  1.00  0.00     0.020 C 
BRANCH   4   5
ATOM      5  C   UNL     1       0.046  -0.566  -9.127  1.00  0.00     0.064 C 
ATOM      6  O   UNL     1       0.860   0.383  -8.970  1.00  0.00    -0.545 OA
ATOM      7  O   UNL     1      -1.311  -0.341  -8.935  1.00  0.00    -0.545 OA
ENDBRANCH   4   5
ENDBRANCH   2   3
ENDBRANCH   1   2
BRANCH   1   8
ATOM      8  C   UNL     1       0.766  -4.492  -6.815  1.00  0.00     0.000 C 
BRANCH   8   9
ATOM      9  C   UNL     1       2.040  -4.188  -6.011  1.00  0.00    -0.000 C 
BRANCH   9  10
ATOM     10  C   UNL     1       2.712  -2.876  -6.443  1.00  0.00    -0.003 C 
ATOM     11  C   UNL     1       1.872  -1.669  -6.035  1.00  0.00     0.004 C 
ENDBRANCH   9  10
ENDBRANCH   8   9
ENDBRANCH   1   8
TORSDOF 6
ENDMDL
MODEL 5
REMARK VINA RESULT:    -3.733      1.330      2.172
REMARK INTER + INTRA:          -5.752
REMARK INTER:                  -5.040
REMARK INTRA:                  -0.711
REMARK UNBOUND:                -0.710
REMARK SMILES CCCCCCC=CC(=O)[O-]
REMARK SMILES IDX 5 1 6 2 7 3 8 4 9 5 10 6 11 7 4 8 3 9 2 10 1 11
REMARK H PARENT
REMARK Flexibility Score: inf
ROOT
ATOM      1  C   UNL     1       0.163  -1.138  -7.696  1.00  0.00     0.004 C 
ENDROOT
BRANCH   1   2
ATOM      2  C   UNL     1       1.064  -1.057  -6.453  1.00  0.00     0.027 C 
BRANCH   2   3
ATOM      3  C   UNL     1       1.896  -2.295  -6.268  1.00  0.00    -0.025 C 
ATOM      4  C   UNL     1       1.612  -3.432  -6.913  1.00  0.00     0.020 C 
BRANCH   4   5
ATOM      5  C   UNL     1       2.410  -4.657  -6.741  1.00  0.00     0.064 C 
ATOM      6  O   UNL     1       3.043  -5.162  -7.706  1.00  0.00    -0.545 OA
ATOM      7  O   UNL     1       2.463  -5.267  -5.495  1.00  0.00    -0.545 OA
ENDBRANCH   4   5
ENDBRANCH   2   3
ENDBRANCH   1   2
BRANCH   1   8
ATOM      8  C   UNL     1       0.723  -0.318  -8.870  1.00  0.00     0.000 C 
BRANCH   8   9
ATOM      9  C   UNL     1       1.626  -1.150  -9.794  1.00  0.00    -0.000 C 
BRANCH   9  10
ATOM     10  C   UNL     1       3.077  -0.643  -9.813  1.00  0.00    -0.003 C 
ATOM     11  C   UNL     1       4.015  -1.640  -9.140  1.00  0.00     0.004 C 
ENDBRANCH   9  10
ENDBRANCH   8   9
ENDBRANCH   1   8
TORSDOF 6
ENDMDL
MODEL 6
REMARK VINA RESULT:    -3.713      1.583      3.437
REMARK INTER + INTRA:          -5.725
REMARK INTER:                  -5.033
REMARK INTRA:                  -0.692
REMARK UNBOUND:                -0.710
REMARK SMILES CCCCCCC=CC(=O)[O-]
REMARK SMILES IDX 5 1 6 2 7 3 8 4 9 5 10 6 11 7 4 8 3 9 2 10 1 11
REMARK H PARENT
REMARK Flexibility Score: inf
ROOT
ATOM      1  C   UNL     1       0.438  -1.389  -8.093  1.00  0.00     0.004 C 
ENDROOT
BRANCH   1   2
ATOM      2  C   UNL     1      -0.084  -2.271  -9.239  1.00  0.00     0.027 C 
BRANCH   2   3
ATOM      3  C   UNL     1       0.658  -3.575  -9.340  1.00  0.00    -0.025 C 
ATOM      4  C   UNL     1       0.058  -4.743  -9.082  1.00  0.00     0.020 C 
BRANCH   4   5
ATOM      5  C   UNL     1       0.767  -6.030  -9.168  1.00  0.00     0.064 C 
ATOM      6  O   UNL     1       0.137  -7.112  -9.308  1.00  0.00    -0.545 OA
ATOM      7  O   UNL     1       2.153  -6.051  -9.091  1.00  0.00    -0.545 OA
ENDBRANCH   4   5
ENDBRANCH   2   3
ENDBRANCH   1   2
BRANCH   1   8
ATOM      8  C   UNL     1       1.837  -1.822  -7.622  1.00  0.00     0.000 C 
BRANCH   8   9
ATOM      9  C   UNL     1       1.885  -2.130  -6.117  1.00  0.00    -0.000 C 
BRANCH   9  10
ATOM     10  C   UNL     1       1.247  -3.484  -5.771  1.00  0.00    -0.003 C 
ATOM     11  C   UNL     1       2.258  -4.618  -5.908  1.00  0.00     0.004 C 
ENDBRANCH   9  10
ENDBRANCH   8   9
ENDBRANCH   1   8
TORSDOF 6
ENDMDL
MODEL 7
REMARK VINA RESULT:    -3.608      2.982      4.696
REMARK INTER + INTRA:          -5.583
REMARK INTER:                  -5.253
REMARK INTRA:                  -0.330
REMARK UNBOUND:                -0.710
REMARK SMILES CCCCCCC=CC(=O)[O-]
REMARK SMILES IDX 5 1 6 2 7 3 8 4 9 5 10 6 11 7 4 8 3 9 2 10 1 11
REMARK H PARENT
REMARK Flexibility Score: inf
ROOT
ATOM      1  C   UNL     1       1.057  -4.654  -6.866  1.00  0.00     0.004 C 
ENDROOT
BRANCH   1   2
ATOM      2  C   UNL     1       1.391  -4.869  -8.351  1.00  0.00     0.027 C 
BRANCH   2   3
ATOM      3  C   UNL     1       0.640  -6.027  -8.944  1.00  0.00    -0.025 C 
ATOM      4  C   UNL     1      -0.580  -6.365  -8.512  1.00  0.00     0.020 C 
BRANCH   4   5
ATOM      5  C   UNL     1      -1.330  -7.500  -9.075  1.00  0.00     0.064 C 
ATOM      6  O   UNL     1      -2.576  -7.599  -8.919  1.00  0.00    -0.545 OA
ATOM      7  O   UNL     1      -0.651  -8.480  -9.787  1.00  0.00    -0.545 OA
ENDBRANCH   4   5
ENDBRANCH   2   3
ENDBRANCH   1   2
BRANCH   1   8
ATOM      8  C   UNL     1       2.241  -4.056  -6.088  1.00  0.00     0.000 C 
BRANCH   8   9
ATOM      9  C   UNL     1       2.642  -2.663  -6.600  1.00  0.00    -0.000 C 
BRANCH   9  10
ATOM     10  C   UNL     1       1.729  -1.551  -6.060  1.00  0.00    -0.003 C 
ATOM     11  C   UNL     1       0.756  -1.071  -7.133  1.00  0.00     0.004 C 
ENDBRANCH   9  10
ENDBRANCH   8   9
ENDBRANCH   1   8
TORSDOF 6
ENDMDL
MODEL 8
REMARK VINA RESULT:    -3.566     15.707     17.507
REMARK INTER + INTRA:          -5.526
REMARK INTER:                  -5.141
REMARK INTRA:                  -0.385
REMARK UNBOUND:                -0.710
REMARK SMILES CCCCCCC=CC(=O)[O-]
REMARK SMILES IDX 5 1 6 2 7 3 8 4 9 5 10 6 11 7 4 8 3 9 2 10 1 11
REMARK H PARENT
REMARK Flexibility Score: inf
ROOT
ATOM      1  C   UNL     1       7.539   3.029   5.534  1.00  0.00     0.004 C 
ENDROOT
BRANCH   1   2
ATOM      2  C   UNL     1       8.610   2.689   4.485  1.00  0.00     0.027 C 
BRANCH   2   3
ATOM      3  C   UNL     1       9.309   3.913   3.965  1.00  0.00    -0.025 C 
ATOM      4  C   UNL     1       9.030   5.133   4.439  1.00  0.00     0.020 C 
BRANCH   4   5
ATOM      5  C   UNL     1       9.698   6.345   3.938  1.00  0.00     0.064 C 
ATOM      6  O   UNL     1      10.124   7.228   4.730  1.00  0.00    -0.545 OA
ATOM      7  O   UNL     1       9.859   6.520   2.570  1.00  0.00    -0.545 OA
ENDBRANCH   4   5
ENDBRANCH   2   3
ENDBRANCH   1   2
BRANCH   1   8
ATOM      8  C   UNL     1       7.855   2.407   6.905  1.00  0.00     0.000 C 
BRANCH   8   9
ATOM      9  C   UNL     1       9.216   2.857   7.458  1.00  0.00    -0.000 C 
BRANCH   9  10
ATOM     10  C   UNL     1       9.485   2.319   8.872  1.00  0.00    -0.003 C 
ATOM     11  C   UNL     1       8.281   1.548   9.404  1.00  0.00     0.004 C 
ENDBRANCH   9  10
ENDBRANCH   8   9
ENDBRANCH   1   8
TORSDOF 6
ENDMDL
MODEL 9
REMARK VINA RESULT:    -3.509     15.777     16.992
REMARK INTER + INTRA:          -5.450
REMARK INTER:                  -5.155
REMARK INTRA:                  -0.294
REMARK UNBOUND:                -0.710
REMARK SMILES CCCCCCC=CC(=O)[O-]
REMARK SMILES IDX 5 1 6 2 7 3 8 4 9 5 10 6 11 7 4 8 3 9 2 10 1 11
REMARK H PARENT
REMARK Flexibility Score: inf
ROOT
ATOM      1  C   UNL     1       9.976   7.457   4.300  1.00  0.00     0.004 C 
ENDROOT
BRANCH   1   2
ATOM      2  C   UNL     1       9.746   6.042   3.744  1.00  0.00     0.027 C 
BRANCH   2   3
ATOM      3  C   UNL     1       9.106   5.129   4.751  1.00  0.00    -0.025 C 
ATOM      4  C   UNL     1       8.630   3.928   4.403  1.00  0.00     0.020 C 
BRANCH   4   5
ATOM      5  C   UNL     1       7.993   3.021   5.373  1.00  0.00     0.064 C 
ATOM      6  O   UNL     1       6.741   2.989   5.509  1.00  0.00    -0.545 OA
ATOM      7  O   UNL     1       8.787   2.189   6.151  1.00  0.00    -0.545 OA
ENDBRANCH   4   5
ENDBRANCH   2   3
ENDBRANCH   1   2
BRANCH   1   8
ATOM      8  C   UNL     1       8.657   8.221   4.499  1.00  0.00     0.000 C 
BRANCH   8   9
ATOM      9  C   UNL     1       8.776   9.710   4.140  1.00  0.00    -0.000 C 
BRANCH   9  10
ATOM     10  C   UNL     1       7.816  10.125   3.014  1.00  0.00    -0.003 C 
ATOM     11  C   UNL     1       8.353   9.700   1.651  1.00  0.00     0.004 C 
ENDBRANCH   9  10
ENDBRANCH   8   9
ENDBRANCH   1   8
TORSDOF 6
ENDMDL
