MODEL 1
REMARK VINA RESULT:    -4.722      0.000      0.000
REMARK INTER + INTRA:          -4.860
REMARK INTER:                  -4.860
REMARK INTRA:                   0.000
REMARK UNBOUND:                 0.000
REMARK SMILES Cc1cccc(O)c1C
REMARK SMILES IDX 1 1 2 2 8 3 6 4 5 5 4 6 3 7 9 8 7 9
REMARK H PARENT 7 10
REMARK Flexibility Score: inf
ROOT
ATOM      1  C   UNL     1      20.709  29.076 -12.758  1.00  0.00     0.045 C 
ATOM      2  C   UNL     1      19.502  28.312 -13.238  1.00  0.00    -0.045 A 
ATOM      3  C   UNL     1      18.771  27.440 -12.383  1.00  0.00    -0.006 A 
ATOM      4  C   UNL     1      17.644  26.753 -12.902  1.00  0.00     0.118 A 
ATOM      5  C   UNL     1      17.265  26.936 -14.235  1.00  0.00     0.046 A 
ATOM      6  C   UNL     1      17.984  27.791 -15.065  1.00  0.00     0.004 A 
ATOM      7  C   UNL     1      19.093  28.474 -14.573  1.00  0.00     0.004 A 
ATOM      8  C   UNL     1      19.163  27.228 -10.939  1.00  0.00     0.048 C 
ENDROOT
BRANCH   4   9
ATOM      9  O   UNL     1      16.879  25.882 -12.122  1.00  0.00    -0.508 OA
ATOM     10  H   UNL     1      17.108  25.643 -11.166  1.00  0.00     0.293 HD
ENDBRANCH   4   9
TORSDOF 1
ENDMDL
MODEL 2
REMARK VINA RESULT:    -4.551     15.710     17.569
REMARK INTER + INTRA:          -4.684
REMARK INTER:                  -4.684
REMARK INTRA:                   0.000
REMARK UNBOUND:                 0.000
REMARK SMILES Cc1cccc(O)c1C
REMARK SMILES IDX 1 1 2 2 8 3 6 4 5 5 4 6 3 7 9 8 7 9
REMARK H PARENT 7 10
REMARK Flexibility Score: inf
ROOT
ATOM      1  C   UNL     1      33.327  29.806 -12.494  1.00  0.00     0.045 C 
ATOM      2  C   UNL     1      34.506  30.625 -12.954  1.00  0.00    -0.045 A 
ATOM      3  C   UNL     1      35.250  31.445 -12.060  1.00  0.00    -0.006 A 
ATOM      4  C   UNL     1      36.349  32.189 -12.562  1.00  0.00     0.118 A 
ATOM      5  C   UNL     1      36.688  32.111 -13.915  1.00  0.00     0.046 A 
ATOM      6  C   UNL     1      35.956  31.306 -14.784  1.00  0.00     0.004 A 
ATOM      7  C   UNL     1      34.874  30.569 -14.310  1.00  0.00     0.004 A 
ATOM      8  C   UNL     1      34.902  31.544 -10.593  1.00  0.00     0.048 C 
ENDROOT
BRANCH   4   9
ATOM      9  O   UNL     1      37.125  33.015 -11.744  1.00  0.00    -0.508 OA
ATOM     10  H   UNL     1      36.739  33.761 -11.180  1.00  0.00     0.293 HD
ENDBRANCH   4   9
TORSDOF 1
ENDMDL
MODEL 3
REMARK VINA RESULT:    -4.518      1.245      2.365
REMARK INTER + INTRA:          -4.650
REMARK INTER:                  -4.650
REMARK INTRA:                   0.000
REMARK UNBOUND:                 0.000
REMARK SMILES Cc1cccc(O)c1C
REMARK SMILES IDX 1 1 2 2 8 3 6 4 5 5 4 6 3 7 9 8 7 9
REMARK H PARENT 7 10
REMARK Flexibility Score: inf
ROOT
ATOM      1  C   UNL     1      19.162  28.458 -15.698  1.00  0.00     0.045 C 
ATOM      2  C   UNL     1      18.621  27.803 -14.453  1.00  0.00    -0.045 A 
ATOM      3  C   UNL     1      19.259  27.942 -13.189  1.00  0.00    -0.006 A 
ATOM      4  C   UNL     1      18.694  27.298 -12.059  1.00  0.00     0.118 A 
ATOM      5  C   UNL     1      17.528  26.540 -12.194  1.00  0.00     0.046 A 
ATOM      6  C   UNL     1      16.909  26.409 -13.433  1.00  0.00     0.004 A 
ATOM      7  C   UNL     1      17.449  27.033 -14.555  1.00  0.00     0.004 A 
ATOM      8  C   UNL     1      20.521  28.757 -13.019  1.00  0.00     0.048 C 
ENDROOT
BRANCH   4   9
ATOM      9  O   UNL     1      19.266  27.389 -10.786  1.00  0.00    -0.508 OA
ATOM     10  H   UNL     1      19.346  28.258 -10.273  1.00  0.00     0.293 HD
ENDBRANCH   4   9
TORSDOF 1
ENDMDL
MODEL 4
REMARK VINA RESULT:    -4.481      2.882      3.655
REMARK INTER + INTRA:          -4.612
REMARK INTER:                  -4.612
REMARK INTRA:                   0.000
REMARK UNBOUND:                 0.000
REMARK SMILES Cc1cccc(O)c1C
REMARK SMILES IDX 1 1 2 2 8 3 6 4 5 5 4 6 3 7 9 8 7 9
REMARK H PARENT 7 10
REMARK Flexibility Score: inf
ROOT
ATOM      1  C   UNL     1      20.341  29.272 -12.395  1.00  0.00     0.045 C 
ATOM      2  C   UNL     1      20.261  28.504 -13.690  1.00  0.00    -0.045 A 
ATOM      3  C   UNL     1      21.423  28.148 -14.429  1.00  0.00    -0.006 A 
ATOM      4  C   UNL     1      21.273  27.425 -15.640  1.00  0.00     0.118 A 
ATOM      5  C   UNL     1      19.999  27.072 -16.092  1.00  0.00     0.046 A 
ATOM      6  C   UNL     1      18.866  27.423 -15.363  1.00  0.00     0.004 A 
ATOM      7  C   UNL     1      18.994  28.134 -14.173  1.00  0.00     0.004 A 
ATOM      8  C   UNL     1      22.811  28.518 -13.959  1.00  0.00     0.048 C 
ENDROOT
BRANCH   4   9
ATOM      9  O   UNL     1      22.368  27.040 -16.419  1.00  0.00    -0.508 OA
ATOM     10  H   UNL     1      22.337  26.283 -17.089  1.00  0.00     0.293 HD
ENDBRANCH   4   9
TORSDOF 1
ENDMDL
MODEL 5
REMARK VINA RESULT:    -4.441     13.006     14.692
REMARK INTER + INTRA:          -4.571
REMARK INTER:                  -4.571
REMARK INTRA:                   0.000
REMARK UNBOUND:                 0.000
REMARK SMILES Cc1cccc(O)c1C
REMARK SMILES IDX 1 1 2 2 8 3 6 4 5 5 4 6 3 7 9 8 7 9
REMARK H PARENT 7 10
REMARK Flexibility Score: inf
ROOT
ATOM      1  C   UNL     1      31.294  30.704 -16.182  1.00  0.00     0.045 C 
ATOM      2  C   UNL     1      31.509  31.430 -17.485  1.00  0.00    -0.045 A 
ATOM      3  C   UNL     1      30.425  31.915 -18.268  1.00  0.00    -0.006 A 
ATOM      4  C   UNL     1      30.702  32.589 -19.484  1.00  0.00     0.118 A 
ATOM      5  C   UNL     1      32.024  32.770 -19.900  1.00  0.00     0.046 A 
ATOM      6  C   UNL     1      33.080  32.294 -19.129  1.00  0.00     0.004 A 
ATOM      7  C   UNL     1      32.828  31.629 -17.932  1.00  0.00     0.004 A 
ATOM      8  C   UNL     1      28.987  31.732 -17.838  1.00  0.00     0.048 C 
ENDROOT
BRANCH   4   9
ATOM      9  O   UNL     1      29.688  33.093 -20.305  1.00  0.00    -0.508 OA
ATOM     10  H   UNL     1      29.189  33.951 -20.111  1.00  0.00     0.293 HD
ENDBRANCH   4   9
TORSDOF 1
ENDMDL
MODEL 6
REMARK VINA RESULT:    -4.408     17.549     19.050
REMARK INTER + INTRA:          -4.537
REMARK INTER:                  -4.537
REMARK INTRA:                   0.000
REMARK UNBOUND:                 0.000
REMARK SMILES Cc1cccc(O)c1C
REMARK SMILES IDX 1 1 2 2 8 3 6 4 5 5 4 6 3 7 9 8 7 9
REMARK H PARENT 7 10
REMARK Flexibility Score: inf
ROOT
ATOM      1  C   UNL     1      29.376  39.546 -24.462  1.00  0.00     0.045 C 
ATOM      2  C   UNL     1      30.431  38.727 -23.762  1.00  0.00    -0.045 A 
ATOM      3  C   UNL     1      30.195  38.109 -22.502  1.00  0.00    -0.006 A 
ATOM      4  C   UNL     1      31.234  37.353 -21.902  1.00  0.00     0.118 A 
ATOM      5  C   UNL     1      32.467  37.222 -22.546  1.00  0.00     0.046 A 
ATOM      6  C   UNL     1      32.691  37.828 -23.778  1.00  0.00     0.004 A 
ATOM      7  C   UNL     1      31.683  38.576 -24.383  1.00  0.00     0.004 A 
ATOM      8  C   UNL     1      28.869  38.237 -21.788  1.00  0.00     0.048 C 
ENDROOT
BRANCH   4   9
ATOM      9  O   UNL     1      31.075  36.718 -20.667  1.00  0.00    -0.508 OA
ATOM     10  H   UNL     1      30.284  36.128 -20.441  1.00  0.00     0.293 HD
ENDBRANCH   4   9
TORSDOF 1
ENDMDL
MODEL 7
REMARK VINA RESULT:    -4.387     17.493     18.816
REMARK INTER + INTRA:          -4.515
REMARK INTER:                  -4.515
REMARK INTRA:                   0.000
REMARK UNBOUND:                 0.000
REMARK SMILES Cc1cccc(O)c1C
REMARK SMILES IDX 1 1 2 2 8 3 6 4 5 5 4 6 3 7 9 8 7 9
REMARK H PARENT 7 10
REMARK Flexibility Score: inf
ROOT
ATOM      1  C   UNL     1      31.580  38.086 -25.498  1.00  0.00     0.045 C 
ATOM      2  C   UNL     1      30.830  38.065 -24.190  1.00  0.00    -0.045 A 
ATOM      3  C   UNL     1      31.364  37.449 -23.024  1.00  0.00    -0.006 A 
ATOM      4  C   UNL     1      30.603  37.467 -21.828  1.00  0.00     0.118 A 
ATOM      5  C   UNL     1      29.348  38.083 -21.804  1.00  0.00     0.046 A 
ATOM      6  C   UNL     1      28.833  38.684 -22.948  1.00  0.00     0.004 A 
ATOM      7  C   UNL     1      29.565  38.676 -24.133  1.00  0.00     0.004 A 
ATOM      8  C   UNL     1      32.718  36.777 -23.026  1.00  0.00     0.048 C 
ENDROOT
BRANCH   4   9
ATOM      9  O   UNL     1      31.062  36.882 -20.644  1.00  0.00    -0.508 OA
ATOM     10  H   UNL     1      31.960  37.094 -20.230  1.00  0.00     0.293 HD
ENDBRANCH   4   9
TORSDOF 1
ENDMDL
MODEL 8
REMARK VINA RESULT:    -4.368     12.922     14.599
REMARK INTER + INTRA:          -4.496
REMARK INTER:                  -4.496
REMARK INTRA:                   0.000
REMARK UNBOUND:                 0.000
REMARK SMILES Cc1cccc(O)c1C
REMARK SMILES IDX 1 1 2 2 8 3 6 4 5 5 4 6 3 7 9 8 7 9
REMARK H PARENT 7 10
REMARK Flexibility Score: inf
ROOT
ATOM      1  C   UNL     1      33.328  31.426 -17.479  1.00  0.00     0.045 C 
ATOM      2  C   UNL     1      31.897  31.730 -17.841  1.00  0.00    -0.045 A 
ATOM      3  C   UNL     1      31.547  32.371 -19.062  1.00  0.00    -0.006 A 
ATOM      4  C   UNL     1      30.179  32.626 -19.338  1.00  0.00     0.118 A 
ATOM      5  C   UNL     1      29.197  32.250 -18.418  1.00  0.00     0.046 A 
ATOM      6  C   UNL     1      29.547  31.623 -17.225  1.00  0.00     0.004 A 
ATOM      7  C   UNL     1      30.884  31.365 -16.937  1.00  0.00     0.004 A 
ATOM      8  C   UNL     1      32.592  32.786 -20.073  1.00  0.00     0.048 C 
ENDROOT
BRANCH   4   9
ATOM      9  O   UNL     1      29.761  33.251 -20.516  1.00  0.00    -0.508 OA
ATOM     10  H   UNL     1      29.646  32.763 -21.395  1.00  0.00     0.293 HD
ENDBRANCH   4   9
TORSDOF 1
ENDMDL
MODEL 9
REMARK VINA RESULT:    -4.353     12.083     13.324
REMARK INTER + INTRA:          -4.480
REMARK INTER:                  -4.480
REMARK INTRA:                   0.000
REMARK UNBOUND:                 0.000
REMARK SMILES Cc1cccc(O)c1C
REMARK SMILES IDX 1 1 2 2 8 3 6 4 5 5 4 6 3 7 9 8 7 9
REMARK H PARENT 7 10
REMARK Flexibility Score: inf
ROOT
ATOM      1  C   UNL     1      22.397  23.941 -27.164  1.00  0.00     0.045 C 
ATOM      2  C   UNL     1      23.096  23.645 -25.861  1.00  0.00    -0.045 A 
ATOM      3  C   UNL     1      22.494  23.920 -24.602  1.00  0.00    -0.006 A 
ATOM      4  C   UNL     1      23.210  23.616 -23.416  1.00  0.00     0.118 A 
ATOM      5  C   UNL     1      24.488  23.055 -23.493  1.00  0.00     0.046 A 
ATOM      6  C   UNL     1      25.071  22.789 -24.728  1.00  0.00     0.004 A 
ATOM      7  C   UNL     1      24.383  23.081 -25.904  1.00  0.00     0.004 A 
ATOM      8  C   UNL     1      21.113  24.525 -24.494  1.00  0.00     0.048 C 
ENDROOT
BRANCH   4   9
ATOM      9  O   UNL     1      22.682  23.858 -22.144  1.00  0.00    -0.508 OA
ATOM     10  H   UNL     1      22.778  24.741 -21.660  1.00  0.00     0.293 HD
ENDBRANCH   4   9
TORSDOF 1
ENDMDL
