MODEL 1
REMARK VINA RESULT:    -2.389      0.000      0.000
REMARK INTER + INTRA:          -2.389
REMARK INTER:                  -2.389
REMARK INTRA:                   0.000
REMARK UNBOUND:                 0.000
REMARK SMILES CC(=O)[O-]
REMARK SMILES IDX 1 1 2 2 3 3 4 4
REMARK H PARENT
REMARK Flexibility Score: inf
ROOT
ATOM      1  C   UNL     1      43.300 -28.345  36.007  1.00  0.00     0.063 C 
ATOM      2  C   UNL     1      44.024 -29.158  37.025  1.00  0.00     0.038 C 
ATOM      3  O   UNL     1      44.126 -30.405  36.882  1.00  0.00    -0.550 OA
ATOM      4  O   UNL     1      44.543 -28.550  38.161  1.00  0.00    -0.550 OA
ENDROOT
TORSDOF 0
ENDMDL
MODEL 2
REMARK VINA RESULT:    -2.294      1.426      1.787
REMARK INTER + INTRA:          -2.294
REMARK INTER:                  -2.294
REMARK INTRA:                   0.000
REMARK UNBOUND:                 0.000
REMARK SMILES CC(=O)[O-]
REMARK SMILES IDX 1 1 2 2 3 3 4 4
REMARK H PARENT
REMARK Flexibility Score: inf
ROOT
ATOM      1  C   UNL     1      44.385 -28.766  38.369  1.00  0.00     0.063 C 
ATOM      2  C   UNL     1      43.788 -29.276  37.101  1.00  0.00     0.038 C 
ATOM      3  O   UNL     1      43.929 -30.483  36.776  1.00  0.00    -0.550 OA
ATOM      4  O   UNL     1      43.119 -28.406  36.249  1.00  0.00    -0.550 OA
ENDROOT
TORSDOF 0
ENDMDL
MODEL 3
REMARK VINA RESULT:    -2.241      1.628      2.046
REMARK INTER + INTRA:          -2.241
REMARK INTER:                  -2.241
REMARK INTRA:                   0.000
REMARK UNBOUND:                 0.000
REMARK SMILES CC(=O)[O-]
REMARK SMILES IDX 1 1 2 2 3 3 4 4
REMARK H PARENT
REMARK Flexibility Score: inf
ROOT
ATOM      1  C   UNL     1      42.838 -30.348  36.989  1.00  0.00     0.063 C 
ATOM      2  C   UNL     1      43.469 -28.999  36.928  1.00  0.00     0.038 C 
ATOM      3  O   UNL     1      44.302 -28.650  37.806  1.00  0.00    -0.550 OA
ATOM      4  O   UNL     1      43.101 -28.103  35.933  1.00  0.00    -0.550 OA
ENDROOT
TORSDOF 0
ENDMDL
MODEL 4
REMARK VINA RESULT:    -2.108      1.621      2.266
REMARK INTER + INTRA:          -2.108
REMARK INTER:                  -2.108
REMARK INTRA:                   0.000
REMARK UNBOUND:                 0.000
REMARK SMILES CC(=O)[O-]
REMARK SMILES IDX 1 1 2 2 3 3 4 4
REMARK H PARENT
REMARK Flexibility Score: inf
ROOT
ATOM      1  C   UNL     1      43.260 -28.809  36.492  1.00  0.00     0.063 C 
ATOM      2  C   UNL     1      42.819 -30.031  37.225  1.00  0.00     0.038 C 
ATOM      3  O   UNL     1      42.328 -29.933  38.380  1.00  0.00    -0.550 OA
ATOM      4  O   UNL     1      42.998 -31.286  36.656  1.00  0.00    -0.550 OA
ENDROOT
TORSDOF 0
ENDMDL
MODEL 5
REMARK VINA RESULT:    -2.071      1.926      2.023
REMARK INTER + INTRA:          -2.071
REMARK INTER:                  -2.071
REMARK INTRA:                   0.000
REMARK UNBOUND:                 0.000
REMARK SMILES CC(=O)[O-]
REMARK SMILES IDX 1 1 2 2 3 3 4 4
REMARK H PARENT
REMARK Flexibility Score: inf
ROOT
ATOM      1  C   UNL     1      44.728 -28.229  34.303  1.00  0.00     0.063 C 
ATOM      2  C   UNL     1      44.052 -28.651  35.563  1.00  0.00     0.038 C 
ATOM      3  O   UNL     1      44.511 -29.612  36.236  1.00  0.00    -0.550 OA
ATOM      4  O   UNL     1      42.884 -28.020  35.971  1.00  0.00    -0.550 OA
ENDROOT
TORSDOF 0
ENDMDL
MODEL 6
REMARK VINA RESULT:    -2.068      3.040      3.497
REMARK INTER + INTRA:          -2.068
REMARK INTER:                  -2.068
REMARK INTRA:                   0.000
REMARK UNBOUND:                 0.000
REMARK SMILES CC(=O)[O-]
REMARK SMILES IDX 1 1 2 2 3 3 4 4
REMARK H PARENT
REMARK Flexibility Score: inf
ROOT
ATOM      1  C   UNL     1      43.736 -28.381  35.571  1.00  0.00     0.063 C 
ATOM      2  C   UNL     1      44.746 -27.942  34.566  1.00  0.00     0.038 C 
ATOM      3  O   UNL     1      45.806 -27.375  34.941  1.00  0.00    -0.550 OA
ATOM      4  O   UNL     1      44.497 -28.109  33.210  1.00  0.00    -0.550 OA
ENDROOT
TORSDOF 0
ENDMDL
MODEL 7
REMARK VINA RESULT:    -2.061      2.355      2.829
REMARK INTER + INTRA:          -2.061
REMARK INTER:                  -2.061
REMARK INTRA:                   0.000
REMARK UNBOUND:                 0.000
REMARK SMILES CC(=O)[O-]
REMARK SMILES IDX 1 1 2 2 3 3 4 4
REMARK H PARENT
REMARK Flexibility Score: inf
ROOT
ATOM      1  C   UNL     1      42.753 -32.388  36.659  1.00  0.00     0.063 C 
ATOM      2  C   UNL     1      42.844 -30.918  36.896  1.00  0.00     0.038 C 
ATOM      3  O   UNL     1      41.800 -30.244  37.092  1.00  0.00    -0.550 OA
ATOM      4  O   UNL     1      44.077 -30.281  36.847  1.00  0.00    -0.550 OA
ENDROOT
TORSDOF 0
ENDMDL
MODEL 8
REMARK VINA RESULT:    -2.012      3.212      3.488
REMARK INTER + INTRA:          -2.012
REMARK INTER:                  -2.012
REMARK INTRA:                   0.000
REMARK UNBOUND:                 0.000
REMARK SMILES CC(=O)[O-]
REMARK SMILES IDX 1 1 2 2 3 3 4 4
REMARK H PARENT
REMARK Flexibility Score: inf
ROOT
ATOM      1  C   UNL     1      45.869 -27.250  34.752  1.00  0.00     0.063 C 
ATOM      2  C   UNL     1      44.676 -27.998  34.261  1.00  0.00     0.038 C 
ATOM      3  O   UNL     1      44.454 -28.093  33.026  1.00  0.00    -0.550 OA
ATOM      4  O   UNL     1      43.778 -28.547  35.168  1.00  0.00    -0.550 OA
ENDROOT
TORSDOF 0
ENDMDL
MODEL 9
REMARK VINA RESULT:    -1.949      3.400      3.816
REMARK INTER + INTRA:          -1.949
REMARK INTER:                  -1.949
REMARK INTRA:                   0.000
REMARK UNBOUND:                 0.000
REMARK SMILES CC(=O)[O-]
REMARK SMILES IDX 1 1 2 2 3 3 4 4
REMARK H PARENT
REMARK Flexibility Score: inf
ROOT
ATOM      1  C   UNL     1      41.056 -31.968  38.896  1.00  0.00     0.063 C 
ATOM      2  C   UNL     1      41.731 -31.635  37.609  1.00  0.00     0.038 C 
ATOM      3  O   UNL     1      42.398 -32.511  37.000  1.00  0.00    -0.550 OA
ATOM      4  O   UNL     1      41.671 -30.341  37.106  1.00  0.00    -0.550 OA
ENDROOT
TORSDOF 0
ENDMDL
