MODEL 1
REMARK VINA RESULT:    -1.817      0.000      0.000
REMARK INTER + INTRA:          -2.191
REMARK INTER:                  -2.188
REMARK INTRA:                  -0.002
REMARK UNBOUND:                -0.002
REMARK SMILES OCC(O)CO
REMARK SMILES IDX 3 1 5 2 6 3 2 5 1 6 4 8
REMARK H PARENT 6 4 1 7 4 9
REMARK Flexibility Score: inf
ROOT
ATOM      1  C   UNL     1      -2.552  -4.686 -11.026  1.00  0.00     0.165 C 
ENDROOT
BRANCH   1   2
ATOM      2  C   UNL     1      -1.884  -3.305 -11.035  1.00  0.00     0.190 C 
BRANCH   2   3
ATOM      3  O   UNL     1      -1.585  -2.904  -9.726  1.00  0.00    -0.394 OA
ATOM      4  H   UNL     1      -1.876  -1.957  -9.655  1.00  0.00     0.210 HD
ENDBRANCH   2   3
ENDBRANCH   1   2
BRANCH   1   5
ATOM      5  C   UNL     1      -2.020  -5.566 -12.167  1.00  0.00     0.190 C 
BRANCH   5   6
ATOM      6  O   UNL     1      -2.246  -6.921 -11.885  1.00  0.00    -0.394 OA
ATOM      7  H   UNL     1      -2.862  -7.260 -12.585  1.00  0.00     0.210 HD
ENDBRANCH   5   6
ENDBRANCH   1   5
BRANCH   1   8
ATOM      8  O   UNL     1      -2.300  -5.321  -9.799  1.00  0.00    -0.388 OA
ATOM      9  H   UNL     1      -2.294  -4.613  -9.104  1.00  0.00     0.211 HD
ENDBRANCH   1   8
TORSDOF 5
ENDMDL
MODEL 2
REMARK VINA RESULT:    -1.568      6.306      7.656
REMARK INTER + INTRA:          -1.891
REMARK INTER:                  -1.861
REMARK INTRA:                  -0.030
REMARK UNBOUND:                -0.002
REMARK SMILES OCC(O)CO
REMARK SMILES IDX 3 1 5 2 6 3 2 5 1 6 4 8
REMARK H PARENT 6 4 1 7 4 9
REMARK Flexibility Score: inf
ROOT
ATOM      1  C   UNL     1       1.154   0.093  -6.920  1.00  0.00     0.165 C 
ENDROOT
BRANCH   1   2
ATOM      2  C   UNL     1       1.622   0.181  -8.380  1.00  0.00     0.190 C 
BRANCH   2   3
ATOM      3  O   UNL     1       0.981  -0.796  -9.152  1.00  0.00    -0.394 OA
ATOM      4  H   UNL     1       0.463  -0.306  -9.842  1.00  0.00     0.210 HD
ENDBRANCH   2   3
ENDBRANCH   1   2
BRANCH   1   5
ATOM      5  C   UNL     1       2.348  -0.046  -5.964  1.00  0.00     0.190 C 
BRANCH   5   6
ATOM      6  O   UNL     1       3.545  -0.145  -6.687  1.00  0.00    -0.394 OA
ATOM      7  H   UNL     1       3.710   0.746  -7.091  1.00  0.00     0.210 HD
ENDBRANCH   5   6
ENDBRANCH   1   5
BRANCH   1   8
ATOM      8  O   UNL     1       0.431   1.250  -6.589  1.00  0.00    -0.388 OA
ATOM      9  H   UNL     1      -0.265   1.365  -7.288  1.00  0.00     0.211 HD
ENDBRANCH   1   8
TORSDOF 5
ENDMDL
MODEL 3
REMARK VINA RESULT:    -1.565      1.282      3.182
REMARK INTER + INTRA:          -1.887
REMARK INTER:                  -1.870
REMARK INTRA:                  -0.017
REMARK UNBOUND:                -0.002
REMARK SMILES OCC(O)CO
REMARK SMILES IDX 3 1 5 2 6 3 2 5 1 6 4 8
REMARK H PARENT 6 4 1 7 4 9
REMARK Flexibility Score: inf
ROOT
ATOM      1  C   UNL     1      -2.372  -4.594 -11.907  1.00  0.00     0.165 C 
ENDROOT
BRANCH   1   2
ATOM      2  C   UNL     1      -2.515  -5.905 -11.121  1.00  0.00     0.190 C 
BRANCH   2   3
ATOM      3  O   UNL     1      -2.138  -6.991 -11.921  1.00  0.00    -0.394 OA
ATOM      4  H   UNL     1      -2.411  -6.759 -12.847  1.00  0.00     0.210 HD
ENDBRANCH   2   3
ENDBRANCH   1   2
BRANCH   1   5
ATOM      5  C   UNL     1      -2.001  -3.429 -10.977  1.00  0.00     0.190 C 
BRANCH   5   6
ATOM      6  O   UNL     1      -1.770  -3.896  -9.676  1.00  0.00    -0.394 OA
ATOM      7  H   UNL     1      -2.605  -3.738  -9.163  1.00  0.00     0.210 HD
ENDBRANCH   5   6
ENDBRANCH   1   5
BRANCH   1   8
ATOM      8  O   UNL     1      -1.374  -4.739 -12.884  1.00  0.00    -0.388 OA
ATOM      9  H   UNL     1      -0.909  -3.865 -12.954  1.00  0.00     0.211 HD
ENDBRANCH   1   8
TORSDOF 5
ENDMDL
MODEL 4
REMARK VINA RESULT:    -1.240      1.311      3.249
REMARK INTER + INTRA:          -1.496
REMARK INTER:                  -1.493
REMARK INTRA:                  -0.003
REMARK UNBOUND:                -0.002
REMARK SMILES OCC(O)CO
REMARK SMILES IDX 3 1 5 2 6 3 2 5 1 6 4 8
REMARK H PARENT 6 4 1 7 4 9
REMARK Flexibility Score: inf
ROOT
ATOM      1  C   UNL     1      -2.558  -4.856 -11.554  1.00  0.00     0.165 C 
ENDROOT
BRANCH   1   2
ATOM      2  C   UNL     1      -1.868  -6.114 -12.099  1.00  0.00     0.190 C 
BRANCH   2   3
ATOM      3  O   UNL     1      -2.312  -7.247 -11.406  1.00  0.00    -0.394 OA
ATOM      4  H   UNL     1      -1.575  -7.909 -11.459  1.00  0.00     0.210 HD
ENDBRANCH   2   3
ENDBRANCH   1   2
BRANCH   1   5
ATOM      5  C   UNL     1      -1.528  -3.827 -11.065  1.00  0.00     0.190 C 
BRANCH   5   6
ATOM      6  O   UNL     1      -1.917  -3.296  -9.828  1.00  0.00    -0.394 OA
ATOM      7  H   UNL     1      -1.514  -2.391  -9.764  1.00  0.00     0.210 HD
ENDBRANCH   5   6
ENDBRANCH   1   5
BRANCH   1   8
ATOM      8  O   UNL     1      -3.344  -4.277 -12.563  1.00  0.00    -0.388 OA
ATOM      9  H   UNL     1      -3.058  -4.686 -13.421  1.00  0.00     0.211 HD
ENDBRANCH   1   8
TORSDOF 5
ENDMDL
MODEL 5
REMARK VINA RESULT:    -1.237      6.895      7.655
REMARK INTER + INTRA:          -1.492
REMARK INTER:                  -1.312
REMARK INTRA:                  -0.180
REMARK UNBOUND:                -0.002
REMARK SMILES OCC(O)CO
REMARK SMILES IDX 3 1 5 2 6 3 2 5 1 6 4 8
REMARK H PARENT 6 4 1 7 4 9
REMARK Flexibility Score: inf
ROOT
ATOM      1  C   UNL     1       1.320   0.753  -6.920  1.00  0.00     0.165 C 
ENDROOT
BRANCH   1   2
ATOM      2  C   UNL     1       2.038  -0.087  -5.854  1.00  0.00     0.190 C 
BRANCH   2   3
ATOM      3  O   UNL     1       3.366  -0.320  -6.236  1.00  0.00    -0.394 OA
ATOM      4  H   UNL     1       3.882   0.471  -5.930  1.00  0.00     0.210 HD
ENDBRANCH   2   3
ENDBRANCH   1   2
BRANCH   1   5
ATOM      5  C   UNL     1       1.177  -0.026  -8.236  1.00  0.00     0.190 C 
BRANCH   5   6
ATOM      6  O   UNL     1       2.215   0.308  -9.116  1.00  0.00    -0.394 OA
ATOM      7  H   UNL     1       2.909  -0.395  -9.022  1.00  0.00     0.210 HD
ENDBRANCH   5   6
ENDBRANCH   1   5
BRANCH   1   8
ATOM      8  O   UNL     1       0.044   1.109  -6.455  1.00  0.00    -0.388 OA
ATOM      9  H   UNL     1      -0.142   2.022  -6.794  1.00  0.00     0.211 HD
ENDBRANCH   1   8
TORSDOF 5
ENDMDL
MODEL 6
REMARK VINA RESULT:    -1.039      5.525      7.135
REMARK INTER + INTRA:          -1.254
REMARK INTER:                  -1.248
REMARK INTRA:                  -0.006
REMARK UNBOUND:                -0.002
REMARK SMILES OCC(O)CO
REMARK SMILES IDX 3 1 5 2 6 3 2 5 1 6 4 8
REMARK H PARENT 6 4 1 7 4 9
REMARK Flexibility Score: inf
ROOT
ATOM      1  C   UNL     1       1.439   0.410  -8.441  1.00  0.00     0.165 C 
ENDROOT
BRANCH   1   2
ATOM      2  C   UNL     1       0.767  -0.749  -9.190  1.00  0.00     0.190 C 
BRANCH   2   3
ATOM      3  O   UNL     1       1.533  -1.111 -10.306  1.00  0.00    -0.394 OA
ATOM      4  H   UNL     1       1.181  -0.578 -11.066  1.00  0.00     0.210 HD
ENDBRANCH   2   3
ENDBRANCH   1   2
BRANCH   1   5
ATOM      5  C   UNL     1       1.199   0.305  -6.928  1.00  0.00     0.190 C 
BRANCH   5   6
ATOM      6  O   UNL     1       2.261  -0.372  -6.311  1.00  0.00    -0.394 OA
ATOM      7  H   UNL     1       2.221  -1.313  -6.624  1.00  0.00     0.210 HD
ENDBRANCH   5   6
ENDBRANCH   1   5
BRANCH   1   8
ATOM      8  O   UNL     1       2.820   0.392  -8.691  1.00  0.00    -0.388 OA
ATOM      9  H   UNL     1       3.161  -0.480  -8.363  1.00  0.00     0.211 HD
ENDBRANCH   1   8
TORSDOF 5
ENDMDL
MODEL 7
REMARK VINA RESULT:    -0.855      7.173      7.891
REMARK INTER + INTRA:          -1.033
REMARK INTER:                  -1.000
REMARK INTRA:                  -0.033
REMARK UNBOUND:                -0.002
REMARK SMILES OCC(O)CO
REMARK SMILES IDX 3 1 5 2 6 3 2 5 1 6 4 8
REMARK H PARENT 6 4 1 7 4 9
REMARK Flexibility Score: inf
ROOT
ATOM      1  C   UNL     1       2.108  -0.234  -6.579  1.00  0.00     0.165 C 
ENDROOT
BRANCH   1   2
ATOM      2  C   UNL     1       1.631   0.803  -5.553  1.00  0.00     0.190 C 
BRANCH   2   3
ATOM      3  O   UNL     1       0.525   1.503  -6.052  1.00  0.00    -0.394 OA
ATOM      4  H   UNL     1       0.892   2.225  -6.626  1.00  0.00     0.210 HD
ENDBRANCH   2   3
ENDBRANCH   1   2
BRANCH   1   5
ATOM      5  C   UNL     1       1.449  -0.003  -7.947  1.00  0.00     0.190 C 
BRANCH   5   6
ATOM      6  O   UNL     1       2.396   0.451  -8.875  1.00  0.00    -0.394 OA
ATOM      7  H   UNL     1       3.233   0.624  -8.370  1.00  0.00     0.210 HD
ENDBRANCH   5   6
ENDBRANCH   1   5
BRANCH   1   8
ATOM      8  O   UNL     1       3.502  -0.148  -6.719  1.00  0.00    -0.388 OA
ATOM      9  H   UNL     1       3.799   0.628  -6.177  1.00  0.00     0.211 HD
ENDBRANCH   1   8
TORSDOF 5
ENDMDL
MODEL 8
REMARK VINA RESULT:    -0.576      5.310      6.617
REMARK INTER + INTRA:          -0.697
REMARK INTER:                  -0.694
REMARK INTRA:                  -0.002
REMARK UNBOUND:                -0.002
REMARK SMILES OCC(O)CO
REMARK SMILES IDX 3 1 5 2 6 3 2 5 1 6 4 8
REMARK H PARENT 6 4 1 7 4 9
REMARK Flexibility Score: inf
ROOT
ATOM      1  C   UNL     1       1.902  -0.280  -8.464  1.00  0.00     0.165 C 
ENDROOT
BRANCH   1   2
ATOM      2  C   UNL     1       1.292   0.232  -7.152  1.00  0.00     0.190 C 
BRANCH   2   3
ATOM      3  O   UNL     1       1.999  -0.283  -6.057  1.00  0.00    -0.394 OA
ATOM      4  H   UNL     1       1.495  -0.005  -5.249  1.00  0.00     0.210 HD
ENDBRANCH   2   3
ENDBRANCH   1   2
BRANCH   1   5
ATOM      5  C   UNL     1       0.810  -0.590  -9.498  1.00  0.00     0.190 C 
BRANCH   5   6
ATOM      6  O   UNL     1       1.276  -1.520 -10.438  1.00  0.00    -0.394 OA
ATOM      7  H   UNL     1       1.345  -2.392  -9.969  1.00  0.00     0.210 HD
ENDBRANCH   5   6
ENDBRANCH   1   5
BRANCH   1   8
ATOM      8  O   UNL     1       2.770   0.691  -8.988  1.00  0.00    -0.388 OA
ATOM      9  H   UNL     1       2.335   1.056  -9.803  1.00  0.00     0.211 HD
ENDBRANCH   1   8
TORSDOF 5
ENDMDL
MODEL 9
REMARK VINA RESULT:    -0.410     11.979     12.617
REMARK INTER + INTRA:          -0.496
REMARK INTER:                  -0.324
REMARK INTRA:                  -0.172
REMARK UNBOUND:                -0.002
REMARK SMILES OCC(O)CO
REMARK SMILES IDX 3 1 5 2 6 3 2 5 1 6 4 8
REMARK H PARENT 6 4 1 7 4 9
REMARK Flexibility Score: inf
ROOT
ATOM      1  C   UNL     1      -9.019   3.548 -17.238  1.00  0.00     0.165 C 
ENDROOT
BRANCH   1   2
ATOM      2  C   UNL     1      -9.918   4.581 -16.544  1.00  0.00     0.190 C 
BRANCH   2   3
ATOM      3  O   UNL     1      -9.271   5.823 -16.489  1.00  0.00    -0.394 OA
ATOM      4  H   UNL     1      -8.468   5.742 -17.066  1.00  0.00     0.210 HD
ENDBRANCH   2   3
ENDBRANCH   1   2
BRANCH   1   5
ATOM      5  C   UNL     1      -7.739   4.201 -17.779  1.00  0.00     0.190 C 
BRANCH   5   6
ATOM      6  O   UNL     1      -6.679   4.016 -16.882  1.00  0.00    -0.394 OA
ATOM      7  H   UNL     1      -6.746   4.739 -16.205  1.00  0.00     0.210 HD
ENDBRANCH   5   6
ENDBRANCH   1   5
BRANCH   1   8
ATOM      8  O   UNL     1      -8.671   2.541 -16.323  1.00  0.00    -0.388 OA
ATOM      9  H   UNL     1      -9.280   2.635 -15.545  1.00  0.00     0.211 HD
ENDBRANCH   1   8
TORSDOF 5
ENDMDL
