MODEL 1
REMARK VINA RESULT:    -4.084      0.000      0.000
REMARK INTER + INTRA:          -5.057
REMARK INTER:                  -5.039
REMARK INTRA:                  -0.017
REMARK UNBOUND:                -0.017
REMARK SMILES CCCCCC(=O)[O-]
REMARK SMILES IDX 4 1 5 2 6 3 7 4 8 5 3 6 2 7 1 8
REMARK H PARENT
REMARK Flexibility Score: inf
ROOT
ATOM      1  C   UNL     1      17.985  -8.254  22.795  1.00  0.00     0.006 C 
ENDROOT
BRANCH   1   2
ATOM      2  C   UNL     1      18.908  -8.434  21.581  1.00  0.00     0.053 C 
BRANCH   2   3
ATOM      3  C   UNL     1      18.901  -7.230  20.691  1.00  0.00     0.041 C 
ATOM      4  O   UNL     1      18.250  -7.243  19.613  1.00  0.00    -0.550 OA
ATOM      5  O   UNL     1      19.587  -6.081  21.067  1.00  0.00    -0.550 OA
ENDBRANCH   2   3
ENDBRANCH   1   2
BRANCH   1   6
ATOM      6  C   UNL     1      18.754  -8.328  24.125  1.00  0.00     0.000 C 
BRANCH   6   7
ATOM      7  C   UNL     1      20.030  -7.472  24.116  1.00  0.00    -0.003 C 
ATOM      8  C   UNL     1      21.306  -8.313  24.072  1.00  0.00     0.004 C 
ENDBRANCH   6   7
ENDBRANCH   1   6
TORSDOF 4
ENDMDL
MODEL 2
REMARK VINA RESULT:    -3.966      2.168      3.550
REMARK INTER + INTRA:          -4.910
REMARK INTER:                  -4.749
REMARK INTRA:                  -0.162
REMARK UNBOUND:                -0.017
REMARK SMILES CCCCCC(=O)[O-]
REMARK SMILES IDX 4 1 5 2 6 3 7 4 8 5 3 6 2 7 1 8
REMARK H PARENT
REMARK Flexibility Score: inf
ROOT
ATOM      1  C   UNL     1      17.878  -8.247  22.818  1.00  0.00     0.006 C 
ENDROOT
BRANCH   1   2
ATOM      2  C   UNL     1      18.705  -8.613  24.058  1.00  0.00     0.053 C 
BRANCH   2   3
ATOM      3  C   UNL     1      20.107  -8.094  23.966  1.00  0.00     0.041 C 
ATOM      4  O   UNL     1      20.341  -6.867  24.125  1.00  0.00    -0.550 OA
ATOM      5  O   UNL     1      21.161  -8.971  23.736  1.00  0.00    -0.550 OA
ENDBRANCH   2   3
ENDBRANCH   1   2
BRANCH   1   6
ATOM      6  C   UNL     1      18.658  -8.475  21.512  1.00  0.00     0.000 C 
BRANCH   6   7
ATOM      7  C   UNL     1      18.593  -7.264  20.569  1.00  0.00    -0.003 C 
ATOM      8  C   UNL     1      19.702  -6.246  20.835  1.00  0.00     0.004 C 
ENDBRANCH   6   7
ENDBRANCH   1   6
TORSDOF 4
ENDMDL
MODEL 3
REMARK VINA RESULT:    -2.959      1.171      2.051
REMARK INTER + INTRA:          -3.668
REMARK INTER:                  -3.543
REMARK INTRA:                  -0.125
REMARK UNBOUND:                -0.017
REMARK SMILES CCCCCC(=O)[O-]
REMARK SMILES IDX 4 1 5 2 6 3 7 4 8 5 3 6 2 7 1 8
REMARK H PARENT
REMARK Flexibility Score: inf
ROOT
ATOM      1  C   UNL     1      20.115  -8.668  22.178  1.00  0.00     0.006 C 
ENDROOT
BRANCH   1   2
ATOM      2  C   UNL     1      20.053  -7.506  21.178  1.00  0.00     0.053 C 
BRANCH   2   3
ATOM      3  C   UNL     1      18.770  -7.502  20.406  1.00  0.00     0.041 C 
ATOM      4  O   UNL     1      18.629  -6.739  19.414  1.00  0.00    -0.550 OA
ATOM      5  O   UNL     1      17.739  -8.363  20.764  1.00  0.00    -0.550 OA
ENDBRANCH   2   3
ENDBRANCH   1   2
BRANCH   1   6
ATOM      6  C   UNL     1      20.180  -8.177  23.635  1.00  0.00     0.000 C 
BRANCH   6   7
ATOM      7  C   UNL     1      18.839  -7.609  24.125  1.00  0.00    -0.003 C 
ATOM      8  C   UNL     1      17.691  -8.610  23.998  1.00  0.00     0.004 C 
ENDBRANCH   6   7
ENDBRANCH   1   6
TORSDOF 4
ENDMDL
MODEL 4
REMARK VINA RESULT:    -2.949     14.753     16.742
REMARK INTER + INTRA:          -3.656
REMARK INTER:                  -3.546
REMARK INTRA:                  -0.110
REMARK UNBOUND:                -0.017
REMARK SMILES CCCCCC(=O)[O-]
REMARK SMILES IDX 4 1 5 2 6 3 7 4 8 5 3 6 2 7 1 8
REMARK H PARENT
REMARK Flexibility Score: inf
ROOT
ATOM      1  C   UNL     1      20.115  -7.276   5.106  1.00  0.00     0.006 C 
ENDROOT
BRANCH   1   2
ATOM      2  C   UNL     1      18.900  -7.486   6.021  1.00  0.00     0.053 C 
BRANCH   2   3
ATOM      3  C   UNL     1      19.308  -7.821   7.422  1.00  0.00     0.041 C 
ATOM      4  O   UNL     1      19.934  -8.887   7.663  1.00  0.00    -0.550 OA
ATOM      5  O   UNL     1      19.024  -6.941   8.460  1.00  0.00    -0.550 OA
ENDBRANCH   2   3
ENDBRANCH   1   2
BRANCH   1   6
ATOM      6  C   UNL     1      20.818  -5.934   5.373  1.00  0.00     0.000 C 
BRANCH   6   7
ATOM      7  C   UNL     1      21.441  -5.333   4.104  1.00  0.00    -0.003 C 
ATOM      8  C   UNL     1      21.038  -3.875   3.880  1.00  0.00     0.004 C 
ENDBRANCH   6   7
ENDBRANCH   1   6
TORSDOF 4
ENDMDL
MODEL 5
REMARK VINA RESULT:    -2.880     14.314     15.806
REMARK INTER + INTRA:          -3.570
REMARK INTER:                  -3.477
REMARK INTRA:                  -0.093
REMARK UNBOUND:                -0.017
REMARK SMILES CCCCCC(=O)[O-]
REMARK SMILES IDX 4 1 5 2 6 3 7 4 8 5 3 6 2 7 1 8
REMARK H PARENT
REMARK Flexibility Score: inf
ROOT
ATOM      1  C   UNL     1      16.820  -7.278   6.891  1.00  0.00     0.006 C 
ENDROOT
BRANCH   1   2
ATOM      2  C   UNL     1      18.302  -7.607   6.664  1.00  0.00     0.053 C 
BRANCH   2   3
ATOM      3  C   UNL     1      19.080  -7.589   7.944  1.00  0.00     0.041 C 
ATOM      4  O   UNL     1      19.145  -6.536   8.632  1.00  0.00    -0.550 OA
ATOM      5  O   UNL     1      19.709  -8.745   8.393  1.00  0.00    -0.550 OA
ENDBRANCH   2   3
ENDBRANCH   1   2
BRANCH   1   6
ATOM      6  C   UNL     1      16.054  -7.113   5.568  1.00  0.00     0.000 C 
BRANCH   6   7
ATOM      7  C   UNL     1      14.700  -7.839   5.577  1.00  0.00    -0.003 C 
ATOM      8  C   UNL     1      14.407  -8.527   6.910  1.00  0.00     0.004 C 
ENDBRANCH   6   7
ENDBRANCH   1   6
TORSDOF 4
ENDMDL
MODEL 6
REMARK VINA RESULT:    -2.783     14.999     16.728
REMARK INTER + INTRA:          -3.451
REMARK INTER:                  -3.333
REMARK INTRA:                  -0.118
REMARK UNBOUND:                -0.017
REMARK SMILES CCCCCC(=O)[O-]
REMARK SMILES IDX 4 1 5 2 6 3 7 4 8 5 3 6 2 7 1 8
REMARK H PARENT
REMARK Flexibility Score: inf
ROOT
ATOM      1  C   UNL     1      20.613  -7.994   5.355  1.00  0.00     0.006 C 
ENDROOT
BRANCH   1   2
ATOM      2  C   UNL     1      20.183  -6.571   4.972  1.00  0.00     0.053 C 
BRANCH   2   3
ATOM      3  C   UNL     1      21.360  -5.696   4.668  1.00  0.00     0.041 C 
ATOM      4  O   UNL     1      21.187  -4.493   4.339  1.00  0.00    -0.550 OA
ATOM      5  O   UNL     1      22.651  -6.201   4.776  1.00  0.00    -0.550 OA
ENDBRANCH   2   3
ENDBRANCH   1   2
BRANCH   1   6
ATOM      6  C   UNL     1      19.796  -8.549   6.535  1.00  0.00     0.000 C 
BRANCH   6   7
ATOM      7  C   UNL     1      18.709  -7.573   7.010  1.00  0.00    -0.003 C 
ATOM      8  C   UNL     1      18.976  -7.027   8.412  1.00  0.00     0.004 C 
ENDBRANCH   6   7
ENDBRANCH   1   6
TORSDOF 4
ENDMDL
MODEL 7
REMARK VINA RESULT:    -2.700     18.262     19.169
REMARK INTER + INTRA:          -3.349
REMARK INTER:                  -3.164
REMARK INTRA:                  -0.185
REMARK UNBOUND:                -0.017
REMARK SMILES CCCCCC(=O)[O-]
REMARK SMILES IDX 4 1 5 2 6 3 7 4 8 5 3 6 2 7 1 8
REMARK H PARENT
REMARK Flexibility Score: inf
ROOT
ATOM      1  C   UNL     1       8.861  -9.625   7.231  1.00  0.00     0.006 C 
ENDROOT
BRANCH   1   2
ATOM      2  C   UNL     1       9.379  -9.359   5.810  1.00  0.00     0.053 C 
BRANCH   2   3
ATOM      3  C   UNL     1      10.410  -8.273   5.786  1.00  0.00     0.041 C 
ATOM      4  O   UNL     1      11.469  -8.389   6.457  1.00  0.00    -0.550 OA
ATOM      5  O   UNL     1      10.215  -7.144   4.998  1.00  0.00    -0.550 OA
ENDBRANCH   2   3
ENDBRANCH   1   2
BRANCH   1   6
ATOM      6  C   UNL     1       7.764  -8.629   7.644  1.00  0.00     0.000 C 
BRANCH   6   7
ATOM      7  C   UNL     1       6.867  -8.219   6.466  1.00  0.00    -0.003 C 
ATOM      8  C   UNL     1       6.461  -6.746   6.517  1.00  0.00     0.004 C 
ENDBRANCH   6   7
ENDBRANCH   1   6
TORSDOF 4
ENDMDL
MODEL 8
REMARK VINA RESULT:    -2.697     18.569     19.735
REMARK INTER + INTRA:          -3.345
REMARK INTER:                  -3.233
REMARK INTRA:                  -0.113
REMARK UNBOUND:                -0.017
REMARK SMILES CCCCCC(=O)[O-]
REMARK SMILES IDX 4 1 5 2 6 3 7 4 8 5 3 6 2 7 1 8
REMARK H PARENT
REMARK Flexibility Score: inf
ROOT
ATOM      1  C   UNL     1       7.680  -8.659   7.358  1.00  0.00     0.006 C 
ENDROOT
BRANCH   1   2
ATOM      2  C   UNL     1       6.751  -8.453   6.154  1.00  0.00     0.053 C 
BRANCH   2   3
ATOM      3  C   UNL     1       6.160  -7.077   6.134  1.00  0.00     0.041 C 
ATOM      4  O   UNL     1       6.333  -6.298   7.109  1.00  0.00    -0.550 OA
ATOM      5  O   UNL     1       5.442  -6.642   5.026  1.00  0.00    -0.550 OA
ENDBRANCH   2   3
ENDBRANCH   1   2
BRANCH   1   6
ATOM      6  C   UNL     1       8.997  -9.349   6.963  1.00  0.00     0.000 C 
BRANCH   6   7
ATOM      7  C   UNL     1       9.734  -8.610   5.836  1.00  0.00    -0.003 C 
ATOM      8  C   UNL     1      11.174  -8.252   6.205  1.00  0.00     0.004 C 
ENDBRANCH   6   7
ENDBRANCH   1   6
TORSDOF 4
ENDMDL
MODEL 9
REMARK VINA RESULT:    -2.688     14.432     15.865
REMARK INTER + INTRA:          -3.333
REMARK INTER:                  -3.225
REMARK INTRA:                  -0.108
REMARK UNBOUND:                -0.017
REMARK SMILES CCCCCC(=O)[O-]
REMARK SMILES IDX 4 1 5 2 6 3 7 4 8 5 3 6 2 7 1 8
REMARK H PARENT
REMARK Flexibility Score: inf
ROOT
ATOM      1  C   UNL     1      16.660  -7.193   6.721  1.00  0.00     0.006 C 
ENDROOT
BRANCH   1   2
ATOM      2  C   UNL     1      15.420  -7.657   5.945  1.00  0.00     0.053 C 
BRANCH   2   3
ATOM      3  C   UNL     1      14.732  -8.801   6.625  1.00  0.00     0.041 C 
ATOM      4  O   UNL     1      14.877  -9.975   6.192  1.00  0.00    -0.550 OA
ATOM      5  O   UNL     1      13.955  -8.575   7.755  1.00  0.00    -0.550 OA
ENDBRANCH   2   3
ENDBRANCH   1   2
BRANCH   1   6
ATOM      6  C   UNL     1      17.958  -7.796   6.156  1.00  0.00     0.000 C 
BRANCH   6   7
ATOM      7  C   UNL     1      19.016  -8.043   7.242  1.00  0.00    -0.003 C 
ATOM      8  C   UNL     1      18.944  -7.024   8.380  1.00  0.00     0.004 C 
ENDBRANCH   6   7
ENDBRANCH   1   6
TORSDOF 4
ENDMDL
