MODEL 1
REMARK VINA RESULT:    -4.565      0.000      0.000
REMARK INTER + INTRA:          -7.429
REMARK INTER:                  -6.967
REMARK INTRA:                  -0.462
REMARK UNBOUND:                -0.462
REMARK SMILES CC1=CCC[C@@H](C)C(=O)C[C@@H](C(C)C)C(=O)C1
REMARK SMILES IDX 8 1 9 2 6 3 7 4 5 5 4 6 3 7 2 8 1 9 10 11 11 12 15 13 16 14
REMARK SMILES IDX 17 15 12 17 13 18 14 19
REMARK H PARENT
REMARK Flexibility Score: 70.00
ROOT
ATOM      1  C   UNL     1     -11.040 -17.926  31.105  1.00  0.00     0.136 C 
ATOM      2  O   UNL     1      -9.950 -18.396  31.400  1.00  0.00    -0.299 OA
ENDROOT
BRANCH   1   3
ATOM      3  C   UNL     1     -12.095 -18.806  30.468  1.00  0.00     0.053 C 
ATOM      4  C   UNL     1     -12.211 -20.112  31.263  1.00  0.00     0.016 C 
BRANCH   3   5
ATOM      5  C   UNL     1     -11.800 -19.109  28.981  1.00  0.00     0.015 C 
BRANCH   5   6
ATOM      6  C   UNL     1     -11.113 -17.949  28.235  1.00  0.00     0.028 C 
BRANCH   6   7
ATOM      7  C   UNL     1     -12.107 -17.126  27.445  1.00  0.00    -0.028 C 
ATOM      8  C   UNL     1     -12.525 -15.872  27.737  1.00  0.00    -0.070 CG0
ATOM      9  C   UNL     1     -13.554 -15.243  26.831  1.00  0.00     0.039 C 
ATOM     10  G   UNL     1     -11.966 -15.039  28.871  1.00  0.00     0.000 G0
ENDBRANCH   6   7
ENDBRANCH   5   6
ENDBRANCH   3   5
ENDBRANCH   1   3
BRANCH   1  11
ATOM     11  C   UNL     1     -11.330 -16.476  31.408  1.00  0.00     0.087 C 
BRANCH  11  12
ATOM     12  C   UNL     1     -12.804 -16.108  31.128  1.00  0.00     0.066 C 
BRANCH  12  13
ATOM     13  C   UNL     1     -12.898 -15.036  30.058  1.00  0.00     0.140 C 
ATOM     14  O   UNL     1     -13.725 -14.143  30.161  1.00  0.00    -0.299 OA
BRANCH  13  15
ATOM     15  C   UNL     1     -11.957 -15.024  28.884  1.00  0.00     0.106 CG0
ATOM     16  G   UNL     1     -12.523 -15.863  27.757  1.00  0.00     0.000 G0
ENDBRANCH  13  15
ENDBRANCH  12  13
BRANCH  12  17
ATOM     17  C   UNL     1     -13.582 -15.738  32.428  1.00  0.00    -0.006 C 
ATOM     18  C   UNL     1     -14.265 -16.931  33.119  1.00  0.00     0.008 C 
ATOM     19  C   UNL     1     -12.674 -15.003  33.426  1.00  0.00     0.008 C 
ENDBRANCH  12  17
ENDBRANCH  11  12
ENDBRANCH   1  11
TORSDOF 1
ENDMDL
MODEL 2
REMARK VINA RESULT:    -4.463      1.912      4.066
REMARK INTER + INTRA:          -7.274
REMARK INTER:                  -7.713
REMARK INTRA:                   0.440
REMARK UNBOUND:                -0.462
REMARK SMILES CC1=CCC[C@@H](C)C(=O)C[C@@H](C(C)C)C(=O)C1
REMARK SMILES IDX 8 1 9 2 6 3 7 4 5 5 4 6 3 7 2 8 1 9 10 11 11 12 15 13 16 14
REMARK SMILES IDX 17 15 12 17 13 18 14 19
REMARK H PARENT
REMARK Flexibility Score: 70.00
ROOT
ATOM      1  C   UNL     1     -10.810 -17.040  28.438  1.00  0.00     0.136 C 
ATOM      2  O   UNL     1      -9.885 -16.251  28.570  1.00  0.00    -0.299 OA
ENDROOT
BRANCH   1   3
ATOM      3  C   UNL     1     -11.789 -16.874  27.295  1.00  0.00     0.053 C 
ATOM      4  C   UNL     1     -11.015 -16.565  26.008  1.00  0.00     0.016 C 
BRANCH   3   5
ATOM      5  C   UNL     1     -12.839 -15.772  27.565  1.00  0.00     0.015 C 
BRANCH   5   6
ATOM      6  C   UNL     1     -12.375 -14.705  28.576  1.00  0.00     0.028 C 
BRANCH   6   7
ATOM      7  C   UNL     1     -13.347 -14.564  29.726  1.00  0.00    -0.028 C 
ATOM      8  C   UNL     1     -13.265 -15.179  30.928  1.00  0.00    -0.070 CG0
ATOM      9  C   UNL     1     -14.366 -14.925  31.927  1.00  0.00     0.039 C 
ATOM     10  G   UNL     1     -12.098 -16.046  31.354  1.00  0.00     0.000 G0
ENDBRANCH   6   7
ENDBRANCH   5   6
ENDBRANCH   3   5
ENDBRANCH   1   3
BRANCH   1  11
ATOM     11  C   UNL     1     -10.946 -18.191  29.405  1.00  0.00     0.087 C 
BRANCH  11  12
ATOM     12  C   UNL     1     -12.372 -18.291  29.992  1.00  0.00     0.066 C 
BRANCH  12  13
ATOM     13  C   UNL     1     -12.478 -17.506  31.286  1.00  0.00     0.140 C 
ATOM     14  O   UNL     1     -12.842 -18.066  32.310  1.00  0.00    -0.299 OA
BRANCH  13  15
ATOM     15  C   UNL     1     -12.098 -16.052  31.348  1.00  0.00     0.106 CG0
ATOM     16  G   UNL     1     -13.277 -15.190  30.945  1.00  0.00     0.000 G0
ENDBRANCH  13  15
ENDBRANCH  12  13
BRANCH  12  17
ATOM     17  C   UNL     1     -12.855 -19.766  30.134  1.00  0.00    -0.006 C 
ATOM     18  C   UNL     1     -13.241 -20.438  28.804  1.00  0.00     0.008 C 
ATOM     19  C   UNL     1     -11.813 -20.622  30.870  1.00  0.00     0.008 C 
ENDBRANCH  12  17
ENDBRANCH  11  12
ENDBRANCH   1  11
TORSDOF 1
ENDMDL
MODEL 3
REMARK VINA RESULT:    -4.428      1.886      4.907
REMARK INTER + INTRA:          -7.220
REMARK INTER:                  -7.486
REMARK INTRA:                   0.266
REMARK UNBOUND:                -0.462
REMARK SMILES CC1=CCC[C@@H](C)C(=O)C[C@@H](C(C)C)C(=O)C1
REMARK SMILES IDX 8 1 9 2 6 3 7 4 5 5 4 6 3 7 2 8 1 9 10 11 11 12 15 13 16 14
REMARK SMILES IDX 17 15 12 17 13 18 14 19
REMARK H PARENT
REMARK Flexibility Score: 70.00
ROOT
ATOM      1  C   UNL     1     -12.756 -15.537  30.415  1.00  0.00     0.136 C 
ATOM      2  O   UNL     1     -13.641 -14.717  30.221  1.00  0.00    -0.299 OA
ENDROOT
BRANCH   1   3
ATOM      3  C   UNL     1     -12.546 -16.109  31.801  1.00  0.00     0.053 C 
ATOM      4  C   UNL     1     -13.643 -15.587  32.735  1.00  0.00     0.016 C 
BRANCH   3   5
ATOM      5  C   UNL     1     -11.150 -15.777  32.377  1.00  0.00     0.015 C 
BRANCH   5   6
ATOM      6  C   UNL     1     -10.108 -16.894  32.163  1.00  0.00     0.028 C 
BRANCH   6   7
ATOM      7  C   UNL     1     -10.751 -18.264  32.157  1.00  0.00    -0.028 C 
ATOM      8  C   UNL     1     -11.076 -18.994  31.066  1.00  0.00    -0.070 CG0
ATOM      9  C   UNL     1     -11.745 -20.329  31.285  1.00  0.00     0.039 C 
ATOM     10  G   UNL     1     -10.742 -18.585  29.647  1.00  0.00     0.000 G0
ENDBRANCH   6   7
ENDBRANCH   5   6
ENDBRANCH   3   5
ENDBRANCH   1   3
BRANCH   1  11
ATOM     11  C   UNL     1     -11.899 -15.993  29.258  1.00  0.00     0.087 C 
BRANCH  11  12
ATOM     12  C   UNL     1     -12.575 -17.119  28.444  1.00  0.00     0.066 C 
BRANCH  12  13
ATOM     13  C   UNL     1     -11.998 -18.472  28.815  1.00  0.00     0.140 C 
ATOM     14  O   UNL     1     -12.534 -19.494  28.413  1.00  0.00    -0.299 OA
BRANCH  13  15
ATOM     15  C   UNL     1     -10.743 -18.585  29.638  1.00  0.00     0.106 CG0
ATOM     16  G   UNL     1     -11.087 -18.991  31.056  1.00  0.00     0.000 G0
ENDBRANCH  13  15
ENDBRANCH  12  13
BRANCH  12  17
ATOM     17  C   UNL     1     -12.544 -16.845  26.910  1.00  0.00    -0.006 C 
ATOM     18  C   UNL     1     -13.281 -15.564  26.479  1.00  0.00     0.008 C 
ATOM     19  C   UNL     1     -11.102 -16.823  26.380  1.00  0.00     0.008 C 
ENDBRANCH  12  17
ENDBRANCH  11  12
ENDBRANCH   1  11
TORSDOF 1
ENDMDL
MODEL 4
REMARK VINA RESULT:    -4.423      1.294      1.857
REMARK INTER + INTRA:          -7.213
REMARK INTER:                  -7.205
REMARK INTRA:                  -0.008
REMARK UNBOUND:                -0.462
REMARK SMILES CC1=CCC[C@@H](C)C(=O)C[C@@H](C(C)C)C(=O)C1
REMARK SMILES IDX 8 1 9 2 6 3 7 4 5 5 4 6 3 7 2 8 1 9 10 11 11 12 15 13 16 14
REMARK SMILES IDX 17 15 12 17 13 18 14 19
REMARK H PARENT
REMARK Flexibility Score: 70.00
ROOT
ATOM      1  C   UNL     1     -11.017 -18.498  30.742  1.00  0.00     0.136 C 
ATOM      2  O   UNL     1      -9.914 -18.813  30.319  1.00  0.00    -0.299 OA
ENDROOT
BRANCH   1   3
ATOM      3  C   UNL     1     -12.144 -19.509  30.746  1.00  0.00     0.053 C 
ATOM      4  C   UNL     1     -11.748 -20.703  31.622  1.00  0.00     0.016 C 
BRANCH   3   5
ATOM      5  C   UNL     1     -12.519 -19.989  29.325  1.00  0.00     0.015 C 
BRANCH   5   6
ATOM      6  C   UNL     1     -13.057 -18.868  28.413  1.00  0.00     0.028 C 
BRANCH   6   7
ATOM      7  C   UNL     1     -12.011 -18.403  27.423  1.00  0.00    -0.028 C 
ATOM      8  C   UNL     1     -11.697 -17.120  27.130  1.00  0.00    -0.070 CG0
ATOM      9  C   UNL     1     -10.641 -16.875  26.081  1.00  0.00     0.039 C 
ATOM     10  G   UNL     1     -12.288 -15.922  27.845  1.00  0.00     0.000 G0
ENDBRANCH   6   7
ENDBRANCH   5   6
ENDBRANCH   3   5
ENDBRANCH   1   3
BRANCH   1  11
ATOM     11  C   UNL     1     -11.233 -17.106  31.286  1.00  0.00     0.087 C 
BRANCH  11  12
ATOM     12  C   UNL     1     -12.267 -16.312  30.456  1.00  0.00     0.066 C 
BRANCH  12  13
ATOM     13  C   UNL     1     -11.630 -15.747  29.200  1.00  0.00     0.140 C 
ATOM     14  O   UNL     1     -10.548 -15.183  29.266  1.00  0.00    -0.299 OA
BRANCH  13  15
ATOM     15  C   UNL     1     -12.285 -15.908  27.855  1.00  0.00     0.106 CG0
ATOM     16  G   UNL     1     -11.695 -17.100  27.130  1.00  0.00     0.000 G0
ENDBRANCH  13  15
ENDBRANCH  12  13
BRANCH  12  17
ATOM     17  C   UNL     1     -13.004 -15.231  31.303  1.00  0.00    -0.006 C 
ATOM     18  C   UNL     1     -14.004 -14.374  30.505  1.00  0.00     0.008 C 
ATOM     19  C   UNL     1     -13.705 -15.860  32.516  1.00  0.00     0.008 C 
ENDBRANCH  12  17
ENDBRANCH  11  12
ENDBRANCH   1  11
TORSDOF 1
ENDMDL
MODEL 5
REMARK VINA RESULT:    -4.113      2.068      4.161
REMARK INTER + INTRA:          -6.739
REMARK INTER:                  -7.833
REMARK INTRA:                   1.094
REMARK UNBOUND:                -0.462
REMARK SMILES CC1=CCC[C@@H](C)C(=O)C[C@@H](C(C)C)C(=O)C1
REMARK SMILES IDX 8 1 9 2 6 3 7 4 5 5 4 6 3 7 2 8 1 9 10 11 11 12 15 13 16 14
REMARK SMILES IDX 17 15 12 17 13 18 14 19
REMARK H PARENT
REMARK Flexibility Score: 70.00
ROOT
ATOM      1  C   UNL     1     -11.933 -16.102  31.097  1.00  0.00     0.136 C 
ATOM      2  O   UNL     1     -13.044 -15.672  31.373  1.00  0.00    -0.299 OA
ENDROOT
BRANCH   1   3
ATOM      3  C   UNL     1     -11.179 -16.949  32.099  1.00  0.00     0.053 C 
ATOM      4  C   UNL     1     -10.082 -16.102  32.754  1.00  0.00     0.016 C 
BRANCH   3   5
ATOM      5  C   UNL     1     -10.568 -18.220  31.465  1.00  0.00     0.015 C 
BRANCH   5   6
ATOM      6  C   UNL     1     -11.366 -19.506  31.759  1.00  0.00     0.028 C 
BRANCH   6   7
ATOM      7  C   UNL     1     -12.296 -19.858  30.618  1.00  0.00    -0.028 C 
ATOM      8  C   UNL     1     -12.146 -19.507  29.320  1.00  0.00    -0.070 CG0
ATOM      9  C   UNL     1     -13.214 -19.936  28.346  1.00  0.00     0.039 C 
ATOM     10  G   UNL     1     -10.935 -18.775  28.779  1.00  0.00     0.000 G0
ENDBRANCH   6   7
ENDBRANCH   5   6
ENDBRANCH   3   5
ENDBRANCH   1   3
BRANCH   1  11
ATOM     11  C   UNL     1     -11.339 -15.804  29.741  1.00  0.00     0.087 C 
BRANCH  11  12
ATOM     12  C   UNL     1     -12.155 -16.444  28.596  1.00  0.00     0.066 C 
BRANCH  12  13
ATOM     13  C   UNL     1     -11.383 -17.584  27.956  1.00  0.00     0.140 C 
ATOM     14  O   UNL     1     -11.081 -17.527  26.773  1.00  0.00    -0.299 OA
BRANCH  13  15
ATOM     15  C   UNL     1     -10.939 -18.773  28.764  1.00  0.00     0.106 CG0
ATOM     16  G   UNL     1     -12.144 -19.514  29.304  1.00  0.00     0.000 G0
ENDBRANCH  13  15
ENDBRANCH  12  13
BRANCH  12  17
ATOM     17  C   UNL     1     -12.654 -15.391  27.560  1.00  0.00    -0.006 C 
ATOM     18  C   UNL     1     -13.625 -15.950  26.505  1.00  0.00     0.008 C 
ATOM     19  C   UNL     1     -13.285 -14.180  28.263  1.00  0.00     0.008 C 
ENDBRANCH  12  17
ENDBRANCH  11  12
ENDBRANCH   1  11
TORSDOF 1
ENDMDL
MODEL 6
REMARK VINA RESULT:    -3.841      1.939      3.373
REMARK INTER + INTRA:          -6.325
REMARK INTER:                  -6.443
REMARK INTRA:                   0.119
REMARK UNBOUND:                -0.462
REMARK SMILES CC1=CCC[C@@H](C)C(=O)C[C@@H](C(C)C)C(=O)C1
REMARK SMILES IDX 8 1 9 2 6 3 7 4 5 5 4 6 3 7 2 8 1 9 10 11 11 12 15 13 16 14
REMARK SMILES IDX 17 15 12 17 13 18 14 19
REMARK H PARENT
REMARK Flexibility Score: 70.00
ROOT
ATOM      1  C   UNL     1     -13.640 -15.378  31.751  1.00  0.00     0.136 C 
ATOM      2  O   UNL     1     -14.750 -15.280  32.254  1.00  0.00    -0.299 OA
ENDROOT
BRANCH   1   3
ATOM      3  C   UNL     1     -12.695 -16.468  32.211  1.00  0.00     0.053 C 
ATOM      4  C   UNL     1     -11.358 -15.839  32.620  1.00  0.00     0.016 C 
BRANCH   3   5
ATOM      5  C   UNL     1     -12.468 -17.554  31.134  1.00  0.00     0.015 C 
BRANCH   5   6
ATOM      6  C   UNL     1     -11.009 -17.647  30.645  1.00  0.00     0.028 C 
BRANCH   6   7
ATOM      7  C   UNL     1     -10.933 -17.796  29.141  1.00  0.00    -0.028 C 
ATOM      8  C   UNL     1     -11.204 -16.839  28.223  1.00  0.00    -0.070 CG0
ATOM      9  C   UNL     1     -11.098 -17.211  26.765  1.00  0.00     0.039 C 
ATOM     10  G   UNL     1     -11.532 -15.403  28.575  1.00  0.00     0.000 G0
ENDBRANCH   6   7
ENDBRANCH   5   6
ENDBRANCH   3   5
ENDBRANCH   1   3
BRANCH   1  11
ATOM     11  C   UNL     1     -13.236 -14.425  30.652  1.00  0.00     0.087 C 
BRANCH  11  12
ATOM     12  C   UNL     1     -13.959 -14.734  29.322  1.00  0.00     0.066 C 
BRANCH  12  13
ATOM     13  C   UNL     1     -12.959 -15.084  28.235  1.00  0.00     0.140 C 
ATOM     14  O   UNL     1     -13.305 -15.074  27.063  1.00  0.00    -0.299 OA
BRANCH  13  15
ATOM     15  C   UNL     1     -11.526 -15.402  28.568  1.00  0.00     0.106 CG0
ATOM     16  G   UNL     1     -11.222 -16.845  28.223  1.00  0.00     0.000 G0
ENDBRANCH  13  15
ENDBRANCH  12  13
BRANCH  12  17
ATOM     17  C   UNL     1     -14.941 -13.599  28.901  1.00  0.00    -0.006 C 
ATOM     18  C   UNL     1     -16.263 -13.580  29.689  1.00  0.00     0.008 C 
ATOM     19  C   UNL     1     -14.264 -12.222  28.981  1.00  0.00     0.008 C 
ENDBRANCH  12  17
ENDBRANCH  11  12
ENDBRANCH   1  11
TORSDOF 1
ENDMDL
MODEL 7
REMARK VINA RESULT:    -3.644      1.986      3.742
REMARK INTER + INTRA:          -6.023
REMARK INTER:                  -7.113
REMARK INTRA:                   1.090
REMARK UNBOUND:                -0.462
REMARK SMILES CC1=CCC[C@@H](C)C(=O)C[C@@H](C(C)C)C(=O)C1
REMARK SMILES IDX 8 1 9 2 6 3 7 4 5 5 4 6 3 7 2 8 1 9 10 11 11 12 15 13 16 14
REMARK SMILES IDX 17 15 12 17 13 18 14 19
REMARK H PARENT
REMARK Flexibility Score: 70.00
ROOT
ATOM      1  C   UNL     1     -11.363 -15.668  28.644  1.00  0.00     0.136 C 
ATOM      2  O   UNL     1     -10.534 -14.929  29.156  1.00  0.00    -0.299 OA
ENDROOT
BRANCH   1   3
ATOM      3  C   UNL     1     -10.983 -16.521  27.452  1.00  0.00     0.053 C 
ATOM      4  C   UNL     1     -12.027 -16.338  26.346  1.00  0.00     0.016 C 
BRANCH   3   5
ATOM      5  C   UNL     1     -10.840 -18.018  27.812  1.00  0.00     0.015 C 
BRANCH   5   6
ATOM      6  C   UNL     1     -12.183 -18.717  28.104  1.00  0.00     0.028 C 
BRANCH   6   7
ATOM      7  C   UNL     1     -12.088 -19.629  29.308  1.00  0.00    -0.028 C 
ATOM      8  C   UNL     1     -11.652 -19.288  30.542  1.00  0.00    -0.070 CG0
ATOM      9  C   UNL     1     -11.604 -20.367  31.596  1.00  0.00     0.039 C 
ATOM     10  G   UNL     1     -11.282 -17.876  30.946  1.00  0.00     0.000 G0
ENDBRANCH   6   7
ENDBRANCH   5   6
ENDBRANCH   3   5
ENDBRANCH   1   3
BRANCH   1  11
ATOM     11  C   UNL     1     -12.753 -15.742  29.229  1.00  0.00     0.087 C 
BRANCH  11  12
ATOM     12  C   UNL     1     -12.735 -15.693  30.774  1.00  0.00     0.066 C 
BRANCH  12  13
ATOM     13  C   UNL     1     -12.490 -17.073  31.354  1.00  0.00     0.140 C 
ATOM     14  O   UNL     1     -13.313 -17.573  32.106  1.00  0.00    -0.299 OA
BRANCH  13  15
ATOM     15  C   UNL     1     -11.266 -17.867  30.984  1.00  0.00     0.106 CG0
ATOM     16  G   UNL     1     -11.662 -19.267  30.565  1.00  0.00     0.000 G0
ENDBRANCH  13  15
ENDBRANCH  12  13
BRANCH  12  17
ATOM     17  C   UNL     1     -14.004 -15.004  31.361  1.00  0.00    -0.006 C 
ATOM     18  C   UNL     1     -13.898 -14.645  32.854  1.00  0.00     0.008 C 
ATOM     19  C   UNL     1     -14.383 -13.756  30.548  1.00  0.00     0.008 C 
ENDBRANCH  12  17
ENDBRANCH  11  12
ENDBRANCH   1  11
TORSDOF 1
ENDMDL
MODEL 8
REMARK VINA RESULT:    -3.404      1.558      3.623
REMARK INTER + INTRA:          -5.657
REMARK INTER:                  -6.993
REMARK INTRA:                   1.337
REMARK UNBOUND:                -0.462
REMARK SMILES CC1=CCC[C@@H](C)C(=O)C[C@@H](C(C)C)C(=O)C1
REMARK SMILES IDX 8 1 9 2 6 3 7 4 5 5 4 6 3 7 2 8 1 9 10 11 11 12 15 13 16 14
REMARK SMILES IDX 17 15 12 17 13 18 14 19
REMARK H PARENT
REMARK Flexibility Score: 70.00
ROOT
ATOM      1  C   UNL     1     -12.534 -16.316  31.800  1.00  0.00     0.136 C 
ATOM      2  O   UNL     1     -13.109 -17.280  32.286  1.00  0.00    -0.299 OA
ENDROOT
BRANCH   1   3
ATOM      3  C   UNL     1     -13.272 -15.006  31.623  1.00  0.00     0.053 C 
ATOM      4  C   UNL     1     -14.293 -14.844  32.754  1.00  0.00     0.016 C 
BRANCH   3   5
ATOM      5  C   UNL     1     -13.973 -14.898  30.249  1.00  0.00     0.015 C 
BRANCH   5   6
ATOM      6  C   UNL     1     -13.133 -14.174  29.178  1.00  0.00     0.028 C 
BRANCH   6   7
ATOM      7  C   UNL     1     -12.888 -15.054  27.972  1.00  0.00    -0.028 C 
ATOM      8  C   UNL     1     -11.760 -15.750  27.700  1.00  0.00    -0.070 CG0
ATOM      9  C   UNL     1     -11.712 -16.542  26.417  1.00  0.00     0.039 C 
ATOM     10  G   UNL     1     -10.577 -15.840  28.641  1.00  0.00     0.000 G0
ENDBRANCH   6   7
ENDBRANCH   5   6
ENDBRANCH   3   5
ENDBRANCH   1   3
BRANCH   1  11
ATOM     11  C   UNL     1     -11.081 -16.439  31.408  1.00  0.00     0.087 C 
BRANCH  11  12
ATOM     12  C   UNL     1     -10.822 -17.676  30.520  1.00  0.00     0.066 C 
BRANCH  12  13
ATOM     13  C   UNL     1     -10.389 -17.258  29.127  1.00  0.00     0.140 C 
ATOM     14  O   UNL     1      -9.923 -18.087  28.359  1.00  0.00    -0.299 OA
BRANCH  13  15
ATOM     15  C   UNL     1     -10.564 -15.842  28.649  1.00  0.00     0.106 CG0
ATOM     16  G   UNL     1     -11.761 -15.750  27.726  1.00  0.00     0.000 G0
ENDBRANCH  13  15
ENDBRANCH  12  13
BRANCH  12  17
ATOM     17  C   UNL     1     -12.027 -18.665  30.511  1.00  0.00    -0.006 C 
ATOM     18  C   UNL     1     -12.584 -18.973  29.110  1.00  0.00     0.008 C 
ATOM     19  C   UNL     1     -11.674 -19.974  31.234  1.00  0.00     0.008 C 
ENDBRANCH  12  17
ENDBRANCH  11  12
ENDBRANCH   1  11
TORSDOF 1
ENDMDL
MODEL 9
REMARK VINA RESULT:    -3.356      2.186      4.818
REMARK INTER + INTRA:          -5.584
REMARK INTER:                  -5.696
REMARK INTRA:                   0.111
REMARK UNBOUND:                -0.462
REMARK SMILES CC1=CCC[C@@H](C)C(=O)C[C@@H](C(C)C)C(=O)C1
REMARK SMILES IDX 8 1 9 2 6 3 7 4 5 5 4 6 3 7 2 8 1 9 10 11 11 12 15 13 16 14
REMARK SMILES IDX 17 15 12 17 13 18 14 19
REMARK H PARENT
REMARK Flexibility Score: 70.00
ROOT
ATOM      1  C   UNL     1     -11.216 -17.432  27.325  1.00  0.00     0.136 C 
ATOM      2  O   UNL     1     -10.699 -17.440  26.216  1.00  0.00    -0.299 OA
ENDROOT
BRANCH   1   3
ATOM      3  C   UNL     1     -12.456 -16.601  27.575  1.00  0.00     0.053 C 
ATOM      4  C   UNL     1     -13.053 -16.166  26.232  1.00  0.00     0.016 C 
BRANCH   3   5
ATOM      5  C   UNL     1     -12.177 -15.365  28.462  1.00  0.00     0.015 C 
BRANCH   5   6
ATOM      6  C   UNL     1     -12.844 -15.434  29.850  1.00  0.00     0.028 C 
BRANCH   6   7
ATOM      7  C   UNL     1     -11.832 -15.277  30.964  1.00  0.00    -0.028 C 
ATOM      8  C   UNL     1     -11.485 -16.217  31.873  1.00  0.00    -0.070 CG0
ATOM      9  C   UNL     1     -10.474 -15.839  32.927  1.00  0.00     0.039 C 
ATOM     10  G   UNL     1     -11.995 -17.643  31.849  1.00  0.00     0.000 G0
ENDBRANCH   6   7
ENDBRANCH   5   6
ENDBRANCH   3   5
ENDBRANCH   1   3
BRANCH   1  11
ATOM     11  C   UNL     1     -10.622 -18.278  28.426  1.00  0.00     0.087 C 
BRANCH  11  12
ATOM     12  C   UNL     1     -11.683 -18.703  29.466  1.00  0.00     0.066 C 
BRANCH  12  13
ATOM     13  C   UNL     1     -11.180 -18.459  30.877  1.00  0.00     0.140 C 
ATOM     14  O   UNL     1     -10.089 -18.891  31.219  1.00  0.00    -0.299 OA
BRANCH  13  15
ATOM     15  C   UNL     1     -11.983 -17.652  31.861  1.00  0.00     0.106 CG0
ATOM     16  G   UNL     1     -11.502 -16.216  31.870  1.00  0.00     0.000 G0
ENDBRANCH  13  15
ENDBRANCH  12  13
BRANCH  12  17
ATOM     17  C   UNL     1     -12.183 -20.162  29.243  1.00  0.00    -0.006 C 
ATOM     18  C   UNL     1     -12.131 -21.050  30.499  1.00  0.00     0.008 C 
ATOM     19  C   UNL     1     -13.600 -20.177  28.649  1.00  0.00     0.008 C 
ENDBRANCH  12  17
ENDBRANCH  11  12
ENDBRANCH   1  11
TORSDOF 1
ENDMDL
