MODEL 1
REMARK VINA RESULT:    -3.685      0.000      0.000
REMARK INTER + INTRA:          -3.793
REMARK INTER:                  -3.793
REMARK INTRA:                   0.000
REMARK UNBOUND:                 0.000
REMARK SMILES CC1(C)[C@H]2CC[C@](C)(C2)[C@@H]1O
REMARK SMILES IDX 1 1 2 2 4 3 5 4 6 5 7 6 9 7 10 8 8 9 3 10 11 11
REMARK H PARENT 11 12
REMARK Flexibility Score: inf
ROOT
ATOM      1  C   UNL     1     150.294 137.894 138.768  1.00  0.00     0.014 C 
ATOM      2  C   UNL     1     149.417 138.771 139.696  1.00  0.00    -0.006 C 
ATOM      3  C   UNL     1     149.257 140.247 139.197  1.00  0.00    -0.002 C 
ATOM      4  C   UNL     1     148.877 140.298 137.702  1.00  0.00     0.005 C 
ATOM      5  C   UNL     1     147.451 139.727 137.694  1.00  0.00     0.010 C 
ATOM      6  C   UNL     1     147.156 139.524 139.199  1.00  0.00    -0.006 C 
ATOM      7  C   UNL     1     147.935 140.662 139.821  1.00  0.00     0.013 C 
ATOM      8  C   UNL     1     147.929 138.273 139.701  1.00  0.00     0.126 C 
ATOM      9  C   UNL     1     145.657 139.534 139.528  1.00  0.00     0.014 C 
ATOM     10  C   UNL     1     150.078 138.762 141.100  1.00  0.00     0.014 C 
ENDROOT
BRANCH   8  11
ATOM     11  O   UNL     1     147.494 137.908 140.988  1.00  0.00    -0.392 OA
ATOM     12  H   UNL     1     146.795 138.562 141.247  1.00  0.00     0.211 HD
ENDBRANCH   8  11
TORSDOF 1
ENDMDL
MODEL 2
REMARK VINA RESULT:    -3.683     12.997     15.646
REMARK INTER + INTRA:          -3.791
REMARK INTER:                  -3.791
REMARK INTRA:                   0.000
REMARK UNBOUND:                 0.000
REMARK SMILES CC1(C)[C@H]2CC[C@](C)(C2)[C@@H]1O
REMARK SMILES IDX 1 1 2 2 4 3 5 4 6 5 7 6 9 7 10 8 8 9 3 10 11 11
REMARK H PARENT 11 12
REMARK Flexibility Score: inf
ROOT
ATOM      1  C   UNL     1     131.415 143.727 138.665  1.00  0.00     0.014 C 
ATOM      2  C   UNL     1     132.250 142.854 139.634  1.00  0.00    -0.006 C 
ATOM      3  C   UNL     1     132.390 141.363 139.172  1.00  0.00    -0.002 C 
ATOM      4  C   UNL     1     132.805 141.270 137.689  1.00  0.00     0.005 C 
ATOM      5  C   UNL     1     134.242 141.810 137.703  1.00  0.00     0.010 C 
ATOM      6  C   UNL     1     134.505 142.041 139.210  1.00  0.00    -0.006 C 
ATOM      7  C   UNL     1     133.686 140.935 139.838  1.00  0.00     0.013 C 
ATOM      8  C   UNL     1     133.748 143.319 139.664  1.00  0.00     0.126 C 
ATOM      9  C   UNL     1     135.995 142.007 139.577  1.00  0.00     0.014 C 
ATOM     10  C   UNL     1     131.555 142.909 141.020  1.00  0.00     0.014 C 
ENDROOT
BRANCH   8  11
ATOM     11  O   UNL     1     134.159 143.705 140.953  1.00  0.00    -0.392 OA
ATOM     12  H   UNL     1     133.360 143.637 141.537  1.00  0.00     0.211 HD
ENDBRANCH   8  11
TORSDOF 1
ENDMDL
MODEL 3
REMARK VINA RESULT:    -3.652      9.603     11.047
REMARK INTER + INTRA:          -3.759
REMARK INTER:                  -3.759
REMARK INTRA:                   0.000
REMARK UNBOUND:                 0.000
REMARK SMILES CC1(C)[C@H]2CC[C@](C)(C2)[C@@H]1O
REMARK SMILES IDX 1 1 2 2 4 3 5 4 6 5 7 6 9 7 10 8 8 9 3 10 11 11
REMARK H PARENT 11 12
REMARK Flexibility Score: inf
ROOT
ATOM      1  C   UNL     1     137.960 131.316 138.777  1.00  0.00     0.014 C 
ATOM      2  C   UNL     1     138.831 132.199 139.704  1.00  0.00    -0.006 C 
ATOM      3  C   UNL     1     140.313 132.348 139.216  1.00  0.00    -0.002 C 
ATOM      4  C   UNL     1     140.378 132.714 137.719  1.00  0.00     0.005 C 
ATOM      5  C   UNL     1     139.812 134.141 137.692  1.00  0.00     0.010 C 
ATOM      6  C   UNL     1     139.598 134.451 139.192  1.00  0.00    -0.006 C 
ATOM      7  C   UNL     1     140.727 133.674 139.831  1.00  0.00     0.013 C 
ATOM      8  C   UNL     1     138.340 133.688 139.690  1.00  0.00     0.126 C 
ATOM      9  C   UNL     1     139.610 135.953 139.507  1.00  0.00     0.014 C 
ATOM     10  C   UNL     1     138.808 131.551 141.114  1.00  0.00     0.014 C 
ENDROOT
BRANCH   8  11
ATOM     11  O   UNL     1     137.965 134.136 140.970  1.00  0.00    -0.392 OA
ATOM     12  H   UNL     1     137.933 135.127 140.925  1.00  0.00     0.211 HD
ENDBRANCH   8  11
TORSDOF 1
ENDMDL
MODEL 4
REMARK VINA RESULT:    -3.635      9.654     11.096
REMARK INTER + INTRA:          -3.741
REMARK INTER:                  -3.741
REMARK INTRA:                   0.000
REMARK UNBOUND:                 0.000
REMARK SMILES CC1(C)[C@H]2CC[C@](C)(C2)[C@@H]1O
REMARK SMILES IDX 1 1 2 2 4 3 5 4 6 5 7 6 9 7 10 8 8 9 3 10 11 11
REMARK H PARENT 11 12
REMARK Flexibility Score: inf
ROOT
ATOM      1  C   UNL     1     143.651 150.255 138.732  1.00  0.00     0.014 C 
ATOM      2  C   UNL     1     142.784 149.368 139.660  1.00  0.00    -0.006 C 
ATOM      3  C   UNL     1     141.302 149.214 139.174  1.00  0.00    -0.002 C 
ATOM      4  C   UNL     1     141.236 148.849 137.676  1.00  0.00     0.005 C 
ATOM      5  C   UNL     1     141.807 147.424 137.647  1.00  0.00     0.010 C 
ATOM      6  C   UNL     1     142.024 147.113 139.148  1.00  0.00    -0.006 C 
ATOM      7  C   UNL     1     140.894 147.886 139.789  1.00  0.00     0.013 C 
ATOM      8  C   UNL     1     143.281 147.881 139.644  1.00  0.00     0.126 C 
ATOM      9  C   UNL     1     142.018 145.611 139.461  1.00  0.00     0.014 C 
ATOM     10  C   UNL     1     142.807 150.015 141.070  1.00  0.00     0.014 C 
ENDROOT
BRANCH   8  11
ATOM     11  O   UNL     1     143.659 147.433 140.923  1.00  0.00    -0.392 OA
ATOM     12  H   UNL     1     143.746 146.447 140.863  1.00  0.00     0.211 HD
ENDBRANCH   8  11
TORSDOF 1
ENDMDL
MODEL 5
REMARK VINA RESULT:    -3.501     13.197     15.400
REMARK INTER + INTRA:          -3.603
REMARK INTER:                  -3.603
REMARK INTRA:                   0.000
REMARK UNBOUND:                 0.000
REMARK SMILES CC1(C)[C@H]2CC[C@](C)(C2)[C@@H]1O
REMARK SMILES IDX 1 1 2 2 4 3 5 4 6 5 7 6 9 7 10 8 8 9 3 10 11 11
REMARK H PARENT 11 12
REMARK Flexibility Score: inf
ROOT
ATOM      1  C   UNL     1     134.647 141.170 137.456  1.00  0.00     0.014 C 
ATOM      2  C   UNL     1     134.321 141.691 138.878  1.00  0.00    -0.006 C 
ATOM      3  C   UNL     1     133.651 143.107 138.889  1.00  0.00    -0.002 C 
ATOM      4  C   UNL     1     132.482 143.183 137.884  1.00  0.00     0.005 C 
ATOM      5  C   UNL     1     131.434 142.250 138.508  1.00  0.00     0.010 C 
ATOM      6  C   UNL     1     132.094 141.844 139.847  1.00  0.00    -0.006 C 
ATOM      7  C   UNL     1     132.876 143.091 140.195  1.00  0.00     0.013 C 
ATOM      8  C   UNL     1     133.218 140.811 139.562  1.00  0.00     0.126 C 
ATOM      9  C   UNL     1     131.079 141.418 140.916  1.00  0.00     0.014 C 
ATOM     10  C   UNL     1     135.656 141.739 139.669  1.00  0.00     0.014 C 
ENDROOT
BRANCH   8  11
ATOM     11  O   UNL     1     133.669 140.230 140.761  1.00  0.00    -0.392 OA
ATOM     12  H   UNL     1     133.469 140.879 141.484  1.00  0.00     0.211 HD
ENDBRANCH   8  11
TORSDOF 1
ENDMDL
MODEL 6
REMARK VINA RESULT:    -3.412     10.585     11.995
REMARK INTER + INTRA:          -3.512
REMARK INTER:                  -3.512
REMARK INTRA:                   0.000
REMARK UNBOUND:                 0.000
REMARK SMILES CC1(C)[C@H]2CC[C@](C)(C2)[C@@H]1O
REMARK SMILES IDX 1 1 2 2 4 3 5 4 6 5 7 6 9 7 10 8 8 9 3 10 11 11
REMARK H PARENT 11 12
REMARK Flexibility Score: inf
ROOT
ATOM      1  C   UNL     1     140.618 148.606 137.040  1.00  0.00     0.014 C 
ATOM      2  C   UNL     1     141.454 148.230 138.288  1.00  0.00    -0.006 C 
ATOM      3  C   UNL     1     142.882 148.875 138.304  1.00  0.00    -0.002 C 
ATOM      4  C   UNL     1     142.822 150.384 137.992  1.00  0.00     0.005 C 
ATOM      5  C   UNL     1     142.120 150.961 139.230  1.00  0.00     0.010 C 
ATOM      6  C   UNL     1     141.967 149.721 140.143  1.00  0.00    -0.006 C 
ATOM      7  C   UNL     1     143.202 148.924 139.788  1.00  0.00     0.013 C 
ATOM      8  C   UNL     1     140.821 148.828 139.592  1.00  0.00     0.126 C 
ATOM      9  C   UNL     1     141.853 150.076 141.631  1.00  0.00     0.014 C 
ATOM     10  C   UNL     1     141.578 146.683 138.312  1.00  0.00     0.014 C 
ENDROOT
BRANCH   8  11
ATOM     11  O   UNL     1     140.482 147.830 140.525  1.00  0.00    -0.392 OA
ATOM     12  H   UNL     1     139.994 147.127 140.022  1.00  0.00     0.211 HD
ENDBRANCH   8  11
TORSDOF 1
ENDMDL
MODEL 7
REMARK VINA RESULT:    -3.391      1.456      3.291
REMARK INTER + INTRA:          -3.491
REMARK INTER:                  -3.491
REMARK INTRA:                   0.000
REMARK UNBOUND:                 0.000
REMARK SMILES CC1(C)[C@H]2CC[C@](C)(C2)[C@@H]1O
REMARK SMILES IDX 1 1 2 2 4 3 5 4 6 5 7 6 9 7 10 8 8 9 3 10 11 11
REMARK H PARENT 11 12
REMARK Flexibility Score: inf
ROOT
ATOM      1  C   UNL     1     148.506 140.966 137.026  1.00  0.00     0.014 C 
ATOM      2  C   UNL     1     148.172 140.118 138.277  1.00  0.00    -0.006 C 
ATOM      3  C   UNL     1     148.823 138.693 138.261  1.00  0.00    -0.002 C 
ATOM      4  C   UNL     1     150.322 138.763 137.903  1.00  0.00     0.005 C 
ATOM      5  C   UNL     1     150.933 139.457 139.129  1.00  0.00     0.010 C 
ATOM      6  C   UNL     1     149.721 139.596 140.080  1.00  0.00    -0.006 C 
ATOM      7  C   UNL     1     148.919 138.360 139.740  1.00  0.00     0.013 C 
ATOM      8  C   UNL     1     148.807 140.743 139.568  1.00  0.00     0.126 C 
ATOM      9  C   UNL     1     150.122 139.700 141.558  1.00  0.00     0.014 C 
ATOM     10  C   UNL     1     146.628 139.987 138.347  1.00  0.00     0.014 C 
ENDROOT
BRANCH   8  11
ATOM     11  O   UNL     1     147.838 141.070 140.533  1.00  0.00    -0.392 OA
ATOM     12  H   UNL     1     148.182 140.740 141.403  1.00  0.00     0.211 HD
ENDBRANCH   8  11
TORSDOF 1
ENDMDL
MODEL 8
REMARK VINA RESULT:    -3.387      6.266      7.943
REMARK INTER + INTRA:          -3.486
REMARK INTER:                  -3.486
REMARK INTRA:                   0.000
REMARK UNBOUND:                 0.000
REMARK SMILES CC1(C)[C@H]2CC[C@](C)(C2)[C@@H]1O
REMARK SMILES IDX 1 1 2 2 4 3 5 4 6 5 7 6 9 7 10 8 8 9 3 10 11 11
REMARK H PARENT 11 12
REMARK Flexibility Score: inf
ROOT
ATOM      1  C   UNL     1     140.390 138.584 140.725  1.00  0.00     0.014 C 
ATOM      2  C   UNL     1     140.689 139.466 141.963  1.00  0.00    -0.006 C 
ATOM      3  C   UNL     1     142.190 139.430 142.410  1.00  0.00    -0.002 C 
ATOM      4  C   UNL     1     143.139 139.644 141.213  1.00  0.00     0.005 C 
ATOM      5  C   UNL     1     142.881 141.109 140.831  1.00  0.00     0.010 C 
ATOM      6  C   UNL     1     141.896 141.579 141.929  1.00  0.00    -0.006 C 
ATOM      7  C   UNL     1     142.351 140.764 143.119  1.00  0.00     0.013 C 
ATOM      8  C   UNL     1     140.491 140.986 141.632  1.00  0.00     0.126 C 
ATOM      9  C   UNL     1     141.924 143.096 142.156  1.00  0.00     0.014 C 
ATOM     10  C   UNL     1     139.786 138.960 143.119  1.00  0.00     0.014 C 
ENDROOT
BRANCH   8  11
ATOM     11  O   UNL     1     139.520 141.587 142.453  1.00  0.00    -0.392 OA
ATOM     12  H   UNL     1     138.656 141.148 142.238  1.00  0.00     0.211 HD
ENDBRANCH   8  11
TORSDOF 1
ENDMDL
MODEL 9
REMARK VINA RESULT:    -3.381      6.197      8.044
REMARK INTER + INTRA:          -3.480
REMARK INTER:                  -3.480
REMARK INTRA:                   0.000
REMARK UNBOUND:                 0.000
REMARK SMILES CC1(C)[C@H]2CC[C@](C)(C2)[C@@H]1O
REMARK SMILES IDX 1 1 2 2 4 3 5 4 6 5 7 6 9 7 10 8 8 9 3 10 11 11
REMARK H PARENT 11 12
REMARK Flexibility Score: inf
ROOT
ATOM      1  C   UNL     1     143.002 140.587 140.661  1.00  0.00     0.014 C 
ATOM      2  C   UNL     1     142.111 140.819 141.906  1.00  0.00    -0.006 C 
ATOM      3  C   UNL     1     142.063 142.314 142.373  1.00  0.00    -0.002 C 
ATOM      4  C   UNL     1     141.789 143.265 141.190  1.00  0.00     0.005 C 
ATOM      5  C   UNL     1     140.339 142.928 140.811  1.00  0.00     0.010 C 
ATOM      6  C   UNL     1     139.933 141.904 141.897  1.00  0.00    -0.006 C 
ATOM      7  C   UNL     1     140.726 142.390 143.090  1.00  0.00     0.013 C 
ATOM      8  C   UNL     1     140.603 140.539 141.580  1.00  0.00     0.126 C 
ATOM      9  C   UNL     1     138.417 141.842 142.132  1.00  0.00     0.014 C 
ATOM     10  C   UNL     1     142.674 139.933 143.049  1.00  0.00     0.014 C 
ENDROOT
BRANCH   8  11
ATOM     11  O   UNL     1     140.063 139.524 142.391  1.00  0.00    -0.392 OA
ATOM     12  H   UNL     1     139.214 139.241 141.963  1.00  0.00     0.211 HD
ENDBRANCH   8  11
TORSDOF 1
ENDMDL
