MODEL 1
REMARK VINA RESULT:    13.208      0.000      0.000
REMARK INTER + INTRA:          51.618
REMARK INTER:                  20.929
REMARK INTRA:                  30.689
REMARK UNBOUND:                30.689
REMARK SMILES C[C@@H]1O[C@H](O[C@@H]2CC[C@@]3(C)[C@H](CC[C@]4(C)[C@H]3C=C[C@]35OC[C@@]6(CCC(C)(C)C[C@@H]63)[C@@H](O)C[C@@]54C)[C@@]2(C)CO)[C@@H](O)[C@@H](O[C@H]2O[C@@H](CO)[C@H](O)[C@H](O)[C@H]2O)[C@H]1O
REMARK SMILES IDX 1 1 2 2 54 3 41 4 39 5 4 6 3 7 55 8 42 10 43 11 52 12 44 13
REMARK SMILES IDX 50 14 45 15 48 16 53 17 51 19 46 21 47 22 49 24 5 26 6 27
REMARK SMILES IDX 7 28 35 29 8 30 11 31 36 32 9 33 12 34 10 35 16 36 13 37
REMARK SMILES IDX 14 38 17 39 15 40 33 41 18 42 19 43 32 44 34 45 29 46 20 47
REMARK SMILES IDX 30 48 22 49 28 50 21 51 23 52 25 53 24 54 26 55 27 56 37 57
REMARK SMILES IDX 38 58 31 60 40 62
REMARK H PARENT 55 9 53 18 51 20 47 23 49 25 38 59 31 61 40 63
REMARK Flexibility Score: inf
ROOT
ATOM      1  C   UNL     1       6.201  38.954  28.862  1.00  0.00     0.041 C 
ATOM      2  C   UNL     1       5.688  37.641  28.239  1.00  0.00     0.150 C 
ATOM      3  C   UNL     1       5.501  36.573  29.368  1.00  0.00     0.175 C 
ATOM      4  C   UNL     1       4.786  35.322  28.841  1.00  0.00     0.186 C 
ATOM      5  C   UNL     1       3.537  35.799  28.066  1.00  0.00     0.202 C 
ATOM      6  C   UNL     1       3.975  36.745  26.944  1.00  0.00     0.282 C 
ATOM      7  O   UNL     1       4.455  37.938  27.555  1.00  0.00    -0.344 OA
ENDROOT
BRANCH   3   8
ATOM      8  O   UNL     1       6.738  36.241  29.970  1.00  0.00    -0.388 OA
ATOM      9  H   UNL     1       6.800  35.256  29.932  1.00  0.00     0.211 HD
ENDBRANCH   3   8
BRANCH   4  10
ATOM     10  O   UNL     1       5.611  34.591  27.922  1.00  0.00    -0.341 OA
BRANCH  10  11
ATOM     11  C   UNL     1       6.749  33.930  28.466  1.00  0.00     0.282 C 
ATOM     12  C   UNL     1       6.523  32.351  28.441  1.00  0.00     0.202 C 
ATOM     13  O   UNL     1       7.087  34.368  29.779  1.00  0.00    -0.341 OA
ATOM     14  C   UNL     1       6.771  31.743  29.825  1.00  0.00     0.179 C 
ATOM     15  C   UNL     1       8.284  33.750  30.253  1.00  0.00     0.178 C 
ATOM     16  C   UNL     1       8.166  32.209  30.346  1.00  0.00     0.177 C 
BRANCH  12  17
ATOM     17  O   UNL     1       5.227  32.009  28.049  1.00  0.00    -0.385 OA
ATOM     18  H   UNL     1       5.239  31.044  27.812  1.00  0.00     0.211 HD
ENDBRANCH  12  17
BRANCH  14  19
ATOM     19  O   UNL     1       6.734  30.318  29.767  1.00  0.00    -0.387 OA
ATOM     20  H   UNL     1       7.540  30.044  29.262  1.00  0.00     0.211 HD
ENDBRANCH  14  19
BRANCH  15  21
ATOM     21  C   UNL     1       8.612  34.372  31.621  1.00  0.00     0.191 C 
BRANCH  21  22
ATOM     22  O   UNL     1       8.622  33.397  32.625  1.00  0.00    -0.394 OA
ATOM     23  H   UNL     1       8.140  32.599  32.270  1.00  0.00     0.210 HD
ENDBRANCH  21  22
ENDBRANCH  15  21
BRANCH  16  24
ATOM     24  O   UNL     1       9.226  31.634  29.593  1.00  0.00    -0.387 OA
ATOM     25  H   UNL     1       9.753  31.026  30.172  1.00  0.00     0.211 HD
ENDBRANCH  16  24
ENDBRANCH  10  11
ENDBRANCH   4  10
BRANCH   6  26
ATOM     26  O   UNL     1       2.876  37.010  26.057  1.00  0.00    -0.346 OA
BRANCH  26  27
ATOM     27  C   UNL     1       3.081  38.198  25.284  1.00  0.00     0.130 C 
ATOM     28  C   UNL     1       3.402  37.793  23.800  1.00  0.00     0.033 C 
ATOM     29  C   UNL     1       4.247  39.129  25.819  1.00  0.00     0.020 C 
ATOM     30  C   UNL     1       4.914  37.543  23.352  1.00  0.00     0.010 C 
ATOM     31  C   UNL     1       5.664  38.408  25.631  1.00  0.00     0.006 C 
ATOM     32  C   UNL     1       4.164  39.545  27.320  1.00  0.00     0.017 C 
ATOM     33  C   UNL     1       6.115  38.206  24.174  1.00  0.00    -0.022 C 
ATOM     34  C   UNL     1       5.640  37.003  26.241  1.00  0.00     0.005 C 
ATOM     35  C   UNL     1       6.502  39.576  23.521  1.00  0.00     0.012 C 
ATOM     36  C   UNL     1       7.493  37.325  24.118  1.00  0.00     0.024 C 
ATOM     37  C   UNL     1       7.013  36.513  26.596  1.00  0.00     0.008 C 
ATOM     38  C   UNL     1       8.101  36.666  25.452  1.00  0.00    -0.017 C 
ATOM     39  C   UNL     1       7.484  36.438  22.895  1.00  0.00    -0.024 C 
ATOM     40  C   UNL     1       9.126  37.713  26.064  1.00  0.00     0.013 C 
ATOM     41  C   UNL     1       8.894  35.260  25.122  1.00  0.00     0.009 C 
ATOM     42  C   UNL     1       7.650  35.130  22.886  1.00  0.00     0.005 C 
ATOM     43  C   UNL     1       8.110  34.337  24.105  1.00  0.00     0.096 C 
ATOM     44  C   UNL     1       9.221  34.450  26.450  1.00  0.00     0.043 C 
ATOM     45  C   UNL     1      10.269  35.601  24.455  1.00  0.00     0.015 C 
ATOM     46  C   UNL     1       6.956  33.580  24.780  1.00  0.00     0.037 C 
ATOM     47  O   UNL     1       8.988  33.354  23.602  1.00  0.00    -0.369 OA
ATOM     48  C   UNL     1       8.444  33.096  26.709  1.00  0.00     0.124 C 
ATOM     49  C   UNL     1       7.782  32.476  25.453  1.00  0.00     0.026 C 
ATOM     50  C   UNL     1       5.883  32.987  23.814  1.00  0.00     0.014 C 
ATOM     51  C   UNL     1       8.846  32.194  24.372  1.00  0.00     0.171 C 
ATOM     52  C   UNL     1       6.926  31.240  25.797  1.00  0.00     0.013 C 
ATOM     53  C   UNL     1       4.830  32.126  24.610  1.00  0.00    -0.035 C 
ATOM     54  C   UNL     1       5.442  31.518  25.916  1.00  0.00     0.007 C 
ATOM     55  C   UNL     1       4.327  30.981  23.708  1.00  0.00     0.011 C 
ATOM     56  C   UNL     1       3.617  33.030  24.991  1.00  0.00     0.011 C 
BRANCH  29  57
ATOM     57  C   UNL     1       4.051  40.523  25.088  1.00  0.00     0.165 C 
BRANCH  57  58
ATOM     58  O   UNL     1       4.609  41.580  25.809  1.00  0.00    -0.396 OA
ATOM     59  H   UNL     1       5.344  41.234  26.334  1.00  0.00     0.210 HD
ENDBRANCH  57  58
ENDBRANCH  29  57
BRANCH  48  60
ATOM     60  O   UNL     1       9.378  32.142  27.214  1.00  0.00    -0.392 OA
ATOM     61  H   UNL     1       9.337  31.350  26.612  1.00  0.00     0.210 HD
ENDBRANCH  48  60
ENDBRANCH  26  27
ENDBRANCH   6  26
BRANCH   5  62
ATOM     62  O   UNL     1       2.894  34.684  27.528  1.00  0.00    -0.385 OA
ATOM     63  H   UNL     1       2.693  34.093  28.298  1.00  0.00     0.211 HD
ENDBRANCH   5  62
TORSDOF 14
ENDMDL
