MODEL 1
REMARK VINA RESULT:    -4.660      0.000      0.000
REMARK INTER + INTRA:          -7.569
REMARK INTER:                  -7.111
REMARK INTRA:                  -0.458
REMARK UNBOUND:                -0.458
REMARK SMILES CCCCCCCCCC=CC(=O)[O-]
REMARK SMILES IDX 7 1 8 2 9 3 10 4 11 5 12 6 13 7 14 8 6 9 5 10 4 11 3 12 2 13
REMARK SMILES IDX 1 14
REMARK H PARENT
REMARK Flexibility Score: inf
ROOT
ATOM      1  C   UNL     1      -1.057  -4.574   0.885  1.00  0.00     0.000 C 
ENDROOT
BRANCH   1   2
ATOM      2  C   UNL     1      -0.793  -5.552  -0.273  1.00  0.00     0.004 C 
BRANCH   2   3
ATOM      3  C   UNL     1      -2.044  -5.775  -1.135  1.00  0.00     0.027 C 
BRANCH   3   4
ATOM      4  C   UNL     1      -1.926  -5.139  -2.493  1.00  0.00    -0.025 C 
ATOM      5  C   UNL     1      -2.341  -5.766  -3.598  1.00  0.00     0.020 C 
BRANCH   5   6
ATOM      6  C   UNL     1      -2.238  -5.153  -4.930  1.00  0.00     0.064 C 
ATOM      7  O   UNL     1      -1.212  -5.357  -5.630  1.00  0.00    -0.545 OA
ATOM      8  O   UNL     1      -3.256  -4.348  -5.429  1.00  0.00    -0.545 OA
ENDBRANCH   5   6
ENDBRANCH   3   4
ENDBRANCH   2   3
ENDBRANCH   1   2
BRANCH   1   9
ATOM      9  C   UNL     1      -0.550  -3.154   0.586  1.00  0.00     0.000 C 
BRANCH   9  10
ATOM     10  C   UNL     1      -0.018  -2.439   1.840  1.00  0.00     0.000 C 
BRANCH  10  11
ATOM     11  C   UNL     1       0.074  -0.915   1.657  1.00  0.00    -0.000 C 
BRANCH  11  12
ATOM     12  C   UNL     1      -0.662  -0.426   0.401  1.00  0.00    -0.000 C 
BRANCH  12  13
ATOM     13  C   UNL     1       0.080   0.750  -0.246  1.00  0.00    -0.003 C 
ATOM     14  C   UNL     1      -0.132   0.772  -1.757  1.00  0.00     0.004 C 
ENDBRANCH  12  13
ENDBRANCH  11  12
ENDBRANCH  10  11
ENDBRANCH   9  10
ENDBRANCH   1   9
TORSDOF 9
ENDMDL
MODEL 2
REMARK VINA RESULT:    -4.562      5.163      6.235
REMARK INTER + INTRA:          -7.421
REMARK INTER:                  -6.995
REMARK INTRA:                  -0.425
REMARK UNBOUND:                -0.458
REMARK SMILES CCCCCCCCCC=CC(=O)[O-]
REMARK SMILES IDX 7 1 8 2 9 3 10 4 11 5 12 6 13 7 14 8 6 9 5 10 4 11 3 12 2 13
REMARK SMILES IDX 1 14
REMARK H PARENT
REMARK Flexibility Score: inf
ROOT
ATOM      1  C   UNL     1      -2.261  -5.723   0.332  1.00  0.00     0.000 C 
ENDROOT
BRANCH   1   2
ATOM      2  C   UNL     1      -1.594  -6.959   0.962  1.00  0.00     0.004 C 
BRANCH   2   3
ATOM      3  C   UNL     1      -2.579  -8.127   1.123  1.00  0.00     0.027 C 
BRANCH   3   4
ATOM      4  C   UNL     1      -2.326  -8.921   2.374  1.00  0.00    -0.025 C 
ATOM      5  C   UNL     1      -1.830  -8.352   3.477  1.00  0.00     0.020 C 
BRANCH   5   6
ATOM      6  C   UNL     1      -1.586  -9.116   4.709  1.00  0.00     0.064 C 
ATOM      7  O   UNL     1      -2.293 -10.125   4.965  1.00  0.00    -0.545 OA
ATOM      8  O   UNL     1      -0.584  -8.741   5.598  1.00  0.00    -0.545 OA
ENDBRANCH   5   6
ENDBRANCH   3   4
ENDBRANCH   2   3
ENDBRANCH   1   2
BRANCH   1   9
ATOM      9  C   UNL     1      -1.368  -5.041  -0.717  1.00  0.00     0.000 C 
BRANCH   9  10
ATOM     10  C   UNL     1      -0.248  -4.198  -0.082  1.00  0.00     0.000 C 
BRANCH  10  11
ATOM     11  C   UNL     1      -0.681  -3.536   1.236  1.00  0.00    -0.000 C 
BRANCH  11  12
ATOM     12  C   UNL     1       0.179  -2.315   1.594  1.00  0.00    -0.000 C 
BRANCH  12  13
ATOM     13  C   UNL     1      -0.631  -1.019   1.471  1.00  0.00    -0.003 C 
ATOM     14  C   UNL     1      -0.148  -0.176   0.295  1.00  0.00     0.004 C 
ENDBRANCH  12  13
ENDBRANCH  11  12
ENDBRANCH  10  11
ENDBRANCH   9  10
ENDBRANCH   1   9
TORSDOF 9
ENDMDL
MODEL 3
REMARK VINA RESULT:    -4.514      3.111      6.145
REMARK INTER + INTRA:          -7.347
REMARK INTER:                  -6.835
REMARK INTRA:                  -0.512
REMARK UNBOUND:                -0.458
REMARK SMILES CCCCCCCCCC=CC(=O)[O-]
REMARK SMILES IDX 7 1 8 2 9 3 10 4 11 5 12 6 13 7 14 8 6 9 5 10 4 11 3 12 2 13
REMARK SMILES IDX 1 14
REMARK H PARENT
REMARK Flexibility Score: inf
ROOT
ATOM      1  C   UNL     1      -1.070  -4.223   0.758  1.00  0.00     0.000 C 
ENDROOT
BRANCH   1   2
ATOM      2  C   UNL     1       0.098  -3.249   0.985  1.00  0.00     0.004 C 
BRANCH   2   3
ATOM      3  C   UNL     1      -0.284  -2.098   1.928  1.00  0.00     0.027 C 
BRANCH   3   4
ATOM      4  C   UNL     1      -0.203  -0.755   1.257  1.00  0.00    -0.025 C 
ATOM      5  C   UNL     1      -0.170  -0.639  -0.075  1.00  0.00     0.020 C 
BRANCH   5   6
ATOM      6  C   UNL     1      -0.097   0.668  -0.744  1.00  0.00     0.064 C 
ATOM      7  O   UNL     1      -0.705   0.844  -1.831  1.00  0.00    -0.545 OA
ATOM      8  O   UNL     1       0.634   1.715  -0.193  1.00  0.00    -0.545 OA
ENDBRANCH   5   6
ENDBRANCH   3   4
ENDBRANCH   2   3
ENDBRANCH   1   2
BRANCH   1   9
ATOM      9  C   UNL     1      -0.834  -5.159  -0.438  1.00  0.00     0.000 C 
BRANCH   9  10
ATOM     10  C   UNL     1      -1.183  -4.499  -1.784  1.00  0.00     0.000 C 
BRANCH  10  11
ATOM     11  C   UNL     1      -1.955  -5.442  -2.721  1.00  0.00    -0.000 C 
BRANCH  11  12
ATOM     12  C   UNL     1      -3.357  -4.916  -3.064  1.00  0.00    -0.000 C 
BRANCH  12  13
ATOM     13  C   UNL     1      -3.759  -5.316  -4.488  1.00  0.00    -0.003 C 
ATOM     14  C   UNL     1      -3.032  -4.467  -5.526  1.00  0.00     0.004 C 
ENDBRANCH  12  13
ENDBRANCH  11  12
ENDBRANCH  10  11
ENDBRANCH   9  10
ENDBRANCH   1   9
TORSDOF 9
ENDMDL
MODEL 4
REMARK VINA RESULT:    -4.488      5.877      7.295
REMARK INTER + INTRA:          -7.307
REMARK INTER:                  -6.882
REMARK INTRA:                  -0.425
REMARK UNBOUND:                -0.458
REMARK SMILES CCCCCCCCCC=CC(=O)[O-]
REMARK SMILES IDX 7 1 8 2 9 3 10 4 11 5 12 6 13 7 14 8 6 9 5 10 4 11 3 12 2 13
REMARK SMILES IDX 1 14
REMARK H PARENT
REMARK Flexibility Score: inf
ROOT
ATOM      1  C   UNL     1      -1.652  -7.056   1.222  1.00  0.00     0.000 C 
ENDROOT
BRANCH   1   2
ATOM      2  C   UNL     1      -2.760  -7.927   1.838  1.00  0.00     0.004 C 
BRANCH   2   3
ATOM      3  C   UNL     1      -2.189  -9.065   2.697  1.00  0.00     0.027 C 
BRANCH   3   4
ATOM      4  C   UNL     1      -2.169  -8.724   4.161  1.00  0.00    -0.025 C 
ATOM      5  C   UNL     1      -1.021  -8.557   4.825  1.00  0.00     0.020 C 
BRANCH   5   6
ATOM      6  C   UNL     1      -0.988  -8.216   6.255  1.00  0.00     0.064 C 
ATOM      7  O   UNL     1      -1.995  -8.450   6.973  1.00  0.00    -0.545 OA
ATOM      8  O   UNL     1       0.140  -7.640   6.828  1.00  0.00    -0.545 OA
ENDBRANCH   5   6
ENDBRANCH   3   4
ENDBRANCH   2   3
ENDBRANCH   1   2
BRANCH   1   9
ATOM      9  C   UNL     1      -2.198  -5.767   0.587  1.00  0.00     0.000 C 
BRANCH   9  10
ATOM     10  C   UNL     1      -1.337  -5.275  -0.589  1.00  0.00     0.000 C 
BRANCH  10  11
ATOM     11  C   UNL     1      -0.360  -4.161  -0.180  1.00  0.00    -0.000 C 
BRANCH  11  12
ATOM     12  C   UNL     1      -0.613  -3.647   1.245  1.00  0.00    -0.000 C 
BRANCH  12  13
ATOM     13  C   UNL     1      -0.557  -2.116   1.294  1.00  0.00    -0.003 C 
ATOM     14  C   UNL     1       0.541  -1.634   2.238  1.00  0.00     0.004 C 
ENDBRANCH  12  13
ENDBRANCH  11  12
ENDBRANCH  10  11
ENDBRANCH   9  10
ENDBRANCH   1   9
TORSDOF 9
ENDMDL
MODEL 5
REMARK VINA RESULT:    -4.428      3.473      6.792
REMARK INTER + INTRA:          -7.215
REMARK INTER:                  -6.301
REMARK INTRA:                  -0.914
REMARK UNBOUND:                -0.458
REMARK SMILES CCCCCCCCCC=CC(=O)[O-]
REMARK SMILES IDX 7 1 8 2 9 3 10 4 11 5 12 6 13 7 14 8 6 9 5 10 4 11 3 12 2 13
REMARK SMILES IDX 1 14
REMARK H PARENT
REMARK Flexibility Score: inf
ROOT
ATOM      1  C   UNL     1      -1.419  -4.668  -2.349  1.00  0.00     0.000 C 
ENDROOT
BRANCH   1   2
ATOM      2  C   UNL     1      -0.964  -5.715  -1.319  1.00  0.00     0.004 C 
BRANCH   2   3
ATOM      3  C   UNL     1      -1.105  -5.206   0.123  1.00  0.00     0.027 C 
BRANCH   3   4
ATOM      4  C   UNL     1      -0.574  -3.809   0.293  1.00  0.00    -0.025 C 
ATOM      5  C   UNL     1      -0.615  -3.184   1.474  1.00  0.00     0.020 C 
BRANCH   5   6
ATOM      6  C   UNL     1      -0.093  -1.822   1.655  1.00  0.00     0.064 C 
ATOM      7  O   UNL     1      -0.488  -0.899   0.896  1.00  0.00    -0.545 OA
ATOM      8  O   UNL     1       0.833  -1.536   2.652  1.00  0.00    -0.545 OA
ENDBRANCH   5   6
ENDBRANCH   3   4
ENDBRANCH   2   3
ENDBRANCH   1   2
BRANCH   1   9
ATOM      9  C   UNL     1      -2.948  -4.613  -2.500  1.00  0.00     0.000 C 
BRANCH   9  10
ATOM     10  C   UNL     1      -3.528  -5.894  -3.124  1.00  0.00     0.000 C 
BRANCH  10  11
ATOM     11  C   UNL     1      -3.160  -6.046  -4.609  1.00  0.00    -0.000 C 
BRANCH  11  12
ATOM     12  C   UNL     1      -2.475  -7.387  -4.914  1.00  0.00    -0.000 C 
BRANCH  12  13
ATOM     13  C   UNL     1      -1.023  -7.172  -5.356  1.00  0.00    -0.003 C 
ATOM     14  C   UNL     1      -0.812  -5.758  -5.889  1.00  0.00     0.004 C 
ENDBRANCH  12  13
ENDBRANCH  11  12
ENDBRANCH  10  11
ENDBRANCH   9  10
ENDBRANCH   1   9
TORSDOF 9
ENDMDL
MODEL 6
REMARK VINA RESULT:    -4.338     14.049     15.472
REMARK INTER + INTRA:          -7.079
REMARK INTER:                  -5.757
REMARK INTRA:                  -1.321
REMARK UNBOUND:                -0.458
REMARK SMILES CCCCCCCCCC=CC(=O)[O-]
REMARK SMILES IDX 7 1 8 2 9 3 10 4 11 5 12 6 13 7 14 8 6 9 5 10 4 11 3 12 2 13
REMARK SMILES IDX 1 14
REMARK H PARENT
REMARK Flexibility Score: inf
ROOT
ATOM      1  C   UNL     1      -9.353   3.395   6.222  1.00  0.00     0.000 C 
ENDROOT
BRANCH   1   2
ATOM      2  C   UNL     1      -8.969   4.822   5.796  1.00  0.00     0.004 C 
BRANCH   2   3
ATOM      3  C   UNL     1     -10.165   5.784   5.857  1.00  0.00     0.027 C 
BRANCH   3   4
ATOM      4  C   UNL     1      -9.742   7.227   5.851  1.00  0.00    -0.025 C 
ATOM      5  C   UNL     1      -8.470   7.582   5.646  1.00  0.00     0.020 C 
BRANCH   5   6
ATOM      6  C   UNL     1      -8.044   8.989   5.632  1.00  0.00     0.064 C 
ATOM      7  O   UNL     1      -7.529   9.493   6.663  1.00  0.00    -0.545 OA
ATOM      8  O   UNL     1      -8.202   9.774   4.494  1.00  0.00    -0.545 OA
ENDBRANCH   5   6
ENDBRANCH   3   4
ENDBRANCH   2   3
ENDBRANCH   1   2
BRANCH   1   9
ATOM      9  C   UNL     1      -9.774   3.311   7.698  1.00  0.00     0.000 C 
BRANCH   9  10
ATOM     10  C   UNL     1      -8.733   2.589   8.570  1.00  0.00     0.000 C 
BRANCH  10  11
ATOM     11  C   UNL     1      -7.924   3.557   9.449  1.00  0.00    -0.000 C 
BRANCH  11  12
ATOM     12  C   UNL     1      -8.661   4.882   9.700  1.00  0.00    -0.000 C 
BRANCH  12  13
ATOM     13  C   UNL     1      -7.833   6.071   9.200  1.00  0.00    -0.003 C 
ATOM     14  C   UNL     1      -8.584   7.386   9.393  1.00  0.00     0.004 C 
ENDBRANCH  12  13
ENDBRANCH  11  12
ENDBRANCH  10  11
ENDBRANCH   9  10
ENDBRANCH   1   9
TORSDOF 9
ENDMDL
MODEL 7
REMARK VINA RESULT:    -4.324      1.888      2.983
REMARK INTER + INTRA:          -7.058
REMARK INTER:                  -6.463
REMARK INTRA:                  -0.595
REMARK UNBOUND:                -0.458
REMARK SMILES CCCCCCCCCC=CC(=O)[O-]
REMARK SMILES IDX 7 1 8 2 9 3 10 4 11 5 12 6 13 7 14 8 6 9 5 10 4 11 3 12 2 13
REMARK SMILES IDX 1 14
REMARK H PARENT
REMARK Flexibility Score: inf
ROOT
ATOM      1  C   UNL     1      -3.042  -6.303   0.079  1.00  0.00     0.000 C 
ENDROOT
BRANCH   1   2
ATOM      2  C   UNL     1      -3.186  -7.761  -0.390  1.00  0.00     0.004 C 
BRANCH   2   3
ATOM      3  C   UNL     1      -2.594  -7.977  -1.791  1.00  0.00     0.027 C 
BRANCH   3   4
ATOM      4  C   UNL     1      -3.384  -7.278  -2.862  1.00  0.00    -0.025 C 
ATOM      5  C   UNL     1      -2.839  -6.327  -3.627  1.00  0.00     0.020 C 
BRANCH   5   6
ATOM      6  C   UNL     1      -3.598  -5.641  -4.681  1.00  0.00     0.064 C 
ATOM      7  O   UNL     1      -3.238  -4.497  -5.063  1.00  0.00    -0.545 OA
ATOM      8  O   UNL     1      -4.711  -6.236  -5.265  1.00  0.00    -0.545 OA
ENDBRANCH   5   6
ENDBRANCH   3   4
ENDBRANCH   2   3
ENDBRANCH   1   2
BRANCH   1   9
ATOM      9  C   UNL     1      -1.627  -5.983   0.588  1.00  0.00     0.000 C 
BRANCH   9  10
ATOM     10  C   UNL     1      -0.726  -5.383  -0.505  1.00  0.00     0.000 C 
BRANCH  10  11
ATOM     11  C   UNL     1      -0.283  -3.947  -0.183  1.00  0.00    -0.000 C 
BRANCH  11  12
ATOM     12  C   UNL     1      -0.643  -3.525   1.249  1.00  0.00    -0.000 C 
BRANCH  12  13
ATOM     13  C   UNL     1      -0.558  -2.002   1.409  1.00  0.00    -0.003 C 
ATOM     14  C   UNL     1       0.601  -1.607   2.319  1.00  0.00     0.004 C 
ENDBRANCH  12  13
ENDBRANCH  11  12
ENDBRANCH  10  11
ENDBRANCH   9  10
ENDBRANCH   1   9
TORSDOF 9
ENDMDL
MODEL 8
REMARK VINA RESULT:    -4.250      1.946      3.697
REMARK INTER + INTRA:          -6.945
REMARK INTER:                  -6.053
REMARK INTRA:                  -0.892
REMARK UNBOUND:                -0.458
REMARK SMILES CCCCCCCCCC=CC(=O)[O-]
REMARK SMILES IDX 7 1 8 2 9 3 10 4 11 5 12 6 13 7 14 8 6 9 5 10 4 11 3 12 2 13
REMARK SMILES IDX 1 14
REMARK H PARENT
REMARK Flexibility Score: inf
ROOT
ATOM      1  C   UNL     1      -2.216  -7.906  -1.369  1.00  0.00     0.000 C 
ENDROOT
BRANCH   1   2
ATOM      2  C   UNL     1      -3.002  -8.086  -2.680  1.00  0.00     0.004 C 
BRANCH   2   3
ATOM      3  C   UNL     1      -4.093  -7.019  -2.849  1.00  0.00     0.027 C 
BRANCH   3   4
ATOM      4  C   UNL     1      -3.655  -5.886  -3.734  1.00  0.00    -0.025 C 
ATOM      5  C   UNL     1      -2.557  -5.973  -4.491  1.00  0.00     0.020 C 
BRANCH   5   6
ATOM      6  C   UNL     1      -2.121  -4.875  -5.366  1.00  0.00     0.064 C 
ATOM      7  O   UNL     1      -2.979  -4.109  -5.876  1.00  0.00    -0.545 OA
ATOM      8  O   UNL     1      -0.773  -4.669  -5.639  1.00  0.00    -0.545 OA
ENDBRANCH   5   6
ENDBRANCH   3   4
ENDBRANCH   2   3
ENDBRANCH   1   2
BRANCH   1   9
ATOM      9  C   UNL     1      -3.040  -7.205  -0.278  1.00  0.00     0.000 C 
BRANCH   9  10
ATOM     10  C   UNL     1      -2.318  -5.983   0.316  1.00  0.00     0.000 C 
BRANCH  10  11
ATOM     11  C   UNL     1      -1.063  -5.594  -0.482  1.00  0.00    -0.000 C 
BRANCH  11  12
ATOM     12  C   UNL     1      -0.608  -4.153  -0.203  1.00  0.00    -0.000 C 
BRANCH  12  13
ATOM     13  C   UNL     1      -0.678  -3.838   1.296  1.00  0.00    -0.003 C 
ATOM     14  C   UNL     1      -0.244  -2.402   1.578  1.00  0.00     0.004 C 
ENDBRANCH  12  13
ENDBRANCH  11  12
ENDBRANCH  10  11
ENDBRANCH   9  10
ENDBRANCH   1   9
TORSDOF 9
ENDMDL
MODEL 9
REMARK VINA RESULT:    -4.244     13.809     15.120
REMARK INTER + INTRA:          -6.935
REMARK INTER:                  -6.079
REMARK INTRA:                  -0.856
REMARK UNBOUND:                -0.458
REMARK SMILES CCCCCCCCCC=CC(=O)[O-]
REMARK SMILES IDX 7 1 8 2 9 3 10 4 11 5 12 6 13 7 14 8 6 9 5 10 4 11 3 12 2 13
REMARK SMILES IDX 1 14
REMARK H PARENT
REMARK Flexibility Score: inf
ROOT
ATOM      1  C   UNL     1      -8.871   4.696   5.637  1.00  0.00     0.000 C 
ENDROOT
BRANCH   1   2
ATOM      2  C   UNL     1      -8.375   5.645   6.741  1.00  0.00     0.004 C 
BRANCH   2   3
ATOM      3  C   UNL     1      -8.750   7.107   6.457  1.00  0.00     0.027 C 
BRANCH   3   4
ATOM      4  C   UNL     1      -9.561   7.258   5.200  1.00  0.00    -0.025 C 
ATOM      5  C   UNL     1      -9.527   8.381   4.475  1.00  0.00     0.020 C 
BRANCH   5   6
ATOM      6  C   UNL     1     -10.310   8.538   3.241  1.00  0.00     0.064 C 
ATOM      7  O   UNL     1     -10.714   7.517   2.627  1.00  0.00    -0.545 OA
ATOM      8  O   UNL     1     -10.610   9.800   2.739  1.00  0.00    -0.545 OA
ENDBRANCH   5   6
ENDBRANCH   3   4
ENDBRANCH   2   3
ENDBRANCH   1   2
BRANCH   1   9
ATOM      9  C   UNL     1      -9.743   3.556   6.186  1.00  0.00     0.000 C 
BRANCH   9  10
ATOM     10  C   UNL     1      -9.709   3.472   7.722  1.00  0.00     0.000 C 
BRANCH  10  11
ATOM     11  C   UNL     1      -8.847   2.306   8.231  1.00  0.00    -0.000 C 
BRANCH  11  12
ATOM     12  C   UNL     1      -8.484   2.444   9.717  1.00  0.00    -0.000 C 
BRANCH  12  13
ATOM     13  C   UNL     1      -8.037   3.874  10.041  1.00  0.00    -0.003 C 
ATOM     14  C   UNL     1      -6.581   4.101   9.643  1.00  0.00     0.004 C 
ENDBRANCH  12  13
ENDBRANCH  11  12
ENDBRANCH  10  11
ENDBRANCH   9  10
ENDBRANCH   1   9
TORSDOF 9
ENDMDL
