MODEL 1
REMARK VINA RESULT:    -5.704      0.000      0.000
REMARK INTER + INTRA:          -6.204
REMARK INTER:                  -6.204
REMARK INTRA:                   0.000
REMARK UNBOUND:                 0.000
REMARK SMILES Cc1cc(O)c2c(c1)C(=O)c1cc(O)cc(O)c1C2=O
REMARK SMILES IDX 1 1 2 2 8 3 7 4 6 5 4 6 3 7 19 8 20 9 18 10 11 11 9 12 10 13
REMARK SMILES IDX 12 14 13 15 15 16 16 17 5 18 17 20 14 22
REMARK H PARENT 5 19 17 21 14 23
REMARK Flexibility Score: inf
ROOT
ATOM      1  C   UNL     1      29.117  31.924  23.643  1.00  0.00     0.044 C 
ATOM      2  C   UNL     1      28.455  33.189  23.181  1.00  0.00    -0.047 A 
ATOM      3  C   UNL     1      28.729  33.703  21.909  1.00  0.00     0.016 A 
ATOM      4  C   UNL     1      28.135  34.901  21.478  1.00  0.00     0.038 A 
ATOM      5  C   UNL     1      27.253  35.597  22.335  1.00  0.00     0.076 A 
ATOM      6  C   UNL     1      27.046  35.115  23.653  1.00  0.00     0.127 A 
ATOM      7  C   UNL     1      27.631  33.909  24.052  1.00  0.00     0.050 A 
ATOM      8  C   UNL     1      26.531  36.777  21.793  1.00  0.00     0.201 C 
ATOM      9  O   UNL     1      25.389  37.072  22.237  1.00  0.00    -0.288 OA
ATOM     10  C   UNL     1      27.070  37.490  20.606  1.00  0.00     0.076 A 
ATOM     11  C   UNL     1      27.954  36.792  19.753  1.00  0.00     0.041 A 
ATOM     12  C   UNL     1      28.436  35.443  20.132  1.00  0.00     0.194 C 
ATOM     13  O   UNL     1      29.122  34.766  19.317  1.00  0.00    -0.289 OA
ATOM     14  C   UNL     1      28.377  37.383  18.550  1.00  0.00     0.059 A 
ATOM     15  C   UNL     1      27.942  38.664  18.197  1.00  0.00     0.120 A 
ATOM     16  C   UNL     1      27.102  39.372  19.057  1.00  0.00     0.093 A 
ATOM     17  C   UNL     1      26.683  38.814  20.269  1.00  0.00     0.131 A 
ENDROOT
BRANCH   6  18
ATOM     18  O   UNL     1      26.302  35.816  24.605  1.00  0.00    -0.507 OA
ATOM     19  H   UNL     1      25.298  35.932  24.555  1.00  0.00     0.293 HD
ENDBRANCH   6  18
BRANCH  17  20
ATOM     20  O   UNL     1      25.918  39.617  21.118  1.00  0.00    -0.507 OA
ATOM     21  H   UNL     1      25.049  40.052  20.842  1.00  0.00     0.293 HD
ENDBRANCH  17  20
BRANCH  15  22
ATOM     22  O   UNL     1      28.349  39.248  17.000  1.00  0.00    -0.508 OA
ATOM     23  H   UNL     1      27.918  40.095  16.650  1.00  0.00     0.293 HD
ENDBRANCH  15  22
TORSDOF 3
ENDMDL
MODEL 2
REMARK VINA RESULT:    -4.977      1.979      3.203
REMARK INTER + INTRA:          -5.413
REMARK INTER:                  -5.413
REMARK INTRA:                   0.000
REMARK UNBOUND:                 0.000
REMARK SMILES Cc1cc(O)c2c(c1)C(=O)c1cc(O)cc(O)c1C2=O
REMARK SMILES IDX 1 1 2 2 8 3 7 4 6 5 4 6 3 7 19 8 20 9 18 10 11 11 9 12 10 13
REMARK SMILES IDX 12 14 13 15 15 16 16 17 5 18 17 20 14 22
REMARK H PARENT 5 19 17 21 14 23
REMARK Flexibility Score: inf
ROOT
ATOM      1  C   UNL     1      29.125  33.823  19.793  1.00  0.00     0.044 C 
ATOM      2  C   UNL     1      28.373  35.081  20.112  1.00  0.00    -0.047 A 
ATOM      3  C   UNL     1      28.609  36.248  19.377  1.00  0.00     0.016 A 
ATOM      4  C   UNL     1      27.931  37.439  19.686  1.00  0.00     0.038 A 
ATOM      5  C   UNL     1      27.001  37.462  20.749  1.00  0.00     0.076 A 
ATOM      6  C   UNL     1      26.829  36.300  21.544  1.00  0.00     0.127 A 
ATOM      7  C   UNL     1      27.500  35.121  21.204  1.00  0.00     0.050 A 
ATOM      8  C   UNL     1      26.196  38.694  20.951  1.00  0.00     0.201 C 
ATOM      9  O   UNL     1      25.036  38.613  21.436  1.00  0.00    -0.288 OA
ATOM     10  C   UNL     1      26.682  39.991  20.411  1.00  0.00     0.076 A 
ATOM     11  C   UNL     1      27.614  39.963  19.348  1.00  0.00     0.041 A 
ATOM     12  C   UNL     1      28.192  38.671  18.907  1.00  0.00     0.194 C 
ATOM     13  O   UNL     1      28.925  38.627  17.880  1.00  0.00    -0.289 OA
ATOM     14  C   UNL     1      27.993  41.161  18.720  1.00  0.00     0.059 A 
ATOM     15  C   UNL     1      27.467  42.383  19.147  1.00  0.00     0.120 A 
ATOM     16  C   UNL     1      26.578  42.419  20.221  1.00  0.00     0.093 A 
ATOM     17  C   UNL     1      26.200  41.242  20.877  1.00  0.00     0.131 A 
ENDROOT
BRANCH   6  18
ATOM     18  O   UNL     1      26.037  36.281  22.693  1.00  0.00    -0.507 OA
ATOM     19  H   UNL     1      26.241  36.824  23.522  1.00  0.00     0.293 HD
ENDBRANCH   6  18
BRANCH  17  20
ATOM     20  O   UNL     1      25.380  41.365  22.000  1.00  0.00    -0.507 OA
ATOM     21  H   UNL     1      25.328  42.201  22.565  1.00  0.00     0.293 HD
ENDBRANCH  17  20
BRANCH  15  22
ATOM     22  O   UNL     1      27.831  43.572  18.518  1.00  0.00    -0.508 OA
ATOM     23  H   UNL     1      27.137  44.203  18.135  1.00  0.00     0.293 HD
ENDBRANCH  15  22
TORSDOF 3
ENDMDL
MODEL 3
REMARK VINA RESULT:    -4.501      2.363      6.197
REMARK INTER + INTRA:          -4.896
REMARK INTER:                  -4.896
REMARK INTRA:                   0.000
REMARK UNBOUND:                 0.000
REMARK SMILES Cc1cc(O)c2c(c1)C(=O)c1cc(O)cc(O)c1C2=O
REMARK SMILES IDX 1 1 2 2 8 3 7 4 6 5 4 6 3 7 19 8 20 9 18 10 11 11 9 12 10 13
REMARK SMILES IDX 12 14 13 15 15 16 16 17 5 18 17 20 14 22
REMARK H PARENT 5 19 17 21 14 23
REMARK Flexibility Score: inf
ROOT
ATOM      1  C   UNL     1      26.582  44.123  18.582  1.00  0.00     0.044 C 
ATOM      2  C   UNL     1      26.878  42.932  19.445  1.00  0.00    -0.047 A 
ATOM      3  C   UNL     1      27.340  41.743  18.869  1.00  0.00     0.016 A 
ATOM      4  C   UNL     1      27.594  40.614  19.666  1.00  0.00     0.038 A 
ATOM      5  C   UNL     1      27.380  40.675  21.061  1.00  0.00     0.076 A 
ATOM      6  C   UNL     1      26.832  41.855  21.626  1.00  0.00     0.127 A 
ATOM      7  C   UNL     1      26.607  42.973  20.816  1.00  0.00     0.050 A 
ATOM      8  C   UNL     1      27.799  39.514  21.887  1.00  0.00     0.201 C 
ATOM      9  O   UNL     1      28.171  39.693  23.078  1.00  0.00    -0.288 OA
ATOM     10  C   UNL     1      27.957  38.178  21.256  1.00  0.00     0.076 A 
ATOM     11  C   UNL     1      28.168  38.120  19.859  1.00  0.00     0.041 A 
ATOM     12  C   UNL     1      28.077  39.357  19.048  1.00  0.00     0.194 C 
ATOM     13  O   UNL     1      28.387  39.332  17.824  1.00  0.00    -0.289 OA
ATOM     14  C   UNL     1      28.458  36.889  19.247  1.00  0.00     0.059 A 
ATOM     15  C   UNL     1      28.525  35.718  20.005  1.00  0.00     0.120 A 
ATOM     16  C   UNL     1      28.278  35.764  21.377  1.00  0.00     0.093 A 
ATOM     17  C   UNL     1      27.967  36.973  22.008  1.00  0.00     0.131 A 
ENDROOT
BRANCH   6  18
ATOM     18  O   UNL     1      26.462  41.948  22.969  1.00  0.00    -0.507 OA
ATOM     19  H   UNL     1      25.803  41.322  23.412  1.00  0.00     0.293 HD
ENDBRANCH   6  18
BRANCH  17  20
ATOM     20  O   UNL     1      27.642  36.927  23.365  1.00  0.00    -0.507 OA
ATOM     21  H   UNL     1      28.322  36.776  24.097  1.00  0.00     0.293 HD
ENDBRANCH  17  20
BRANCH  15  22
ATOM     22  O   UNL     1      28.825  34.498  19.403  1.00  0.00    -0.508 OA
ATOM     23  H   UNL     1      29.193  33.719  19.936  1.00  0.00     0.293 HD
ENDBRANCH  15  22
TORSDOF 3
ENDMDL
MODEL 4
REMARK VINA RESULT:    -4.496      1.307      3.299
REMARK INTER + INTRA:          -4.890
REMARK INTER:                  -4.890
REMARK INTRA:                   0.000
REMARK UNBOUND:                 0.000
REMARK SMILES Cc1cc(O)c2c(c1)C(=O)c1cc(O)cc(O)c1C2=O
REMARK SMILES IDX 1 1 2 2 8 3 7 4 6 5 4 6 3 7 19 8 20 9 18 10 11 11 9 12 10 13
REMARK SMILES IDX 12 14 13 15 15 16 16 17 5 18 17 20 14 22
REMARK H PARENT 5 19 17 21 14 23
REMARK Flexibility Score: inf
ROOT
ATOM      1  C   UNL     1      28.618  32.214  23.881  1.00  0.00     0.044 C 
ATOM      2  C   UNL     1      28.543  33.254  22.803  1.00  0.00    -0.047 A 
ATOM      3  C   UNL     1      28.180  34.569  23.116  1.00  0.00     0.016 A 
ATOM      4  C   UNL     1      28.081  35.544  22.110  1.00  0.00     0.038 A 
ATOM      5  C   UNL     1      28.349  35.197  20.766  1.00  0.00     0.076 A 
ATOM      6  C   UNL     1      28.633  33.845  20.444  1.00  0.00     0.127 A 
ATOM      7  C   UNL     1      28.747  32.897  21.466  1.00  0.00     0.050 A 
ATOM      8  C   UNL     1      28.378  36.283  19.753  1.00  0.00     0.201 C 
ATOM      9  O   UNL     1      29.125  36.178  18.743  1.00  0.00    -0.288 OA
ATOM     10  C   UNL     1      27.677  37.565  20.024  1.00  0.00     0.076 A 
ATOM     11  C   UNL     1      27.409  37.907  21.369  1.00  0.00     0.041 A 
ATOM     12  C   UNL     1      27.689  36.932  22.449  1.00  0.00     0.194 C 
ATOM     13  O   UNL     1      27.570  37.277  23.657  1.00  0.00    -0.289 OA
ATOM     14  C   UNL     1      26.873  39.169  21.675  1.00  0.00     0.059 A 
ATOM     15  C   UNL     1      26.588  40.085  20.658  1.00  0.00     0.120 A 
ATOM     16  C   UNL     1      26.813  39.735  19.327  1.00  0.00     0.093 A 
ATOM     17  C   UNL     1      27.327  38.478  18.994  1.00  0.00     0.131 A 
ENDROOT
BRANCH   6  18
ATOM     18  O   UNL     1      28.772  33.395  19.130  1.00  0.00    -0.507 OA
ATOM     19  H   UNL     1      28.461  33.920  18.323  1.00  0.00     0.293 HD
ENDBRANCH   6  18
BRANCH  17  20
ATOM     20  O   UNL     1      27.440  38.166  17.638  1.00  0.00    -0.507 OA
ATOM     21  H   UNL     1      28.324  38.057  17.161  1.00  0.00     0.293 HD
ENDBRANCH  17  20
BRANCH  15  22
ATOM     22  O   UNL     1      26.067  41.341  20.959  1.00  0.00    -0.508 OA
ATOM     23  H   UNL     1      25.359  41.465  21.673  1.00  0.00     0.293 HD
ENDBRANCH  15  22
TORSDOF 3
ENDMDL
MODEL 5
REMARK VINA RESULT:    -3.694      6.334      9.892
REMARK INTER + INTRA:          -4.018
REMARK INTER:                  -4.018
REMARK INTRA:                   0.000
REMARK UNBOUND:                 0.000
REMARK SMILES Cc1cc(O)c2c(c1)C(=O)c1cc(O)cc(O)c1C2=O
REMARK SMILES IDX 1 1 2 2 8 3 7 4 6 5 4 6 3 7 19 8 20 9 18 10 11 11 9 12 10 13
REMARK SMILES IDX 12 14 13 15 15 16 16 17 5 18 17 20 14 22
REMARK H PARENT 5 19 17 21 14 23
REMARK Flexibility Score: inf
ROOT
ATOM      1  C   UNL     1      27.183  25.880  30.794  1.00  0.00     0.044 C 
ATOM      2  C   UNL     1      27.533  26.326  29.405  1.00  0.00    -0.047 A 
ATOM      3  C   UNL     1      27.876  27.660  29.160  1.00  0.00     0.016 A 
ATOM      4  C   UNL     1      28.178  28.094  27.858  1.00  0.00     0.038 A 
ATOM      5  C   UNL     1      28.136  27.177  26.784  1.00  0.00     0.076 A 
ATOM      6  C   UNL     1      27.706  25.847  27.026  1.00  0.00     0.127 A 
ATOM      7  C   UNL     1      27.431  25.434  28.333  1.00  0.00     0.050 A 
ATOM      8  C   UNL     1      28.604  27.635  25.451  1.00  0.00     0.201 C 
ATOM      9  O   UNL     1      29.123  26.811  24.651  1.00  0.00    -0.288 OA
ATOM     10  C   UNL     1      28.632  29.088  25.137  1.00  0.00     0.076 A 
ATOM     11  C   UNL     1      28.672  30.002  26.215  1.00  0.00     0.041 A 
ATOM     12  C   UNL     1      28.533  29.510  27.606  1.00  0.00     0.194 C 
ATOM     13  O   UNL     1      28.694  30.304  28.574  1.00  0.00    -0.289 OA
ATOM     14  C   UNL     1      28.837  31.374  25.960  1.00  0.00     0.059 A 
ATOM     15  C   UNL     1      28.948  31.845  24.649  1.00  0.00     0.120 A 
ATOM     16  C   UNL     1      28.869  30.950  23.582  1.00  0.00     0.093 A 
ATOM     17  C   UNL     1      28.684  29.582  23.807  1.00  0.00     0.131 A 
ENDROOT
BRANCH   6  18
ATOM     18  O   UNL     1      27.504  24.921  26.001  1.00  0.00    -0.507 OA
ATOM     19  H   UNL     1      26.625  24.446  25.841  1.00  0.00     0.293 HD
ENDBRANCH   6  18
BRANCH  17  20
ATOM     20  O   UNL     1      28.523  28.761  22.689  1.00  0.00    -0.507 OA
ATOM     21  H   UNL     1      29.292  28.427  22.125  1.00  0.00     0.293 HD
ENDBRANCH  17  20
BRANCH  15  22
ATOM     22  O   UNL     1      29.125  33.203  24.395  1.00  0.00    -0.508 OA
ATOM     23  H   UNL     1      28.719  33.647  23.580  1.00  0.00     0.293 HD
ENDBRANCH  15  22
TORSDOF 3
ENDMDL
MODEL 6
REMARK VINA RESULT:    -3.652      2.829      6.485
REMARK INTER + INTRA:          -3.972
REMARK INTER:                  -3.972
REMARK INTRA:                   0.000
REMARK UNBOUND:                 0.000
REMARK SMILES Cc1cc(O)c2c(c1)C(=O)c1cc(O)cc(O)c1C2=O
REMARK SMILES IDX 1 1 2 2 8 3 7 4 6 5 4 6 3 7 19 8 20 9 18 10 11 11 9 12 10 13
REMARK SMILES IDX 12 14 13 15 15 16 16 17 5 18 17 20 14 22
REMARK H PARENT 5 19 17 21 14 23
REMARK Flexibility Score: inf
ROOT
ATOM      1  C   UNL     1      27.392  43.745  23.474  1.00  0.00     0.044 C 
ATOM      2  C   UNL     1      27.565  42.853  22.280  1.00  0.00    -0.047 A 
ATOM      3  C   UNL     1      27.630  41.465  22.443  1.00  0.00     0.016 A 
ATOM      4  C   UNL     1      27.821  40.622  21.335  1.00  0.00     0.038 A 
ATOM      5  C   UNL     1      27.949  41.179  20.042  1.00  0.00     0.076 A 
ATOM      6  C   UNL     1      27.967  42.590  19.895  1.00  0.00     0.127 A 
ATOM      7  C   UNL     1      27.755  43.407  21.010  1.00  0.00     0.050 A 
ATOM      8  C   UNL     1      28.000  40.254  18.881  1.00  0.00     0.201 C 
ATOM      9  O   UNL     1      27.551  40.625  17.764  1.00  0.00    -0.288 OA
ATOM     10  C   UNL     1      28.404  38.838  19.082  1.00  0.00     0.076 A 
ATOM     11  C   UNL     1      28.277  38.286  20.377  1.00  0.00     0.041 A 
ATOM     12  C   UNL     1      27.896  39.154  21.516  1.00  0.00     0.194 C 
ATOM     13  O   UNL     1      27.658  38.643  22.646  1.00  0.00    -0.289 OA
ATOM     14  C   UNL     1      28.518  36.916  20.578  1.00  0.00     0.059 A 
ATOM     15  C   UNL     1      28.897  36.097  19.512  1.00  0.00     0.120 A 
ATOM     16  C   UNL     1      29.064  36.647  18.240  1.00  0.00     0.093 A 
ATOM     17  C   UNL     1      28.850  38.011  18.017  1.00  0.00     0.131 A 
ENDROOT
BRANCH   6  18
ATOM     18  O   UNL     1      28.227  43.219  18.676  1.00  0.00    -0.507 OA
ATOM     19  H   UNL     1      28.846  44.012  18.577  1.00  0.00     0.293 HD
ENDBRANCH   6  18
BRANCH  17  20
ATOM     20  O   UNL     1      29.124  38.506  16.740  1.00  0.00    -0.507 OA
ATOM     21  H   UNL     1      28.682  38.159  15.900  1.00  0.00     0.293 HD
ENDBRANCH  17  20
BRANCH  15  22
ATOM     22  O   UNL     1      29.125  34.737  19.706  1.00  0.00    -0.508 OA
ATOM     23  H   UNL     1      28.644  34.035  19.156  1.00  0.00     0.293 HD
ENDBRANCH  15  22
TORSDOF 3
ENDMDL
MODEL 7
REMARK VINA RESULT:    -3.594      1.403      5.532
REMARK INTER + INTRA:          -3.909
REMARK INTER:                  -3.909
REMARK INTRA:                   0.000
REMARK UNBOUND:                 0.000
REMARK SMILES Cc1cc(O)c2c(c1)C(=O)c1cc(O)cc(O)c1C2=O
REMARK SMILES IDX 1 1 2 2 8 3 7 4 6 5 4 6 3 7 19 8 20 9 18 10 11 11 9 12 10 13
REMARK SMILES IDX 12 14 13 15 15 16 16 17 5 18 17 20 14 22
REMARK H PARENT 5 19 17 21 14 23
REMARK Flexibility Score: inf
ROOT
ATOM      1  C   UNL     1      27.965  39.118  16.697  1.00  0.00     0.044 C 
ATOM      2  C   UNL     1      27.886  38.690  18.132  1.00  0.00    -0.047 A 
ATOM      3  C   UNL     1      28.269  37.396  18.503  1.00  0.00     0.016 A 
ATOM      4  C   UNL     1      28.172  36.976  19.841  1.00  0.00     0.038 A 
ATOM      5  C   UNL     1      27.685  37.867  20.823  1.00  0.00     0.076 A 
ATOM      6  C   UNL     1      27.220  39.147  20.427  1.00  0.00     0.127 A 
ATOM      7  C   UNL     1      27.346  39.550  19.094  1.00  0.00     0.050 A 
ATOM      8  C   UNL     1      27.736  37.440  22.245  1.00  0.00     0.201 C 
ATOM      9  O   UNL     1      27.875  38.302  23.154  1.00  0.00    -0.288 OA
ATOM     10  C   UNL     1      27.814  35.994  22.580  1.00  0.00     0.076 A 
ATOM     11  C   UNL     1      28.300  35.106  21.593  1.00  0.00     0.041 A 
ATOM     12  C   UNL     1      28.573  35.602  20.223  1.00  0.00     0.194 C 
ATOM     13  O   UNL     1      29.124  34.846  19.377  1.00  0.00    -0.289 OA
ATOM     14  C   UNL     1      28.517  33.756  21.915  1.00  0.00     0.059 A 
ATOM     15  C   UNL     1      28.242  33.279  23.199  1.00  0.00     0.120 A 
ATOM     16  C   UNL     1      27.723  34.143  24.164  1.00  0.00     0.093 A 
ATOM     17  C   UNL     1      27.479  35.487  23.863  1.00  0.00     0.131 A 
ENDROOT
BRANCH   6  18
ATOM     18  O   UNL     1      26.597  40.031  21.311  1.00  0.00    -0.507 OA
ATOM     19  H   UNL     1      26.681  41.037  21.247  1.00  0.00     0.293 HD
ENDBRANCH   6  18
BRANCH  17  20
ATOM     20  O   UNL     1      26.875  36.269  24.850  1.00  0.00    -0.507 OA
ATOM     21  H   UNL     1      26.202  35.910  25.513  1.00  0.00     0.293 HD
ENDBRANCH  17  20
BRANCH  15  22
ATOM     22  O   UNL     1      28.468  31.944  23.525  1.00  0.00    -0.508 OA
ATOM     23  H   UNL     1      28.525  31.226  22.812  1.00  0.00     0.293 HD
ENDBRANCH  15  22
TORSDOF 3
ENDMDL
MODEL 8
REMARK VINA RESULT:    -3.194     11.327     12.819
REMARK INTER + INTRA:          -3.474
REMARK INTER:                  -3.474
REMARK INTRA:                   0.000
REMARK UNBOUND:                 0.000
REMARK SMILES Cc1cc(O)c2c(c1)C(=O)c1cc(O)cc(O)c1C2=O
REMARK SMILES IDX 1 1 2 2 8 3 7 4 6 5 4 6 3 7 19 8 20 9 18 10 11 11 9 12 10 13
REMARK SMILES IDX 12 14 13 15 15 16 16 17 5 18 17 20 14 22
REMARK H PARENT 5 19 17 21 14 23
REMARK Flexibility Score: inf
ROOT
ATOM      1  C   UNL     1      29.125  23.891  25.460  1.00  0.00     0.044 C 
ATOM      2  C   UNL     1      28.261  24.838  26.239  1.00  0.00    -0.047 A 
ATOM      3  C   UNL     1      26.931  24.507  26.522  1.00  0.00     0.016 A 
ATOM      4  C   UNL     1      26.105  25.399  27.227  1.00  0.00     0.038 A 
ATOM      5  C   UNL     1      26.620  26.643  27.656  1.00  0.00     0.076 A 
ATOM      6  C   UNL     1      27.941  27.007  27.293  1.00  0.00     0.127 A 
ATOM      7  C   UNL     1      28.750  26.094  26.610  1.00  0.00     0.050 A 
ATOM      8  C   UNL     1      25.766  27.494  28.525  1.00  0.00     0.201 C 
ATOM      9  O   UNL     1      26.299  28.262  29.369  1.00  0.00    -0.288 OA
ATOM     10  C   UNL     1      24.292  27.301  28.528  1.00  0.00     0.076 A 
ATOM     11  C   UNL     1      23.782  26.056  28.095  1.00  0.00     0.041 A 
ATOM     12  C   UNL     1      24.696  25.044  27.516  1.00  0.00     0.194 C 
ATOM     13  O   UNL     1      24.267  23.888  27.246  1.00  0.00    -0.289 OA
ATOM     14  C   UNL     1      22.408  25.786  28.213  1.00  0.00     0.059 A 
ATOM     15  C   UNL     1      21.538  26.744  28.740  1.00  0.00     0.120 A 
ATOM     16  C   UNL     1      22.033  27.989  29.130  1.00  0.00     0.093 A 
ATOM     17  C   UNL     1      23.392  28.291  29.005  1.00  0.00     0.131 A 
ENDROOT
BRANCH   6  18
ATOM     18  O   UNL     1      28.476  28.270  27.558  1.00  0.00    -0.507 OA
ATOM     19  H   UNL     1      29.443  28.426  27.810  1.00  0.00     0.293 HD
ENDBRANCH   6  18
BRANCH  17  20
ATOM     20  O   UNL     1      23.798  29.587  29.330  1.00  0.00    -0.507 OA
ATOM     21  H   UNL     1      23.300  30.417  29.042  1.00  0.00     0.293 HD
ENDBRANCH  17  20
BRANCH  15  22
ATOM     22  O   UNL     1      20.178  26.475  28.869  1.00  0.00    -0.508 OA
ATOM     23  H   UNL     1      19.494  26.889  28.247  1.00  0.00     0.293 HD
ENDBRANCH  15  22
TORSDOF 3
ENDMDL
MODEL 9
REMARK VINA RESULT:    -3.068     10.969     12.910
REMARK INTER + INTRA:          -3.337
REMARK INTER:                  -3.337
REMARK INTRA:                   0.000
REMARK UNBOUND:                 0.000
REMARK SMILES Cc1cc(O)c2c(c1)C(=O)c1cc(O)cc(O)c1C2=O
REMARK SMILES IDX 1 1 2 2 8 3 7 4 6 5 4 6 3 7 19 8 20 9 18 10 11 11 9 12 10 13
REMARK SMILES IDX 12 14 13 15 15 16 16 17 5 18 17 20 14 22
REMARK H PARENT 5 19 17 21 14 23
REMARK Flexibility Score: inf
ROOT
ATOM      1  C   UNL     1      20.159  26.501  28.257  1.00  0.00     0.044 C 
ATOM      2  C   UNL     1      21.650  26.350  28.315  1.00  0.00    -0.047 A 
ATOM      3  C   UNL     1      22.448  27.412  28.753  1.00  0.00     0.016 A 
ATOM      4  C   UNL     1      23.848  27.291  28.785  1.00  0.00     0.038 A 
ATOM      5  C   UNL     1      24.458  26.086  28.371  1.00  0.00     0.076 A 
ATOM      6  C   UNL     1      23.649  25.044  27.848  1.00  0.00     0.127 A 
ATOM      7  C   UNL     1      22.257  25.181  27.847  1.00  0.00     0.050 A 
ATOM      8  C   UNL     1      25.925  25.941  28.558  1.00  0.00     0.201 C 
ATOM      9  O   UNL     1      26.422  24.801  28.761  1.00  0.00    -0.288 OA
ATOM     10  C   UNL     1      26.775  27.153  28.692  1.00  0.00     0.076 A 
ATOM     11  C   UNL     1      26.160  28.357  29.104  1.00  0.00     0.041 A 
ATOM     12  C   UNL     1      24.686  28.423  29.243  1.00  0.00     0.194 C 
ATOM     13  O   UNL     1      24.145  29.454  29.731  1.00  0.00    -0.289 OA
ATOM     14  C   UNL     1      26.950  29.487  29.374  1.00  0.00     0.059 A 
ATOM     15  C   UNL     1      28.338  29.436  29.224  1.00  0.00     0.120 A 
ATOM     16  C   UNL     1      28.944  28.261  28.779  1.00  0.00     0.093 A 
ATOM     17  C   UNL     1      28.180  27.128  28.484  1.00  0.00     0.131 A 
ENDROOT
BRANCH   6  18
ATOM     18  O   UNL     1      24.183  23.880  27.292  1.00  0.00    -0.507 OA
ATOM     19  H   UNL     1      24.758  23.871  26.459  1.00  0.00     0.293 HD
ENDBRANCH   6  18
BRANCH  17  20
ATOM     20  O   UNL     1      28.846  26.020  27.956  1.00  0.00    -0.507 OA
ATOM     21  H   UNL     1      29.654  25.596  28.389  1.00  0.00     0.293 HD
ENDBRANCH  17  20
BRANCH  15  22
ATOM     22  O   UNL     1      29.125  30.551  29.503  1.00  0.00    -0.508 OA
ATOM     23  H   UNL     1      28.802  31.287  30.120  1.00  0.00     0.293 HD
ENDBRANCH  15  22
TORSDOF 3
ENDMDL
