MODEL 1
REMARK VINA RESULT:    -4.354      0.000      0.000
REMARK INTER + INTRA:          -7.683
REMARK INTER:                  -6.899
REMARK INTRA:                  -0.784
REMARK UNBOUND:                -0.784
REMARK SMILES CCCCCCCCCCCC(=O)[O-]
REMARK SMILES IDX 7 1 8 2 9 3 10 4 11 5 12 6 13 7 14 8 6 9 5 10 4 11 3 12 2 13
REMARK SMILES IDX 1 14
REMARK H PARENT
REMARK Flexibility Score: inf
ROOT
ATOM      1  C   UNL     1      51.875  -3.303  12.513  1.00  0.00     0.000 C 
ENDROOT
BRANCH   1   2
ATOM      2  C   UNL     1      52.012  -2.256  11.389  1.00  0.00     0.000 C 
BRANCH   2   3
ATOM      3  C   UNL     1      51.824  -2.806   9.960  1.00  0.00     0.000 C 
BRANCH   3   4
ATOM      4  C   UNL     1      53.061  -2.690   9.052  1.00  0.00     0.006 C 
BRANCH   4   5
ATOM      5  C   UNL     1      53.768  -4.034   8.834  1.00  0.00     0.053 C 
BRANCH   5   6
ATOM      6  C   UNL     1      53.826  -4.363   7.376  1.00  0.00     0.041 C 
ATOM      7  O   UNL     1      54.910  -4.255   6.744  1.00  0.00    -0.550 OA
ATOM      8  O   UNL     1      52.694  -4.836   6.724  1.00  0.00    -0.550 OA
ENDBRANCH   5   6
ENDBRANCH   4   5
ENDBRANCH   3   4
ENDBRANCH   2   3
ENDBRANCH   1   2
BRANCH   1   9
ATOM      9  C   UNL     1      53.182  -4.029  12.890  1.00  0.00     0.000 C 
BRANCH   9  10
ATOM     10  C   UNL     1      54.474  -3.289  12.498  1.00  0.00    -0.000 C 
BRANCH  10  11
ATOM     11  C   UNL     1      55.427  -3.083  13.684  1.00  0.00    -0.000 C 
BRANCH  11  12
ATOM     12  C   UNL     1      55.142  -1.750  14.392  1.00  0.00    -0.000 C 
BRANCH  12  13
ATOM     13  C   UNL     1      56.205  -1.401  15.445  1.00  0.00    -0.003 C 
ATOM     14  C   UNL     1      57.632  -1.549  14.916  1.00  0.00     0.004 C 
ENDBRANCH  12  13
ENDBRANCH  11  12
ENDBRANCH  10  11
ENDBRANCH   9  10
ENDBRANCH   1   9
TORSDOF 10
ENDMDL
MODEL 2
REMARK VINA RESULT:    -4.341      1.643      2.511
REMARK INTER + INTRA:          -7.662
REMARK INTER:                  -6.717
REMARK INTRA:                  -0.945
REMARK UNBOUND:                -0.784
REMARK SMILES CCCCCCCCCCCC(=O)[O-]
REMARK SMILES IDX 7 1 8 2 9 3 10 4 11 5 12 6 13 7 14 8 6 9 5 10 4 11 3 12 2 13
REMARK SMILES IDX 1 14
REMARK H PARENT
REMARK Flexibility Score: inf
ROOT
ATOM      1  C   UNL     1      54.500  -3.354  12.655  1.00  0.00     0.000 C 
ENDROOT
BRANCH   1   2
ATOM      2  C   UNL     1      53.051  -2.995  13.039  1.00  0.00     0.000 C 
BRANCH   2   3
ATOM      3  C   UNL     1      51.962  -3.657  12.169  1.00  0.00     0.000 C 
BRANCH   3   4
ATOM      4  C   UNL     1      52.474  -4.729  11.192  1.00  0.00     0.006 C 
BRANCH   4   5
ATOM      5  C   UNL     1      52.249  -4.353   9.722  1.00  0.00     0.053 C 
BRANCH   5   6
ATOM      6  C   UNL     1      53.363  -3.485   9.228  1.00  0.00     0.041 C 
ATOM      7  O   UNL     1      54.412  -4.005   8.763  1.00  0.00    -0.550 OA
ATOM      8  O   UNL     1      53.224  -2.103   9.237  1.00  0.00    -0.550 OA
ENDBRANCH   5   6
ENDBRANCH   4   5
ENDBRANCH   3   4
ENDBRANCH   2   3
ENDBRANCH   1   2
BRANCH   1   9
ATOM      9  C   UNL     1      55.395  -3.798  13.829  1.00  0.00     0.000 C 
BRANCH   9  10
ATOM     10  C   UNL     1      56.848  -3.295  13.765  1.00  0.00    -0.000 C 
BRANCH  10  11
ATOM     11  C   UNL     1      57.155  -2.220  14.818  1.00  0.00    -0.000 C 
BRANCH  11  12
ATOM     12  C   UNL     1      55.895  -1.412  15.162  1.00  0.00    -0.000 C 
BRANCH  12  13
ATOM     13  C   UNL     1      55.892  -0.018  14.518  1.00  0.00    -0.003 C 
ATOM     14  C   UNL     1      54.570   0.310  13.825  1.00  0.00     0.004 C 
ENDBRANCH  12  13
ENDBRANCH  11  12
ENDBRANCH  10  11
ENDBRANCH   9  10
ENDBRANCH   1   9
TORSDOF 10
ENDMDL
MODEL 3
REMARK VINA RESULT:    -4.315      1.088      1.577
REMARK INTER + INTRA:          -7.622
REMARK INTER:                  -6.860
REMARK INTRA:                  -0.763
REMARK UNBOUND:                -0.784
REMARK SMILES CCCCCCCCCCCC(=O)[O-]
REMARK SMILES IDX 7 1 8 2 9 3 10 4 11 5 12 6 13 7 14 8 6 9 5 10 4 11 3 12 2 13
REMARK SMILES IDX 1 14
REMARK H PARENT
REMARK Flexibility Score: inf
ROOT
ATOM      1  C   UNL     1      52.240  -3.607  13.010  1.00  0.00     0.000 C 
ENDROOT
BRANCH   1   2
ATOM      2  C   UNL     1      51.220  -2.949  12.059  1.00  0.00     0.000 C 
BRANCH   2   3
ATOM      3  C   UNL     1      51.825  -1.979  11.023  1.00  0.00     0.000 C 
BRANCH   3   4
ATOM      4  C   UNL     1      51.740  -2.455   9.562  1.00  0.00     0.006 C 
BRANCH   4   5
ATOM      5  C   UNL     1      53.117  -2.598   8.901  1.00  0.00     0.053 C 
BRANCH   5   6
ATOM      6  C   UNL     1      53.461  -4.042   8.717  1.00  0.00     0.041 C 
ATOM      7  O   UNL     1      52.898  -4.922   9.421  1.00  0.00    -0.550 OA
ATOM      8  O   UNL     1      54.365  -4.422   7.733  1.00  0.00    -0.550 OA
ENDBRANCH   5   6
ENDBRANCH   4   5
ENDBRANCH   3   4
ENDBRANCH   2   3
ENDBRANCH   1   2
BRANCH   1   9
ATOM      9  C   UNL     1      53.701  -3.578  12.520  1.00  0.00     0.000 C 
BRANCH   9  10
ATOM     10  C   UNL     1      54.672  -2.787  13.417  1.00  0.00    -0.000 C 
BRANCH  10  11
ATOM     11  C   UNL     1      56.008  -3.511  13.634  1.00  0.00    -0.000 C 
BRANCH  11  12
ATOM     12  C   UNL     1      56.976  -2.643  14.453  1.00  0.00    -0.000 C 
BRANCH  12  13
ATOM     13  C   UNL     1      56.279  -1.445  15.115  1.00  0.00    -0.003 C 
ATOM     14  C   UNL     1      57.102  -0.159  15.025  1.00  0.00     0.004 C 
ENDBRANCH  12  13
ENDBRANCH  11  12
ENDBRANCH  10  11
ENDBRANCH   9  10
ENDBRANCH   1   9
TORSDOF 10
ENDMDL
MODEL 4
REMARK VINA RESULT:    -4.297      4.177      6.869
REMARK INTER + INTRA:          -7.593
REMARK INTER:                  -6.651
REMARK INTRA:                  -0.942
REMARK UNBOUND:                -0.784
REMARK SMILES CCCCCCCCCCCC(=O)[O-]
REMARK SMILES IDX 7 1 8 2 9 3 10 4 11 5 12 6 13 7 14 8 6 9 5 10 4 11 3 12 2 13
REMARK SMILES IDX 1 14
REMARK H PARENT
REMARK Flexibility Score: inf
ROOT
ATOM      1  C   UNL     1      53.502  -4.028  13.052  1.00  0.00     0.000 C 
ENDROOT
BRANCH   1   2
ATOM      2  C   UNL     1      54.550  -2.924  13.295  1.00  0.00     0.000 C 
BRANCH   2   3
ATOM      3  C   UNL     1      55.974  -3.433  13.600  1.00  0.00     0.000 C 
BRANCH   3   4
ATOM      4  C   UNL     1      56.819  -2.502  14.486  1.00  0.00     0.006 C 
BRANCH   4   5
ATOM      5  C   UNL     1      56.138  -1.153  14.754  1.00  0.00     0.053 C 
BRANCH   5   6
ATOM      6  C   UNL     1      56.050  -0.896  16.225  1.00  0.00     0.041 C 
ATOM      7  O   UNL     1      55.023  -1.242  16.868  1.00  0.00    -0.550 OA
ATOM      8  O   UNL     1      57.120  -0.318  16.895  1.00  0.00    -0.550 OA
ENDBRANCH   5   6
ENDBRANCH   4   5
ENDBRANCH   3   4
ENDBRANCH   2   3
ENDBRANCH   1   2
BRANCH   1   9
ATOM      9  C   UNL     1      52.090  -3.520  12.695  1.00  0.00     0.000 C 
BRANCH   9  10
ATOM     10  C   UNL     1      52.051  -2.160  11.975  1.00  0.00    -0.000 C 
BRANCH  10  11
ATOM     11  C   UNL     1      51.717  -2.283  10.482  1.00  0.00    -0.000 C 
BRANCH  11  12
ATOM     12  C   UNL     1      52.971  -2.075   9.619  1.00  0.00    -0.000 C 
BRANCH  12  13
ATOM     13  C   UNL     1      53.776  -3.368   9.424  1.00  0.00    -0.003 C 
ATOM     14  C   UNL     1      52.893  -4.569   9.086  1.00  0.00     0.004 C 
ENDBRANCH  12  13
ENDBRANCH  11  12
ENDBRANCH  10  11
ENDBRANCH   9  10
ENDBRANCH   1   9
TORSDOF 10
ENDMDL
MODEL 5
REMARK VINA RESULT:    -4.268      2.351      4.224
REMARK INTER + INTRA:          -7.547
REMARK INTER:                  -6.543
REMARK INTRA:                  -1.004
REMARK UNBOUND:                -0.784
REMARK SMILES CCCCCCCCCCCC(=O)[O-]
REMARK SMILES IDX 7 1 8 2 9 3 10 4 11 5 12 6 13 7 14 8 6 9 5 10 4 11 3 12 2 13
REMARK SMILES IDX 1 14
REMARK H PARENT
REMARK Flexibility Score: inf
ROOT
ATOM      1  C   UNL     1      56.864  -3.495  13.762  1.00  0.00     0.000 C 
ENDROOT
BRANCH   1   2
ATOM      2  C   UNL     1      55.361  -3.833  13.785  1.00  0.00     0.000 C 
BRANCH   2   3
ATOM      3  C   UNL     1      54.531  -3.198  12.650  1.00  0.00     0.000 C 
BRANCH   3   4
ATOM      4  C   UNL     1      53.077  -2.859  13.020  1.00  0.00     0.006 C 
BRANCH   4   5
ATOM      5  C   UNL     1      52.079  -3.931  12.560  1.00  0.00     0.053 C 
BRANCH   5   6
ATOM      6  C   UNL     1      52.051  -4.010  11.066  1.00  0.00     0.041 C 
ATOM      7  O   UNL     1      52.431  -5.058  10.480  1.00  0.00    -0.550 OA
ATOM      8  O   UNL     1      51.560  -2.944  10.323  1.00  0.00    -0.550 OA
ENDBRANCH   5   6
ENDBRANCH   4   5
ENDBRANCH   3   4
ENDBRANCH   2   3
ENDBRANCH   1   2
BRANCH   1   9
ATOM      9  C   UNL     1      57.263  -2.244  14.570  1.00  0.00     0.000 C 
BRANCH   9  10
ATOM     10  C   UNL     1      56.094  -1.506  15.247  1.00  0.00    -0.000 C 
BRANCH  10  11
ATOM     11  C   UNL     1      55.931  -0.062  14.752  1.00  0.00    -0.000 C 
BRANCH  11  12
ATOM     12  C   UNL     1      54.446   0.314  14.632  1.00  0.00    -0.000 C 
BRANCH  12  13
ATOM     13  C   UNL     1      54.043   0.681  13.196  1.00  0.00    -0.003 C 
ATOM     14  C   UNL     1      52.559   1.021  13.067  1.00  0.00     0.004 C 
ENDBRANCH  12  13
ENDBRANCH  11  12
ENDBRANCH  10  11
ENDBRANCH   9  10
ENDBRANCH   1   9
TORSDOF 10
ENDMDL
MODEL 6
REMARK VINA RESULT:    -4.187      4.388      7.223
REMARK INTER + INTRA:          -7.419
REMARK INTER:                  -6.635
REMARK INTRA:                  -0.784
REMARK UNBOUND:                -0.784
REMARK SMILES CCCCCCCCCCCC(=O)[O-]
REMARK SMILES IDX 7 1 8 2 9 3 10 4 11 5 12 6 13 7 14 8 6 9 5 10 4 11 3 12 2 13
REMARK SMILES IDX 1 14
REMARK H PARENT
REMARK Flexibility Score: inf
ROOT
ATOM      1  C   UNL     1      54.541  -2.397  13.377  1.00  0.00     0.000 C 
ENDROOT
BRANCH   1   2
ATOM      2  C   UNL     1      55.642  -3.385  13.810  1.00  0.00     0.000 C 
BRANCH   2   3
ATOM      3  C   UNL     1      56.866  -2.742  14.494  1.00  0.00     0.000 C 
BRANCH   3   4
ATOM      4  C   UNL     1      56.717  -1.244  14.815  1.00  0.00     0.006 C 
BRANCH   4   5
ATOM      5  C   UNL     1      57.026  -0.915  16.281  1.00  0.00     0.053 C 
BRANCH   5   6
ATOM      6  C   UNL     1      55.771  -0.929  17.095  1.00  0.00     0.041 C 
ATOM      7  O   UNL     1      55.828  -1.069  18.345  1.00  0.00    -0.550 OA
ATOM      8  O   UNL     1      54.541  -0.737  16.478  1.00  0.00    -0.550 OA
ENDBRANCH   5   6
ENDBRANCH   4   5
ENDBRANCH   3   4
ENDBRANCH   2   3
ENDBRANCH   1   2
BRANCH   1   9
ATOM      9  C   UNL     1      53.133  -3.008  13.236  1.00  0.00     0.000 C 
BRANCH   9  10
ATOM     10  C   UNL     1      53.074  -4.328  12.445  1.00  0.00    -0.000 C 
BRANCH  10  11
ATOM     11  C   UNL     1      52.038  -4.300  11.312  1.00  0.00    -0.000 C 
BRANCH  11  12
ATOM     12  C   UNL     1      52.655  -4.789   9.992  1.00  0.00    -0.000 C 
BRANCH  12  13
ATOM     13  C   UNL     1      53.668  -3.793   9.409  1.00  0.00    -0.003 C 
ATOM     14  C   UNL     1      53.083  -2.393   9.227  1.00  0.00     0.004 C 
ENDBRANCH  12  13
ENDBRANCH  11  12
ENDBRANCH  10  11
ENDBRANCH   9  10
ENDBRANCH   1   9
TORSDOF 10
ENDMDL
MODEL 7
REMARK VINA RESULT:    -4.147     10.577     13.350
REMARK INTER + INTRA:          -7.356
REMARK INTER:                  -6.431
REMARK INTRA:                  -0.924
REMARK UNBOUND:                -0.784
REMARK SMILES CCCCCCCCCCCC(=O)[O-]
REMARK SMILES IDX 7 1 8 2 9 3 10 4 11 5 12 6 13 7 14 8 6 9 5 10 4 11 3 12 2 13
REMARK SMILES IDX 1 14
REMARK H PARENT
REMARK Flexibility Score: inf
ROOT
ATOM      1  C   UNL     1      59.924  -4.299  22.654  1.00  0.00     0.000 C 
ENDROOT
BRANCH   1   2
ATOM      2  C   UNL     1      60.633  -2.963  22.949  1.00  0.00     0.000 C 
BRANCH   2   3
ATOM      3  C   UNL     1      62.126  -3.083  23.317  1.00  0.00     0.000 C 
BRANCH   3   4
ATOM      4  C   UNL     1      62.634  -4.523  23.506  1.00  0.00     0.006 C 
BRANCH   4   5
ATOM      5  C   UNL     1      63.965  -4.785  22.787  1.00  0.00     0.053 C 
BRANCH   5   6
ATOM      6  C   UNL     1      63.865  -4.394  21.347  1.00  0.00     0.041 C 
ATOM      7  O   UNL     1      64.671  -3.558  20.860  1.00  0.00    -0.550 OA
ATOM      8  O   UNL     1      62.913  -4.989  20.529  1.00  0.00    -0.550 OA
ENDBRANCH   5   6
ENDBRANCH   4   5
ENDBRANCH   3   4
ENDBRANCH   2   3
ENDBRANCH   1   2
BRANCH   1   9
ATOM      9  C   UNL     1      58.868  -4.245  21.533  1.00  0.00     0.000 C 
BRANCH   9  10
ATOM     10  C   UNL     1      59.435  -4.049  20.115  1.00  0.00    -0.000 C 
BRANCH  10  11
ATOM     11  C   UNL     1      58.922  -2.770  19.437  1.00  0.00    -0.000 C 
BRANCH  11  12
ATOM     12  C   UNL     1      58.174  -1.879  20.440  1.00  0.00    -0.000 C 
BRANCH  12  13
ATOM     13  C   UNL     1      56.697  -1.683  20.070  1.00  0.00    -0.003 C 
ATOM     14  C   UNL     1      55.752  -2.487  20.963  1.00  0.00     0.004 C 
ENDBRANCH  12  13
ENDBRANCH  11  12
ENDBRANCH  10  11
ENDBRANCH   9  10
ENDBRANCH   1   9
TORSDOF 10
ENDMDL
MODEL 8
REMARK VINA RESULT:    -4.127      3.231      6.090
REMARK INTER + INTRA:          -7.323
REMARK INTER:                  -6.126
REMARK INTRA:                  -1.197
REMARK UNBOUND:                -0.784
REMARK SMILES CCCCCCCCCCCC(=O)[O-]
REMARK SMILES IDX 7 1 8 2 9 3 10 4 11 5 12 6 13 7 14 8 6 9 5 10 4 11 3 12 2 13
REMARK SMILES IDX 1 14
REMARK H PARENT
REMARK Flexibility Score: inf
ROOT
ATOM      1  C   UNL     1      51.220  -2.781  11.634  1.00  0.00     0.000 C 
ENDROOT
BRANCH   1   2
ATOM      2  C   UNL     1      52.047  -3.326  12.815  1.00  0.00     0.000 C 
BRANCH   2   3
ATOM      3  C   UNL     1      53.385  -3.987  12.425  1.00  0.00     0.000 C 
BRANCH   3   4
ATOM      4  C   UNL     1      54.631  -3.112  12.648  1.00  0.00     0.006 C 
BRANCH   4   5
ATOM      5  C   UNL     1      54.659  -2.459  14.037  1.00  0.00     0.053 C 
BRANCH   5   6
ATOM      6  C   UNL     1      54.761  -0.972  13.912  1.00  0.00     0.041 C 
ATOM      7  O   UNL     1      53.838  -0.318  13.360  1.00  0.00    -0.550 OA
ATOM      8  O   UNL     1      55.853  -0.303  14.450  1.00  0.00    -0.550 OA
ENDBRANCH   5   6
ENDBRANCH   4   5
ENDBRANCH   3   4
ENDBRANCH   2   3
ENDBRANCH   1   2
BRANCH   1   9
ATOM      9  C   UNL     1      51.918  -1.690  10.798  1.00  0.00     0.000 C 
BRANCH   9  10
ATOM     10  C   UNL     1      52.275  -2.104   9.359  1.00  0.00    -0.000 C 
BRANCH  10  11
ATOM     11  C   UNL     1      51.484  -3.328   8.875  1.00  0.00    -0.000 C 
BRANCH  11  12
ATOM     12  C   UNL     1      52.419  -4.520   8.622  1.00  0.00    -0.000 C 
BRANCH  12  13
ATOM     13  C   UNL     1      53.895  -4.107   8.538  1.00  0.00    -0.003 C 
ATOM     14  C   UNL     1      54.490  -4.317   7.146  1.00  0.00     0.004 C 
ENDBRANCH  12  13
ENDBRANCH  11  12
ENDBRANCH  10  11
ENDBRANCH   9  10
ENDBRANCH   1   9
TORSDOF 10
ENDMDL
MODEL 9
REMARK VINA RESULT:    -4.071      2.046      3.355
REMARK INTER + INTRA:          -7.236
REMARK INTER:                  -6.362
REMARK INTRA:                  -0.874
REMARK UNBOUND:                -0.784
REMARK SMILES CCCCCCCCCCCC(=O)[O-]
REMARK SMILES IDX 7 1 8 2 9 3 10 4 11 5 12 6 13 7 14 8 6 9 5 10 4 11 3 12 2 13
REMARK SMILES IDX 1 14
REMARK H PARENT
REMARK Flexibility Score: inf
ROOT
ATOM      1  C   UNL     1      54.072  -0.432  13.414  1.00  0.00     0.000 C 
ENDROOT
BRANCH   1   2
ATOM      2  C   UNL     1      52.960   0.188  12.546  1.00  0.00     0.000 C 
BRANCH   2   3
ATOM      3  C   UNL     1      52.030  -0.829  11.852  1.00  0.00     0.000 C 
BRANCH   3   4
ATOM      4  C   UNL     1      52.443  -2.302  12.014  1.00  0.00     0.006 C 
BRANCH   4   5
ATOM      5  C   UNL     1      53.169  -2.857  10.782  1.00  0.00     0.053 C 
BRANCH   5   6
ATOM      6  C   UNL     1      52.265  -3.765  10.009  1.00  0.00     0.041 C 
ATOM      7  O   UNL     1      52.347  -5.014  10.155  1.00  0.00    -0.550 OA
ATOM      8  O   UNL     1      51.300  -3.232   9.165  1.00  0.00    -0.550 OA
ENDBRANCH   5   6
ENDBRANCH   4   5
ENDBRANCH   3   4
ENDBRANCH   2   3
ENDBRANCH   1   2
BRANCH   1   9
ATOM      9  C   UNL     1      54.951   0.583  14.172  1.00  0.00     0.000 C 
BRANCH   9  10
ATOM     10  C   UNL     1      56.031  -0.039  15.075  1.00  0.00    -0.000 C 
BRANCH  10  11
ATOM     11  C   UNL     1      55.933  -1.570  15.157  1.00  0.00    -0.000 C 
BRANCH  11  12
ATOM     12  C   UNL     1      57.180  -2.232  14.553  1.00  0.00    -0.000 C 
BRANCH  12  13
ATOM     13  C   UNL     1      56.862  -3.557  13.844  1.00  0.00    -0.003 C 
ATOM     14  C   UNL     1      55.364  -3.857  13.798  1.00  0.00     0.004 C 
ENDBRANCH  12  13
ENDBRANCH  11  12
ENDBRANCH  10  11
ENDBRANCH   9  10
ENDBRANCH   1   9
TORSDOF 10
ENDMDL
