MODEL 1
REMARK VINA RESULT:    -4.713      0.000      0.000
REMARK INTER + INTRA:         -10.310
REMARK INTER:                  -8.846
REMARK INTRA:                  -1.464
REMARK UNBOUND:                -1.464
REMARK SMILES O=C([O-])CCCCCCCCCCCCCCC(=O)[O-]
REMARK SMILES IDX 10 1 9 2 8 3 7 4 6 5 5 6 4 7 2 8 1 9 3 10 11 11 12 12 13 13
REMARK SMILES IDX 14 14 15 15 16 16 17 17 18 18 19 19 20 20
REMARK H PARENT
REMARK Flexibility Score: inf
ROOT
ATOM      1  C   UNL     1      11.868   5.885  10.756  1.00  0.00     0.000 C 
ENDROOT
BRANCH   1   2
ATOM      2  C   UNL     1      12.041   7.373  10.425  1.00  0.00     0.000 C 
BRANCH   2   3
ATOM      3  C   UNL     1      11.528   8.255  11.573  1.00  0.00     0.000 C 
BRANCH   3   4
ATOM      4  C   UNL     1      11.432   9.741  11.187  1.00  0.00     0.000 C 
BRANCH   4   5
ATOM      5  C   UNL     1      12.353  10.178  10.029  1.00  0.00     0.000 C 
BRANCH   5   6
ATOM      6  C   UNL     1      12.507  11.699   9.857  1.00  0.00     0.006 C 
BRANCH   6   7
ATOM      7  C   UNL     1      12.361  12.466  11.178  1.00  0.00     0.053 C 
BRANCH   7   8
ATOM      8  C   UNL     1      11.187  13.392  11.117  1.00  0.00     0.041 C 
ATOM      9  O   UNL     1      11.223  14.412  10.379  1.00  0.00    -0.550 OA
ATOM     10  O   UNL     1      10.035  13.104  11.837  1.00  0.00    -0.550 OA
ENDBRANCH   7   8
ENDBRANCH   6   7
ENDBRANCH   5   6
ENDBRANCH   4   5
ENDBRANCH   3   4
ENDBRANCH   2   3
ENDBRANCH   1   2
BRANCH   1  11
ATOM     11  C   UNL     1      10.579   5.644  11.550  1.00  0.00     0.000 C 
BRANCH  11  12
ATOM     12  C   UNL     1       9.674   4.629  10.834  1.00  0.00     0.000 C 
BRANCH  12  13
ATOM     13  C   UNL     1      10.194   4.253   9.439  1.00  0.00     0.000 C 
BRANCH  13  14
ATOM     14  C   UNL     1      10.407   2.741   9.273  1.00  0.00     0.000 C 
BRANCH  14  15
ATOM     15  C   UNL     1      11.903   2.395   9.269  1.00  0.00     0.000 C 
BRANCH  15  16
ATOM     16  C   UNL     1      12.352   1.668  10.551  1.00  0.00     0.006 C 
BRANCH  16  17
ATOM     17  C   UNL     1      13.137   2.550  11.535  1.00  0.00     0.053 C 
BRANCH  17  18
ATOM     18  C   UNL     1      12.612   2.438  12.933  1.00  0.00     0.041 C 
ATOM     19  O   UNL     1      11.380   2.563  13.159  1.00  0.00    -0.550 OA
ATOM     20  O   UNL     1      13.489   2.231  13.991  1.00  0.00    -0.550 OA
ENDBRANCH  17  18
ENDBRANCH  16  17
ENDBRANCH  15  16
ENDBRANCH  14  15
ENDBRANCH  13  14
ENDBRANCH  12  13
ENDBRANCH  11  12
ENDBRANCH   1  11
TORSDOF 15
ENDMDL
MODEL 2
REMARK VINA RESULT:    -4.694      4.198      6.219
REMARK INTER + INTRA:         -10.275
REMARK INTER:                  -8.520
REMARK INTRA:                  -1.755
REMARK UNBOUND:                -1.464
REMARK SMILES O=C([O-])CCCCCCCCCCCCCCC(=O)[O-]
REMARK SMILES IDX 10 1 9 2 8 3 7 4 6 5 5 6 4 7 2 8 1 9 3 10 11 11 12 12 13 13
REMARK SMILES IDX 14 14 15 15 16 16 17 17 18 18 19 19 20 20
REMARK H PARENT
REMARK Flexibility Score: inf
ROOT
ATOM      1  C   UNL     1      10.863   6.131  11.763  1.00  0.00     0.000 C 
ENDROOT
BRANCH   1   2
ATOM      2  C   UNL     1      11.784   6.405  10.567  1.00  0.00     0.000 C 
BRANCH   2   3
ATOM      3  C   UNL     1      12.893   5.346  10.475  1.00  0.00     0.000 C 
BRANCH   3   4
ATOM      4  C   UNL     1      12.671   4.163  11.433  1.00  0.00     0.000 C 
BRANCH   4   5
ATOM      5  C   UNL     1      12.544   2.784  10.752  1.00  0.00     0.000 C 
BRANCH   5   6
ATOM      6  C   UNL     1      11.977   2.812   9.322  1.00  0.00     0.006 C 
BRANCH   6   7
ATOM      7  C   UNL     1      10.508   2.375   9.256  1.00  0.00     0.053 C 
BRANCH   7   8
ATOM      8  C   UNL     1       9.606   3.569   9.288  1.00  0.00     0.041 C 
ATOM      9  O   UNL     1       9.582   4.370   8.317  1.00  0.00    -0.550 OA
ATOM     10  O   UNL     1       8.757   3.770  10.369  1.00  0.00    -0.550 OA
ENDBRANCH   7   8
ENDBRANCH   6   7
ENDBRANCH   5   6
ENDBRANCH   4   5
ENDBRANCH   3   4
ENDBRANCH   2   3
ENDBRANCH   1   2
BRANCH   1  11
ATOM     11  C   UNL     1      10.886   7.299  12.756  1.00  0.00     0.000 C 
BRANCH  11  12
ATOM     12  C   UNL     1      10.308   6.877  14.115  1.00  0.00     0.000 C 
BRANCH  12  13
ATOM     13  C   UNL     1       9.703   5.465  14.089  1.00  0.00     0.000 C 
BRANCH  13  14
ATOM     14  C   UNL     1      10.338   4.528  15.128  1.00  0.00     0.000 C 
BRANCH  14  15
ATOM     15  C   UNL     1      11.034   3.343  14.443  1.00  0.00     0.000 C 
BRANCH  15  16
ATOM     16  C   UNL     1      10.883   2.026  15.228  1.00  0.00     0.006 C 
BRANCH  16  17
ATOM     17  C   UNL     1      12.030   1.741  16.211  1.00  0.00     0.053 C 
BRANCH  17  18
ATOM     18  C   UNL     1      13.309   1.415  15.504  1.00  0.00     0.041 C 
ATOM     19  O   UNL     1      13.446   0.310  14.918  1.00  0.00    -0.550 OA
ATOM     20  O   UNL     1      14.364   2.321  15.522  1.00  0.00    -0.550 OA
ENDBRANCH  17  18
ENDBRANCH  16  17
ENDBRANCH  15  16
ENDBRANCH  14  15
ENDBRANCH  13  14
ENDBRANCH  12  13
ENDBRANCH  11  12
ENDBRANCH   1  11
TORSDOF 15
ENDMDL
MODEL 3
REMARK VINA RESULT:    -4.690      1.603      3.107
REMARK INTER + INTRA:         -10.267
REMARK INTER:                  -8.986
REMARK INTRA:                  -1.281
REMARK UNBOUND:                -1.464
REMARK SMILES O=C([O-])CCCCCCCCCCCCCCC(=O)[O-]
REMARK SMILES IDX 10 1 9 2 8 3 7 4 6 5 5 6 4 7 2 8 1 9 3 10 11 11 12 12 13 13
REMARK SMILES IDX 14 14 15 15 16 16 17 17 18 18 19 19 20 20
REMARK H PARENT
REMARK Flexibility Score: inf
ROOT
ATOM      1  C   UNL     1       9.617   4.156   9.713  1.00  0.00     0.000 C 
ENDROOT
BRANCH   1   2
ATOM      2  C   UNL     1       9.975   5.063  10.896  1.00  0.00     0.000 C 
BRANCH   2   3
ATOM      3  C   UNL     1      11.474   5.400  10.895  1.00  0.00     0.000 C 
BRANCH   3   4
ATOM      4  C   UNL     1      11.750   6.895  10.656  1.00  0.00     0.000 C 
BRANCH   4   5
ATOM      5  C   UNL     1      11.414   7.821  11.843  1.00  0.00     0.000 C 
BRANCH   5   6
ATOM      6  C   UNL     1      11.454   9.327  11.527  1.00  0.00     0.006 C 
BRANCH   6   7
ATOM      7  C   UNL     1      12.080   9.632  10.160  1.00  0.00     0.053 C 
BRANCH   7   8
ATOM      8  C   UNL     1      12.614  11.029  10.131  1.00  0.00     0.041 C 
ATOM      9  O   UNL     1      12.611  11.730  11.177  1.00  0.00    -0.550 OA
ATOM     10  O   UNL     1      13.160  11.541   8.960  1.00  0.00    -0.550 OA
ENDBRANCH   7   8
ENDBRANCH   6   7
ENDBRANCH   5   6
ENDBRANCH   4   5
ENDBRANCH   3   4
ENDBRANCH   2   3
ENDBRANCH   1   2
BRANCH   1  11
ATOM     11  C   UNL     1       9.638   2.679  10.125  1.00  0.00     0.000 C 
BRANCH  11  12
ATOM     12  C   UNL     1      10.498   1.851   9.159  1.00  0.00     0.000 C 
BRANCH  12  13
ATOM     13  C   UNL     1      12.004   2.051   9.386  1.00  0.00     0.000 C 
BRANCH  13  14
ATOM     14  C   UNL     1      12.512   1.340  10.650  1.00  0.00     0.000 C 
BRANCH  14  15
ATOM     15  C   UNL     1      13.192   2.335  11.602  1.00  0.00     0.000 C 
BRANCH  15  16
ATOM     16  C   UNL     1      12.564   2.342  13.009  1.00  0.00     0.006 C 
BRANCH  16  17
ATOM     17  C   UNL     1      13.074   1.225  13.933  1.00  0.00     0.053 C 
BRANCH  17  18
ATOM     18  C   UNL     1      13.373   1.728  15.312  1.00  0.00     0.041 C 
ATOM     19  O   UNL     1      14.481   2.270  15.562  1.00  0.00    -0.550 OA
ATOM     20  O   UNL     1      12.440   1.566  16.329  1.00  0.00    -0.550 OA
ENDBRANCH  17  18
ENDBRANCH  16  17
ENDBRANCH  15  16
ENDBRANCH  14  15
ENDBRANCH  13  14
ENDBRANCH  12  13
ENDBRANCH  11  12
ENDBRANCH   1  11
TORSDOF 15
ENDMDL
MODEL 4
REMARK VINA RESULT:    -4.603      2.692      4.720
REMARK INTER + INTRA:         -10.103
REMARK INTER:                  -8.691
REMARK INTRA:                  -1.412
REMARK UNBOUND:                -1.464
REMARK SMILES O=C([O-])CCCCCCCCCCCCCCC(=O)[O-]
REMARK SMILES IDX 10 1 9 2 8 3 7 4 6 5 5 6 4 7 2 8 1 9 3 10 11 11 12 12 13 13
REMARK SMILES IDX 14 14 15 15 16 16 17 17 18 18 19 19 20 20
REMARK H PARENT
REMARK Flexibility Score: inf
ROOT
ATOM      1  C   UNL     1      13.488   3.013  11.932  1.00  0.00     0.000 C 
ENDROOT
BRANCH   1   2
ATOM      2  C   UNL     1      12.382   3.926  11.389  1.00  0.00     0.000 C 
BRANCH   2   3
ATOM      3  C   UNL     1      12.969   5.241  10.855  1.00  0.00     0.000 C 
BRANCH   3   4
ATOM      4  C   UNL     1      11.887   6.273  10.489  1.00  0.00     0.000 C 
BRANCH   4   5
ATOM      5  C   UNL     1      11.273   7.030  11.684  1.00  0.00     0.000 C 
BRANCH   5   6
ATOM      6  C   UNL     1      11.441   8.559  11.643  1.00  0.00     0.006 C 
BRANCH   6   7
ATOM      7  C   UNL     1      12.052   9.056  10.327  1.00  0.00     0.053 C 
BRANCH   7   8
ATOM      8  C   UNL     1      12.410  10.505  10.432  1.00  0.00     0.041 C 
ATOM      9  O   UNL     1      12.846  11.124   9.426  1.00  0.00    -0.550 OA
ATOM     10  O   UNL     1      12.217  11.184  11.629  1.00  0.00    -0.550 OA
ENDBRANCH   7   8
ENDBRANCH   6   7
ENDBRANCH   5   6
ENDBRANCH   4   5
ENDBRANCH   3   4
ENDBRANCH   2   3
ENDBRANCH   1   2
BRANCH   1  11
ATOM     11  C   UNL     1      12.965   2.130  13.072  1.00  0.00     0.000 C 
BRANCH  11  12
ATOM     12  C   UNL     1      13.762   2.370  14.363  1.00  0.00     0.000 C 
BRANCH  12  13
ATOM     13  C   UNL     1      13.058   1.807  15.607  1.00  0.00     0.000 C 
BRANCH  13  14
ATOM     14  C   UNL     1      11.563   1.538  15.372  1.00  0.00     0.000 C 
BRANCH  14  15
ATOM     15  C   UNL     1      10.714   2.735  15.824  1.00  0.00     0.000 C 
BRANCH  15  16
ATOM     16  C   UNL     1       9.956   3.405  14.662  1.00  0.00     0.006 C 
BRANCH  16  17
ATOM     17  C   UNL     1      10.425   4.834  14.343  1.00  0.00     0.053 C 
BRANCH  17  18
ATOM     18  C   UNL     1       9.588   5.867  15.032  1.00  0.00     0.041 C 
ATOM     19  O   UNL     1       8.360   5.667  15.219  1.00  0.00    -0.550 OA
ATOM     20  O   UNL     1      10.160   7.068  15.436  1.00  0.00    -0.550 OA
ENDBRANCH  17  18
ENDBRANCH  16  17
ENDBRANCH  15  16
ENDBRANCH  14  15
ENDBRANCH  13  14
ENDBRANCH  12  13
ENDBRANCH  11  12
ENDBRANCH   1  11
TORSDOF 15
ENDMDL
MODEL 5
REMARK VINA RESULT:    -4.593      4.231      7.276
REMARK INTER + INTRA:         -10.084
REMARK INTER:                  -8.054
REMARK INTRA:                  -2.030
REMARK UNBOUND:                -1.464
REMARK SMILES O=C([O-])CCCCCCCCCCCCCCC(=O)[O-]
REMARK SMILES IDX 10 1 9 2 8 3 7 4 6 5 5 6 4 7 2 8 1 9 3 10 11 11 12 12 13 13
REMARK SMILES IDX 14 14 15 15 16 16 17 17 18 18 19 19 20 20
REMARK H PARENT
REMARK Flexibility Score: inf
ROOT
ATOM      1  C   UNL     1      10.527   5.973  11.645  1.00  0.00     0.000 C 
ENDROOT
BRANCH   1   2
ATOM      2  C   UNL     1      10.509   6.599  13.045  1.00  0.00     0.000 C 
BRANCH   2   3
ATOM      3  C   UNL     1       9.862   5.647  14.063  1.00  0.00     0.000 C 
BRANCH   3   4
ATOM      4  C   UNL     1      10.086   4.164  13.721  1.00  0.00     0.000 C 
BRANCH   4   5
ATOM      5  C   UNL     1      11.252   3.488  14.471  1.00  0.00     0.000 C 
BRANCH   5   6
ATOM      6  C   UNL     1      10.902   2.153  15.152  1.00  0.00     0.006 C 
BRANCH   6   7
ATOM      7  C   UNL     1      12.084   1.548  15.920  1.00  0.00     0.053 C 
BRANCH   7   8
ATOM      8  C   UNL     1      13.313   1.541  15.066  1.00  0.00     0.041 C 
ATOM      9  O   UNL     1      13.390   0.771  14.073  1.00  0.00    -0.550 OA
ATOM     10  O   UNL     1      14.354   2.421  15.338  1.00  0.00    -0.550 OA
ENDBRANCH   7   8
ENDBRANCH   6   7
ENDBRANCH   5   6
ENDBRANCH   4   5
ENDBRANCH   3   4
ENDBRANCH   2   3
ENDBRANCH   1   2
BRANCH   1  11
ATOM     11  C   UNL     1      11.731   6.469  10.835  1.00  0.00     0.000 C 
BRANCH  11  12
ATOM     12  C   UNL     1      12.559   5.290  10.303  1.00  0.00     0.000 C 
BRANCH  12  13
ATOM     13  C   UNL     1      13.206   4.465  11.426  1.00  0.00     0.000 C 
BRANCH  13  14
ATOM     14  C   UNL     1      13.102   2.951  11.185  1.00  0.00     0.000 C 
BRANCH  14  15
ATOM     15  C   UNL     1      11.657   2.546  10.860  1.00  0.00     0.000 C 
BRANCH  15  16
ATOM     16  C   UNL     1      11.501   1.974   9.438  1.00  0.00     0.006 C 
BRANCH  16  17
ATOM     17  C   UNL     1      10.066   2.022   8.892  1.00  0.00     0.053 C 
BRANCH  17  18
ATOM     18  C   UNL     1       9.423   3.356   9.113  1.00  0.00     0.041 C 
ATOM     19  O   UNL     1       8.495   3.480   9.954  1.00  0.00    -0.550 OA
ATOM     20  O   UNL     1       9.826   4.456   8.365  1.00  0.00    -0.550 OA
ENDBRANCH  17  18
ENDBRANCH  16  17
ENDBRANCH  15  16
ENDBRANCH  14  15
ENDBRANCH  13  14
ENDBRANCH  12  13
ENDBRANCH  11  12
ENDBRANCH   1  11
TORSDOF 15
ENDMDL
MODEL 6
REMARK VINA RESULT:    -4.577      1.392      2.359
REMARK INTER + INTRA:         -10.056
REMARK INTER:                  -8.188
REMARK INTRA:                  -1.868
REMARK UNBOUND:                -1.464
REMARK SMILES O=C([O-])CCCCCCCCCCCCCCC(=O)[O-]
REMARK SMILES IDX 10 1 9 2 8 3 7 4 6 5 5 6 4 7 2 8 1 9 3 10 11 11 12 12 13 13
REMARK SMILES IDX 14 14 15 15 16 16 17 17 18 18 19 19 20 20
REMARK H PARENT
REMARK Flexibility Score: inf
ROOT
ATOM      1  C   UNL     1       9.645   4.924  11.482  1.00  0.00     0.000 C 
ENDROOT
BRANCH   1   2
ATOM      2  C   UNL     1      10.327   5.506  12.725  1.00  0.00     0.000 C 
BRANCH   2   3
ATOM      3  C   UNL     1      11.322   6.612  12.339  1.00  0.00     0.000 C 
BRANCH   3   4
ATOM      4  C   UNL     1      11.655   6.617  10.837  1.00  0.00     0.000 C 
BRANCH   4   5
ATOM      5  C   UNL     1      12.014   7.997  10.250  1.00  0.00     0.000 C 
BRANCH   5   6
ATOM      6  C   UNL     1      11.639   9.199  11.134  1.00  0.00     0.006 C 
BRANCH   6   7
ATOM      7  C   UNL     1      12.368  10.486  10.730  1.00  0.00     0.053 C 
BRANCH   7   8
ATOM      8  C   UNL     1      11.955  11.620  11.615  1.00  0.00     0.041 C 
ATOM      9  O   UNL     1      12.713  12.614  11.766  1.00  0.00    -0.550 OA
ATOM     10  O   UNL     1      10.712  11.601  12.235  1.00  0.00    -0.550 OA
ENDBRANCH   7   8
ENDBRANCH   6   7
ENDBRANCH   5   6
ENDBRANCH   4   5
ENDBRANCH   3   4
ENDBRANCH   2   3
ENDBRANCH   1   2
BRANCH   1  11
ATOM     11  C   UNL     1       9.218   3.470  11.717  1.00  0.00     0.000 C 
BRANCH  11  12
ATOM     12  C   UNL     1       9.896   2.528  10.711  1.00  0.00     0.000 C 
BRANCH  12  13
ATOM     13  C   UNL     1      10.787   3.275   9.707  1.00  0.00     0.000 C 
BRANCH  13  14
ATOM     14  C   UNL     1      12.259   2.841   9.781  1.00  0.00     0.000 C 
BRANCH  14  15
ATOM     15  C   UNL     1      12.523   2.015  11.048  1.00  0.00     0.000 C 
BRANCH  15  16
ATOM     16  C   UNL     1      13.131   2.849  12.191  1.00  0.00     0.006 C 
BRANCH  16  17
ATOM     17  C   UNL     1      12.503   2.585  13.569  1.00  0.00     0.053 C 
BRANCH  17  18
ATOM     18  C   UNL     1      13.356   1.692  14.415  1.00  0.00     0.041 C 
ATOM     19  O   UNL     1      14.019   2.170  15.372  1.00  0.00    -0.550 OA
ATOM     20  O   UNL     1      13.446   0.336  14.124  1.00  0.00    -0.550 OA
ENDBRANCH  17  18
ENDBRANCH  16  17
ENDBRANCH  15  16
ENDBRANCH  14  15
ENDBRANCH  13  14
ENDBRANCH  12  13
ENDBRANCH  11  12
ENDBRANCH   1  11
TORSDOF 15
ENDMDL
MODEL 7
REMARK VINA RESULT:    -4.526      4.287      7.530
REMARK INTER + INTRA:          -9.959
REMARK INTER:                  -7.609
REMARK INTRA:                  -2.350
REMARK UNBOUND:                -1.464
REMARK SMILES O=C([O-])CCCCCCCCCCCCCCC(=O)[O-]
REMARK SMILES IDX 10 1 9 2 8 3 7 4 6 5 5 6 4 7 2 8 1 9 3 10 11 11 12 12 13 13
REMARK SMILES IDX 14 14 15 15 16 16 17 17 18 18 19 19 20 20
REMARK H PARENT
REMARK Flexibility Score: inf
ROOT
ATOM      1  C   UNL     1      11.230   6.247  11.014  1.00  0.00     0.000 C 
ENDROOT
BRANCH   1   2
ATOM      2  C   UNL     1      12.581   5.565  10.770  1.00  0.00     0.000 C 
BRANCH   2   3
ATOM      3  C   UNL     1      12.392   4.084  10.410  1.00  0.00     0.000 C 
BRANCH   3   4
ATOM      4  C   UNL     1      13.281   3.147  11.247  1.00  0.00     0.000 C 
BRANCH   4   5
ATOM      5  C   UNL     1      12.743   1.712  11.418  1.00  0.00     0.000 C 
BRANCH   5   6
ATOM      6  C   UNL     1      12.735   1.186  12.864  1.00  0.00     0.006 C 
BRANCH   6   7
ATOM      7  C   UNL     1      12.920   2.299  13.904  1.00  0.00     0.053 C 
BRANCH   7   8
ATOM      8  C   UNL     1      13.574   1.758  15.136  1.00  0.00     0.041 C 
ATOM      9  O   UNL     1      13.161   0.688  15.655  1.00  0.00    -0.550 OA
ATOM     10  O   UNL     1      14.671   2.411  15.685  1.00  0.00    -0.550 OA
ENDBRANCH   7   8
ENDBRANCH   6   7
ENDBRANCH   5   6
ENDBRANCH   4   5
ENDBRANCH   3   4
ENDBRANCH   2   3
ENDBRANCH   1   2
BRANCH   1  11
ATOM     11  C   UNL     1      11.221   6.989  12.356  1.00  0.00     0.000 C 
BRANCH  11  12
ATOM     12  C   UNL     1      10.110   6.454  13.272  1.00  0.00     0.000 C 
BRANCH  12  13
ATOM     13  C   UNL     1      10.417   5.051  13.818  1.00  0.00     0.000 C 
BRANCH  13  14
ATOM     14  C   UNL     1       9.200   4.116  13.768  1.00  0.00     0.000 C 
BRANCH  14  15
ATOM     15  C   UNL     1       9.373   3.049  12.677  1.00  0.00     0.000 C 
BRANCH  15  16
ATOM     16  C   UNL     1       8.889   3.523  11.294  1.00  0.00     0.006 C 
BRANCH  16  17
ATOM     17  C   UNL     1       9.037   2.475  10.179  1.00  0.00     0.053 C 
BRANCH  17  18
ATOM     18  C   UNL     1       8.909   3.081   8.816  1.00  0.00     0.041 C 
ATOM     19  O   UNL     1       8.915   4.332   8.676  1.00  0.00    -0.550 OA
ATOM     20  O   UNL     1       8.747   2.264   7.703  1.00  0.00    -0.550 OA
ENDBRANCH  17  18
ENDBRANCH  16  17
ENDBRANCH  15  16
ENDBRANCH  14  15
ENDBRANCH  13  14
ENDBRANCH  12  13
ENDBRANCH  11  12
ENDBRANCH   1  11
TORSDOF 15
ENDMDL
MODEL 8
REMARK VINA RESULT:    -4.522      2.339      3.155
REMARK INTER + INTRA:          -9.952
REMARK INTER:                  -8.564
REMARK INTRA:                  -1.388
REMARK UNBOUND:                -1.464
REMARK SMILES O=C([O-])CCCCCCCCCCCCCCC(=O)[O-]
REMARK SMILES IDX 10 1 9 2 8 3 7 4 6 5 5 6 4 7 2 8 1 9 3 10 11 11 12 12 13 13
REMARK SMILES IDX 14 14 15 15 16 16 17 17 18 18 19 19 20 20
REMARK H PARENT
REMARK Flexibility Score: inf
ROOT
ATOM      1  C   UNL     1      10.329   5.437  11.633  1.00  0.00     0.000 C 
ENDROOT
BRANCH   1   2
ATOM      2  C   UNL     1      11.253   6.551  11.127  1.00  0.00     0.000 C 
BRANCH   2   3
ATOM      3  C   UNL     1      11.419   7.651  12.187  1.00  0.00     0.000 C 
BRANCH   3   4
ATOM      4  C   UNL     1      11.248   9.067  11.611  1.00  0.00     0.000 C 
BRANCH   4   5
ATOM      5  C   UNL     1      12.025   9.341  10.307  1.00  0.00     0.000 C 
BRANCH   5   6
ATOM      6  C   UNL     1      12.672  10.734  10.214  1.00  0.00     0.006 C 
BRANCH   6   7
ATOM      7  C   UNL     1      12.318  11.636  11.403  1.00  0.00     0.053 C 
BRANCH   7   8
ATOM      8  C   UNL     1      11.983  13.016  10.930  1.00  0.00     0.041 C 
ATOM      9  O   UNL     1      12.002  13.286   9.701  1.00  0.00    -0.550 OA
ATOM     10  O   UNL     1      11.601  13.990  11.844  1.00  0.00    -0.550 OA
ENDBRANCH   7   8
ENDBRANCH   6   7
ENDBRANCH   5   6
ENDBRANCH   4   5
ENDBRANCH   3   4
ENDBRANCH   2   3
ENDBRANCH   1   2
BRANCH   1  11
ATOM     11  C   UNL     1      10.811   4.891  12.982  1.00  0.00     0.000 C 
BRANCH  11  12
ATOM     12  C   UNL     1      11.122   3.389  12.888  1.00  0.00     0.000 C 
BRANCH  12  13
ATOM     13  C   UNL     1      12.596   3.110  12.556  1.00  0.00     0.000 C 
BRANCH  13  14
ATOM     14  C   UNL     1      12.766   2.202  11.329  1.00  0.00     0.000 C 
BRANCH  14  15
ATOM     15  C   UNL     1      12.434   2.961  10.036  1.00  0.00     0.000 C 
BRANCH  15  16
ATOM     16  C   UNL     1      11.467   2.188   9.119  1.00  0.00     0.006 C 
BRANCH  16  17
ATOM     17  C   UNL     1       9.982   2.367   9.474  1.00  0.00     0.053 C 
BRANCH  17  18
ATOM     18  C   UNL     1       9.216   3.031   8.371  1.00  0.00     0.041 C 
ATOM     19  O   UNL     1       8.391   2.371   7.687  1.00  0.00    -0.550 OA
ATOM     20  O   UNL     1       9.440   4.371   8.078  1.00  0.00    -0.550 OA
ENDBRANCH  17  18
ENDBRANCH  16  17
ENDBRANCH  15  16
ENDBRANCH  14  15
ENDBRANCH  13  14
ENDBRANCH  12  13
ENDBRANCH  11  12
ENDBRANCH   1  11
TORSDOF 15
ENDMDL
MODEL 9
REMARK VINA RESULT:    -4.506      4.201      7.885
REMARK INTER + INTRA:          -9.921
REMARK INTER:                  -8.024
REMARK INTRA:                  -1.897
REMARK UNBOUND:                -1.464
REMARK SMILES O=C([O-])CCCCCCCCCCCCCCC(=O)[O-]
REMARK SMILES IDX 10 1 9 2 8 3 7 4 6 5 5 6 4 7 2 8 1 9 3 10 11 11 12 12 13 13
REMARK SMILES IDX 14 14 15 15 16 16 17 17 18 18 19 19 20 20
REMARK H PARENT
REMARK Flexibility Score: inf
ROOT
ATOM      1  C   UNL     1      10.257   6.645  14.126  1.00  0.00     0.000 C 
ENDROOT
BRANCH   1   2
ATOM      2  C   UNL     1       9.822   5.186  13.942  1.00  0.00     0.000 C 
BRANCH   2   3
ATOM      3  C   UNL     1      10.521   4.272  14.960  1.00  0.00     0.000 C 
BRANCH   3   4
ATOM      4  C   UNL     1      11.023   2.958  14.336  1.00  0.00     0.000 C 
BRANCH   4   5
ATOM      5  C   UNL     1      12.392   2.469  14.852  1.00  0.00     0.000 C 
BRANCH   5   6
ATOM      6  C   UNL     1      13.246   1.712  13.820  1.00  0.00     0.006 C 
BRANCH   6   7
ATOM      7  C   UNL     1      13.225   0.193  14.029  1.00  0.00     0.053 C 
BRANCH   7   8
ATOM      8  C   UNL     1      12.088  -0.422  13.276  1.00  0.00     0.041 C 
ATOM      9  O   UNL     1      11.657   0.121  12.225  1.00  0.00    -0.550 OA
ATOM     10  O   UNL     1      11.536  -1.622  13.707  1.00  0.00    -0.550 OA
ENDBRANCH   7   8
ENDBRANCH   6   7
ENDBRANCH   5   6
ENDBRANCH   4   5
ENDBRANCH   3   4
ENDBRANCH   2   3
ENDBRANCH   1   2
BRANCH   1  11
ATOM     11  C   UNL     1      10.776   7.235  12.809  1.00  0.00     0.000 C 
BRANCH  11  12
ATOM     12  C   UNL     1      10.791   6.173  11.698  1.00  0.00     0.000 C 
BRANCH  12  13
ATOM     13  C   UNL     1      11.946   6.371  10.706  1.00  0.00     0.000 C 
BRANCH  13  14
ATOM     14  C   UNL     1      12.877   5.151  10.629  1.00  0.00     0.000 C 
BRANCH  14  15
ATOM     15  C   UNL     1      12.123   3.863  10.985  1.00  0.00     0.000 C 
BRANCH  15  16
ATOM     16  C   UNL     1      12.094   2.846   9.828  1.00  0.00     0.006 C 
BRANCH  16  17
ATOM     17  C   UNL     1      10.683   2.405   9.409  1.00  0.00     0.053 C 
BRANCH  17  18
ATOM     18  C   UNL     1       9.725   3.556   9.363  1.00  0.00     0.041 C 
ATOM     19  O   UNL     1       9.838   4.439   8.474  1.00  0.00    -0.550 OA
ATOM     20  O   UNL     1       8.728   3.670  10.325  1.00  0.00    -0.550 OA
ENDBRANCH  17  18
ENDBRANCH  16  17
ENDBRANCH  15  16
ENDBRANCH  14  15
ENDBRANCH  13  14
ENDBRANCH  12  13
ENDBRANCH  11  12
ENDBRANCH   1  11
TORSDOF 15
ENDMDL
