MODEL 1
REMARK VINA RESULT:    -4.918      0.000      0.000
REMARK INTER + INTRA:         -14.758
REMARK INTER:                 -11.243
REMARK INTRA:                  -3.515
REMARK UNBOUND:                -3.515
REMARK SMILES CCCCCCCCCCCCCCCCCCCCCCCC(=O)[O-]
REMARK SMILES IDX 13 1 14 2 15 3 16 4 17 5 18 6 19 7 20 8 21 9 22 10 23 11
REMARK SMILES IDX 24 12 25 13 26 14 12 15 11 16 10 17 9 18 8 19 7 20 6 21 5 22
REMARK SMILES IDX 4 23 3 24 2 25 1 26
REMARK H PARENT
REMARK Flexibility Score: inf
ROOT
ATOM      1  C   UNL     1      39.470  62.245   7.517  1.00  0.00     0.000 C 
ENDROOT
BRANCH   1   2
ATOM      2  C   UNL     1      39.415  63.373   8.563  1.00  0.00     0.000 C 
BRANCH   2   3
ATOM      3  C   UNL     1      39.802  64.774   8.046  1.00  0.00     0.000 C 
BRANCH   3   4
ATOM      4  C   UNL     1      39.518  65.028   6.555  1.00  0.00     0.000 C 
BRANCH   4   5
ATOM      5  C   UNL     1      40.800  65.187   5.721  1.00  0.00     0.000 C 
BRANCH   5   6
ATOM      6  C   UNL     1      42.060  65.376   6.585  1.00  0.00     0.000 C 
BRANCH   6   7
ATOM      7  C   UNL     1      43.206  66.159   5.916  1.00  0.00     0.000 C 
BRANCH   7   8
ATOM      8  C   UNL     1      43.920  65.355   4.816  1.00  0.00     0.000 C 
BRANCH   8   9
ATOM      9  C   UNL     1      44.816  66.235   3.929  1.00  0.00     0.000 C 
BRANCH   9  10
ATOM     10  C   UNL     1      44.537  67.735   4.108  1.00  0.00     0.006 C 
BRANCH  10  11
ATOM     11  C   UNL     1      45.359  68.566   3.119  1.00  0.00     0.053 C 
BRANCH  11  12
ATOM     12  C   UNL     1      44.461  69.410   2.271  1.00  0.00     0.041 C 
ATOM     13  O   UNL     1      44.519  70.666   2.340  1.00  0.00    -0.550 OA
ATOM     14  O   UNL     1      43.593  68.810   1.367  1.00  0.00    -0.550 OA
ENDBRANCH  11  12
ENDBRANCH  10  11
ENDBRANCH   9  10
ENDBRANCH   8   9
ENDBRANCH   7   8
ENDBRANCH   6   7
ENDBRANCH   5   6
ENDBRANCH   4   5
ENDBRANCH   3   4
ENDBRANCH   2   3
ENDBRANCH   1   2
BRANCH   1  15
ATOM     15  C   UNL     1      40.079  60.947   8.071  1.00  0.00     0.000 C 
BRANCH  15  16
ATOM     16  C   UNL     1      41.619  60.979   8.115  1.00  0.00     0.000 C 
BRANCH  16  17
ATOM     17  C   UNL     1      42.320  59.863   7.317  1.00  0.00     0.000 C 
BRANCH  17  18
ATOM     18  C   UNL     1      43.040  60.325   6.036  1.00  0.00    -0.000 C 
BRANCH  18  19
ATOM     19  C   UNL     1      42.829  61.818   5.706  1.00  0.00    -0.000 C 
BRANCH  19  20
ATOM     20  C   UNL     1      42.440  62.049   4.235  1.00  0.00    -0.000 C 
BRANCH  20  21
ATOM     21  C   UNL     1      40.910  62.062   4.025  1.00  0.00    -0.000 C 
BRANCH  21  22
ATOM     22  C   UNL     1      40.410  60.983   3.047  1.00  0.00    -0.000 C 
BRANCH  22  23
ATOM     23  C   UNL     1      40.190  59.591   3.669  1.00  0.00    -0.000 C 
BRANCH  23  24
ATOM     24  C   UNL     1      39.087  59.527   4.742  1.00  0.00    -0.000 C 
BRANCH  24  25
ATOM     25  C   UNL     1      39.243  58.327   5.687  1.00  0.00    -0.003 C 
ATOM     26  C   UNL     1      38.152  57.289   5.442  1.00  0.00     0.004 C 
ENDBRANCH  24  25
ENDBRANCH  23  24
ENDBRANCH  22  23
ENDBRANCH  21  22
ENDBRANCH  20  21
ENDBRANCH  19  20
ENDBRANCH  18  19
ENDBRANCH  17  18
ENDBRANCH  16  17
ENDBRANCH  15  16
ENDBRANCH   1  15
TORSDOF 22
ENDMDL
MODEL 2
REMARK VINA RESULT:    -4.887      3.354      6.489
REMARK INTER + INTRA:         -14.687
REMARK INTER:                 -10.783
REMARK INTRA:                  -3.904
REMARK UNBOUND:                -3.515
REMARK SMILES CCCCCCCCCCCCCCCCCCCCCCCC(=O)[O-]
REMARK SMILES IDX 13 1 14 2 15 3 16 4 17 5 18 6 19 7 20 8 21 9 22 10 23 11
REMARK SMILES IDX 24 12 25 13 26 14 12 15 11 16 10 17 9 18 8 19 7 20 6 21 5 22
REMARK SMILES IDX 4 23 3 24 2 25 1 26
REMARK H PARENT
REMARK Flexibility Score: inf
ROOT
ATOM      1  C   UNL     1      42.259  64.337   5.801  1.00  0.00     0.000 C 
ENDROOT
BRANCH   1   2
ATOM      2  C   UNL     1      40.823  64.311   5.245  1.00  0.00     0.000 C 
BRANCH   2   3
ATOM      3  C   UNL     1      39.896  65.432   5.758  1.00  0.00     0.000 C 
BRANCH   3   4
ATOM      4  C   UNL     1      38.732  64.969   6.651  1.00  0.00     0.000 C 
BRANCH   4   5
ATOM      5  C   UNL     1      39.035  65.117   8.151  1.00  0.00     0.000 C 
BRANCH   5   6
ATOM      6  C   UNL     1      39.299  63.769   8.847  1.00  0.00     0.000 C 
BRANCH   6   7
ATOM      7  C   UNL     1      40.773  63.319   8.872  1.00  0.00     0.000 C 
BRANCH   7   8
ATOM      8  C   UNL     1      40.968  61.875   8.378  1.00  0.00     0.000 C 
BRANCH   8   9
ATOM      9  C   UNL     1      39.642  61.201   7.988  1.00  0.00     0.000 C 
BRANCH   9  10
ATOM     10  C   UNL     1      39.457  61.093   6.467  1.00  0.00     0.006 C 
BRANCH  10  11
ATOM     11  C   UNL     1      38.806  59.760   6.088  1.00  0.00     0.053 C 
BRANCH  11  12
ATOM     12  C   UNL     1      38.756  59.605   4.600  1.00  0.00     0.041 C 
ATOM     13  O   UNL     1      37.916  58.832   4.070  1.00  0.00    -0.550 OA
ATOM     14  O   UNL     1      39.605  60.355   3.795  1.00  0.00    -0.550 OA
ENDBRANCH  11  12
ENDBRANCH  10  11
ENDBRANCH   9  10
ENDBRANCH   8   9
ENDBRANCH   7   8
ENDBRANCH   6   7
ENDBRANCH   5   6
ENDBRANCH   4   5
ENDBRANCH   3   4
ENDBRANCH   2   3
ENDBRANCH   1   2
BRANCH   1  15
ATOM     15  C   UNL     1      42.598  65.654   6.517  1.00  0.00     0.000 C 
BRANCH  15  16
ATOM     16  C   UNL     1      43.164  66.725   5.565  1.00  0.00     0.000 C 
BRANCH  16  17
ATOM     17  C   UNL     1      44.658  66.574   5.223  1.00  0.00     0.000 C 
BRANCH  17  18
ATOM     18  C   UNL     1      44.957  65.911   3.866  1.00  0.00    -0.000 C 
BRANCH  18  19
ATOM     19  C   UNL     1      45.831  64.642   3.970  1.00  0.00    -0.000 C 
BRANCH  19  20
ATOM     20  C   UNL     1      45.043  63.356   3.666  1.00  0.00    -0.000 C 
BRANCH  20  21
ATOM     21  C   UNL     1      45.353  62.223   4.670  1.00  0.00    -0.000 C 
BRANCH  21  22
ATOM     22  C   UNL     1      44.410  61.012   4.547  1.00  0.00    -0.000 C 
BRANCH  22  23
ATOM     23  C   UNL     1      43.367  60.881   5.673  1.00  0.00    -0.000 C 
BRANCH  23  24
ATOM     24  C   UNL     1      42.569  59.563   5.667  1.00  0.00    -0.000 C 
BRANCH  24  25
ATOM     25  C   UNL     1      42.553  58.870   7.037  1.00  0.00    -0.003 C 
ATOM     26  C   UNL     1      41.697  57.607   7.004  1.00  0.00     0.004 C 
ENDBRANCH  24  25
ENDBRANCH  23  24
ENDBRANCH  22  23
ENDBRANCH  21  22
ENDBRANCH  20  21
ENDBRANCH  19  20
ENDBRANCH  18  19
ENDBRANCH  17  18
ENDBRANCH  16  17
ENDBRANCH  15  16
ENDBRANCH   1  15
TORSDOF 22
ENDMDL
MODEL 3
REMARK VINA RESULT:    -4.853      3.707      5.442
REMARK INTER + INTRA:         -14.608
REMARK INTER:                 -10.850
REMARK INTRA:                  -3.758
REMARK UNBOUND:                -3.515
REMARK SMILES CCCCCCCCCCCCCCCCCCCCCCCC(=O)[O-]
REMARK SMILES IDX 13 1 14 2 15 3 16 4 17 5 18 6 19 7 20 8 21 9 22 10 23 11
REMARK SMILES IDX 24 12 25 13 26 14 12 15 11 16 10 17 9 18 8 19 7 20 6 21 5 22
REMARK SMILES IDX 4 23 3 24 2 25 1 26
REMARK H PARENT
REMARK Flexibility Score: inf
ROOT
ATOM      1  C   UNL     1      40.428  61.054   8.629  1.00  0.00     0.000 C 
ENDROOT
BRANCH   1   2
ATOM      2  C   UNL     1      39.654  62.187   7.930  1.00  0.00     0.000 C 
BRANCH   2   3
ATOM      3  C   UNL     1      39.580  63.516   8.708  1.00  0.00     0.000 C 
BRANCH   3   4
ATOM      4  C   UNL     1      40.093  64.753   7.951  1.00  0.00     0.000 C 
BRANCH   4   5
ATOM      5  C   UNL     1      41.611  64.720   7.710  1.00  0.00     0.000 C 
BRANCH   5   6
ATOM      6  C   UNL     1      41.984  64.785   6.218  1.00  0.00     0.000 C 
BRANCH   6   7
ATOM      7  C   UNL     1      42.223  63.423   5.538  1.00  0.00     0.000 C 
BRANCH   7   8
ATOM      8  C   UNL     1      41.076  63.011   4.600  1.00  0.00     0.000 C 
BRANCH   8   9
ATOM      9  C   UNL     1      41.190  61.551   4.134  1.00  0.00     0.000 C 
BRANCH   9  10
ATOM     10  C   UNL     1      41.152  61.412   2.604  1.00  0.00     0.006 C 
BRANCH  10  11
ATOM     11  C   UNL     1      40.112  60.373   2.175  1.00  0.00     0.053 C 
BRANCH  11  12
ATOM     12  C   UNL     1      40.655  59.511   1.079  1.00  0.00     0.041 C 
ATOM     13  O   UNL     1      41.646  59.893   0.403  1.00  0.00    -0.550 OA
ATOM     14  O   UNL     1      40.098  58.260   0.837  1.00  0.00    -0.550 OA
ENDBRANCH  11  12
ENDBRANCH  10  11
ENDBRANCH   9  10
ENDBRANCH   8   9
ENDBRANCH   7   8
ENDBRANCH   6   7
ENDBRANCH   5   6
ENDBRANCH   4   5
ENDBRANCH   3   4
ENDBRANCH   2   3
ENDBRANCH   1   2
BRANCH   1  15
ATOM     15  C   UNL     1      41.798  60.783   7.989  1.00  0.00     0.000 C 
BRANCH  15  16
ATOM     16  C   UNL     1      41.894  59.387   7.343  1.00  0.00     0.000 C 
BRANCH  16  17
ATOM     17  C   UNL     1      41.666  58.205   8.304  1.00  0.00     0.000 C 
BRANCH  17  18
ATOM     18  C   UNL     1      41.623  56.817   7.638  1.00  0.00    -0.000 C 
BRANCH  18  19
ATOM     19  C   UNL     1      42.637  56.645   6.486  1.00  0.00    -0.000 C 
BRANCH  19  20
ATOM     20  C   UNL     1      42.300  55.452   5.576  1.00  0.00    -0.000 C 
BRANCH  20  21
ATOM     21  C   UNL     1      40.833  55.474   5.093  1.00  0.00    -0.000 C 
BRANCH  21  22
ATOM     22  C   UNL     1      40.578  56.451   3.931  1.00  0.00    -0.000 C 
BRANCH  22  23
ATOM     23  C   UNL     1      39.295  57.295   4.059  1.00  0.00    -0.000 C 
BRANCH  23  24
ATOM     24  C   UNL     1      39.217  58.169   5.325  1.00  0.00    -0.000 C 
BRANCH  24  25
ATOM     25  C   UNL     1      38.106  57.726   6.288  1.00  0.00    -0.003 C 
ATOM     26  C   UNL     1      38.006  58.669   7.483  1.00  0.00     0.004 C 
ENDBRANCH  24  25
ENDBRANCH  23  24
ENDBRANCH  22  23
ENDBRANCH  21  22
ENDBRANCH  20  21
ENDBRANCH  19  20
ENDBRANCH  18  19
ENDBRANCH  17  18
ENDBRANCH  16  17
ENDBRANCH  15  16
ENDBRANCH   1  15
TORSDOF 22
ENDMDL
MODEL 4
REMARK VINA RESULT:    -4.828      4.713      6.997
REMARK INTER + INTRA:         -14.551
REMARK INTER:                 -10.219
REMARK INTRA:                  -4.333
REMARK UNBOUND:                -3.515
REMARK SMILES CCCCCCCCCCCCCCCCCCCCCCCC(=O)[O-]
REMARK SMILES IDX 13 1 14 2 15 3 16 4 17 5 18 6 19 7 20 8 21 9 22 10 23 11
REMARK SMILES IDX 24 12 25 13 26 14 12 15 11 16 10 17 9 18 8 19 7 20 6 21 5 22
REMARK SMILES IDX 4 23 3 24 2 25 1 26
REMARK H PARENT
REMARK Flexibility Score: inf
ROOT
ATOM      1  C   UNL     1      38.885  65.114   6.844  1.00  0.00     0.000 C 
ENDROOT
BRANCH   1   2
ATOM      2  C   UNL     1      39.879  65.474   5.724  1.00  0.00     0.000 C 
BRANCH   2   3
ATOM      3  C   UNL     1      41.360  65.172   6.032  1.00  0.00     0.000 C 
BRANCH   3   4
ATOM      4  C   UNL     1      41.933  63.918   5.350  1.00  0.00     0.000 C 
BRANCH   4   5
ATOM      5  C   UNL     1      40.897  63.182   4.483  1.00  0.00     0.000 C 
BRANCH   5   6
ATOM      6  C   UNL     1      40.870  61.664   4.737  1.00  0.00     0.000 C 
BRANCH   6   7
ATOM      7  C   UNL     1      42.190  61.058   5.251  1.00  0.00     0.000 C 
BRANCH   7   8
ATOM      8  C   UNL     1      42.221  59.523   5.163  1.00  0.00     0.000 C 
BRANCH   8   9
ATOM      9  C   UNL     1      42.694  58.866   6.469  1.00  0.00     0.000 C 
BRANCH   9  10
ATOM     10  C   UNL     1      42.456  57.348   6.490  1.00  0.00     0.006 C 
BRANCH  10  11
ATOM     11  C   UNL     1      43.568  56.609   5.739  1.00  0.00     0.053 C 
BRANCH  11  12
ATOM     12  C   UNL     1      42.988  55.747   4.661  1.00  0.00     0.041 C 
ATOM     13  O   UNL     1      41.752  55.512   4.633  1.00  0.00    -0.550 OA
ATOM     14  O   UNL     1      43.808  55.244   3.658  1.00  0.00    -0.550 OA
ENDBRANCH  11  12
ENDBRANCH  10  11
ENDBRANCH   9  10
ENDBRANCH   8   9
ENDBRANCH   7   8
ENDBRANCH   6   7
ENDBRANCH   5   6
ENDBRANCH   4   5
ENDBRANCH   3   4
ENDBRANCH   2   3
ENDBRANCH   1   2
BRANCH   1  15
ATOM     15  C   UNL     1      39.581  64.764   8.169  1.00  0.00     0.000 C 
BRANCH  15  16
ATOM     16  C   UNL     1      39.433  63.278   8.550  1.00  0.00     0.000 C 
BRANCH  16  17
ATOM     17  C   UNL     1      40.741  62.464   8.530  1.00  0.00     0.000 C 
BRANCH  17  18
ATOM     18  C   UNL     1      40.561  60.936   8.482  1.00  0.00    -0.000 C 
BRANCH  18  19
ATOM     19  C   UNL     1      39.289  60.479   7.735  1.00  0.00    -0.000 C 
BRANCH  19  20
ATOM     20  C   UNL     1      39.157  58.948   7.674  1.00  0.00    -0.000 C 
BRANCH  20  21
ATOM     21  C   UNL     1      38.269  58.479   6.500  1.00  0.00    -0.000 C 
BRANCH  21  22
ATOM     22  C   UNL     1      39.006  57.588   5.483  1.00  0.00    -0.000 C 
BRANCH  22  23
ATOM     23  C   UNL     1      38.979  58.096   4.030  1.00  0.00    -0.000 C 
BRANCH  23  24
ATOM     24  C   UNL     1      38.105  59.343   3.795  1.00  0.00    -0.000 C 
BRANCH  24  25
ATOM     25  C   UNL     1      38.386  60.024   2.448  1.00  0.00    -0.003 C 
ATOM     26  C   UNL     1      39.741  59.600   1.890  1.00  0.00     0.004 C 
ENDBRANCH  24  25
ENDBRANCH  23  24
ENDBRANCH  22  23
ENDBRANCH  21  22
ENDBRANCH  20  21
ENDBRANCH  19  20
ENDBRANCH  18  19
ENDBRANCH  17  18
ENDBRANCH  16  17
ENDBRANCH  15  16
ENDBRANCH   1  15
TORSDOF 22
ENDMDL
MODEL 5
REMARK VINA RESULT:    -4.762      3.947      5.632
REMARK INTER + INTRA:         -14.402
REMARK INTER:                  -9.938
REMARK INTRA:                  -4.464
REMARK UNBOUND:                -3.515
REMARK SMILES CCCCCCCCCCCCCCCCCCCCCCCC(=O)[O-]
REMARK SMILES IDX 13 1 14 2 15 3 16 4 17 5 18 6 19 7 20 8 21 9 22 10 23 11
REMARK SMILES IDX 24 12 25 13 26 14 12 15 11 16 10 17 9 18 8 19 7 20 6 21 5 22
REMARK SMILES IDX 4 23 3 24 2 25 1 26
REMARK H PARENT
REMARK Flexibility Score: inf
ROOT
ATOM      1  C   UNL     1      39.763  62.469   8.370  1.00  0.00     0.000 C 
ENDROOT
BRANCH   1   2
ATOM      2  C   UNL     1      40.921  63.473   8.518  1.00  0.00     0.000 C 
BRANCH   2   3
ATOM      3  C   UNL     1      40.846  64.710   7.600  1.00  0.00     0.000 C 
BRANCH   3   4
ATOM      4  C   UNL     1      42.094  64.969   6.739  1.00  0.00     0.000 C 
BRANCH   4   5
ATOM      5  C   UNL     1      42.345  63.862   5.702  1.00  0.00     0.000 C 
BRANCH   5   6
ATOM      6  C   UNL     1      41.078  63.471   4.921  1.00  0.00     0.000 C 
BRANCH   6   7
ATOM      7  C   UNL     1      40.886  61.960   4.690  1.00  0.00     0.000 C 
BRANCH   7   8
ATOM      8  C   UNL     1      42.190  61.242   4.301  1.00  0.00     0.000 C 
BRANCH   8   9
ATOM      9  C   UNL     1      42.480  61.320   2.794  1.00  0.00     0.000 C 
BRANCH   9  10
ATOM     10  C   UNL     1      43.527  60.291   2.338  1.00  0.00     0.006 C 
BRANCH  10  11
ATOM     11  C   UNL     1      43.197  58.897   2.881  1.00  0.00     0.053 C 
BRANCH  11  12
ATOM     12  C   UNL     1      44.412  58.274   3.494  1.00  0.00     0.041 C 
ATOM     13  O   UNL     1      44.803  57.140   3.113  1.00  0.00    -0.550 OA
ATOM     14  O   UNL     1      45.141  58.968   4.452  1.00  0.00    -0.550 OA
ENDBRANCH  11  12
ENDBRANCH  10  11
ENDBRANCH   9  10
ENDBRANCH   8   9
ENDBRANCH   7   8
ENDBRANCH   6   7
ENDBRANCH   5   6
ENDBRANCH   4   5
ENDBRANCH   3   4
ENDBRANCH   2   3
ENDBRANCH   1   2
BRANCH   1  15
ATOM     15  C   UNL     1      40.234  61.007   8.388  1.00  0.00     0.000 C 
BRANCH  15  16
ATOM     16  C   UNL     1      41.729  60.854   8.045  1.00  0.00     0.000 C 
BRANCH  16  17
ATOM     17  C   UNL     1      42.183  59.418   7.722  1.00  0.00     0.000 C 
BRANCH  17  18
ATOM     18  C   UNL     1      41.375  58.303   8.412  1.00  0.00    -0.000 C 
BRANCH  18  19
ATOM     19  C   UNL     1      41.671  56.889   7.868  1.00  0.00    -0.000 C 
BRANCH  19  20
ATOM     20  C   UNL     1      42.616  56.908   6.654  1.00  0.00    -0.000 C 
BRANCH  20  21
ATOM     21  C   UNL     1      41.994  56.235   5.411  1.00  0.00    -0.000 C 
BRANCH  21  22
ATOM     22  C   UNL     1      40.491  56.521   5.239  1.00  0.00    -0.000 C 
BRANCH  22  23
ATOM     23  C   UNL     1      40.153  57.906   4.656  1.00  0.00    -0.000 C 
BRANCH  23  24
ATOM     24  C   UNL     1      39.193  58.754   5.512  1.00  0.00    -0.000 C 
BRANCH  24  25
ATOM     25  C   UNL     1      38.259  57.901   6.384  1.00  0.00    -0.003 C 
ATOM     26  C   UNL     1      37.609  58.741   7.478  1.00  0.00     0.004 C 
ENDBRANCH  24  25
ENDBRANCH  23  24
ENDBRANCH  22  23
ENDBRANCH  21  22
ENDBRANCH  20  21
ENDBRANCH  19  20
ENDBRANCH  18  19
ENDBRANCH  17  18
ENDBRANCH  16  17
ENDBRANCH  15  16
ENDBRANCH   1  15
TORSDOF 22
ENDMDL
MODEL 6
REMARK VINA RESULT:    -4.753      3.351      5.864
REMARK INTER + INTRA:         -14.379
REMARK INTER:                  -9.669
REMARK INTRA:                  -4.710
REMARK UNBOUND:                -3.515
REMARK SMILES CCCCCCCCCCCCCCCCCCCCCCCC(=O)[O-]
REMARK SMILES IDX 13 1 14 2 15 3 16 4 17 5 18 6 19 7 20 8 21 9 22 10 23 11
REMARK SMILES IDX 24 12 25 13 26 14 12 15 11 16 10 17 9 18 8 19 7 20 6 21 5 22
REMARK SMILES IDX 4 23 3 24 2 25 1 26
REMARK H PARENT
REMARK Flexibility Score: inf
ROOT
ATOM      1  C   UNL     1      39.389  62.204   7.863  1.00  0.00     0.000 C 
ENDROOT
BRANCH   1   2
ATOM      2  C   UNL     1      40.225  61.031   8.409  1.00  0.00     0.000 C 
BRANCH   2   3
ATOM      3  C   UNL     1      41.741  61.117   8.138  1.00  0.00     0.000 C 
BRANCH   3   4
ATOM      4  C   UNL     1      42.405  59.805   7.685  1.00  0.00     0.000 C 
BRANCH   4   5
ATOM      5  C   UNL     1      41.475  58.587   7.817  1.00  0.00     0.000 C 
BRANCH   5   6
ATOM      6  C   UNL     1      42.186  57.254   7.523  1.00  0.00     0.000 C 
BRANCH   6   7
ATOM      7  C   UNL     1      43.076  57.245   6.266  1.00  0.00     0.000 C 
BRANCH   7   8
ATOM      8  C   UNL     1      42.287  57.493   4.969  1.00  0.00     0.000 C 
BRANCH   8   9
ATOM      9  C   UNL     1      43.135  58.176   3.884  1.00  0.00     0.000 C 
BRANCH   9  10
ATOM     10  C   UNL     1      44.550  58.524   4.369  1.00  0.00     0.006 C 
BRANCH  10  11
ATOM     11  C   UNL     1      44.796  60.035   4.302  1.00  0.00     0.053 C 
BRANCH  11  12
ATOM     12  C   UNL     1      44.911  60.483   2.879  1.00  0.00     0.041 C 
ATOM     13  O   UNL     1      44.222  61.451   2.461  1.00  0.00    -0.550 OA
ATOM     14  O   UNL     1      45.817  59.864   2.026  1.00  0.00    -0.550 OA
ENDBRANCH  11  12
ENDBRANCH  10  11
ENDBRANCH   9  10
ENDBRANCH   8   9
ENDBRANCH   7   8
ENDBRANCH   6   7
ENDBRANCH   5   6
ENDBRANCH   4   5
ENDBRANCH   3   4
ENDBRANCH   2   3
ENDBRANCH   1   2
BRANCH   1  15
ATOM     15  C   UNL     1      39.782  63.555   8.481  1.00  0.00     0.000 C 
BRANCH  15  16
ATOM     16  C   UNL     1      39.369  64.756   7.608  1.00  0.00     0.000 C 
BRANCH  16  17
ATOM     17  C   UNL     1      40.144  64.901   6.285  1.00  0.00     0.000 C 
BRANCH  17  18
ATOM     18  C   UNL     1      41.669  64.721   6.394  1.00  0.00    -0.000 C 
BRANCH  18  19
ATOM     19  C   UNL     1      42.241  63.648   5.442  1.00  0.00    -0.000 C 
BRANCH  19  20
ATOM     20  C   UNL     1      41.145  62.920   4.645  1.00  0.00    -0.000 C 
BRANCH  20  21
ATOM     21  C   UNL     1      41.405  61.402   4.536  1.00  0.00    -0.000 C 
BRANCH  21  22
ATOM     22  C   UNL     1      40.209  60.607   3.980  1.00  0.00    -0.000 C 
BRANCH  22  23
ATOM     23  C   UNL     1      39.286  59.987   5.047  1.00  0.00    -0.000 C 
BRANCH  23  24
ATOM     24  C   UNL     1      38.676  58.625   4.664  1.00  0.00    -0.000 C 
BRANCH  24  25
ATOM     25  C   UNL     1      38.510  57.686   5.867  1.00  0.00    -0.003 C 
ATOM     26  C   UNL     1      37.888  58.416   7.053  1.00  0.00     0.004 C 
ENDBRANCH  24  25
ENDBRANCH  23  24
ENDBRANCH  22  23
ENDBRANCH  21  22
ENDBRANCH  20  21
ENDBRANCH  19  20
ENDBRANCH  18  19
ENDBRANCH  17  18
ENDBRANCH  16  17
ENDBRANCH  15  16
ENDBRANCH   1  15
TORSDOF 22
ENDMDL
MODEL 7
REMARK VINA RESULT:    -4.742      3.840      6.855
REMARK INTER + INTRA:         -14.355
REMARK INTER:                 -10.124
REMARK INTRA:                  -4.231
REMARK UNBOUND:                -3.515
REMARK SMILES CCCCCCCCCCCCCCCCCCCCCCCC(=O)[O-]
REMARK SMILES IDX 13 1 14 2 15 3 16 4 17 5 18 6 19 7 20 8 21 9 22 10 23 11
REMARK SMILES IDX 24 12 25 13 26 14 12 15 11 16 10 17 9 18 8 19 7 20 6 21 5 22
REMARK SMILES IDX 4 23 3 24 2 25 1 26
REMARK H PARENT
REMARK Flexibility Score: inf
ROOT
ATOM      1  C   UNL     1      40.852  63.505   8.587  1.00  0.00     0.000 C 
ENDROOT
BRANCH   1   2
ATOM      2  C   UNL     1      39.832  62.400   8.258  1.00  0.00     0.000 C 
BRANCH   2   3
ATOM      3  C   UNL     1      40.369  60.957   8.341  1.00  0.00     0.000 C 
BRANCH   3   4
ATOM      4  C   UNL     1      41.861  60.787   8.005  1.00  0.00     0.000 C 
BRANCH   4   5
ATOM      5  C   UNL     1      42.142  59.548   7.140  1.00  0.00     0.000 C 
BRANCH   5   6
ATOM      6  C   UNL     1      42.474  58.296   7.972  1.00  0.00     0.000 C 
BRANCH   6   7
ATOM      7  C   UNL     1      41.622  57.051   7.659  1.00  0.00     0.000 C 
BRANCH   7   8
ATOM      8  C   UNL     1      42.307  56.086   6.676  1.00  0.00     0.000 C 
BRANCH   8   9
ATOM      9  C   UNL     1      41.356  55.594   5.574  1.00  0.00     0.000 C 
BRANCH   9  10
ATOM     10  C   UNL     1      41.836  55.971   4.164  1.00  0.00     0.006 C 
BRANCH  10  11
ATOM     11  C   UNL     1      43.161  56.739   4.224  1.00  0.00     0.053 C 
BRANCH  11  12
ATOM     12  C   UNL     1      43.051  58.030   3.477  1.00  0.00     0.041 C 
ATOM     13  O   UNL     1      43.517  59.091   3.972  1.00  0.00    -0.550 OA
ATOM     14  O   UNL     1      42.480  58.054   2.210  1.00  0.00    -0.550 OA
ENDBRANCH  11  12
ENDBRANCH  10  11
ENDBRANCH   9  10
ENDBRANCH   8   9
ENDBRANCH   7   8
ENDBRANCH   6   7
ENDBRANCH   5   6
ENDBRANCH   4   5
ENDBRANCH   3   4
ENDBRANCH   2   3
ENDBRANCH   1   2
BRANCH   1  15
ATOM     15  C   UNL     1      40.693  64.749   7.698  1.00  0.00     0.000 C 
BRANCH  15  16
ATOM     16  C   UNL     1      40.604  64.407   6.198  1.00  0.00     0.000 C 
BRANCH  16  17
ATOM     17  C   UNL     1      41.957  64.211   5.490  1.00  0.00     0.000 C 
BRANCH  17  18
ATOM     18  C   UNL     1      42.182  62.816   4.878  1.00  0.00    -0.000 C 
BRANCH  18  19
ATOM     19  C   UNL     1      40.879  62.022   4.638  1.00  0.00    -0.000 C 
BRANCH  19  20
ATOM     20  C   UNL     1      40.846  61.345   3.257  1.00  0.00    -0.000 C 
BRANCH  20  21
ATOM     21  C   UNL     1      39.735  60.277   3.151  1.00  0.00    -0.000 C 
BRANCH  21  22
ATOM     22  C   UNL     1      39.718  59.282   4.326  1.00  0.00    -0.000 C 
BRANCH  22  23
ATOM     23  C   UNL     1      38.826  58.043   4.119  1.00  0.00    -0.000 C 
BRANCH  23  24
ATOM     24  C   UNL     1      38.119  57.533   5.389  1.00  0.00    -0.000 C 
BRANCH  24  25
ATOM     25  C   UNL     1      38.663  58.176   6.674  1.00  0.00    -0.003 C 
ATOM     26  C   UNL     1      37.528  58.693   7.552  1.00  0.00     0.004 C 
ENDBRANCH  24  25
ENDBRANCH  23  24
ENDBRANCH  22  23
ENDBRANCH  21  22
ENDBRANCH  20  21
ENDBRANCH  19  20
ENDBRANCH  18  19
ENDBRANCH  17  18
ENDBRANCH  16  17
ENDBRANCH  15  16
ENDBRANCH   1  15
TORSDOF 22
ENDMDL
MODEL 8
REMARK VINA RESULT:    -4.737      4.131      6.183
REMARK INTER + INTRA:         -14.344
REMARK INTER:                  -9.775
REMARK INTRA:                  -4.569
REMARK UNBOUND:                -3.515
REMARK SMILES CCCCCCCCCCCCCCCCCCCCCCCC(=O)[O-]
REMARK SMILES IDX 13 1 14 2 15 3 16 4 17 5 18 6 19 7 20 8 21 9 22 10 23 11
REMARK SMILES IDX 24 12 25 13 26 14 12 15 11 16 10 17 9 18 8 19 7 20 6 21 5 22
REMARK SMILES IDX 4 23 3 24 2 25 1 26
REMARK H PARENT
REMARK Flexibility Score: inf
ROOT
ATOM      1  C   UNL     1      39.942  61.090   8.187  1.00  0.00     0.000 C 
ENDROOT
BRANCH   1   2
ATOM      2  C   UNL     1      40.882  62.242   8.589  1.00  0.00     0.000 C 
BRANCH   2   3
ATOM      3  C   UNL     1      40.224  63.634   8.673  1.00  0.00     0.000 C 
BRANCH   3   4
ATOM      4  C   UNL     1      39.416  64.058   7.434  1.00  0.00     0.000 C 
BRANCH   4   5
ATOM      5  C   UNL     1      40.222  64.942   6.468  1.00  0.00     0.000 C 
BRANCH   5   6
ATOM      6  C   UNL     1      40.821  64.154   5.289  1.00  0.00     0.000 C 
BRANCH   6   7
ATOM      7  C   UNL     1      42.240  63.602   5.519  1.00  0.00     0.000 C 
BRANCH   7   8
ATOM      8  C   UNL     1      42.375  62.116   5.143  1.00  0.00     0.000 C 
BRANCH   8   9
ATOM      9  C   UNL     1      41.053  61.513   4.641  1.00  0.00     0.000 C 
BRANCH   9  10
ATOM     10  C   UNL     1      41.220  60.082   4.106  1.00  0.00     0.006 C 
BRANCH  10  11
ATOM     11  C   UNL     1      40.209  59.133   4.758  1.00  0.00     0.053 C 
BRANCH  11  12
ATOM     12  C   UNL     1      38.812  59.611   4.516  1.00  0.00     0.041 C 
ATOM     13  O   UNL     1      38.058  59.886   5.486  1.00  0.00    -0.550 OA
ATOM     14  O   UNL     1      38.357  59.801   3.216  1.00  0.00    -0.550 OA
ENDBRANCH  11  12
ENDBRANCH  10  11
ENDBRANCH   9  10
ENDBRANCH   8   9
ENDBRANCH   7   8
ENDBRANCH   6   7
ENDBRANCH   5   6
ENDBRANCH   4   5
ENDBRANCH   3   4
ENDBRANCH   2   3
ENDBRANCH   1   2
BRANCH   1  15
ATOM     15  C   UNL     1      40.586  59.705   8.362  1.00  0.00     0.000 C 
BRANCH  15  16
ATOM     16  C   UNL     1      42.051  59.661   7.888  1.00  0.00     0.000 C 
BRANCH  16  17
ATOM     17  C   UNL     1      42.635  58.248   7.699  1.00  0.00     0.000 C 
BRANCH  17  18
ATOM     18  C   UNL     1      41.616  57.098   7.798  1.00  0.00    -0.000 C 
BRANCH  18  19
ATOM     19  C   UNL     1      41.649  56.129   6.596  1.00  0.00    -0.000 C 
BRANCH  19  20
ATOM     20  C   UNL     1      42.976  56.195   5.820  1.00  0.00    -0.000 C 
BRANCH  20  21
ATOM     21  C   UNL     1      42.762  56.363   4.300  1.00  0.00    -0.000 C 
BRANCH  21  22
ATOM     22  C   UNL     1      43.754  57.338   3.639  1.00  0.00    -0.000 C 
BRANCH  22  23
ATOM     23  C   UNL     1      44.691  58.075   4.614  1.00  0.00    -0.000 C 
BRANCH  23  24
ATOM     24  C   UNL     1      44.883  59.575   4.320  1.00  0.00    -0.000 C 
BRANCH  24  25
ATOM     25  C   UNL     1      45.271  59.852   2.861  1.00  0.00    -0.003 C 
ATOM     26  C   UNL     1      44.394  60.944   2.256  1.00  0.00     0.004 C 
ENDBRANCH  24  25
ENDBRANCH  23  24
ENDBRANCH  22  23
ENDBRANCH  21  22
ENDBRANCH  20  21
ENDBRANCH  19  20
ENDBRANCH  18  19
ENDBRANCH  17  18
ENDBRANCH  16  17
ENDBRANCH  15  16
ENDBRANCH   1  15
TORSDOF 22
ENDMDL
MODEL 9
REMARK VINA RESULT:    -4.735      3.695      5.792
REMARK INTER + INTRA:         -14.340
REMARK INTER:                 -10.268
REMARK INTRA:                  -4.071
REMARK UNBOUND:                -3.515
REMARK SMILES CCCCCCCCCCCCCCCCCCCCCCCC(=O)[O-]
REMARK SMILES IDX 13 1 14 2 15 3 16 4 17 5 18 6 19 7 20 8 21 9 22 10 23 11
REMARK SMILES IDX 24 12 25 13 26 14 12 15 11 16 10 17 9 18 8 19 7 20 6 21 5 22
REMARK SMILES IDX 4 23 3 24 2 25 1 26
REMARK H PARENT
REMARK Flexibility Score: inf
ROOT
ATOM      1  C   UNL     1      38.683  58.978   4.491  1.00  0.00     0.000 C 
ENDROOT
BRANCH   1   2
ATOM      2  C   UNL     1      37.862  59.465   3.283  1.00  0.00     0.000 C 
BRANCH   2   3
ATOM      3  C   UNL     1      38.666  60.203   2.192  1.00  0.00     0.000 C 
BRANCH   3   4
ATOM      4  C   UNL     1      39.994  59.540   1.789  1.00  0.00     0.000 C 
BRANCH   4   5
ATOM      5  C   UNL     1      41.222  60.387   2.160  1.00  0.00     0.000 C 
BRANCH   5   6
ATOM      6  C   UNL     1      40.868  61.616   3.018  1.00  0.00     0.000 C 
BRANCH   6   7
ATOM      7  C   UNL     1      41.634  61.733   4.349  1.00  0.00     0.000 C 
BRANCH   7   8
ATOM      8  C   UNL     1      40.954  62.682   5.351  1.00  0.00     0.000 C 
BRANCH   8   9
ATOM      9  C   UNL     1      41.946  63.284   6.359  1.00  0.00     0.000 C 
BRANCH   9  10
ATOM     10  C   UNL     1      41.294  64.324   7.284  1.00  0.00     0.006 C 
BRANCH  10  11
ATOM     11  C   UNL     1      39.877  63.894   7.677  1.00  0.00     0.053 C 
BRANCH  11  12
ATOM     12  C   UNL     1      38.922  65.036   7.523  1.00  0.00     0.041 C 
ATOM     13  O   UNL     1      38.677  65.509   6.382  1.00  0.00    -0.550 OA
ATOM     14  O   UNL     1      38.264  65.546   8.636  1.00  0.00    -0.550 OA
ENDBRANCH  11  12
ENDBRANCH  10  11
ENDBRANCH   9  10
ENDBRANCH   8   9
ENDBRANCH   7   8
ENDBRANCH   6   7
ENDBRANCH   5   6
ENDBRANCH   4   5
ENDBRANCH   3   4
ENDBRANCH   2   3
ENDBRANCH   1   2
BRANCH   1  15
ATOM     15  C   UNL     1      38.538  59.892   5.719  1.00  0.00     0.000 C 
BRANCH  15  16
ATOM     16  C   UNL     1      38.242  59.114   7.015  1.00  0.00     0.000 C 
BRANCH  16  17
ATOM     17  C   UNL     1      39.423  59.007   7.999  1.00  0.00     0.000 C 
BRANCH  17  18
ATOM     18  C   UNL     1      40.330  60.249   8.072  1.00  0.00    -0.000 C 
BRANCH  18  19
ATOM     19  C   UNL     1      41.833  59.936   7.909  1.00  0.00    -0.000 C 
BRANCH  19  20
ATOM     20  C   UNL     1      42.108  58.936   6.772  1.00  0.00    -0.000 C 
BRANCH  20  21
ATOM     21  C   UNL     1      42.790  57.645   7.274  1.00  0.00    -0.000 C 
BRANCH  21  22
ATOM     22  C   UNL     1      41.894  56.396   7.185  1.00  0.00    -0.000 C 
BRANCH  22  23
ATOM     23  C   UNL     1      41.953  55.646   5.840  1.00  0.00    -0.000 C 
BRANCH  23  24
ATOM     24  C   UNL     1      40.617  55.578   5.077  1.00  0.00    -0.000 C 
BRANCH  24  25
ATOM     25  C   UNL     1      40.707  56.169   3.663  1.00  0.00    -0.003 C 
ATOM     26  C   UNL     1      42.071  56.807   3.419  1.00  0.00     0.004 C 
ENDBRANCH  24  25
ENDBRANCH  23  24
ENDBRANCH  22  23
ENDBRANCH  21  22
ENDBRANCH  20  21
ENDBRANCH  19  20
ENDBRANCH  18  19
ENDBRANCH  17  18
ENDBRANCH  16  17
ENDBRANCH  15  16
ENDBRANCH   1  15
TORSDOF 22
ENDMDL
