MODEL 1
REMARK VINA RESULT:    -4.445      0.000      0.000
REMARK INTER + INTRA:          -5.193
REMARK INTER:                  -5.094
REMARK INTRA:                  -0.098
REMARK UNBOUND:                -0.098
REMARK SMILES COc1cc(C(C)=O)ccc1O
REMARK SMILES IDX 5 1 4 2 3 3 11 4 10 5 9 6 6 7 7 8 8 9 2 10 1 11 12 12
REMARK H PARENT 12 13
REMARK Flexibility Score: inf
ROOT
ATOM      1  C   UNL     1     132.804 141.803 124.566  1.00  0.00     0.021 A 
ATOM      2  C   UNL     1     132.735 140.577 123.877  1.00  0.00     0.062 A 
ATOM      3  C   UNL     1     132.474 139.374 124.563  1.00  0.00     0.161 A 
ATOM      4  C   UNL     1     132.279 139.403 125.950  1.00  0.00     0.157 A 
ATOM      5  C   UNL     1     132.346 140.617 126.643  1.00  0.00     0.051 A 
ATOM      6  C   UNL     1     132.606 141.806 125.960  1.00  0.00     0.016 A 
ENDROOT
BRANCH   1   7
ATOM      7  C   UNL     1     133.082 143.063 123.824  1.00  0.00     0.159 C 
ATOM      8  C   UNL     1     134.144 143.144 122.768  1.00  0.00     0.093 C 
ATOM      9  O   UNL     1     132.411 144.100 124.079  1.00  0.00    -0.295 OA
ENDBRANCH   1   7
BRANCH   3  10
ATOM     10  O   UNL     1     132.399 138.137 123.904  1.00  0.00    -0.493 OA
ATOM     11  C   UNL     1     133.305 137.703 122.896  1.00  0.00     0.278 C 
ENDBRANCH   3  10
BRANCH   4  12
ATOM     12  O   UNL     1     132.021 138.217 126.634  1.00  0.00    -0.504 OA
ATOM     13  H   UNL     1     132.420 137.335 126.336  1.00  0.00     0.293 HD
ENDBRANCH   4  12
TORSDOF 3
ENDMDL
MODEL 2
REMARK VINA RESULT:    -4.078     11.339     12.852
REMARK INTER + INTRA:          -4.772
REMARK INTER:                  -4.672
REMARK INTRA:                  -0.100
REMARK UNBOUND:                -0.098
REMARK SMILES COc1cc(C(C)=O)ccc1O
REMARK SMILES IDX 5 1 4 2 3 3 11 4 10 5 9 6 6 7 7 8 8 9 2 10 1 11 12 12
REMARK H PARENT 12 13
REMARK Flexibility Score: inf
ROOT
ATOM      1  C   UNL     1     135.861 129.057 125.267  1.00  0.00     0.021 A 
ATOM      2  C   UNL     1     135.263 129.155 126.539  1.00  0.00     0.062 A 
ATOM      3  C   UNL     1     135.987 128.834 127.706  1.00  0.00     0.161 A 
ATOM      4  C   UNL     1     137.318 128.414 127.594  1.00  0.00     0.157 A 
ATOM      5  C   UNL     1     137.919 128.314 126.335  1.00  0.00     0.051 A 
ATOM      6  C   UNL     1     137.200 128.631 125.181  1.00  0.00     0.016 A 
ENDROOT
BRANCH   1   7
ATOM      7  C   UNL     1     135.080 129.400 124.048  1.00  0.00     0.159 C 
ATOM      8  C   UNL     1     133.692 129.961 124.126  1.00  0.00     0.093 C 
ATOM      9  O   UNL     1     135.588 129.218 122.908  1.00  0.00    -0.295 OA
ENDBRANCH   1   7
BRANCH   3  10
ATOM     10  O   UNL     1     135.420 128.922 128.987  1.00  0.00    -0.493 OA
ATOM     11  C   UNL     1     134.681 127.881 129.616  1.00  0.00     0.278 C 
ENDBRANCH   3  10
BRANCH   4  12
ATOM     12  O   UNL     1     138.039 128.095 128.744  1.00  0.00    -0.504 OA
ATOM     13  H   UNL     1     138.932 128.528 128.947  1.00  0.00     0.293 HD
ENDBRANCH   4  12
TORSDOF 3
ENDMDL
MODEL 3
REMARK VINA RESULT:    -4.020     11.767     13.111
REMARK INTER + INTRA:          -4.706
REMARK INTER:                  -4.608
REMARK INTRA:                  -0.098
REMARK UNBOUND:                -0.098
REMARK SMILES COc1cc(C(C)=O)ccc1O
REMARK SMILES IDX 5 1 4 2 3 3 11 4 10 5 9 6 6 7 7 8 8 9 2 10 1 11 12 12
REMARK H PARENT 12 13
REMARK Flexibility Score: inf
ROOT
ATOM      1  C   UNL     1     136.581 128.665 127.843  1.00  0.00     0.021 A 
ATOM      2  C   UNL     1     135.347 128.728 127.167  1.00  0.00     0.062 A 
ATOM      3  C   UNL     1     135.268 129.225 125.850  1.00  0.00     0.161 A 
ATOM      4  C   UNL     1     136.435 129.659 125.208  1.00  0.00     0.157 A 
ATOM      5  C   UNL     1     137.665 129.599 125.873  1.00  0.00     0.051 A 
ATOM      6  C   UNL     1     137.740 129.108 127.178  1.00  0.00     0.016 A 
ENDROOT
BRANCH   1   7
ATOM      7  C   UNL     1     136.643 128.138 129.233  1.00  0.00     0.159 C 
ATOM      8  C   UNL     1     135.408 127.904 130.050  1.00  0.00     0.093 C 
ATOM      9  O   UNL     1     137.762 127.875 129.753  1.00  0.00    -0.295 OA
ENDBRANCH   1   7
BRANCH   3  10
ATOM     10  O   UNL     1     134.054 129.301 125.149  1.00  0.00    -0.493 OA
ATOM     11  C   UNL     1     132.996 128.355 125.263  1.00  0.00     0.278 C 
ENDBRANCH   3  10
BRANCH   4  12
ATOM     12  O   UNL     1     136.363 130.152 123.907  1.00  0.00    -0.504 OA
ATOM     13  H   UNL     1     135.590 130.731 123.601  1.00  0.00     0.293 HD
ENDBRANCH   4  12
TORSDOF 3
ENDMDL
MODEL 4
REMARK VINA RESULT:    -3.876      1.477      4.037
REMARK INTER + INTRA:          -4.541
REMARK INTER:                  -4.438
REMARK INTRA:                  -0.104
REMARK UNBOUND:                -0.098
REMARK SMILES COc1cc(C(C)=O)ccc1O
REMARK SMILES IDX 5 1 4 2 3 3 11 4 10 5 9 6 6 7 7 8 8 9 2 10 1 11 12 12
REMARK H PARENT 12 13
REMARK Flexibility Score: inf
ROOT
ATOM      1  C   UNL     1     132.669 139.323 123.877  1.00  0.00     0.021 A 
ATOM      2  C   UNL     1     132.854 140.698 123.635  1.00  0.00     0.062 A 
ATOM      3  C   UNL     1     132.823 141.629 124.692  1.00  0.00     0.161 A 
ATOM      4  C   UNL     1     132.607 141.177 126.000  1.00  0.00     0.157 A 
ATOM      5  C   UNL     1     132.424 139.813 126.249  1.00  0.00     0.051 A 
ATOM      6  C   UNL     1     132.454 138.892 125.200  1.00  0.00     0.016 A 
ENDROOT
BRANCH   1   7
ATOM      7  C   UNL     1     132.705 138.355 122.747  1.00  0.00     0.159 C 
ATOM      8  C   UNL     1     133.689 137.224 122.701  1.00  0.00     0.093 C 
ATOM      9  O   UNL     1     131.890 138.477 121.792  1.00  0.00    -0.295 OA
ENDBRANCH   1   7
BRANCH   3  10
ATOM     10  O   UNL     1     133.003 143.006 124.484  1.00  0.00    -0.493 OA
ATOM     11  C   UNL     1     133.573 143.577 123.311  1.00  0.00     0.278 C 
ENDBRANCH   3  10
BRANCH   4  12
ATOM     12  O   UNL     1     132.575 142.093 127.050  1.00  0.00    -0.504 OA
ATOM     13  H   UNL     1     132.014 142.935 127.002  1.00  0.00     0.293 HD
ENDBRANCH   4  12
TORSDOF 3
ENDMDL
MODEL 5
REMARK VINA RESULT:    -3.681     10.848     12.301
REMARK INTER + INTRA:          -4.317
REMARK INTER:                  -4.224
REMARK INTRA:                  -0.094
REMARK UNBOUND:                -0.098
REMARK SMILES COc1cc(C(C)=O)ccc1O
REMARK SMILES IDX 5 1 4 2 3 3 11 4 10 5 9 6 6 7 7 8 8 9 2 10 1 11 12 12
REMARK H PARENT 12 13
REMARK Flexibility Score: inf
ROOT
ATOM      1  C   UNL     1     135.792 129.293 124.778  1.00  0.00     0.021 A 
ATOM      2  C   UNL     1     136.829 130.161 125.172  1.00  0.00     0.062 A 
ATOM      3  C   UNL     1     137.599 129.893 126.322  1.00  0.00     0.161 A 
ATOM      4  C   UNL     1     137.327 128.747 127.079  1.00  0.00     0.157 A 
ATOM      5  C   UNL     1     136.299 127.880 126.694  1.00  0.00     0.051 A 
ATOM      6  C   UNL     1     135.537 128.148 125.555  1.00  0.00     0.016 A 
ENDROOT
BRANCH   1   7
ATOM      7  C   UNL     1     134.990 129.594 123.561  1.00  0.00     0.159 C 
ATOM      8  C   UNL     1     133.941 130.665 123.546  1.00  0.00     0.093 C 
ATOM      9  O   UNL     1     135.188 128.936 122.503  1.00  0.00    -0.295 OA
ENDBRANCH   1   7
BRANCH   3  10
ATOM     10  O   UNL     1     138.639 130.738 126.740  1.00  0.00    -0.493 OA
ATOM     11  C   UNL     1     138.736 132.121 126.416  1.00  0.00     0.278 C 
ENDBRANCH   3  10
BRANCH   4  12
ATOM     12  O   UNL     1     138.085 128.477 128.217  1.00  0.00    -0.504 OA
ATOM     13  H   UNL     1     139.086 128.326 128.165  1.00  0.00     0.293 HD
ENDBRANCH   4  12
TORSDOF 3
ENDMDL
MODEL 6
REMARK VINA RESULT:    -3.638      9.738     12.285
REMARK INTER + INTRA:          -4.268
REMARK INTER:                  -4.143
REMARK INTRA:                  -0.125
REMARK UNBOUND:                -0.098
REMARK SMILES COc1cc(C(C)=O)ccc1O
REMARK SMILES IDX 5 1 4 2 3 3 11 4 10 5 9 6 6 7 7 8 8 9 2 10 1 11 12 12
REMARK H PARENT 12 13
REMARK Flexibility Score: inf
ROOT
ATOM      1  C   UNL     1     136.890 129.268 125.410  1.00  0.00     0.021 A 
ATOM      2  C   UNL     1     136.007 130.293 125.016  1.00  0.00     0.062 A 
ATOM      3  C   UNL     1     135.129 130.114 123.928  1.00  0.00     0.161 A 
ATOM      4  C   UNL     1     135.137 128.898 123.232  1.00  0.00     0.157 A 
ATOM      5  C   UNL     1     136.010 127.875 123.617  1.00  0.00     0.051 A 
ATOM      6  C   UNL     1     136.879 128.056 124.695  1.00  0.00     0.016 A 
ENDROOT
BRANCH   1   7
ATOM      7  C   UNL     1     137.809 129.477 126.561  1.00  0.00     0.159 C 
ATOM      8  C   UNL     1     137.851 128.532 127.725  1.00  0.00     0.093 C 
ATOM      9  O   UNL     1     138.581 130.474 126.573  1.00  0.00    -0.295 OA
ENDBRANCH   1   7
BRANCH   3  10
ATOM     10  O   UNL     1     134.238 131.115 123.512  1.00  0.00    -0.493 OA
ATOM     11  C   UNL     1     132.989 131.394 124.134  1.00  0.00     0.278 C 
ENDBRANCH   3  10
BRANCH   4  12
ATOM     12  O   UNL     1     134.272 128.715 122.155  1.00  0.00    -0.504 OA
ATOM     13  H   UNL     1     133.384 129.200 122.099  1.00  0.00     0.293 HD
ENDBRANCH   4  12
TORSDOF 3
ENDMDL
MODEL 7
REMARK VINA RESULT:    -3.634      2.085      4.795
REMARK INTER + INTRA:          -4.263
REMARK INTER:                  -4.171
REMARK INTRA:                  -0.092
REMARK UNBOUND:                -0.098
REMARK SMILES COc1cc(C(C)=O)ccc1O
REMARK SMILES IDX 5 1 4 2 3 3 11 4 10 5 9 6 6 7 7 8 8 9 2 10 1 11 12 12
REMARK H PARENT 12 13
REMARK Flexibility Score: inf
ROOT
ATOM      1  C   UNL     1     132.319 140.770 123.048  1.00  0.00     0.021 A 
ATOM      2  C   UNL     1     132.279 141.259 124.369  1.00  0.00     0.062 A 
ATOM      3  C   UNL     1     132.136 142.637 124.626  1.00  0.00     0.161 A 
ATOM      4  C   UNL     1     132.032 143.530 123.551  1.00  0.00     0.157 A 
ATOM      5  C   UNL     1     132.071 143.052 122.237  1.00  0.00     0.051 A 
ATOM      6  C   UNL     1     132.213 141.686 121.985  1.00  0.00     0.016 A 
ENDROOT
BRANCH   1   7
ATOM      7  C   UNL     1     132.470 139.311 122.797  1.00  0.00     0.159 C 
ATOM      8  C   UNL     1     133.317 138.438 123.675  1.00  0.00     0.093 C 
ATOM      9  O   UNL     1     131.875 138.779 121.821  1.00  0.00    -0.295 OA
ENDBRANCH   1   7
BRANCH   3  10
ATOM     10  O   UNL     1     132.092 143.155 125.930  1.00  0.00    -0.493 OA
ATOM     11  C   UNL     1     131.875 142.376 127.101  1.00  0.00     0.278 C 
ENDBRANCH   3  10
BRANCH   4  12
ATOM     12  O   UNL     1     131.891 144.894 123.799  1.00  0.00    -0.504 OA
ATOM     13  H   UNL     1     131.677 145.549 123.056  1.00  0.00     0.293 HD
ENDBRANCH   4  12
TORSDOF 3
ENDMDL
MODEL 8
REMARK VINA RESULT:    -2.255      1.158      2.900
REMARK INTER + INTRA:          -2.683
REMARK INTER:                  -2.568
REMARK INTRA:                  -0.114
REMARK UNBOUND:                -0.098
REMARK SMILES COc1cc(C(C)=O)ccc1O
REMARK SMILES IDX 5 1 4 2 3 3 11 4 10 5 9 6 6 7 7 8 8 9 2 10 1 11 12 12
REMARK H PARENT 12 13
REMARK Flexibility Score: inf
ROOT
ATOM      1  C   UNL     1     132.955 141.783 124.295  1.00  0.00     0.021 A 
ATOM      2  C   UNL     1     132.577 141.933 125.644  1.00  0.00     0.062 A 
ATOM      3  C   UNL     1     132.254 140.811 126.434  1.00  0.00     0.161 A 
ATOM      4  C   UNL     1     132.312 139.531 125.867  1.00  0.00     0.157 A 
ATOM      5  C   UNL     1     132.686 139.374 124.529  1.00  0.00     0.051 A 
ATOM      6  C   UNL     1     133.005 140.487 123.748  1.00  0.00     0.016 A 
ENDROOT
BRANCH   1   7
ATOM      7  C   UNL     1     133.292 142.979 123.478  1.00  0.00     0.159 C 
ATOM      8  C   UNL     1     134.090 142.876 122.212  1.00  0.00     0.093 C 
ATOM      9  O   UNL     1     132.902 144.120 123.847  1.00  0.00    -0.295 OA
ENDBRANCH   1   7
BRANCH   3  10
ATOM     10  O   UNL     1     131.875 140.928 127.781  1.00  0.00    -0.493 OA
ATOM     11  C   UNL     1     131.919 142.137 128.530  1.00  0.00     0.278 C 
ENDBRANCH   3  10
BRANCH   4  12
ATOM     12  O   UNL     1     131.993 138.419 126.644  1.00  0.00    -0.504 OA
ATOM     13  H   UNL     1     131.151 137.881 126.479  1.00  0.00     0.293 HD
ENDBRANCH   4  12
TORSDOF 3
ENDMDL
