MODEL 1
REMARK VINA RESULT:    -5.439      0.000      0.000
REMARK INTER + INTRA:          -7.410
REMARK INTER:                  -7.665
REMARK INTRA:                   0.255
REMARK UNBOUND:                 0.255
REMARK SMILES CC1=CCC(=C(C)C)C(=O)CC(C)=CCC1
REMARK SMILES IDX 12 1 14 2 13 3 15 4 16 5 2 6 1 7 3 8 11 10 9 11 10 12 5 13
REMARK SMILES IDX 6 14 7 15 8 16 4 17
REMARK H PARENT
REMARK Flexibility Score: 60.00
ROOT
ATOM      1  C   UNL     1      25.196 -18.904  19.964  1.00  0.00    -0.070 C 
ATOM      2  C   UNL     1      24.403 -18.751  21.048  1.00  0.00    -0.027 C 
ATOM      3  C   UNL     1      26.678 -18.687  20.137  1.00  0.00     0.039 C 
ENDROOT
BRANCH   2   4
ATOM      4  C   UNL     1      22.915 -19.018  21.099  1.00  0.00     0.032 C 
BRANCH   4   5
ATOM      5  C   UNL     1      22.528 -20.436  21.565  1.00  0.00     0.034 C 
BRANCH   5   6
ATOM      6  C   UNL     1      21.348 -21.014  20.803  1.00  0.00    -0.077 C 
ATOM      7  C   UNL     1      19.967 -20.555  21.195  1.00  0.00     0.039 C 
ATOM      8  C   UNL     1      21.459 -21.861  19.749  1.00  0.00    -0.023 CG0
ATOM      9  G   UNL     1      22.734 -22.467  19.194  1.00  0.00     0.000 G0
ENDBRANCH   5   6
ENDBRANCH   4   5
ENDBRANCH   2   4
BRANCH   1  10
ATOM     10  C   UNL     1      24.682 -19.371  18.618  1.00  0.00     0.111 C 
BRANCH  10  11
ATOM     11  C   UNL     1      24.633 -20.873  18.531  1.00  0.00     0.163 C 
ATOM     12  O   UNL     1      25.664 -21.521  18.860  1.00  0.00    -0.294 OA
BRANCH  11  13
ATOM     13  C   UNL     1      23.398 -21.613  18.133  1.00  0.00    -0.002 C 
ATOM     14  C   UNL     1      22.944 -21.572  16.844  1.00  0.00    -0.069 C 
ATOM     15  C   UNL     1      23.576 -20.658  15.817  1.00  0.00     0.039 C 
ATOM     16  C   UNL     1      21.792 -22.433  16.375  1.00  0.00     0.039 C 
BRANCH  13  17
ATOM     17  C   UNL     1      22.736 -22.479  19.192  1.00  0.00     0.066 CG0
ATOM     18  G   UNL     1      21.469 -21.850  19.740  1.00  0.00     0.000 G0
ENDBRANCH  13  17
ENDBRANCH  11  13
ENDBRANCH  10  11
ENDBRANCH   1  10
TORSDOF 0
ENDMDL
MODEL 2
REMARK VINA RESULT:    -5.295      2.705      4.561
REMARK INTER + INTRA:          -7.206
REMARK INTER:                  -7.413
REMARK INTRA:                   0.207
REMARK UNBOUND:                 0.255
REMARK SMILES CC1=CCC(=C(C)C)C(=O)CC(C)=CCC1
REMARK SMILES IDX 12 1 14 2 13 3 15 4 16 5 2 6 1 7 3 8 11 10 9 11 10 12 5 13
REMARK SMILES IDX 6 14 7 15 8 16 4 17
REMARK H PARENT
REMARK Flexibility Score: 60.00
ROOT
ATOM      1  C   UNL     1      27.643 -23.624  19.331  1.00  0.00    -0.070 C 
ATOM      2  C   UNL     1      28.307 -22.504  18.969  1.00  0.00    -0.027 C 
ATOM      3  C   UNL     1      28.277 -24.955  19.013  1.00  0.00     0.039 C 
ENDROOT
BRANCH   2   4
ATOM      4  C   UNL     1      27.884 -21.086  19.284  1.00  0.00     0.032 C 
BRANCH   4   5
ATOM      5  C   UNL     1      26.723 -20.550  18.422  1.00  0.00     0.034 C 
BRANCH   5   6
ATOM      6  C   UNL     1      25.597 -19.947  19.245  1.00  0.00    -0.077 C 
ATOM      7  C   UNL     1      25.897 -18.699  20.035  1.00  0.00     0.039 C 
ATOM      8  C   UNL     1      24.325 -20.417  19.259  1.00  0.00    -0.023 CG0
ATOM      9  G   UNL     1      23.801 -21.658  18.563  1.00  0.00     0.000 G0
ENDBRANCH   5   6
ENDBRANCH   4   5
ENDBRANCH   2   4
BRANCH   1  10
ATOM     10  C   UNL     1      26.348 -23.606  20.117  1.00  0.00     0.111 C 
BRANCH  10  11
ATOM     11  C   UNL     1      25.149 -23.742  19.217  1.00  0.00     0.163 C 
ATOM     12  O   UNL     1      25.178 -24.625  18.317  1.00  0.00    -0.294 OA
BRANCH  11  13
ATOM     13  C   UNL     1      23.916 -22.917  19.394  1.00  0.00    -0.002 C 
ATOM     14  C   UNL     1      22.986 -23.245  20.340  1.00  0.00    -0.069 C 
ATOM     15  C   UNL     1      23.089 -24.531  21.130  1.00  0.00     0.039 C 
ATOM     16  C   UNL     1      21.809 -22.346  20.650  1.00  0.00     0.039 C 
BRANCH  13  17
ATOM     17  C   UNL     1      23.795 -21.660  18.548  1.00  0.00     0.066 CG0
ATOM     18  G   UNL     1      24.323 -20.432  19.264  1.00  0.00     0.000 G0
ENDBRANCH  13  17
ENDBRANCH  11  13
ENDBRANCH  10  11
ENDBRANCH   1  10
TORSDOF 0
ENDMDL
MODEL 3
REMARK VINA RESULT:    -5.258      2.523      5.502
REMARK INTER + INTRA:          -7.155
REMARK INTER:                  -7.405
REMARK INTRA:                   0.250
REMARK UNBOUND:                 0.255
REMARK SMILES CC1=CCC(=C(C)C)C(=O)CC(C)=CCC1
REMARK SMILES IDX 12 1 14 2 13 3 15 4 16 5 2 6 1 7 3 8 11 10 9 11 10 12 5 13
REMARK SMILES IDX 6 14 7 15 8 16 4 17
REMARK H PARENT
REMARK Flexibility Score: 60.00
ROOT
ATOM      1  C   UNL     1      21.871 -23.902  15.387  1.00  0.00    -0.070 C 
ATOM      2  C   UNL     1      22.443 -25.091  15.678  1.00  0.00    -0.027 C 
ATOM      3  C   UNL     1      20.448 -23.907  14.888  1.00  0.00     0.039 C 
ENDROOT
BRANCH   2   4
ATOM      4  C   UNL     1      23.818 -25.287  16.279  1.00  0.00     0.032 C 
BRANCH   4   5
ATOM      5  C   UNL     1      23.836 -25.459  17.812  1.00  0.00     0.034 C 
BRANCH   5   6
ATOM      6  C   UNL     1      24.962 -24.695  18.486  1.00  0.00    -0.077 C 
ATOM      7  C   UNL     1      26.331 -25.327  18.495  1.00  0.00     0.039 C 
ATOM      8  C   UNL     1      24.833 -23.454  19.016  1.00  0.00    -0.023 CG0
ATOM      9  G   UNL     1      23.560 -22.638  19.135  1.00  0.00     0.000 G0
ENDBRANCH   5   6
ENDBRANCH   4   5
ENDBRANCH   2   4
BRANCH   1  10
ATOM     10  C   UNL     1      22.553 -22.571  15.624  1.00  0.00     0.111 C 
BRANCH  10  11
ATOM     11  C   UNL     1      22.270 -22.038  17.003  1.00  0.00     0.163 C 
ATOM     12  O   UNL     1      21.067 -21.933  17.364  1.00  0.00    -0.294 OA
BRANCH  11  13
ATOM     13  C   UNL     1      23.357 -21.694  17.968  1.00  0.00    -0.002 C 
ATOM     14  C   UNL     1      24.070 -20.535  17.834  1.00  0.00    -0.069 C 
ATOM     15  C   UNL     1      23.895 -19.642  16.625  1.00  0.00     0.039 C 
ATOM     16  C   UNL     1      25.065 -20.083  18.880  1.00  0.00     0.039 C 
BRANCH  13  17
ATOM     17  C   UNL     1      23.564 -22.634  19.145  1.00  0.00     0.066 CG0
ATOM     18  G   UNL     1      24.840 -23.444  19.017  1.00  0.00     0.000 G0
ENDBRANCH  13  17
ENDBRANCH  11  13
ENDBRANCH  10  11
ENDBRANCH   1  10
TORSDOF 0
ENDMDL
MODEL 4
REMARK VINA RESULT:    -5.215      2.321      5.028
REMARK INTER + INTRA:          -7.093
REMARK INTER:                  -8.089
REMARK INTRA:                   0.995
REMARK UNBOUND:                 0.255
REMARK SMILES CC1=CCC(=C(C)C)C(=O)CC(C)=CCC1
REMARK SMILES IDX 12 1 14 2 13 3 15 4 16 5 2 6 1 7 3 8 11 10 9 11 10 12 5 13
REMARK SMILES IDX 6 14 7 15 8 16 4 17
REMARK H PARENT
REMARK Flexibility Score: 60.00
ROOT
ATOM      1  C   UNL     1      22.743 -24.497  21.260  1.00  0.00    -0.070 C 
ATOM      2  C   UNL     1      23.362 -25.059  20.199  1.00  0.00    -0.027 C 
ATOM      3  C   UNL     1      21.846 -25.373  22.099  1.00  0.00     0.039 C 
ENDROOT
BRANCH   2   4
ATOM      4  C   UNL     1      24.369 -24.376  19.300  1.00  0.00     0.032 C 
BRANCH   4   5
ATOM      5  C   UNL     1      24.094 -24.524  17.789  1.00  0.00     0.034 C 
BRANCH   5   6
ATOM      6  C   UNL     1      23.283 -23.376  17.214  1.00  0.00    -0.077 C 
ATOM      7  C   UNL     1      22.342 -23.683  16.077  1.00  0.00     0.039 C 
ATOM      8  C   UNL     1      23.298 -22.111  17.701  1.00  0.00    -0.023 CG0
ATOM      9  G   UNL     1      24.172 -21.571  18.817  1.00  0.00     0.000 G0
ENDBRANCH   5   6
ENDBRANCH   4   5
ENDBRANCH   2   4
BRANCH   1  10
ATOM     10  C   UNL     1      22.978 -23.067  21.699  1.00  0.00     0.111 C 
BRANCH  10  11
ATOM     11  C   UNL     1      22.467 -22.082  20.681  1.00  0.00     0.163 C 
ATOM     12  O   UNL     1      21.231 -22.077  20.428  1.00  0.00    -0.294 OA
BRANCH  11  13
ATOM     13  C   UNL     1      23.355 -21.082  20.017  1.00  0.00    -0.002 C 
ATOM     14  C   UNL     1      23.487 -19.819  20.524  1.00  0.00    -0.069 C 
ATOM     15  C   UNL     1      22.627 -19.340  21.673  1.00  0.00     0.039 C 
ATOM     16  C   UNL     1      24.494 -18.836  19.969  1.00  0.00     0.039 C 
BRANCH  13  17
ATOM     17  C   UNL     1      24.167 -21.558  18.824  1.00  0.00     0.066 CG0
ATOM     18  G   UNL     1      23.292 -22.109  17.715  1.00  0.00     0.000 G0
ENDBRANCH  13  17
ENDBRANCH  11  13
ENDBRANCH  10  11
ENDBRANCH   1  10
TORSDOF 0
ENDMDL
MODEL 5
REMARK VINA RESULT:    -5.085      2.147      3.771
REMARK INTER + INTRA:          -6.911
REMARK INTER:                  -8.100
REMARK INTRA:                   1.189
REMARK UNBOUND:                 0.255
REMARK SMILES CC1=CCC(=C(C)C)C(=O)CC(C)=CCC1
REMARK SMILES IDX 12 1 14 2 13 3 15 4 16 5 2 6 1 7 3 8 11 10 9 11 10 12 5 13
REMARK SMILES IDX 6 14 7 15 8 16 4 17
REMARK H PARENT
REMARK Flexibility Score: 60.00
ROOT
ATOM      1  C   UNL     1      23.080 -23.978  21.564  1.00  0.00    -0.070 C 
ATOM      2  C   UNL     1      22.639 -22.717  21.775  1.00  0.00    -0.027 C 
ATOM      3  C   UNL     1      23.570 -24.762  22.755  1.00  0.00     0.039 C 
ENDROOT
BRANCH   2   4
ATOM      4  C   UNL     1      22.022 -21.812  20.732  1.00  0.00     0.032 C 
BRANCH   4   5
ATOM      5  C   UNL     1      22.621 -20.391  20.672  1.00  0.00     0.034 C 
BRANCH   5   6
ATOM      6  C   UNL     1      23.704 -20.243  19.617  1.00  0.00    -0.077 C 
ATOM      7  C   UNL     1      24.827 -19.277  19.895  1.00  0.00     0.039 C 
ATOM      8  C   UNL     1      23.762 -20.972  18.475  1.00  0.00    -0.023 CG0
ATOM      9  G   UNL     1      22.742 -21.979  17.980  1.00  0.00     0.000 G0
ENDBRANCH   5   6
ENDBRANCH   4   5
ENDBRANCH   2   4
BRANCH   1  10
ATOM     10  C   UNL     1      23.018 -24.666  20.216  1.00  0.00     0.111 C 
BRANCH  10  11
ATOM     11  C   UNL     1      23.854 -23.951  19.188  1.00  0.00     0.163 C 
ATOM     12  O   UNL     1      25.097 -23.870  19.385  1.00  0.00    -0.294 OA
BRANCH  11  13
ATOM     13  C   UNL     1      23.274 -23.396  17.929  1.00  0.00    -0.002 C 
ATOM     14  C   UNL     1      23.167 -24.172  16.808  1.00  0.00    -0.069 C 
ATOM     15  C   UNL     1      23.770 -25.559  16.752  1.00  0.00     0.039 C 
ATOM     16  C   UNL     1      22.444 -23.692  15.569  1.00  0.00     0.039 C 
BRANCH  13  17
ATOM     17  C   UNL     1      22.729 -21.978  17.980  1.00  0.00     0.066 CG0
ATOM     18  G   UNL     1      23.762 -20.982  18.470  1.00  0.00     0.000 G0
ENDBRANCH  13  17
ENDBRANCH  11  13
ENDBRANCH  10  11
ENDBRANCH   1  10
TORSDOF 0
ENDMDL
MODEL 6
REMARK VINA RESULT:    -4.852      1.348      4.217
REMARK INTER + INTRA:          -6.582
REMARK INTER:                  -7.967
REMARK INTRA:                   1.384
REMARK UNBOUND:                 0.255
REMARK SMILES CC1=CCC(=C(C)C)C(=O)CC(C)=CCC1
REMARK SMILES IDX 12 1 14 2 13 3 15 4 16 5 2 6 1 7 3 8 11 10 9 11 10 12 5 13
REMARK SMILES IDX 6 14 7 15 8 16 4 17
REMARK H PARENT
REMARK Flexibility Score: 60.00
ROOT
ATOM      1  C   UNL     1      24.081 -20.061  15.956  1.00  0.00    -0.070 C 
ATOM      2  C   UNL     1      23.400 -21.183  15.633  1.00  0.00    -0.027 C 
ATOM      3  C   UNL     1      24.907 -19.403  14.880  1.00  0.00     0.039 C 
ENDROOT
BRANCH   2   4
ATOM      4  C   UNL     1      22.446 -21.928  16.541  1.00  0.00     0.032 C 
BRANCH   4   5
ATOM      5  C   UNL     1      22.690 -23.450  16.625  1.00  0.00     0.034 C 
BRANCH   5   6
ATOM      6  C   UNL     1      23.428 -23.868  17.885  1.00  0.00    -0.077 C 
ATOM      7  C   UNL     1      24.303 -25.093  17.812  1.00  0.00     0.039 C 
ATOM      8  C   UNL     1      23.405 -23.173  19.050  1.00  0.00    -0.023 CG0
ATOM      9  G   UNL     1      22.588 -21.934  19.359  1.00  0.00     0.000 G0
ENDBRANCH   5   6
ENDBRANCH   4   5
ENDBRANCH   2   4
BRANCH   1  10
ATOM     10  C   UNL     1      23.983 -19.389  17.310  1.00  0.00     0.111 C 
BRANCH  10  11
ATOM     11  C   UNL     1      24.356 -20.328  18.426  1.00  0.00     0.163 C 
ATOM     12  O   UNL     1      25.527 -20.797  18.442  1.00  0.00    -0.294 OA
BRANCH  11  13
ATOM     13  C   UNL     1      23.416 -20.669  19.535  1.00  0.00    -0.002 C 
ATOM     14  C   UNL     1      23.273 -19.836  20.610  1.00  0.00    -0.069 C 
ATOM     15  C   UNL     1      24.167 -18.629  20.793  1.00  0.00     0.039 C 
ATOM     16  C   UNL     1      22.219 -20.072  21.670  1.00  0.00     0.039 C 
BRANCH  13  17
ATOM     17  C   UNL     1      22.569 -21.919  19.368  1.00  0.00     0.066 CG0
ATOM     18  G   UNL     1      23.405 -23.144  19.053  1.00  0.00     0.000 G0
ENDBRANCH  13  17
ENDBRANCH  11  13
ENDBRANCH  10  11
ENDBRANCH   1  10
TORSDOF 0
ENDMDL
MODEL 7
REMARK VINA RESULT:    -4.734      2.015      4.297
REMARK INTER + INTRA:          -6.416
REMARK INTER:                  -6.643
REMARK INTRA:                   0.227
REMARK UNBOUND:                 0.255
REMARK SMILES CC1=CCC(=C(C)C)C(=O)CC(C)=CCC1
REMARK SMILES IDX 12 1 14 2 13 3 15 4 16 5 2 6 1 7 3 8 11 10 9 11 10 12 5 13
REMARK SMILES IDX 6 14 7 15 8 16 4 17
REMARK H PARENT
REMARK Flexibility Score: 60.00
ROOT
ATOM      1  C   UNL     1      19.196 -21.949  16.871  1.00  0.00    -0.070 C 
ATOM      2  C   UNL     1      18.509 -22.036  18.032  1.00  0.00    -0.027 C 
ATOM      3  C   UNL     1      18.589 -22.578  15.642  1.00  0.00     0.039 C 
ENDROOT
BRANCH   2   4
ATOM      4  C   UNL     1      18.903 -21.390  19.341  1.00  0.00     0.032 C 
BRANCH   4   5
ATOM      5  C   UNL     1      20.009 -22.130  20.122  1.00  0.00     0.034 C 
BRANCH   5   6
ATOM      6  C   UNL     1      21.119 -21.212  20.603  1.00  0.00    -0.077 C 
ATOM      7  C   UNL     1      20.775 -20.188  21.656  1.00  0.00     0.039 C 
ATOM      8  C   UNL     1      22.410 -21.297  20.200  1.00  0.00    -0.023 CG0
ATOM      9  G   UNL     1      22.979 -22.228  19.146  1.00  0.00     0.000 G0
ENDBRANCH   5   6
ENDBRANCH   4   5
ENDBRANCH   2   4
BRANCH   1  10
ATOM     10  C   UNL     1      20.491 -21.177  16.727  1.00  0.00     0.111 C 
BRANCH  10  11
ATOM     11  C   UNL     1      21.692 -22.064  16.920  1.00  0.00     0.163 C 
ATOM     12  O   UNL     1      21.711 -23.176  16.324  1.00  0.00    -0.294 OA
BRANCH  11  13
ATOM     13  C   UNL     1      22.874 -21.649  17.733  1.00  0.00    -0.002 C 
ATOM     14  C   UNL     1      23.758 -20.721  17.256  1.00  0.00    -0.069 C 
ATOM     15  C   UNL     1      23.664 -20.202  15.838  1.00  0.00     0.039 C 
ATOM     16  C   UNL     1      24.873 -20.165  18.115  1.00  0.00     0.039 C 
BRANCH  13  17
ATOM     17  C   UNL     1      22.991 -22.227  19.134  1.00  0.00     0.066 CG0
ATOM     18  G   UNL     1      22.425 -21.297  20.189  1.00  0.00     0.000 G0
ENDBRANCH  13  17
ENDBRANCH  11  13
ENDBRANCH  10  11
ENDBRANCH   1  10
TORSDOF 0
ENDMDL
MODEL 8
REMARK VINA RESULT:    -4.657      2.234      3.099
REMARK INTER + INTRA:          -6.307
REMARK INTER:                  -7.674
REMARK INTRA:                   1.367
REMARK UNBOUND:                 0.255
REMARK SMILES CC1=CCC(=C(C)C)C(=O)CC(C)=CCC1
REMARK SMILES IDX 12 1 14 2 13 3 15 4 16 5 2 6 1 7 3 8 11 10 9 11 10 12 5 13
REMARK SMILES IDX 6 14 7 15 8 16 4 17
REMARK H PARENT
REMARK Flexibility Score: 60.00
ROOT
ATOM      1  C   UNL     1      23.155 -20.271  20.606  1.00  0.00    -0.070 C 
ATOM      2  C   UNL     1      22.138 -20.885  21.251  1.00  0.00    -0.027 C 
ATOM      3  C   UNL     1      23.349 -18.794  20.838  1.00  0.00     0.039 C 
ENDROOT
BRANCH   2   4
ATOM      4  C   UNL     1      21.841 -22.368  21.224  1.00  0.00     0.032 C 
BRANCH   4   5
ATOM      5  C   UNL     1      22.950 -23.260  21.821  1.00  0.00     0.034 C 
BRANCH   5   6
ATOM      6  C   UNL     1      23.025 -24.632  21.174  1.00  0.00    -0.077 C 
ATOM      7  C   UNL     1      22.294 -25.766  21.847  1.00  0.00     0.039 C 
ATOM      8  C   UNL     1      23.646 -24.889  19.996  1.00  0.00    -0.023 CG0
ATOM      9  G   UNL     1      24.455 -23.917  19.159  1.00  0.00     0.000 G0
ENDBRANCH   5   6
ENDBRANCH   4   5
ENDBRANCH   2   4
BRANCH   1  10
ATOM     10  C   UNL     1      24.156 -21.009  19.741  1.00  0.00     0.111 C 
BRANCH  10  11
ATOM     11  C   UNL     1      23.499 -21.629  18.536  1.00  0.00     0.163 C 
ATOM     12  O   UNL     1      22.853 -20.875  17.757  1.00  0.00    -0.294 OA
BRANCH  11  13
ATOM     13  C   UNL     1      23.639 -23.078  18.203  1.00  0.00    -0.002 C 
ATOM     14  C   UNL     1      23.102 -23.586  17.053  1.00  0.00    -0.069 C 
ATOM     15  C   UNL     1      22.221 -22.742  16.158  1.00  0.00     0.039 C 
ATOM     16  C   UNL     1      23.360 -25.010  16.611  1.00  0.00     0.039 C 
BRANCH  13  17
ATOM     17  C   UNL     1      24.476 -23.929  19.145  1.00  0.00     0.066 CG0
ATOM     18  G   UNL     1      23.627 -24.867  19.980  1.00  0.00     0.000 G0
ENDBRANCH  13  17
ENDBRANCH  11  13
ENDBRANCH  10  11
ENDBRANCH   1  10
TORSDOF 0
ENDMDL
MODEL 9
REMARK VINA RESULT:    -4.167      1.939      4.261
REMARK INTER + INTRA:          -5.617
REMARK INTER:                  -7.248
REMARK INTRA:                   1.631
REMARK UNBOUND:                 0.255
REMARK SMILES CC1=CCC(=C(C)C)C(=O)CC(C)=CCC1
REMARK SMILES IDX 12 1 14 2 13 3 15 4 16 5 2 6 1 7 3 8 11 10 9 11 10 12 5 13
REMARK SMILES IDX 6 14 7 15 8 16 4 17
REMARK H PARENT
REMARK Flexibility Score: 60.00
ROOT
ATOM      1  C   UNL     1      20.930 -20.320  21.237  1.00  0.00    -0.070 C 
ATOM      2  C   UNL     1      21.955 -19.535  21.639  1.00  0.00    -0.027 C 
ATOM      3  C   UNL     1      19.535 -19.928  21.654  1.00  0.00     0.039 C 
ENDROOT
BRANCH   2   4
ATOM      4  C   UNL     1      23.405 -19.707  21.245  1.00  0.00     0.032 C 
BRANCH   4   5
ATOM      5  C   UNL     1      23.728 -19.329  19.784  1.00  0.00     0.034 C 
BRANCH   5   6
ATOM      6  C   UNL     1      24.898 -20.110  19.210  1.00  0.00    -0.077 C 
ATOM      7  C   UNL     1      26.259 -19.462  19.246  1.00  0.00     0.039 C 
ATOM      8  C   UNL     1      24.810 -21.376  18.732  1.00  0.00    -0.023 CG0
ATOM      9  G   UNL     1      23.554 -22.212  18.582  1.00  0.00     0.000 G0
ENDBRANCH   5   6
ENDBRANCH   4   5
ENDBRANCH   2   4
BRANCH   1  10
ATOM     10  C   UNL     1      21.107 -21.513  20.321  1.00  0.00     0.111 C 
BRANCH  10  11
ATOM     11  C   UNL     1      22.234 -22.402  20.775  1.00  0.00     0.163 C 
ATOM     12  O   UNL     1      22.310 -22.686  22.001  1.00  0.00    -0.294 OA
BRANCH  11  13
ATOM     13  C   UNL     1      23.215 -23.002  19.822  1.00  0.00    -0.002 C 
ATOM     14  C   UNL     1      23.717 -24.256  20.033  1.00  0.00    -0.069 C 
ATOM     15  C   UNL     1      23.422 -25.015  21.309  1.00  0.00     0.039 C 
ATOM     16  C   UNL     1      24.587 -24.952  19.010  1.00  0.00     0.039 C 
BRANCH  13  17
ATOM     17  C   UNL     1      23.551 -22.201  18.574  1.00  0.00     0.066 CG0
ATOM     18  G   UNL     1      24.810 -21.372  18.744  1.00  0.00     0.000 G0
ENDBRANCH  13  17
ENDBRANCH  11  13
ENDBRANCH  10  11
ENDBRANCH   1  10
TORSDOF 0
ENDMDL
