MODEL 1
REMARK VINA RESULT:    -3.060      0.000      0.000
REMARK INTER + INTRA:          -3.424
REMARK INTER:                  -3.418
REMARK INTRA:                  -0.006
REMARK UNBOUND:                -0.006
REMARK SMILES CCCC(=O)[O-]
REMARK SMILES IDX 3 1 4 2 5 3 6 4 2 5 1 6
REMARK H PARENT
REMARK Flexibility Score: inf
ROOT
ATOM      1  C   UNL     1      41.293  55.641  16.842  1.00  0.00     0.052 C 
ENDROOT
BRANCH   1   2
ATOM      2  C   UNL     1      42.698  55.176  17.050  1.00  0.00     0.041 C 
ATOM      3  O   UNL     1      43.628  56.013  17.194  1.00  0.00    -0.550 OA
ATOM      4  O   UNL     1      42.976  53.818  17.136  1.00  0.00    -0.550 OA
ENDBRANCH   1   2
BRANCH   1   5
ATOM      5  C   UNL     1      40.633  55.971  18.184  1.00  0.00     0.003 C 
ATOM      6  C   UNL     1      39.314  56.712  17.981  1.00  0.00     0.004 C 
ENDBRANCH   1   5
TORSDOF 2
ENDMDL
MODEL 2
REMARK VINA RESULT:    -3.051      0.113      1.321
REMARK INTER + INTRA:          -3.414
REMARK INTER:                  -3.409
REMARK INTRA:                  -0.005
REMARK UNBOUND:                -0.006
REMARK SMILES CCCC(=O)[O-]
REMARK SMILES IDX 3 1 4 2 5 3 6 4 2 5 1 6
REMARK H PARENT
REMARK Flexibility Score: inf
ROOT
ATOM      1  C   UNL     1      41.346  55.643  16.854  1.00  0.00     0.052 C 
ENDROOT
BRANCH   1   2
ATOM      2  C   UNL     1      42.722  55.096  17.064  1.00  0.00     0.041 C 
ATOM      3  O   UNL     1      42.899  53.854  17.181  1.00  0.00    -0.550 OA
ATOM      4  O   UNL     1      43.815  55.951  17.081  1.00  0.00    -0.550 OA
ENDBRANCH   1   2
BRANCH   1   5
ATOM      5  C   UNL     1      40.679  55.945  18.199  1.00  0.00     0.003 C 
ATOM      6  C   UNL     1      39.362  56.692  18.005  1.00  0.00     0.004 C 
ENDBRANCH   1   5
TORSDOF 2
ENDMDL
MODEL 3
REMARK VINA RESULT:    -2.969      4.945      5.811
REMARK INTER + INTRA:          -3.322
REMARK INTER:                  -3.316
REMARK INTRA:                  -0.007
REMARK UNBOUND:                -0.006
REMARK SMILES CCCC(=O)[O-]
REMARK SMILES IDX 3 1 4 2 5 3 6 4 2 5 1 6
REMARK H PARENT
REMARK Flexibility Score: inf
ROOT
ATOM      1  C   UNL     1      37.765  56.694  16.482  1.00  0.00     0.052 C 
ENDROOT
BRANCH   1   2
ATOM      2  C   UNL     1      36.351  57.177  16.436  1.00  0.00     0.041 C 
ATOM      3  O   UNL     1      35.455  56.578  17.087  1.00  0.00    -0.550 OA
ATOM      4  O   UNL     1      36.030  58.319  15.714  1.00  0.00    -0.550 OA
ENDBRANCH   1   2
BRANCH   1   5
ATOM      5  C   UNL     1      38.425  57.089  17.806  1.00  0.00     0.003 C 
ATOM      6  C   UNL     1      39.744  56.348  18.007  1.00  0.00     0.004 C 
ENDBRANCH   1   5
TORSDOF 2
ENDMDL
MODEL 4
REMARK VINA RESULT:    -2.950      5.233      6.025
REMARK INTER + INTRA:          -3.301
REMARK INTER:                  -3.295
REMARK INTRA:                  -0.006
REMARK UNBOUND:                -0.006
REMARK SMILES CCCC(=O)[O-]
REMARK SMILES IDX 3 1 4 2 5 3 6 4 2 5 1 6
REMARK H PARENT
REMARK Flexibility Score: inf
ROOT
ATOM      1  C   UNL     1      37.324  56.700  16.533  1.00  0.00     0.052 C 
ENDROOT
BRANCH   1   2
ATOM      2  C   UNL     1      36.026  57.389  16.260  1.00  0.00     0.041 C 
ATOM      3  O   UNL     1      36.013  58.524  15.713  1.00  0.00    -0.550 OA
ATOM      4  O   UNL     1      34.826  56.758  16.563  1.00  0.00    -0.550 OA
ENDBRANCH   1   2
BRANCH   1   5
ATOM      5  C   UNL     1      38.051  57.371  17.702  1.00  0.00     0.003 C 
ATOM      6  C   UNL     1      39.408  56.718  17.953  1.00  0.00     0.004 C 
ENDBRANCH   1   5
TORSDOF 2
ENDMDL
MODEL 5
REMARK VINA RESULT:    -2.728      2.118      2.698
REMARK INTER + INTRA:          -3.053
REMARK INTER:                  -3.017
REMARK INTRA:                  -0.036
REMARK UNBOUND:                -0.006
REMARK SMILES CCCC(=O)[O-]
REMARK SMILES IDX 3 1 4 2 5 3 6 4 2 5 1 6
REMARK H PARENT
REMARK Flexibility Score: inf
ROOT
ATOM      1  C   UNL     1      42.970  53.861  17.021  1.00  0.00     0.052 C 
ENDROOT
BRANCH   1   2
ATOM      2  C   UNL     1      43.086  53.431  15.593  1.00  0.00     0.041 C 
ATOM      3  O   UNL     1      44.182  53.002  15.147  1.00  0.00    -0.550 OA
ATOM      4  O   UNL     1      41.970  53.458  14.767  1.00  0.00    -0.550 OA
ENDBRANCH   1   2
BRANCH   1   5
ATOM      5  C   UNL     1      42.854  55.384  17.115  1.00  0.00     0.003 C 
ATOM      6  C   UNL     1      41.409  55.812  17.359  1.00  0.00     0.004 C 
ENDBRANCH   1   5
TORSDOF 2
ENDMDL
MODEL 6
REMARK VINA RESULT:    -2.692      2.169      3.593
REMARK INTER + INTRA:          -3.013
REMARK INTER:                  -2.974
REMARK INTRA:                  -0.039
REMARK UNBOUND:                -0.006
REMARK SMILES CCCC(=O)[O-]
REMARK SMILES IDX 3 1 4 2 5 3 6 4 2 5 1 6
REMARK H PARENT
REMARK Flexibility Score: inf
ROOT
ATOM      1  C   UNL     1      42.908  53.816  16.987  1.00  0.00     0.052 C 
ENDROOT
BRANCH   1   2
ATOM      2  C   UNL     1      42.722  55.294  17.112  1.00  0.00     0.041 C 
ATOM      3  O   UNL     1      43.719  56.063  17.080  1.00  0.00    -0.550 OA
ATOM      4  O   UNL     1      41.445  55.829  17.213  1.00  0.00    -0.550 OA
ENDBRANCH   1   2
BRANCH   1   5
ATOM      5  C   UNL     1      42.881  53.395  15.515  1.00  0.00     0.003 C 
ATOM      6  C   UNL     1      44.295  53.191  14.975  1.00  0.00     0.004 C 
ENDBRANCH   1   5
TORSDOF 2
ENDMDL
MODEL 7
REMARK VINA RESULT:    -2.637      1.372      1.632
REMARK INTER + INTRA:          -2.951
REMARK INTER:                  -2.941
REMARK INTRA:                  -0.010
REMARK UNBOUND:                -0.006
REMARK SMILES CCCC(=O)[O-]
REMARK SMILES IDX 3 1 4 2 5 3 6 4 2 5 1 6
REMARK H PARENT
REMARK Flexibility Score: inf
ROOT
ATOM      1  C   UNL     1      42.308  54.901  16.157  1.00  0.00     0.052 C 
ENDROOT
BRANCH   1   2
ATOM      2  C   UNL     1      43.745  54.505  16.044  1.00  0.00     0.041 C 
ATOM      3  O   UNL     1      44.643  55.221  16.561  1.00  0.00    -0.550 OA
ATOM      4  O   UNL     1      44.092  53.318  15.410  1.00  0.00    -0.550 OA
ENDBRANCH   1   2
BRANCH   1   5
ATOM      5  C   UNL     1      42.057  55.637  17.476  1.00  0.00     0.003 C 
ATOM      6  C   UNL     1      40.603  56.088  17.586  1.00  0.00     0.004 C 
ENDBRANCH   1   5
TORSDOF 2
ENDMDL
MODEL 8
REMARK VINA RESULT:    -2.587      4.890      5.786
REMARK INTER + INTRA:          -2.895
REMARK INTER:                  -2.875
REMARK INTRA:                  -0.020
REMARK UNBOUND:                -0.006
REMARK SMILES CCCC(=O)[O-]
REMARK SMILES IDX 3 1 4 2 5 3 6 4 2 5 1 6
REMARK H PARENT
REMARK Flexibility Score: inf
ROOT
ATOM      1  C   UNL     1      36.052  57.113  16.905  1.00  0.00     0.052 C 
ENDROOT
BRANCH   1   2
ATOM      2  C   UNL     1      37.413  56.722  16.428  1.00  0.00     0.041 C 
ATOM      3  O   UNL     1      38.362  56.601  17.247  1.00  0.00    -0.550 OA
ATOM      4  O   UNL     1      37.626  56.441  15.084  1.00  0.00    -0.550 OA
ENDBRANCH   1   2
BRANCH   1   5
ATOM      5  C   UNL     1      35.049  57.081  15.749  1.00  0.00     0.003 C 
ATOM      6  C   UNL     1      33.746  56.403  16.168  1.00  0.00     0.004 C 
ENDBRANCH   1   5
TORSDOF 2
ENDMDL
MODEL 9
REMARK VINA RESULT:    -2.584      2.081      3.513
REMARK INTER + INTRA:          -2.893
REMARK INTER:                  -2.874
REMARK INTRA:                  -0.018
REMARK UNBOUND:                -0.006
REMARK SMILES CCCC(=O)[O-]
REMARK SMILES IDX 3 1 4 2 5 3 6 4 2 5 1 6
REMARK H PARENT
REMARK Flexibility Score: inf
ROOT
ATOM      1  C   UNL     1      42.936  55.621  17.459  1.00  0.00     0.052 C 
ENDROOT
BRANCH   1   2
ATOM      2  C   UNL     1      41.573  55.610  16.846  1.00  0.00     0.041 C 
ATOM      3  O   UNL     1      40.597  56.118  17.460  1.00  0.00    -0.550 OA
ATOM      4  O   UNL     1      41.386  55.083  15.575  1.00  0.00    -0.550 OA
ENDBRANCH   1   2
BRANCH   1   5
ATOM      5  C   UNL     1      43.945  54.934  16.535  1.00  0.00     0.003 C 
ATOM      6  C   UNL     1      45.291  55.654  16.557  1.00  0.00     0.004 C 
ENDBRANCH   1   5
TORSDOF 2
ENDMDL
