MODEL 1
REMARK VINA RESULT:    -3.999      0.000      0.000
REMARK INTER + INTRA:          -4.633
REMARK INTER:                  -4.584
REMARK INTRA:                  -0.049
REMARK UNBOUND:                -0.049
REMARK SMILES CC(C)[C@@H]([NH3+])C(=O)[O-]
REMARK SMILES IDX 4 1 5 2 6 6 7 7 8 8 2 9 1 10 3 11
REMARK H PARENT 5 3 5 4 5 5
REMARK Flexibility Score: inf
ROOT
ATOM      1  C   UNL     1       7.207   1.986  19.408  1.00  0.00     0.230 C 
ENDROOT
BRANCH   1   2
ATOM      2  N   UNL     1       7.991   1.291  18.375  1.00  0.00    -0.350 N 
ATOM      3  H   UNL     1       7.516   1.395  17.449  1.00  0.00     0.345 HD
ATOM      4  H   UNL     1       8.083   0.271  18.585  1.00  0.00     0.345 HD
ATOM      5  H   UNL     1       8.942   1.716  18.291  1.00  0.00     0.345 HD
ENDBRANCH   1   2
BRANCH   1   6
ATOM      6  C   UNL     1       7.730   1.666  20.788  1.00  0.00     0.099 C 
ATOM      7  O   UNL     1       6.991   1.783  21.802  1.00  0.00    -0.544 OA
ATOM      8  O   UNL     1       9.026   1.192  20.941  1.00  0.00    -0.544 OA
ENDBRANCH   1   6
BRANCH   1   9
ATOM      9  C   UNL     1       7.132   3.527  19.186  1.00  0.00     0.047 C 
ATOM     10  C   UNL     1       5.884   3.927  18.384  1.00  0.00     0.014 C 
ATOM     11  C   UNL     1       8.392   4.118  18.535  1.00  0.00     0.014 C 
ENDBRANCH   1   9
TORSDOF 3
ENDMDL
MODEL 2
REMARK VINA RESULT:    -3.966      6.706      7.258
REMARK INTER + INTRA:          -4.595
REMARK INTER:                  -4.556
REMARK INTRA:                  -0.039
REMARK UNBOUND:                -0.049
REMARK SMILES CC(C)[C@@H]([NH3+])C(=O)[O-]
REMARK SMILES IDX 4 1 5 2 6 6 7 7 8 8 2 9 1 10 3 11
REMARK H PARENT 5 3 5 4 5 5
REMARK Flexibility Score: inf
ROOT
ATOM      1  C   UNL     1       9.020   6.272  24.872  1.00  0.00     0.230 C 
ENDROOT
BRANCH   1   2
ATOM      2  N   UNL     1       8.320   7.371  25.553  1.00  0.00    -0.350 N 
ATOM      3  H   UNL     1       8.265   8.198  24.915  1.00  0.00     0.345 HD
ATOM      4  H   UNL     1       8.817   7.660  26.426  1.00  0.00     0.345 HD
ATOM      5  H   UNL     1       7.341   7.091  25.788  1.00  0.00     0.345 HD
ENDBRANCH   1   2
BRANCH   1   6
ATOM      6  C   UNL     1      10.493   6.282  25.203  1.00  0.00     0.099 C 
ATOM      7  O   UNL     1      11.015   5.339  25.856  1.00  0.00    -0.544 OA
ATOM      8  O   UNL     1      11.295   7.318  24.743  1.00  0.00    -0.544 OA
ENDBRANCH   1   6
BRANCH   1   9
ATOM      9  C   UNL     1       8.395   4.874  25.163  1.00  0.00     0.047 C 
ATOM     10  C   UNL     1       8.485   3.943  23.944  1.00  0.00     0.014 C 
ATOM     11  C   UNL     1       6.946   4.941  25.672  1.00  0.00     0.014 C 
ENDBRANCH   1   9
TORSDOF 3
ENDMDL
MODEL 3
REMARK VINA RESULT:    -3.947      2.359      3.646
REMARK INTER + INTRA:          -4.574
REMARK INTER:                  -4.532
REMARK INTRA:                  -0.042
REMARK UNBOUND:                -0.049
REMARK SMILES CC(C)[C@@H]([NH3+])C(=O)[O-]
REMARK SMILES IDX 4 1 5 2 6 6 7 7 8 8 2 9 1 10 3 11
REMARK H PARENT 5 3 5 4 5 5
REMARK Flexibility Score: inf
ROOT
ATOM      1  C   UNL     1       8.484   1.425  21.109  1.00  0.00     0.230 C 
ENDROOT
BRANCH   1   2
ATOM      2  N   UNL     1       9.042   0.103  20.783  1.00  0.00    -0.350 N 
ATOM      3  H   UNL     1       8.271  -0.534  20.476  1.00  0.00     0.345 HD
ATOM      4  H   UNL     1       9.516  -0.327  21.609  1.00  0.00     0.345 HD
ATOM      5  H   UNL     1       9.721   0.178  19.992  1.00  0.00     0.345 HD
ENDBRANCH   1   2
BRANCH   1   6
ATOM      6  C   UNL     1       7.218   1.684  20.328  1.00  0.00     0.099 C 
ATOM      7  O   UNL     1       6.112   1.817  20.916  1.00  0.00    -0.544 OA
ATOM      8  O   UNL     1       7.278   1.827  18.948  1.00  0.00    -0.544 OA
ENDBRANCH   1   6
BRANCH   1   9
ATOM      9  C   UNL     1       8.247   1.630  22.635  1.00  0.00     0.047 C 
ATOM     10  C   UNL     1       8.536   3.076  23.069  1.00  0.00     0.014 C 
ATOM     11  C   UNL     1       9.031   0.646  23.518  1.00  0.00     0.014 C 
ENDBRANCH   1   9
TORSDOF 3
ENDMDL
MODEL 4
REMARK VINA RESULT:    -3.930      7.064      7.627
REMARK INTER + INTRA:          -4.554
REMARK INTER:                  -4.505
REMARK INTRA:                  -0.049
REMARK UNBOUND:                -0.049
REMARK SMILES CC(C)[C@@H]([NH3+])C(=O)[O-]
REMARK SMILES IDX 4 1 5 2 6 6 7 7 8 8 2 9 1 10 3 11
REMARK H PARENT 5 3 5 4 5 5
REMARK Flexibility Score: inf
ROOT
ATOM      1  C   UNL     1      11.269   6.996  24.685  1.00  0.00     0.230 C 
ENDROOT
BRANCH   1   2
ATOM      2  N   UNL     1      11.008   8.431  24.495  1.00  0.00    -0.350 N 
ATOM      3  H   UNL     1      11.738   8.838  23.865  1.00  0.00     0.345 HD
ATOM      4  H   UNL     1      11.030   8.948  25.403  1.00  0.00     0.345 HD
ATOM      5  H   UNL     1      10.081   8.576  24.035  1.00  0.00     0.345 HD
ENDBRANCH   1   2
BRANCH   1   6
ATOM      6  C   UNL     1       9.997   6.255  25.017  1.00  0.00     0.099 C 
ATOM      7  O   UNL     1      10.033   5.137  25.599  1.00  0.00    -0.544 OA
ATOM      8  O   UNL     1       8.768   6.831  24.722  1.00  0.00    -0.544 OA
ENDBRANCH   1   6
BRANCH   1   9
ATOM      9  C   UNL     1      11.993   6.339  23.471  1.00  0.00     0.047 C 
ATOM     10  C   UNL     1      13.518   6.322  23.657  1.00  0.00     0.014 C 
ATOM     11  C   UNL     1      11.632   6.978  22.119  1.00  0.00     0.014 C 
ENDBRANCH   1   9
TORSDOF 3
ENDMDL
MODEL 5
REMARK VINA RESULT:    -3.858      2.386      3.627
REMARK INTER + INTRA:          -4.471
REMARK INTER:                  -4.414
REMARK INTRA:                  -0.058
REMARK UNBOUND:                -0.049
REMARK SMILES CC(C)[C@@H]([NH3+])C(=O)[O-]
REMARK SMILES IDX 4 1 5 2 6 6 7 7 8 8 2 9 1 10 3 11
REMARK H PARENT 5 3 5 4 5 5
REMARK Flexibility Score: inf
ROOT
ATOM      1  C   UNL     1       6.933   1.868  20.244  1.00  0.00     0.230 C 
ENDROOT
BRANCH   1   2
ATOM      2  N   UNL     1       5.710   1.842  21.061  1.00  0.00    -0.350 N 
ATOM      3  H   UNL     1       4.912   1.492  20.482  1.00  0.00     0.345 HD
ATOM      4  H   UNL     1       5.467   2.793  21.418  1.00  0.00     0.345 HD
ATOM      5  H   UNL     1       5.824   1.187  21.867  1.00  0.00     0.345 HD
ENDBRANCH   1   2
BRANCH   1   6
ATOM      6  C   UNL     1       6.868   2.969  19.212  1.00  0.00     0.099 C 
ATOM      7  O   UNL     1       7.804   3.134  18.384  1.00  0.00    -0.544 OA
ATOM      8  O   UNL     1       5.744   3.781  19.141  1.00  0.00    -0.544 OA
ENDBRANCH   1   6
BRANCH   1   9
ATOM      9  C   UNL     1       8.235   1.980  21.093  1.00  0.00     0.047 C 
ATOM     10  C   UNL     1       8.704   0.607  21.601  1.00  0.00     0.014 C 
ATOM     11  C   UNL     1       8.123   2.968  22.266  1.00  0.00     0.014 C 
ENDBRANCH   1   9
TORSDOF 3
ENDMDL
MODEL 6
REMARK VINA RESULT:    -3.856      6.901      7.416
REMARK INTER + INTRA:          -4.469
REMARK INTER:                  -4.403
REMARK INTRA:                  -0.066
REMARK UNBOUND:                -0.049
REMARK SMILES CC(C)[C@@H]([NH3+])C(=O)[O-]
REMARK SMILES IDX 4 1 5 2 6 6 7 7 8 8 2 9 1 10 3 11
REMARK H PARENT 5 3 5 4 5 5
REMARK Flexibility Score: inf
ROOT
ATOM      1  C   UNL     1      10.926   6.203  25.140  1.00  0.00     0.230 C 
ENDROOT
BRANCH   1   2
ATOM      2  N   UNL     1      11.287   5.111  26.058  1.00  0.00    -0.350 N 
ATOM      3  H   UNL     1      10.416   4.677  26.443  1.00  0.00     0.345 HD
ATOM      4  H   UNL     1      11.865   5.456  26.857  1.00  0.00     0.345 HD
ATOM      5  H   UNL     1      11.810   4.364  25.548  1.00  0.00     0.345 HD
ENDBRANCH   1   2
BRANCH   1   6
ATOM      6  C   UNL     1      12.006   6.419  24.107  1.00  0.00     0.099 C 
ATOM      7  O   UNL     1      13.031   5.687  24.081  1.00  0.00    -0.544 OA
ATOM      8  O   UNL     1      11.847   7.405  23.142  1.00  0.00    -0.544 OA
ENDBRANCH   1   6
BRANCH   1   9
ATOM      9  C   UNL     1       9.539   5.998  24.459  1.00  0.00     0.047 C 
ATOM     10  C   UNL     1       8.381   6.353  25.404  1.00  0.00     0.014 C 
ATOM     11  C   UNL     1       9.339   4.587  23.883  1.00  0.00     0.014 C 
ENDBRANCH   1   9
TORSDOF 3
ENDMDL
MODEL 7
REMARK VINA RESULT:    -3.772      6.277      6.941
REMARK INTER + INTRA:          -4.373
REMARK INTER:                  -4.321
REMARK INTRA:                  -0.052
REMARK UNBOUND:                -0.049
REMARK SMILES CC(C)[C@@H]([NH3+])C(=O)[O-]
REMARK SMILES IDX 4 1 5 2 6 6 7 7 8 8 2 9 1 10 3 11
REMARK H PARENT 5 3 5 4 5 5
REMARK Flexibility Score: inf
ROOT
ATOM      1  C   UNL     1       8.720   6.047  25.462  1.00  0.00     0.230 C 
ENDROOT
BRANCH   1   2
ATOM      2  N   UNL     1       8.401   7.465  25.236  1.00  0.00    -0.350 N 
ATOM      3  H   UNL     1       9.136   7.894  24.627  1.00  0.00     0.345 HD
ATOM      4  H   UNL     1       8.364   7.998  26.134  1.00  0.00     0.345 HD
ATOM      5  H   UNL     1       7.487   7.559  24.738  1.00  0.00     0.345 HD
ENDBRANCH   1   2
BRANCH   1   6
ATOM      6  C   UNL     1       7.475   5.196  25.394  1.00  0.00     0.099 C 
ATOM      7  O   UNL     1       7.445   4.149  24.694  1.00  0.00    -0.544 OA
ATOM      8  O   UNL     1       6.362   5.542  26.151  1.00  0.00    -0.544 OA
ENDBRANCH   1   6
BRANCH   1   9
ATOM      9  C   UNL     1       9.817   5.504  24.497  1.00  0.00     0.047 C 
ATOM     10  C   UNL     1      11.213   5.550  25.136  1.00  0.00     0.014 C 
ATOM     11  C   UNL     1       9.837   6.207  23.130  1.00  0.00     0.014 C 
ENDBRANCH   1   9
TORSDOF 3
ENDMDL
MODEL 8
REMARK VINA RESULT:    -3.762      2.175      2.508
REMARK INTER + INTRA:          -4.362
REMARK INTER:                  -4.311
REMARK INTRA:                  -0.050
REMARK UNBOUND:                -0.049
REMARK SMILES CC(C)[C@@H]([NH3+])C(=O)[O-]
REMARK SMILES IDX 4 1 5 2 6 6 7 7 8 8 2 9 1 10 3 11
REMARK H PARENT 5 3 5 4 5 5
REMARK Flexibility Score: inf
ROOT
ATOM      1  C   UNL     1       8.233   1.081  21.534  1.00  0.00     0.230 C 
ENDROOT
BRANCH   1   2
ATOM      2  N   UNL     1       9.145   0.456  20.563  1.00  0.00    -0.350 N 
ATOM      3  H   UNL     1       8.598   0.131  19.732  1.00  0.00     0.345 HD
ATOM      4  H   UNL     1       9.639  -0.367  20.976  1.00  0.00     0.345 HD
ATOM      5  H   UNL     1       9.848   1.150  20.225  1.00  0.00     0.345 HD
ENDBRANCH   1   2
BRANCH   1   6
ATOM      6  C   UNL     1       8.812   1.029  22.928  1.00  0.00     0.099 C 
ATOM      7  O   UNL     1       8.841   2.059  23.654  1.00  0.00    -0.544 OA
ATOM      8  O   UNL     1       9.273  -0.178  23.438  1.00  0.00    -0.544 OA
ENDBRANCH   1   6
BRANCH   1   9
ATOM      9  C   UNL     1       7.836   2.538  21.152  1.00  0.00     0.047 C 
ATOM     10  C   UNL     1       6.504   2.585  20.387  1.00  0.00     0.014 C 
ATOM     11  C   UNL     1       8.925   3.288  20.366  1.00  0.00     0.014 C 
ENDBRANCH   1   9
TORSDOF 3
ENDMDL
MODEL 9
REMARK VINA RESULT:    -3.759      2.408      2.930
REMARK INTER + INTRA:          -4.358
REMARK INTER:                  -4.299
REMARK INTRA:                  -0.059
REMARK UNBOUND:                -0.049
REMARK SMILES CC(C)[C@@H]([NH3+])C(=O)[O-]
REMARK SMILES IDX 4 1 5 2 6 6 7 7 8 8 2 9 1 10 3 11
REMARK H PARENT 5 3 5 4 5 5
REMARK Flexibility Score: inf
ROOT
ATOM      1  C   UNL     1       6.973   2.580  21.246  1.00  0.00     0.230 C 
ENDROOT
BRANCH   1   2
ATOM      2  N   UNL     1       5.728   1.843  20.982  1.00  0.00    -0.350 N 
ATOM      3  H   UNL     1       4.927   2.338  21.440  1.00  0.00     0.345 HD
ATOM      4  H   UNL     1       5.772   0.869  21.358  1.00  0.00     0.345 HD
ATOM      5  H   UNL     1       5.533   1.811  19.956  1.00  0.00     0.345 HD
ENDBRANCH   1   2
BRANCH   1   6
ATOM      6  C   UNL     1       7.226   2.700  22.730  1.00  0.00     0.099 C 
ATOM      7  O   UNL     1       6.485   2.110  23.562  1.00  0.00    -0.544 OA
ATOM      8  O   UNL     1       8.317   3.429  23.186  1.00  0.00    -0.544 OA
ENDBRANCH   1   6
BRANCH   1   9
ATOM      9  C   UNL     1       8.211   1.971  20.520  1.00  0.00     0.047 C 
ATOM     10  C   UNL     1       7.952   1.774  19.018  1.00  0.00     0.014 C 
ATOM     11  C   UNL     1       8.709   0.658  21.148  1.00  0.00     0.014 C 
ENDBRANCH   1   9
TORSDOF 3
ENDMDL
