MODEL 1
REMARK VINA RESULT:    -3.802      0.000      0.000
REMARK INTER + INTRA:          -3.802
REMARK INTER:                  -3.802
REMARK INTRA:                   0.000
REMARK UNBOUND:                 0.000
REMARK SMILES CC1(C)[C@H]2CC[C@]1(C)C(=O)C2
REMARK SMILES IDX 1 1 2 2 4 3 5 4 6 5 7 6 9 7 10 8 11 9 8 10 3 11
REMARK H PARENT
REMARK Flexibility Score: inf
ROOT
ATOM      1  C   UNL     1     137.884 136.116 123.687  1.00  0.00     0.012 C 
ATOM      2  C   UNL     1     139.281 135.435 123.798  1.00  0.00    -0.020 C 
ATOM      3  C   UNL     1     139.276 133.932 123.433  1.00  0.00     0.003 C 
ATOM      4  C   UNL     1     138.890 133.947 121.928  1.00  0.00     0.005 C 
ATOM      5  C   UNL     1     139.593 135.224 121.403  1.00  0.00     0.015 C 
ATOM      6  C   UNL     1     140.280 135.780 122.673  1.00  0.00     0.032 C 
ATOM      7  C   UNL     1     141.387 134.800 122.972  1.00  0.00     0.139 C 
ATOM      8  O   UNL     1     142.575 134.968 122.747  1.00  0.00    -0.299 OA
ATOM      9  C   UNL     1     140.778 133.537 123.496  1.00  0.00     0.080 C 
ATOM     10  C   UNL     1     140.721 137.245 122.575  1.00  0.00     0.020 C 
ATOM     11  C   UNL     1     139.800 135.726 125.241  1.00  0.00     0.012 C 
ENDROOT
TORSDOF 0
ENDMDL
MODEL 2
REMARK VINA RESULT:    -3.771     13.944     15.247
REMARK INTER + INTRA:          -3.771
REMARK INTER:                  -3.771
REMARK INTRA:                   0.000
REMARK UNBOUND:                 0.000
REMARK SMILES CC1(C)[C@H]2CC[C@]1(C)C(=O)C2
REMARK SMILES IDX 1 1 2 2 4 3 5 4 6 5 7 6 9 7 10 8 11 9 8 10 3 11
REMARK H PARENT
REMARK Flexibility Score: inf
ROOT
ATOM      1  C   UNL     1     128.040 139.890 115.299  1.00  0.00     0.012 C 
ATOM      2  C   UNL     1     127.741 138.524 114.610  1.00  0.00    -0.020 C 
ATOM      3  C   UNL     1     129.009 137.725 114.228  1.00  0.00     0.003 C 
ATOM      4  C   UNL     1     129.646 137.413 115.611  1.00  0.00     0.005 C 
ATOM      5  C   UNL     1     128.411 137.186 116.518  1.00  0.00     0.015 C 
ATOM      6  C   UNL     1     127.229 137.408 115.545  1.00  0.00     0.032 C 
ATOM      7  C   UNL     1     127.271 136.223 114.612  1.00  0.00     0.139 C 
ATOM      8  O   UNL     1     126.531 135.252 114.649  1.00  0.00    -0.299 OA
ATOM      9  C   UNL     1     128.443 136.380 113.693  1.00  0.00     0.080 C 
ATOM     10  C   UNL     1     125.875 137.649 116.222  1.00  0.00     0.020 C 
ATOM     11  C   UNL     1     126.810 138.837 113.398  1.00  0.00     0.012 C 
ENDROOT
TORSDOF 0
ENDMDL
MODEL 3
REMARK VINA RESULT:    -3.766      6.540      7.940
REMARK INTER + INTRA:          -3.766
REMARK INTER:                  -3.766
REMARK INTRA:                   0.000
REMARK UNBOUND:                 0.000
REMARK SMILES CC1(C)[C@H]2CC[C@]1(C)C(=O)C2
REMARK SMILES IDX 1 1 2 2 4 3 5 4 6 5 7 6 9 7 10 8 11 9 8 10 3 11
REMARK H PARENT
REMARK Flexibility Score: inf
ROOT
ATOM      1  C   UNL     1     140.191 140.190 120.305  1.00  0.00     0.012 C 
ATOM      2  C   UNL     1     139.913 140.868 118.930  1.00  0.00    -0.020 C 
ATOM      3  C   UNL     1     140.738 140.277 117.762  1.00  0.00     0.003 C 
ATOM      4  C   UNL     1     140.207 138.819 117.672  1.00  0.00     0.005 C 
ATOM      5  C   UNL     1     138.704 138.976 118.014  1.00  0.00     0.015 C 
ATOM      6  C   UNL     1     138.570 140.497 118.266  1.00  0.00     0.032 C 
ATOM      7  C   UNL     1     138.746 141.129 116.908  1.00  0.00     0.139 C 
ATOM      8  O   UNL     1     137.855 141.578 116.204  1.00  0.00    -0.299 OA
ATOM      9  C   UNL     1     140.187 141.022 116.515  1.00  0.00     0.080 C 
ATOM     10  C   UNL     1     137.298 140.914 119.014  1.00  0.00     0.020 C 
ATOM     11  C   UNL     1     140.134 142.398 119.140  1.00  0.00     0.012 C 
ENDROOT
TORSDOF 0
ENDMDL
MODEL 4
REMARK VINA RESULT:    -3.742      1.394      2.757
REMARK INTER + INTRA:          -3.742
REMARK INTER:                  -3.742
REMARK INTRA:                   0.000
REMARK UNBOUND:                 0.000
REMARK SMILES CC1(C)[C@H]2CC[C@]1(C)C(=O)C2
REMARK SMILES IDX 1 1 2 2 4 3 5 4 6 5 7 6 9 7 10 8 11 9 8 10 3 11
REMARK H PARENT
REMARK Flexibility Score: inf
ROOT
ATOM      1  C   UNL     1     139.052 133.090 122.999  1.00  0.00     0.012 C 
ATOM      2  C   UNL     1     139.776 134.412 122.604  1.00  0.00    -0.020 C 
ATOM      3  C   UNL     1     139.242 135.053 121.301  1.00  0.00     0.003 C 
ATOM      4  C   UNL     1     137.780 135.423 121.677  1.00  0.00     0.005 C 
ATOM      5  C   UNL     1     137.900 135.843 123.163  1.00  0.00     0.015 C 
ATOM      6  C   UNL     1     139.408 135.649 123.451  1.00  0.00     0.032 C 
ATOM      7  C   UNL     1     140.093 136.739 122.664  1.00  0.00     0.139 C 
ATOM      8  O   UNL     1     140.553 137.774 123.121  1.00  0.00    -0.299 OA
ATOM      9  C   UNL     1     140.024 136.393 121.209  1.00  0.00     0.080 C 
ATOM     10  C   UNL     1     139.777 135.595 124.938  1.00  0.00     0.020 C 
ATOM     11  C   UNL     1     141.301 134.083 122.560  1.00  0.00     0.012 C 
ENDROOT
TORSDOF 0
ENDMDL
MODEL 5
REMARK VINA RESULT:    -3.738      1.711      3.109
REMARK INTER + INTRA:          -3.738
REMARK INTER:                  -3.738
REMARK INTRA:                   0.000
REMARK UNBOUND:                 0.000
REMARK SMILES CC1(C)[C@H]2CC[C@]1(C)C(=O)C2
REMARK SMILES IDX 1 1 2 2 4 3 5 4 6 5 7 6 9 7 10 8 11 9 8 10 3 11
REMARK H PARENT
REMARK Flexibility Score: inf
ROOT
ATOM      1  C   UNL     1     142.371 135.239 121.614  1.00  0.00     0.012 C 
ATOM      2  C   UNL     1     140.916 135.147 122.164  1.00  0.00    -0.020 C 
ATOM      3  C   UNL     1     140.523 133.734 122.657  1.00  0.00     0.003 C 
ATOM      4  C   UNL     1     141.484 133.512 123.859  1.00  0.00     0.005 C 
ATOM      5  C   UNL     1     141.592 134.925 124.483  1.00  0.00     0.015 C 
ATOM      6  C   UNL     1     140.691 135.776 123.556  1.00  0.00     0.032 C 
ATOM      7  C   UNL     1     139.287 135.308 123.849  1.00  0.00     0.139 C 
ATOM      8  O   UNL     1     138.459 135.900 124.523  1.00  0.00    -0.299 OA
ATOM      9  C   UNL     1     139.107 133.942 123.263  1.00  0.00     0.080 C 
ATOM     10  C   UNL     1     140.905 137.290 123.665  1.00  0.00     0.020 C 
ATOM     11  C   UNL     1     139.984 135.698 121.041  1.00  0.00     0.012 C 
ENDROOT
TORSDOF 0
ENDMDL
MODEL 6
REMARK VINA RESULT:    -3.737      1.460      2.568
REMARK INTER + INTRA:          -3.737
REMARK INTER:                  -3.737
REMARK INTRA:                   0.000
REMARK UNBOUND:                 0.000
REMARK SMILES CC1(C)[C@H]2CC[C@]1(C)C(=O)C2
REMARK SMILES IDX 1 1 2 2 4 3 5 4 6 5 7 6 9 7 10 8 11 9 8 10 3 11
REMARK H PARENT
REMARK Flexibility Score: inf
ROOT
ATOM      1  C   UNL     1     139.379 135.059 121.425  1.00  0.00     0.012 C 
ATOM      2  C   UNL     1     140.200 134.527 122.638  1.00  0.00    -0.020 C 
ATOM      3  C   UNL     1     141.677 134.210 122.304  1.00  0.00     0.003 C 
ATOM      4  C   UNL     1     142.251 135.608 121.938  1.00  0.00     0.005 C 
ATOM      5  C   UNL     1     141.501 136.555 122.907  1.00  0.00     0.015 C 
ATOM      6  C   UNL     1     140.588 135.584 123.693  1.00  0.00     0.032 C 
ATOM      7  C   UNL     1     141.531 134.784 124.557  1.00  0.00     0.139 C 
ATOM      8  O   UNL     1     141.715 134.938 125.754  1.00  0.00    -0.299 OA
ATOM      9  C   UNL     1     142.288 133.833 123.682  1.00  0.00     0.080 C 
ATOM     10  C   UNL     1     139.433 136.256 124.446  1.00  0.00     0.020 C 
ATOM     11  C   UNL     1     139.411 133.304 123.202  1.00  0.00     0.012 C 
ENDROOT
TORSDOF 0
ENDMDL
MODEL 7
REMARK VINA RESULT:    -3.714      1.397      2.440
REMARK INTER + INTRA:          -3.714
REMARK INTER:                  -3.714
REMARK INTRA:                   0.000
REMARK UNBOUND:                 0.000
REMARK SMILES CC1(C)[C@H]2CC[C@]1(C)C(=O)C2
REMARK SMILES IDX 1 1 2 2 4 3 5 4 6 5 7 6 9 7 10 8 11 9 8 10 3 11
REMARK H PARENT
REMARK Flexibility Score: inf
ROOT
ATOM      1  C   UNL     1     139.378 133.286 123.145  1.00  0.00     0.012 C 
ATOM      2  C   UNL     1     139.985 134.684 123.470  1.00  0.00    -0.020 C 
ATOM      3  C   UNL     1     141.196 134.632 124.431  1.00  0.00     0.003 C 
ATOM      4  C   UNL     1     142.256 133.852 123.603  1.00  0.00     0.005 C 
ATOM      5  C   UNL     1     141.994 134.341 122.156  1.00  0.00     0.015 C 
ATOM      6  C   UNL     1     140.815 135.327 122.339  1.00  0.00     0.032 C 
ATOM      7  C   UNL     1     141.409 136.507 123.066  1.00  0.00     0.139 C 
ATOM      8  O   UNL     1     141.703 137.584 122.570  1.00  0.00    -0.299 OA
ATOM      9  C   UNL     1     141.681 136.108 124.483  1.00  0.00     0.080 C 
ATOM     10  C   UNL     1     140.062 135.674 121.050  1.00  0.00     0.020 C 
ATOM     11  C   UNL     1     138.808 135.564 123.995  1.00  0.00     0.012 C 
ENDROOT
TORSDOF 0
ENDMDL
MODEL 8
REMARK VINA RESULT:    -3.692      1.518      2.906
REMARK INTER + INTRA:          -3.692
REMARK INTER:                  -3.692
REMARK INTRA:                   0.000
REMARK UNBOUND:                 0.000
REMARK SMILES CC1(C)[C@H]2CC[C@]1(C)C(=O)C2
REMARK SMILES IDX 1 1 2 2 4 3 5 4 6 5 7 6 9 7 10 8 11 9 8 10 3 11
REMARK H PARENT
REMARK Flexibility Score: inf
ROOT
ATOM      1  C   UNL     1     141.808 133.372 124.006  1.00  0.00     0.012 C 
ATOM      2  C   UNL     1     141.410 134.453 122.957  1.00  0.00    -0.020 C 
ATOM      3  C   UNL     1     140.118 134.118 122.173  1.00  0.00     0.003 C 
ATOM      4  C   UNL     1     139.031 134.132 123.284  1.00  0.00     0.005 C 
ATOM      5  C   UNL     1     139.508 135.270 124.221  1.00  0.00     0.015 C 
ATOM      6  C   UNL     1     140.809 135.751 123.535  1.00  0.00     0.032 C 
ATOM      7  C   UNL     1     140.349 136.433 122.271  1.00  0.00     0.139 C 
ATOM      8  O   UNL     1     140.285 137.639 122.087  1.00  0.00    -0.299 OA
ATOM      9  C   UNL     1     139.878 135.387 121.309  1.00  0.00     0.080 C 
ATOM     10  C   UNL     1     141.731 136.594 124.425  1.00  0.00     0.020 C 
ATOM     11  C   UNL     1     142.657 134.662 122.044  1.00  0.00     0.012 C 
ENDROOT
TORSDOF 0
ENDMDL
MODEL 9
REMARK VINA RESULT:    -3.659      2.412      3.358
REMARK INTER + INTRA:          -3.659
REMARK INTER:                  -3.659
REMARK INTRA:                   0.000
REMARK UNBOUND:                 0.000
REMARK SMILES CC1(C)[C@H]2CC[C@]1(C)C(=O)C2
REMARK SMILES IDX 1 1 2 2 4 3 5 4 6 5 7 6 9 7 10 8 11 9 8 10 3 11
REMARK H PARENT
REMARK Flexibility Score: inf
ROOT
ATOM      1  C   UNL     1     141.793 136.616 124.146  1.00  0.00     0.012 C 
ATOM      2  C   UNL     1     142.909 135.708 123.547  1.00  0.00    -0.020 C 
ATOM      3  C   UNL     1     143.083 134.360 124.286  1.00  0.00     0.003 C 
ATOM      4  C   UNL     1     141.724 133.651 124.027  1.00  0.00     0.005 C 
ATOM      5  C   UNL     1     141.367 134.101 122.588  1.00  0.00     0.015 C 
ATOM      6  C   UNL     1     142.557 135.016 122.213  1.00  0.00     0.032 C 
ATOM      7  C   UNL     1     143.731 134.080 122.067  1.00  0.00     0.139 C 
ATOM      8  O   UNL     1     144.218 133.698 121.014  1.00  0.00    -0.299 OA
ATOM      9  C   UNL     1     144.139 133.609 123.429  1.00  0.00     0.080 C 
ATOM     10  C   UNL     1     142.308 135.934 121.011  1.00  0.00     0.020 C 
ATOM     11  C   UNL     1     144.208 136.572 123.510  1.00  0.00     0.012 C 
ENDROOT
TORSDOF 0
ENDMDL
