MODEL 1
REMARK VINA RESULT:    -3.798      0.000      0.000
REMARK INTER + INTRA:          -4.540
REMARK INTER:                  -4.464
REMARK INTRA:                  -0.075
REMARK UNBOUND:                -0.075
REMARK SMILES O=C([O-])CCC(=O)[O-]
REMARK SMILES IDX 4 1 2 2 1 3 3 4 5 5 6 6 7 7 8 8
REMARK H PARENT
REMARK Flexibility Score: inf
ROOT
ATOM      1  C   UNL     1      29.444 -25.213   6.467  1.00  0.00     0.059 C 
ENDROOT
BRANCH   1   2
ATOM      2  C   UNL     1      30.199 -26.227   5.661  1.00  0.00     0.042 C 
ATOM      3  O   UNL     1      31.451 -26.144   5.552  1.00  0.00    -0.550 OA
ATOM      4  O   UNL     1      29.515 -27.238   5.000  1.00  0.00    -0.550 OA
ENDBRANCH   1   2
BRANCH   1   5
ATOM      5  C   UNL     1      28.223 -24.685   5.708  1.00  0.00     0.059 C 
BRANCH   5   6
ATOM      6  C   UNL     1      28.415 -23.265   5.272  1.00  0.00     0.042 C 
ATOM      7  O   UNL     1      27.552 -22.701   4.549  1.00  0.00    -0.550 OA
ATOM      8  O   UNL     1      29.529 -22.551   5.697  1.00  0.00    -0.550 OA
ENDBRANCH   5   6
ENDBRANCH   1   5
TORSDOF 3
ENDMDL
MODEL 2
REMARK VINA RESULT:    -3.793      0.113      3.757
REMARK INTER + INTRA:          -4.534
REMARK INTER:                  -4.461
REMARK INTRA:                  -0.073
REMARK UNBOUND:                -0.075
REMARK SMILES O=C([O-])CCC(=O)[O-]
REMARK SMILES IDX 4 1 2 2 1 3 3 4 5 5 6 6 7 7 8 8
REMARK H PARENT
REMARK Flexibility Score: inf
ROOT
ATOM      1  C   UNL     1      28.258 -24.728   5.721  1.00  0.00     0.059 C 
ENDROOT
BRANCH   1   2
ATOM      2  C   UNL     1      28.463 -23.299   5.316  1.00  0.00     0.042 C 
ATOM      3  O   UNL     1      29.477 -22.668   5.713  1.00  0.00    -0.550 OA
ATOM      4  O   UNL     1      27.513 -22.655   4.534  1.00  0.00    -0.550 OA
ENDBRANCH   1   2
BRANCH   1   5
ATOM      5  C   UNL     1      29.477 -25.284   6.463  1.00  0.00     0.059 C 
BRANCH   5   6
ATOM      6  C   UNL     1      30.188 -26.326   5.654  1.00  0.00     0.042 C 
ATOM      7  O   UNL     1      29.531 -27.176   4.997  1.00  0.00    -0.550 OA
ATOM      8  O   UNL     1      31.576 -26.333   5.592  1.00  0.00    -0.550 OA
ENDBRANCH   5   6
ENDBRANCH   1   5
TORSDOF 3
ENDMDL
MODEL 3
REMARK VINA RESULT:    -3.785      0.058      3.897
REMARK INTER + INTRA:          -4.524
REMARK INTER:                  -4.446
REMARK INTRA:                  -0.078
REMARK UNBOUND:                -0.075
REMARK SMILES O=C([O-])CCC(=O)[O-]
REMARK SMILES IDX 4 1 2 2 1 3 3 4 5 5 6 6 7 7 8 8
REMARK H PARENT
REMARK Flexibility Score: inf
ROOT
ATOM      1  C   UNL     1      28.244 -24.683   5.718  1.00  0.00     0.059 C 
ENDROOT
BRANCH   1   2
ATOM      2  C   UNL     1      28.466 -23.262   5.297  1.00  0.00     0.042 C 
ATOM      3  O   UNL     1      29.486 -22.637   5.689  1.00  0.00    -0.550 OA
ATOM      4  O   UNL     1      27.525 -22.617   4.504  1.00  0.00    -0.550 OA
ENDBRANCH   1   2
BRANCH   1   5
ATOM      5  C   UNL     1      29.451 -25.241   6.478  1.00  0.00     0.059 C 
BRANCH   5   6
ATOM      6  C   UNL     1      30.213 -26.231   5.651  1.00  0.00     0.042 C 
ATOM      7  O   UNL     1      31.465 -26.142   5.550  1.00  0.00    -0.550 OA
ATOM      8  O   UNL     1      29.545 -27.276   5.024  1.00  0.00    -0.550 OA
ENDBRANCH   5   6
ENDBRANCH   1   5
TORSDOF 3
ENDMDL
MODEL 4
REMARK VINA RESULT:    -3.782      0.094      1.148
REMARK INTER + INTRA:          -4.520
REMARK INTER:                  -4.448
REMARK INTRA:                  -0.072
REMARK UNBOUND:                -0.075
REMARK SMILES O=C([O-])CCC(=O)[O-]
REMARK SMILES IDX 4 1 2 2 1 3 3 4 5 5 6 6 7 7 8 8
REMARK H PARENT
REMARK Flexibility Score: inf
ROOT
ATOM      1  C   UNL     1      29.458 -25.210   6.474  1.00  0.00     0.059 C 
ENDROOT
BRANCH   1   2
ATOM      2  C   UNL     1      30.189 -26.258   5.691  1.00  0.00     0.042 C 
ATOM      3  O   UNL     1      31.448 -26.281   5.684  1.00  0.00    -0.550 OA
ATOM      4  O   UNL     1      29.479 -27.185   4.938  1.00  0.00    -0.550 OA
ENDBRANCH   1   2
BRANCH   1   5
ATOM      5  C   UNL     1      28.247 -24.674   5.705  1.00  0.00     0.059 C 
BRANCH   5   6
ATOM      6  C   UNL     1      28.438 -23.243   5.304  1.00  0.00     0.042 C 
ATOM      7  O   UNL     1      29.454 -22.607   5.689  1.00  0.00    -0.550 OA
ATOM      8  O   UNL     1      27.513 -22.623   4.472  1.00  0.00    -0.550 OA
ENDBRANCH   5   6
ENDBRANCH   1   5
TORSDOF 3
ENDMDL
MODEL 5
REMARK VINA RESULT:    -3.760      0.151      3.973
REMARK INTER + INTRA:          -4.495
REMARK INTER:                  -4.392
REMARK INTRA:                  -0.103
REMARK UNBOUND:                -0.075
REMARK SMILES O=C([O-])CCC(=O)[O-]
REMARK SMILES IDX 4 1 2 2 1 3 3 4 5 5 6 6 7 7 8 8
REMARK H PARENT
REMARK Flexibility Score: inf
ROOT
ATOM      1  C   UNL     1      28.189 -24.643   5.743  1.00  0.00     0.059 C 
ENDROOT
BRANCH   1   2
ATOM      2  C   UNL     1      28.454 -23.248   5.262  1.00  0.00     0.042 C 
ATOM      3  O   UNL     1      27.650 -22.686   4.473  1.00  0.00    -0.550 OA
ATOM      4  O   UNL     1      29.610 -22.585   5.655  1.00  0.00    -0.550 OA
ENDBRANCH   1   2
BRANCH   1   5
ATOM      5  C   UNL     1      29.400 -25.227   6.477  1.00  0.00     0.059 C 
BRANCH   5   6
ATOM      6  C   UNL     1      30.199 -26.132   5.590  1.00  0.00     0.042 C 
ATOM      7  O   UNL     1      31.406 -25.875   5.343  1.00  0.00    -0.550 OA
ATOM      8  O   UNL     1      29.620 -27.283   5.067  1.00  0.00    -0.550 OA
ENDBRANCH   5   6
ENDBRANCH   1   5
TORSDOF 3
ENDMDL
MODEL 6
REMARK VINA RESULT:    -3.749      0.129      1.621
REMARK INTER + INTRA:          -4.482
REMARK INTER:                  -4.410
REMARK INTRA:                  -0.073
REMARK UNBOUND:                -0.075
REMARK SMILES O=C([O-])CCC(=O)[O-]
REMARK SMILES IDX 4 1 2 2 1 3 3 4 5 5 6 6 7 7 8 8
REMARK H PARENT
REMARK Flexibility Score: inf
ROOT
ATOM      1  C   UNL     1      29.443 -25.158   6.425  1.00  0.00     0.059 C 
ENDROOT
BRANCH   1   2
ATOM      2  C   UNL     1      30.120 -26.216   5.607  1.00  0.00     0.042 C 
ATOM      3  O   UNL     1      29.440 -27.113   5.043  1.00  0.00    -0.550 OA
ATOM      4  O   UNL     1      31.505 -26.232   5.500  1.00  0.00    -0.550 OA
ENDBRANCH   1   2
BRANCH   1   5
ATOM      5  C   UNL     1      28.231 -24.571   5.697  1.00  0.00     0.059 C 
BRANCH   5   6
ATOM      6  C   UNL     1      28.477 -23.157   5.267  1.00  0.00     0.042 C 
ATOM      7  O   UNL     1      29.521 -22.556   5.633  1.00  0.00    -0.550 OA
ATOM      8  O   UNL     1      27.572 -22.517   4.428  1.00  0.00    -0.550 OA
ENDBRANCH   5   6
ENDBRANCH   1   5
TORSDOF 3
ENDMDL
MODEL 7
REMARK VINA RESULT:    -3.577      1.189      3.949
REMARK INTER + INTRA:          -4.279
REMARK INTER:                  -4.260
REMARK INTRA:                  -0.020
REMARK UNBOUND:                -0.075
REMARK SMILES O=C([O-])CCC(=O)[O-]
REMARK SMILES IDX 4 1 2 2 1 3 3 4 5 5 6 6 7 7 8 8
REMARK H PARENT
REMARK Flexibility Score: inf
ROOT
ATOM      1  C   UNL     1      29.352 -25.031   6.372  1.00  0.00     0.059 C 
ENDROOT
BRANCH   1   2
ATOM      2  C   UNL     1      29.025 -23.782   5.610  1.00  0.00     0.042 C 
ATOM      3  O   UNL     1      27.831 -23.518   5.310  1.00  0.00    -0.550 OA
ATOM      4  O   UNL     1      30.043 -22.932   5.199  1.00  0.00    -0.550 OA
ENDBRANCH   1   2
BRANCH   1   5
ATOM      5  C   UNL     1      30.452 -25.842   5.681  1.00  0.00     0.059 C 
BRANCH   5   6
ATOM      6  C   UNL     1      29.880 -26.887   4.773  1.00  0.00     0.042 C 
ATOM      7  O   UNL     1      30.486 -27.977   4.599  1.00  0.00    -0.550 OA
ATOM      8  O   UNL     1      28.657 -26.673   4.148  1.00  0.00    -0.550 OA
ENDBRANCH   5   6
ENDBRANCH   1   5
TORSDOF 3
ENDMDL
MODEL 8
REMARK VINA RESULT:    -3.419      2.469      5.013
REMARK INTER + INTRA:          -4.094
REMARK INTER:                  -4.047
REMARK INTRA:                  -0.047
REMARK UNBOUND:                -0.075
REMARK SMILES O=C([O-])CCC(=O)[O-]
REMARK SMILES IDX 4 1 2 2 1 3 3 4 5 5 6 6 7 7 8 8
REMARK H PARENT
REMARK Flexibility Score: inf
ROOT
ATOM      1  C   UNL     1      27.753 -22.025   3.639  1.00  0.00     0.059 C 
ENDROOT
BRANCH   1   2
ATOM      2  C   UNL     1      26.421 -21.353   3.495  1.00  0.00     0.042 C 
ATOM      3  O   UNL     1      25.391 -22.035   3.250  1.00  0.00    -0.550 OA
ATOM      4  O   UNL     1      26.326 -19.971   3.591  1.00  0.00    -0.550 OA
ENDBRANCH   1   2
BRANCH   1   5
ATOM      5  C   UNL     1      27.747 -23.052   4.776  1.00  0.00     0.059 C 
BRANCH   5   6
ATOM      6  C   UNL     1      29.017 -23.005   5.568  1.00  0.00     0.042 C 
ATOM      7  O   UNL     1      29.713 -21.956   5.590  1.00  0.00    -0.550 OA
ATOM      8  O   UNL     1      29.413 -24.108   6.317  1.00  0.00    -0.550 OA
ENDBRANCH   5   6
ENDBRANCH   1   5
TORSDOF 3
ENDMDL
MODEL 9
REMARK VINA RESULT:    -3.419      1.571      2.191
REMARK INTER + INTRA:          -4.094
REMARK INTER:                  -4.063
REMARK INTRA:                  -0.031
REMARK UNBOUND:                -0.075
REMARK SMILES O=C([O-])CCC(=O)[O-]
REMARK SMILES IDX 4 1 2 2 1 3 3 4 5 5 6 6 7 7 8 8
REMARK H PARENT
REMARK Flexibility Score: inf
ROOT
ATOM      1  C   UNL     1      28.318 -23.925   5.315  1.00  0.00     0.059 C 
ENDROOT
BRANCH   1   2
ATOM      2  C   UNL     1      28.887 -25.273   5.639  1.00  0.00     0.042 C 
ATOM      3  O   UNL     1      29.514 -25.453   6.716  1.00  0.00    -0.550 OA
ATOM      4  O   UNL     1      28.759 -26.318   4.734  1.00  0.00    -0.550 OA
ENDBRANCH   1   2
BRANCH   1   5
ATOM      5  C   UNL     1      29.324 -22.805   5.598  1.00  0.00     0.059 C 
BRANCH   5   6
ATOM      6  C   UNL     1      29.106 -21.627   4.699  1.00  0.00     0.042 C 
ATOM      7  O   UNL     1      30.075 -20.894   4.368  1.00  0.00    -0.550 OA
ATOM      8  O   UNL     1      27.839 -21.361   4.193  1.00  0.00    -0.550 OA
ENDBRANCH   5   6
ENDBRANCH   1   5
TORSDOF 3
ENDMDL
