MODEL 1
REMARK VINA RESULT:    -4.526      0.000      0.000
REMARK INTER + INTRA:         -16.325
REMARK INTER:                 -11.935
REMARK INTRA:                  -4.390
REMARK UNBOUND:                -4.390
REMARK SMILES CCCCCCCCCCCCCCCCCCCCCCCCCCCCCC(=O)[O-]
REMARK SMILES IDX 16 1 17 2 18 3 19 4 20 5 21 6 22 7 23 8 24 9 25 10 26 11
REMARK SMILES IDX 27 12 28 13 29 14 30 15 31 16 32 17 15 18 14 19 13 20 12 21
REMARK SMILES IDX 11 22 10 23 9 24 8 25 7 26 6 27 5 28 4 29 3 30 2 31 1 32
REMARK H PARENT
REMARK Flexibility Score: inf
ROOT
ATOM      1  C   UNL     1      35.520   5.614  12.286  1.00  0.00     0.000 C 
ENDROOT
BRANCH   1   2
ATOM      2  C   UNL     1      35.185   5.988  13.742  1.00  0.00     0.000 C 
BRANCH   2   3
ATOM      3  C   UNL     1      34.780   4.774  14.597  1.00  0.00     0.000 C 
BRANCH   3   4
ATOM      4  C   UNL     1      33.484   4.109  14.107  1.00  0.00     0.000 C 
BRANCH   4   5
ATOM      5  C   UNL     1      33.643   2.588  13.931  1.00  0.00     0.000 C 
BRANCH   5   6
ATOM      6  C   UNL     1      32.978   2.069  12.647  1.00  0.00     0.000 C 
BRANCH   6   7
ATOM      7  C   UNL     1      33.566   2.707  11.375  1.00  0.00     0.000 C 
BRANCH   7   8
ATOM      8  C   UNL     1      32.495   3.399  10.506  1.00  0.00     0.000 C 
BRANCH   8   9
ATOM      9  C   UNL     1      32.404   4.923  10.720  1.00  0.00     0.000 C 
BRANCH   9  10
ATOM     10  C   UNL     1      31.498   5.367  11.883  1.00  0.00     0.000 C 
BRANCH  10  11
ATOM     11  C   UNL     1      31.735   6.804  12.385  1.00  0.00     0.000 C 
BRANCH  11  12
ATOM     12  C   UNL     1      32.781   7.564  11.557  1.00  0.00     0.000 C 
BRANCH  12  13
ATOM     13  C   UNL     1      32.454   9.062  11.501  1.00  0.00     0.006 C 
BRANCH  13  14
ATOM     14  C   UNL     1      31.185   9.378  12.300  1.00  0.00     0.053 C 
BRANCH  14  15
ATOM     15  C   UNL     1      30.921  10.851  12.337  1.00  0.00     0.041 C 
ATOM     16  O   UNL     1      31.861  11.661  12.555  1.00  0.00    -0.550 OA
ATOM     17  O   UNL     1      29.638  11.333  12.109  1.00  0.00    -0.550 OA
ENDBRANCH  14  15
ENDBRANCH  13  14
ENDBRANCH  12  13
ENDBRANCH  11  12
ENDBRANCH  10  11
ENDBRANCH   9  10
ENDBRANCH   8   9
ENDBRANCH   7   8
ENDBRANCH   6   7
ENDBRANCH   5   6
ENDBRANCH   4   5
ENDBRANCH   3   4
ENDBRANCH   2   3
ENDBRANCH   1   2
BRANCH   1  18
ATOM     18  C   UNL     1      36.271   6.694  11.485  1.00  0.00     0.000 C 
BRANCH  18  19
ATOM     19  C   UNL     1      36.076   6.560   9.966  1.00  0.00     0.000 C 
BRANCH  19  20
ATOM     20  C   UNL     1      35.838   5.107   9.518  1.00  0.00     0.000 C 
BRANCH  20  21
ATOM     21  C   UNL     1      35.176   4.938   8.139  1.00  0.00     0.000 C 
BRANCH  21  22
ATOM     22  C   UNL     1      33.981   5.880   7.925  1.00  0.00     0.000 C 
BRANCH  22  23
ATOM     23  C   UNL     1      33.104   5.479   6.724  1.00  0.00     0.000 C 
BRANCH  23  24
ATOM     24  C   UNL     1      32.052   4.391   7.009  1.00  0.00    -0.000 C 
BRANCH  24  25
ATOM     25  C   UNL     1      31.428   3.810   5.732  1.00  0.00    -0.000 C 
BRANCH  25  26
ATOM     26  C   UNL     1      31.328   4.877   4.636  1.00  0.00    -0.000 C 
BRANCH  26  27
ATOM     27  C   UNL     1      30.209   4.538   3.642  1.00  0.00    -0.000 C 
BRANCH  27  28
ATOM     28  C   UNL     1      29.872   3.040   3.680  1.00  0.00    -0.000 C 
BRANCH  28  29
ATOM     29  C   UNL     1      28.350   2.783   3.660  1.00  0.00    -0.000 C 
BRANCH  29  30
ATOM     30  C   UNL     1      27.526   3.888   4.351  1.00  0.00    -0.000 C 
BRANCH  30  31
ATOM     31  C   UNL     1      27.367   3.713   5.870  1.00  0.00    -0.003 C 
ATOM     32  C   UNL     1      27.966   4.872   6.666  1.00  0.00     0.004 C 
ENDBRANCH  30  31
ENDBRANCH  29  30
ENDBRANCH  28  29
ENDBRANCH  27  28
ENDBRANCH  26  27
ENDBRANCH  25  26
ENDBRANCH  24  25
ENDBRANCH  23  24
ENDBRANCH  22  23
ENDBRANCH  21  22
ENDBRANCH  20  21
ENDBRANCH  19  20
ENDBRANCH  18  19
ENDBRANCH   1  18
TORSDOF 28
ENDMDL
MODEL 2
REMARK VINA RESULT:    -4.439      2.425      7.296
REMARK INTER + INTRA:         -16.094
REMARK INTER:                 -11.719
REMARK INTRA:                  -4.375
REMARK UNBOUND:                -4.390
REMARK SMILES CCCCCCCCCCCCCCCCCCCCCCCCCCCCCC(=O)[O-]
REMARK SMILES IDX 16 1 17 2 18 3 19 4 20 5 21 6 22 7 23 8 24 9 25 10 26 11
REMARK SMILES IDX 27 12 28 13 29 14 30 15 31 16 32 17 15 18 14 19 13 20 12 21
REMARK SMILES IDX 11 22 10 23 9 24 8 25 7 26 6 27 5 28 4 29 3 30 2 31 1 32
REMARK H PARENT
REMARK Flexibility Score: inf
ROOT
ATOM      1  C   UNL     1      35.167   6.000  13.704  1.00  0.00     0.000 C 
ENDROOT
BRANCH   1   2
ATOM      2  C   UNL     1      35.449   5.684  12.224  1.00  0.00     0.000 C 
BRANCH   2   3
ATOM      3  C   UNL     1      36.057   6.872  11.460  1.00  0.00     0.000 C 
BRANCH   3   4
ATOM      4  C   UNL     1      36.293   6.564   9.973  1.00  0.00     0.000 C 
BRANCH   4   5
ATOM      5  C   UNL     1      36.053   5.080   9.642  1.00  0.00     0.000 C 
BRANCH   5   6
ATOM      6  C   UNL     1      35.135   4.887   8.425  1.00  0.00     0.000 C 
BRANCH   6   7
ATOM      7  C   UNL     1      34.250   6.116   8.149  1.00  0.00     0.000 C 
BRANCH   7   8
ATOM      8  C   UNL     1      33.347   5.933   6.910  1.00  0.00     0.000 C 
BRANCH   8   9
ATOM      9  C   UNL     1      32.560   4.609   6.899  1.00  0.00     0.000 C 
BRANCH   9  10
ATOM     10  C   UNL     1      31.650   4.399   5.674  1.00  0.00     0.000 C 
BRANCH  10  11
ATOM     11  C   UNL     1      31.559   2.948   5.168  1.00  0.00     0.000 C 
BRANCH  11  12
ATOM     12  C   UNL     1      30.194   2.611   4.551  1.00  0.00     0.000 C 
BRANCH  12  13
ATOM     13  C   UNL     1      29.473   3.883   4.085  1.00  0.00     0.006 C 
BRANCH  13  14
ATOM     14  C   UNL     1      28.014   3.891   4.556  1.00  0.00     0.053 C 
BRANCH  14  15
ATOM     15  C   UNL     1      27.927   3.949   6.050  1.00  0.00     0.041 C 
ATOM     16  O   UNL     1      28.145   5.030   6.660  1.00  0.00    -0.550 OA
ATOM     17  O   UNL     1      27.583   2.811   6.771  1.00  0.00    -0.550 OA
ENDBRANCH  14  15
ENDBRANCH  13  14
ENDBRANCH  12  13
ENDBRANCH  11  12
ENDBRANCH  10  11
ENDBRANCH   9  10
ENDBRANCH   8   9
ENDBRANCH   7   8
ENDBRANCH   6   7
ENDBRANCH   5   6
ENDBRANCH   4   5
ENDBRANCH   3   4
ENDBRANCH   2   3
ENDBRANCH   1   2
BRANCH   1  18
ATOM     18  C   UNL     1      34.935   4.775  14.608  1.00  0.00     0.000 C 
BRANCH  18  19
ATOM     19  C   UNL     1      33.601   4.064  14.329  1.00  0.00     0.000 C 
BRANCH  19  20
ATOM     20  C   UNL     1      33.755   2.539  14.184  1.00  0.00     0.000 C 
BRANCH  20  21
ATOM     21  C   UNL     1      33.152   1.931  12.905  1.00  0.00     0.000 C 
BRANCH  21  22
ATOM     22  C   UNL     1      33.872   2.387  11.626  1.00  0.00     0.000 C 
BRANCH  22  23
ATOM     23  C   UNL     1      32.961   2.369  10.384  1.00  0.00     0.000 C 
BRANCH  23  24
ATOM     24  C   UNL     1      32.175   3.668  10.122  1.00  0.00    -0.000 C 
BRANCH  24  25
ATOM     25  C   UNL     1      32.584   4.815  11.058  1.00  0.00    -0.000 C 
BRANCH  25  26
ATOM     26  C   UNL     1      31.416   5.229  11.961  1.00  0.00    -0.000 C 
BRANCH  26  27
ATOM     27  C   UNL     1      31.619   6.649  12.503  1.00  0.00    -0.000 C 
BRANCH  27  28
ATOM     28  C   UNL     1      32.387   7.520  11.497  1.00  0.00    -0.000 C 
BRANCH  28  29
ATOM     29  C   UNL     1      32.986   8.782  12.154  1.00  0.00    -0.000 C 
BRANCH  29  30
ATOM     30  C   UNL     1      31.932   9.717  12.776  1.00  0.00    -0.000 C 
BRANCH  30  31
ATOM     31  C   UNL     1      31.398  10.802  11.827  1.00  0.00    -0.003 C 
ATOM     32  C   UNL     1      29.968  11.228  12.155  1.00  0.00     0.004 C 
ENDBRANCH  30  31
ENDBRANCH  29  30
ENDBRANCH  28  29
ENDBRANCH  27  28
ENDBRANCH  26  27
ENDBRANCH  25  26
ENDBRANCH  24  25
ENDBRANCH  23  24
ENDBRANCH  22  23
ENDBRANCH  21  22
ENDBRANCH  20  21
ENDBRANCH  19  20
ENDBRANCH  18  19
ENDBRANCH   1  18
TORSDOF 28
ENDMDL
MODEL 3
REMARK VINA RESULT:    -4.438      1.128      3.209
REMARK INTER + INTRA:         -16.093
REMARK INTER:                 -11.918
REMARK INTRA:                  -4.175
REMARK UNBOUND:                -4.390
REMARK SMILES CCCCCCCCCCCCCCCCCCCCCCCCCCCCCC(=O)[O-]
REMARK SMILES IDX 16 1 17 2 18 3 19 4 20 5 21 6 22 7 23 8 24 9 25 10 26 11
REMARK SMILES IDX 27 12 28 13 29 14 30 15 31 16 32 17 15 18 14 19 13 20 12 21
REMARK SMILES IDX 11 22 10 23 9 24 8 25 7 26 6 27 5 28 4 29 3 30 2 31 1 32
REMARK H PARENT
REMARK Flexibility Score: inf
ROOT
ATOM      1  C   UNL     1      33.571   4.571  13.338  1.00  0.00     0.000 C 
ENDROOT
BRANCH   1   2
ATOM      2  C   UNL     1      34.832   5.341  13.770  1.00  0.00     0.000 C 
BRANCH   2   3
ATOM      3  C   UNL     1      35.199   6.484  12.808  1.00  0.00     0.000 C 
BRANCH   3   4
ATOM      4  C   UNL     1      36.654   6.407  12.320  1.00  0.00     0.000 C 
BRANCH   4   5
ATOM      5  C   UNL     1      36.773   6.654  10.806  1.00  0.00     0.000 C 
BRANCH   5   6
ATOM      6  C   UNL     1      37.057   5.366  10.018  1.00  0.00     0.000 C 
BRANCH   6   7
ATOM      7  C   UNL     1      35.770   4.647   9.573  1.00  0.00     0.000 C 
BRANCH   7   8
ATOM      8  C   UNL     1      35.083   5.341   8.377  1.00  0.00     0.000 C 
BRANCH   8   9
ATOM      9  C   UNL     1      33.771   6.062   8.742  1.00  0.00     0.000 C 
BRANCH   9  10
ATOM     10  C   UNL     1      33.820   7.598   8.645  1.00  0.00     0.000 C 
BRANCH  10  11
ATOM     11  C   UNL     1      33.580   8.345   9.970  1.00  0.00     0.000 C 
BRANCH  11  12
ATOM     12  C   UNL     1      32.828   7.499  11.009  1.00  0.00     0.000 C 
BRANCH  12  13
ATOM     13  C   UNL     1      32.507   8.325  12.261  1.00  0.00     0.006 C 
BRANCH  13  14
ATOM     14  C   UNL     1      31.094   8.917  12.181  1.00  0.00     0.053 C 
BRANCH  14  15
ATOM     15  C   UNL     1      31.137  10.412  12.101  1.00  0.00     0.041 C 
ATOM     16  O   UNL     1      32.238  11.011  11.975  1.00  0.00    -0.550 OA
ATOM     17  O   UNL     1      29.957  11.144  12.143  1.00  0.00    -0.550 OA
ENDBRANCH  14  15
ENDBRANCH  13  14
ENDBRANCH  12  13
ENDBRANCH  11  12
ENDBRANCH  10  11
ENDBRANCH   9  10
ENDBRANCH   8   9
ENDBRANCH   7   8
ENDBRANCH   6   7
ENDBRANCH   5   6
ENDBRANCH   4   5
ENDBRANCH   3   4
ENDBRANCH   2   3
ENDBRANCH   1   2
BRANCH   1  18
ATOM     18  C   UNL     1      33.409   3.169  13.956  1.00  0.00     0.000 C 
BRANCH  18  19
ATOM     19  C   UNL     1      33.333   2.052  12.903  1.00  0.00     0.000 C 
BRANCH  19  20
ATOM     20  C   UNL     1      33.433   2.582  11.461  1.00  0.00     0.000 C 
BRANCH  20  21
ATOM     21  C   UNL     1      32.500   1.905  10.440  1.00  0.00     0.000 C 
BRANCH  21  22
ATOM     22  C   UNL     1      32.241   2.769   9.196  1.00  0.00     0.000 C 
BRANCH  22  23
ATOM     23  C   UNL     1      32.203   1.950   7.892  1.00  0.00     0.000 C 
BRANCH  23  24
ATOM     24  C   UNL     1      31.273   2.500   6.794  1.00  0.00    -0.000 C 
BRANCH  24  25
ATOM     25  C   UNL     1      31.204   4.034   6.778  1.00  0.00    -0.000 C 
BRANCH  25  26
ATOM     26  C   UNL     1      32.090   4.612   5.669  1.00  0.00    -0.000 C 
BRANCH  26  27
ATOM     27  C   UNL     1      31.258   5.422   4.668  1.00  0.00    -0.000 C 
BRANCH  27  28
ATOM     28  C   UNL     1      31.025   4.628   3.373  1.00  0.00    -0.000 C 
BRANCH  28  29
ATOM     29  C   UNL     1      29.544   4.234   3.187  1.00  0.00    -0.000 C 
BRANCH  29  30
ATOM     30  C   UNL     1      29.235   2.778   3.587  1.00  0.00    -0.000 C 
BRANCH  30  31
ATOM     31  C   UNL     1      28.279   2.631   4.782  1.00  0.00    -0.003 C 
ATOM     32  C   UNL     1      27.760   3.974   5.295  1.00  0.00     0.004 C 
ENDBRANCH  30  31
ENDBRANCH  29  30
ENDBRANCH  28  29
ENDBRANCH  27  28
ENDBRANCH  26  27
ENDBRANCH  25  26
ENDBRANCH  24  25
ENDBRANCH  23  24
ENDBRANCH  22  23
ENDBRANCH  21  22
ENDBRANCH  20  21
ENDBRANCH  19  20
ENDBRANCH  18  19
ENDBRANCH   1  18
TORSDOF 28
ENDMDL
MODEL 4
REMARK VINA RESULT:    -4.305      2.579      7.600
REMARK INTER + INTRA:         -15.740
REMARK INTER:                 -11.098
REMARK INTRA:                  -4.643
REMARK UNBOUND:                -4.390
REMARK SMILES CCCCCCCCCCCCCCCCCCCCCCCCCCCCCC(=O)[O-]
REMARK SMILES IDX 16 1 17 2 18 3 19 4 20 5 21 6 22 7 23 8 24 9 25 10 26 11
REMARK SMILES IDX 27 12 28 13 29 14 30 15 31 16 32 17 15 18 14 19 13 20 12 21
REMARK SMILES IDX 11 22 10 23 9 24 8 25 7 26 6 27 5 28 4 29 3 30 2 31 1 32
REMARK H PARENT
REMARK Flexibility Score: inf
ROOT
ATOM      1  C   UNL     1      32.114   6.599  12.691  1.00  0.00     0.000 C 
ENDROOT
BRANCH   1   2
ATOM      2  C   UNL     1      31.414   5.307  12.231  1.00  0.00     0.000 C 
BRANCH   2   3
ATOM      3  C   UNL     1      32.188   4.563  11.129  1.00  0.00     0.000 C 
BRANCH   3   4
ATOM      4  C   UNL     1      32.542   3.120  11.524  1.00  0.00     0.000 C 
BRANCH   4   5
ATOM      5  C   UNL     1      33.032   2.294  10.322  1.00  0.00     0.000 C 
BRANCH   5   6
ATOM      6  C   UNL     1      31.951   2.118   9.245  1.00  0.00     0.000 C 
BRANCH   6   7
ATOM      7  C   UNL     1      32.394   2.646   7.868  1.00  0.00     0.000 C 
BRANCH   7   8
ATOM      8  C   UNL     1      31.235   3.290   7.076  1.00  0.00     0.000 C 
BRANCH   8   9
ATOM      9  C   UNL     1      31.695   4.149   5.883  1.00  0.00     0.000 C 
BRANCH   9  10
ATOM     10  C   UNL     1      31.104   3.743   4.519  1.00  0.00     0.000 C 
BRANCH  10  11
ATOM     11  C   UNL     1      30.410   2.369   4.491  1.00  0.00     0.000 C 
BRANCH  11  12
ATOM     12  C   UNL     1      29.075   2.386   3.732  1.00  0.00     0.000 C 
BRANCH  12  13
ATOM     13  C   UNL     1      28.445   3.784   3.759  1.00  0.00     0.006 C 
BRANCH  13  14
ATOM     14  C   UNL     1      27.213   3.814   4.672  1.00  0.00     0.053 C 
BRANCH  14  15
ATOM     15  C   UNL     1      27.609   3.882   6.114  1.00  0.00     0.041 C 
ATOM     16  O   UNL     1      28.142   4.924   6.581  1.00  0.00    -0.550 OA
ATOM     17  O   UNL     1      27.369   2.800   6.952  1.00  0.00    -0.550 OA
ENDBRANCH  14  15
ENDBRANCH  13  14
ENDBRANCH  12  13
ENDBRANCH  11  12
ENDBRANCH  10  11
ENDBRANCH   9  10
ENDBRANCH   8   9
ENDBRANCH   7   8
ENDBRANCH   6   7
ENDBRANCH   5   6
ENDBRANCH   4   5
ENDBRANCH   3   4
ENDBRANCH   2   3
ENDBRANCH   1   2
BRANCH   1  18
ATOM     18  C   UNL     1      31.677   7.883  11.959  1.00  0.00     0.000 C 
BRANCH  18  19
ATOM     19  C   UNL     1      32.850   8.637  11.314  1.00  0.00     0.000 C 
BRANCH  19  20
ATOM     20  C   UNL     1      33.658   7.764  10.337  1.00  0.00     0.000 C 
BRANCH  20  21
ATOM     21  C   UNL     1      33.689   8.257   8.879  1.00  0.00     0.000 C 
BRANCH  21  22
ATOM     22  C   UNL     1      33.937   7.127   7.867  1.00  0.00     0.000 C 
BRANCH  22  23
ATOM     23  C   UNL     1      33.897   5.726   8.506  1.00  0.00     0.000 C 
BRANCH  23  24
ATOM     24  C   UNL     1      35.232   4.959   8.500  1.00  0.00    -0.000 C 
BRANCH  24  25
ATOM     25  C   UNL     1      35.763   4.667   9.912  1.00  0.00    -0.000 C 
BRANCH  25  26
ATOM     26  C   UNL     1      36.858   5.665  10.304  1.00  0.00    -0.000 C 
BRANCH  26  27
ATOM     27  C   UNL     1      36.465   6.443  11.565  1.00  0.00    -0.000 C 
BRANCH  27  28
ATOM     28  C   UNL     1      35.438   5.662  12.399  1.00  0.00    -0.000 C 
BRANCH  28  29
ATOM     29  C   UNL     1      35.499   6.030  13.897  1.00  0.00    -0.000 C 
BRANCH  29  30
ATOM     30  C   UNL     1      35.126   4.867  14.836  1.00  0.00    -0.000 C 
BRANCH  30  31
ATOM     31  C   UNL     1      33.997   3.961  14.317  1.00  0.00    -0.003 C 
ATOM     32  C   UNL     1      33.996   2.580  14.970  1.00  0.00     0.004 C 
ENDBRANCH  30  31
ENDBRANCH  29  30
ENDBRANCH  28  29
ENDBRANCH  27  28
ENDBRANCH  26  27
ENDBRANCH  25  26
ENDBRANCH  24  25
ENDBRANCH  23  24
ENDBRANCH  22  23
ENDBRANCH  21  22
ENDBRANCH  20  21
ENDBRANCH  19  20
ENDBRANCH  18  19
ENDBRANCH   1  18
TORSDOF 28
ENDMDL
MODEL 5
REMARK VINA RESULT:    -4.018      2.895      6.382
REMARK INTER + INTRA:         -14.984
REMARK INTER:                 -11.321
REMARK INTRA:                  -3.663
REMARK UNBOUND:                -4.390
REMARK SMILES CCCCCCCCCCCCCCCCCCCCCCCCCCCCCC(=O)[O-]
REMARK SMILES IDX 16 1 17 2 18 3 19 4 20 5 21 6 22 7 23 8 24 9 25 10 26 11
REMARK SMILES IDX 27 12 28 13 29 14 30 15 31 16 32 17 15 18 14 19 13 20 12 21
REMARK SMILES IDX 11 22 10 23 9 24 8 25 7 26 6 27 5 28 4 29 3 30 2 31 1 32
REMARK H PARENT
REMARK Flexibility Score: inf
ROOT
ATOM      1  C   UNL     1      36.661   7.304  11.501  1.00  0.00     0.000 C 
ENDROOT
BRANCH   1   2
ATOM      2  C   UNL     1      36.820   6.399  12.736  1.00  0.00     0.000 C 
BRANCH   2   3
ATOM      3  C   UNL     1      35.475   5.987  13.358  1.00  0.00     0.000 C 
BRANCH   3   4
ATOM      4  C   UNL     1      35.596   5.620  14.846  1.00  0.00     0.000 C 
BRANCH   4   5
ATOM      5  C   UNL     1      34.886   4.296  15.177  1.00  0.00     0.000 C 
BRANCH   5   6
ATOM      6  C   UNL     1      33.886   3.873  14.089  1.00  0.00     0.000 C 
BRANCH   6   7
ATOM      7  C   UNL     1      33.631   2.355  14.076  1.00  0.00     0.000 C 
BRANCH   7   8
ATOM      8  C   UNL     1      32.957   1.876  12.772  1.00  0.00     0.000 C 
BRANCH   8   9
ATOM      9  C   UNL     1      32.801   2.978  11.707  1.00  0.00     0.000 C 
BRANCH   9  10
ATOM     10  C   UNL     1      33.233   2.578  10.284  1.00  0.00     0.000 C 
BRANCH  10  11
ATOM     11  C   UNL     1      32.084   2.183   9.338  1.00  0.00     0.000 C 
BRANCH  11  12
ATOM     12  C   UNL     1      32.097   2.967   8.017  1.00  0.00     0.000 C 
BRANCH  12  13
ATOM     13  C   UNL     1      31.340   2.208   6.920  1.00  0.00     0.006 C 
BRANCH  13  14
ATOM     14  C   UNL     1      31.575   2.847   5.547  1.00  0.00     0.053 C 
BRANCH  14  15
ATOM     15  C   UNL     1      30.961   4.211   5.471  1.00  0.00     0.041 C 
ATOM     16  O   UNL     1      29.856   4.443   6.029  1.00  0.00    -0.550 OA
ATOM     17  O   UNL     1      31.622   5.234   4.803  1.00  0.00    -0.550 OA
ENDBRANCH  14  15
ENDBRANCH  13  14
ENDBRANCH  12  13
ENDBRANCH  11  12
ENDBRANCH  10  11
ENDBRANCH   9  10
ENDBRANCH   8   9
ENDBRANCH   7   8
ENDBRANCH   6   7
ENDBRANCH   5   6
ENDBRANCH   4   5
ENDBRANCH   3   4
ENDBRANCH   2   3
ENDBRANCH   1   2
BRANCH   1  18
ATOM     18  C   UNL     1      37.310   6.776  10.208  1.00  0.00     0.000 C 
BRANCH  18  19
ATOM     19  C   UNL     1      37.138   5.260  10.023  1.00  0.00     0.000 C 
BRANCH  19  20
ATOM     20  C   UNL     1      35.691   4.859   9.685  1.00  0.00     0.000 C 
BRANCH  20  21
ATOM     21  C   UNL     1      35.449   4.421   8.229  1.00  0.00     0.000 C 
BRANCH  21  22
ATOM     22  C   UNL     1      34.669   5.461   7.409  1.00  0.00     0.000 C 
BRANCH  22  23
ATOM     23  C   UNL     1      33.574   6.173   8.225  1.00  0.00     0.000 C 
BRANCH  23  24
ATOM     24  C   UNL     1      33.992   7.509   8.867  1.00  0.00    -0.000 C 
BRANCH  24  25
ATOM     25  C   UNL     1      33.298   7.773  10.211  1.00  0.00    -0.000 C 
BRANCH  25  26
ATOM     26  C   UNL     1      33.001   6.459  10.942  1.00  0.00    -0.000 C 
BRANCH  26  27
ATOM     27  C   UNL     1      32.340   6.724  12.300  1.00  0.00    -0.000 C 
BRANCH  27  28
ATOM     28  C   UNL     1      31.366   7.909  12.218  1.00  0.00    -0.000 C 
BRANCH  28  29
ATOM     29  C   UNL     1      31.976   9.207  12.788  1.00  0.00    -0.000 C 
BRANCH  29  30
ATOM     30  C   UNL     1      31.636  10.465  11.965  1.00  0.00    -0.000 C 
BRANCH  30  31
ATOM     31  C   UNL     1      30.515  11.335  12.558  1.00  0.00    -0.003 C 
ATOM     32  C   UNL     1      29.227  11.285  11.736  1.00  0.00     0.004 C 
ENDBRANCH  30  31
ENDBRANCH  29  30
ENDBRANCH  28  29
ENDBRANCH  27  28
ENDBRANCH  26  27
ENDBRANCH  25  26
ENDBRANCH  24  25
ENDBRANCH  23  24
ENDBRANCH  22  23
ENDBRANCH  21  22
ENDBRANCH  20  21
ENDBRANCH  19  20
ENDBRANCH  18  19
ENDBRANCH   1  18
TORSDOF 28
ENDMDL
MODEL 6
REMARK VINA RESULT:    -3.993      2.592      7.849
REMARK INTER + INTRA:         -14.919
REMARK INTER:                 -11.696
REMARK INTRA:                  -3.222
REMARK UNBOUND:                -4.390
REMARK SMILES CCCCCCCCCCCCCCCCCCCCCCCCCCCCCC(=O)[O-]
REMARK SMILES IDX 16 1 17 2 18 3 19 4 20 5 21 6 22 7 23 8 24 9 25 10 26 11
REMARK SMILES IDX 27 12 28 13 29 14 30 15 31 16 32 17 15 18 14 19 13 20 12 21
REMARK SMILES IDX 11 22 10 23 9 24 8 25 7 26 6 27 5 28 4 29 3 30 2 31 1 32
REMARK H PARENT
REMARK Flexibility Score: inf
ROOT
ATOM      1  C   UNL     1      32.321   2.473   9.019  1.00  0.00     0.000 C 
ENDROOT
BRANCH   1   2
ATOM      2  C   UNL     1      31.323   2.672   7.864  1.00  0.00     0.000 C 
BRANCH   2   3
ATOM      3  C   UNL     1      31.696   1.875   6.602  1.00  0.00     0.000 C 
BRANCH   3   4
ATOM      4  C   UNL     1      30.587   1.894   5.538  1.00  0.00     0.000 C 
BRANCH   4   5
ATOM      5  C   UNL     1      29.689   3.138   5.657  1.00  0.00     0.000 C 
BRANCH   5   6
ATOM      6  C   UNL     1      29.914   4.140   4.514  1.00  0.00     0.000 C 
BRANCH   6   7
ATOM      7  C   UNL     1      31.404   4.460   4.291  1.00  0.00     0.000 C 
BRANCH   7   8
ATOM      8  C   UNL     1      31.903   5.620   5.179  1.00  0.00     0.000 C 
BRANCH   8   9
ATOM      9  C   UNL     1      32.938   5.196   6.239  1.00  0.00     0.000 C 
BRANCH   9  10
ATOM     10  C   UNL     1      33.427   6.327   7.164  1.00  0.00     0.000 C 
BRANCH  10  11
ATOM     11  C   UNL     1      34.279   5.869   8.362  1.00  0.00     0.000 C 
BRANCH  11  12
ATOM     12  C   UNL     1      35.229   4.713   8.017  1.00  0.00     0.000 C 
BRANCH  12  13
ATOM     13  C   UNL     1      36.280   4.519   9.117  1.00  0.00     0.006 C 
BRANCH  13  14
ATOM     14  C   UNL     1      36.205   5.646  10.154  1.00  0.00     0.053 C 
BRANCH  14  15
ATOM     15  C   UNL     1      37.547   6.277  10.366  1.00  0.00     0.041 C 
ATOM     16  O   UNL     1      37.959   7.176   9.586  1.00  0.00    -0.550 OA
ATOM     17  O   UNL     1      38.336   5.887  11.442  1.00  0.00    -0.550 OA
ENDBRANCH  14  15
ENDBRANCH  13  14
ENDBRANCH  12  13
ENDBRANCH  11  12
ENDBRANCH  10  11
ENDBRANCH   9  10
ENDBRANCH   8   9
ENDBRANCH   7   8
ENDBRANCH   6   7
ENDBRANCH   5   6
ENDBRANCH   4   5
ENDBRANCH   3   4
ENDBRANCH   2   3
ENDBRANCH   1   2
BRANCH   1  18
ATOM     18  C   UNL     1      32.334   3.590  10.079  1.00  0.00     0.000 C 
BRANCH  18  19
ATOM     19  C   UNL     1      33.392   3.370  11.173  1.00  0.00     0.000 C 
BRANCH  19  20
ATOM     20  C   UNL     1      33.207   2.039  11.924  1.00  0.00     0.000 C 
BRANCH  20  21
ATOM     21  C   UNL     1      33.387   2.110  13.452  1.00  0.00     0.000 C 
BRANCH  21  22
ATOM     22  C   UNL     1      33.134   3.515  14.022  1.00  0.00     0.000 C 
BRANCH  22  23
ATOM     23  C   UNL     1      34.319   4.054  14.845  1.00  0.00     0.000 C 
BRANCH  23  24
ATOM     24  C   UNL     1      35.029   5.285  14.251  1.00  0.00    -0.000 C 
BRANCH  24  25
ATOM     25  C   UNL     1      34.359   5.805  12.971  1.00  0.00    -0.000 C 
BRANCH  25  26
ATOM     26  C   UNL     1      34.688   7.284  12.741  1.00  0.00    -0.000 C 
BRANCH  26  27
ATOM     27  C   UNL     1      34.137   7.766  11.393  1.00  0.00    -0.000 C 
BRANCH  27  28
ATOM     28  C   UNL     1      32.619   7.987  11.464  1.00  0.00    -0.000 C 
BRANCH  28  29
ATOM     29  C   UNL     1      32.116   8.129  12.917  1.00  0.00    -0.000 C 
BRANCH  29  30
ATOM     30  C   UNL     1      31.238   9.374  13.149  1.00  0.00    -0.000 C 
BRANCH  30  31
ATOM     31  C   UNL     1      31.314  10.430  12.034  1.00  0.00    -0.003 C 
ATOM     32  C   UNL     1      30.117  11.380  12.034  1.00  0.00     0.004 C 
ENDBRANCH  30  31
ENDBRANCH  29  30
ENDBRANCH  28  29
ENDBRANCH  27  28
ENDBRANCH  26  27
ENDBRANCH  25  26
ENDBRANCH  24  25
ENDBRANCH  23  24
ENDBRANCH  22  23
ENDBRANCH  21  22
ENDBRANCH  20  21
ENDBRANCH  19  20
ENDBRANCH  18  19
ENDBRANCH   1  18
TORSDOF 28
ENDMDL
MODEL 7
REMARK VINA RESULT:    -3.885      2.195      4.271
REMARK INTER + INTRA:         -14.634
REMARK INTER:                 -10.986
REMARK INTRA:                  -3.647
REMARK UNBOUND:                -4.390
REMARK SMILES CCCCCCCCCCCCCCCCCCCCCCCCCCCCCC(=O)[O-]
REMARK SMILES IDX 16 1 17 2 18 3 19 4 20 5 21 6 22 7 23 8 24 9 25 10 26 11
REMARK SMILES IDX 27 12 28 13 29 14 30 15 31 16 32 17 15 18 14 19 13 20 12 21
REMARK SMILES IDX 11 22 10 23 9 24 8 25 7 26 6 27 5 28 4 29 3 30 2 31 1 32
REMARK H PARENT
REMARK Flexibility Score: inf
ROOT
ATOM      1  C   UNL     1      31.909   7.503  12.773  1.00  0.00     0.000 C 
ENDROOT
BRANCH   1   2
ATOM      2  C   UNL     1      32.584   8.466  11.780  1.00  0.00     0.000 C 
BRANCH   2   3
ATOM      3  C   UNL     1      33.801   7.845  11.072  1.00  0.00     0.000 C 
BRANCH   3   4
ATOM      4  C   UNL     1      35.079   7.909  11.923  1.00  0.00     0.000 C 
BRANCH   4   5
ATOM      5  C   UNL     1      36.353   7.843  11.063  1.00  0.00     0.000 C 
BRANCH   5   6
ATOM      6  C   UNL     1      37.294   6.704  11.486  1.00  0.00     0.000 C 
BRANCH   6   7
ATOM      7  C   UNL     1      37.151   5.456  10.597  1.00  0.00     0.000 C 
BRANCH   7   8
ATOM      8  C   UNL     1      36.385   5.742   9.287  1.00  0.00     0.000 C 
BRANCH   8   9
ATOM      9  C   UNL     1      35.680   4.508   8.692  1.00  0.00     0.000 C 
BRANCH   9  10
ATOM     10  C   UNL     1      34.531   4.819   7.715  1.00  0.00     0.000 C 
BRANCH  10  11
ATOM     11  C   UNL     1      33.630   6.000   8.121  1.00  0.00     0.000 C 
BRANCH  11  12
ATOM     12  C   UNL     1      33.554   7.095   7.046  1.00  0.00     0.000 C 
BRANCH  12  13
ATOM     13  C   UNL     1      33.575   8.490   7.682  1.00  0.00     0.006 C 
BRANCH  13  14
ATOM     14  C   UNL     1      33.740   9.578   6.614  1.00  0.00     0.053 C 
BRANCH  14  15
ATOM     15  C   UNL     1      32.658  10.608   6.719  1.00  0.00     0.041 C 
ATOM     16  O   UNL     1      32.559  11.325   7.750  1.00  0.00    -0.550 OA
ATOM     17  O   UNL     1      31.771  10.793   5.666  1.00  0.00    -0.550 OA
ENDBRANCH  14  15
ENDBRANCH  13  14
ENDBRANCH  12  13
ENDBRANCH  11  12
ENDBRANCH  10  11
ENDBRANCH   9  10
ENDBRANCH   8   9
ENDBRANCH   7   8
ENDBRANCH   6   7
ENDBRANCH   5   6
ENDBRANCH   4   5
ENDBRANCH   3   4
ENDBRANCH   2   3
ENDBRANCH   1   2
BRANCH   1  18
ATOM     18  C   UNL     1      32.734   6.259  13.151  1.00  0.00     0.000 C 
BRANCH  18  19
ATOM     19  C   UNL     1      32.063   4.941  12.730  1.00  0.00     0.000 C 
BRANCH  19  20
ATOM     20  C   UNL     1      32.974   4.058  11.858  1.00  0.00     0.000 C 
BRANCH  20  21
ATOM     21  C   UNL     1      32.493   3.835  10.413  1.00  0.00     0.000 C 
BRANCH  21  22
ATOM     22  C   UNL     1      32.320   2.349  10.059  1.00  0.00     0.000 C 
BRANCH  22  23
ATOM     23  C   UNL     1      32.510   2.061   8.558  1.00  0.00     0.000 C 
BRANCH  23  24
ATOM     24  C   UNL     1      31.271   2.304   7.677  1.00  0.00    -0.000 C 
BRANCH  24  25
ATOM     25  C   UNL     1      31.265   3.692   7.019  1.00  0.00    -0.000 C 
BRANCH  25  26
ATOM     26  C   UNL     1      31.592   3.591   5.524  1.00  0.00    -0.000 C 
BRANCH  26  27
ATOM     27  C   UNL     1      31.336   4.927   4.816  1.00  0.00    -0.000 C 
BRANCH  27  28
ATOM     28  C   UNL     1      30.553   4.719   3.510  1.00  0.00    -0.000 C 
BRANCH  28  29
ATOM     29  C   UNL     1      29.854   3.344   3.460  1.00  0.00    -0.000 C 
BRANCH  29  30
ATOM     30  C   UNL     1      28.368   3.419   3.058  1.00  0.00    -0.000 C 
BRANCH  30  31
ATOM     31  C   UNL     1      27.433   3.946   4.159  1.00  0.00    -0.003 C 
ATOM     32  C   UNL     1      27.855   3.504   5.559  1.00  0.00     0.004 C 
ENDBRANCH  30  31
ENDBRANCH  29  30
ENDBRANCH  28  29
ENDBRANCH  27  28
ENDBRANCH  26  27
ENDBRANCH  25  26
ENDBRANCH  24  25
ENDBRANCH  23  24
ENDBRANCH  22  23
ENDBRANCH  21  22
ENDBRANCH  20  21
ENDBRANCH  19  20
ENDBRANCH  18  19
ENDBRANCH   1  18
TORSDOF 28
ENDMDL
MODEL 8
REMARK VINA RESULT:    -3.852      2.668      4.514
REMARK INTER + INTRA:         -14.547
REMARK INTER:                  -9.990
REMARK INTRA:                  -4.558
REMARK UNBOUND:                -4.390
REMARK SMILES CCCCCCCCCCCCCCCCCCCCCCCCCCCCCC(=O)[O-]
REMARK SMILES IDX 16 1 17 2 18 3 19 4 20 5 21 6 22 7 23 8 24 9 25 10 26 11
REMARK SMILES IDX 27 12 28 13 29 14 30 15 31 16 32 17 15 18 14 19 13 20 12 21
REMARK SMILES IDX 11 22 10 23 9 24 8 25 7 26 6 27 5 28 4 29 3 30 2 31 1 32
REMARK H PARENT
REMARK Flexibility Score: inf
ROOT
ATOM      1  C   UNL     1      33.625   8.238   9.181  1.00  0.00     0.000 C 
ENDROOT
BRANCH   1   2
ATOM      2  C   UNL     1      33.270   7.451  10.455  1.00  0.00     0.000 C 
BRANCH   2   3
ATOM      3  C   UNL     1      32.832   8.356  11.619  1.00  0.00     0.000 C 
BRANCH   3   4
ATOM      4  C   UNL     1      31.848   7.661  12.575  1.00  0.00     0.000 C 
BRANCH   4   5
ATOM      5  C   UNL     1      31.437   6.266  12.070  1.00  0.00     0.000 C 
BRANCH   5   6
ATOM      6  C   UNL     1      31.793   5.149  13.063  1.00  0.00     0.000 C 
BRANCH   6   7
ATOM      7  C   UNL     1      32.689   4.064  12.438  1.00  0.00     0.000 C 
BRANCH   7   8
ATOM      8  C   UNL     1      33.845   3.638  13.368  1.00  0.00     0.000 C 
BRANCH   8   9
ATOM      9  C   UNL     1      34.198   4.681  14.447  1.00  0.00     0.000 C 
BRANCH   9  10
ATOM     10  C   UNL     1      35.475   5.497  14.175  1.00  0.00     0.000 C 
BRANCH  10  11
ATOM     11  C   UNL     1      35.384   6.479  12.993  1.00  0.00     0.000 C 
BRANCH  11  12
ATOM     12  C   UNL     1      36.129   5.987  11.744  1.00  0.00     0.000 C 
BRANCH  12  13
ATOM     13  C   UNL     1      36.924   7.126  11.093  1.00  0.00     0.006 C 
BRANCH  13  14
ATOM     14  C   UNL     1      38.302   6.640  10.630  1.00  0.00     0.053 C 
BRANCH  14  15
ATOM     15  C   UNL     1      39.378   7.083  11.574  1.00  0.00     0.041 C 
ATOM     16  O   UNL     1      39.277   8.180  12.184  1.00  0.00    -0.550 OA
ATOM     17  O   UNL     1      40.484   6.272  11.796  1.00  0.00    -0.550 OA
ENDBRANCH  14  15
ENDBRANCH  13  14
ENDBRANCH  12  13
ENDBRANCH  11  12
ENDBRANCH  10  11
ENDBRANCH   9  10
ENDBRANCH   8   9
ENDBRANCH   7   8
ENDBRANCH   6   7
ENDBRANCH   5   6
ENDBRANCH   4   5
ENDBRANCH   3   4
ENDBRANCH   2   3
ENDBRANCH   1   2
BRANCH   1  18
ATOM     18  C   UNL     1      34.381   7.441   8.102  1.00  0.00     0.000 C 
BRANCH  18  19
ATOM     19  C   UNL     1      33.698   6.110   7.747  1.00  0.00     0.000 C 
BRANCH  19  20
ATOM     20  C   UNL     1      34.584   4.886   8.043  1.00  0.00     0.000 C 
BRANCH  20  21
ATOM     21  C   UNL     1      34.245   4.119   9.334  1.00  0.00     0.000 C 
BRANCH  21  22
ATOM     22  C   UNL     1      33.314   2.920   9.096  1.00  0.00     0.000 C 
BRANCH  22  23
ATOM     23  C   UNL     1      31.841   3.329   8.907  1.00  0.00     0.000 C 
BRANCH  23  24
ATOM     24  C   UNL     1      31.374   3.459   7.445  1.00  0.00    -0.000 C 
BRANCH  24  25
ATOM     25  C   UNL     1      31.840   2.293   6.561  1.00  0.00    -0.000 C 
BRANCH  25  26
ATOM     26  C   UNL     1      31.425   2.512   5.101  1.00  0.00    -0.000 C 
BRANCH  26  27
ATOM     27  C   UNL     1      31.469   4.000   4.735  1.00  0.00    -0.000 C 
BRANCH  27  28
ATOM     28  C   UNL     1      30.413   4.339   3.672  1.00  0.00    -0.000 C 
BRANCH  28  29
ATOM     29  C   UNL     1      29.319   3.255   3.568  1.00  0.00    -0.000 C 
BRANCH  29  30
ATOM     30  C   UNL     1      27.963   3.684   4.161  1.00  0.00    -0.000 C 
BRANCH  30  31
ATOM     31  C   UNL     1      27.950   3.826   5.692  1.00  0.00    -0.003 C 
ATOM     32  C   UNL     1      27.882   2.479   6.411  1.00  0.00     0.004 C 
ENDBRANCH  30  31
ENDBRANCH  29  30
ENDBRANCH  28  29
ENDBRANCH  27  28
ENDBRANCH  26  27
ENDBRANCH  25  26
ENDBRANCH  24  25
ENDBRANCH  23  24
ENDBRANCH  22  23
ENDBRANCH  21  22
ENDBRANCH  20  21
ENDBRANCH  19  20
ENDBRANCH  18  19
ENDBRANCH   1  18
TORSDOF 28
ENDMDL
MODEL 9
REMARK VINA RESULT:    -3.787      2.726      4.930
REMARK INTER + INTRA:         -14.376
REMARK INTER:                 -10.282
REMARK INTRA:                  -4.094
REMARK UNBOUND:                -4.390
REMARK SMILES CCCCCCCCCCCCCCCCCCCCCCCCCCCCCC(=O)[O-]
REMARK SMILES IDX 16 1 17 2 18 3 19 4 20 5 21 6 22 7 23 8 24 9 25 10 26 11
REMARK SMILES IDX 27 12 28 13 29 14 30 15 31 16 32 17 15 18 14 19 13 20 12 21
REMARK SMILES IDX 11 22 10 23 9 24 8 25 7 26 6 27 5 28 4 29 3 30 2 31 1 32
REMARK H PARENT
REMARK Flexibility Score: inf
ROOT
ATOM      1  C   UNL     1      31.618   5.259  12.170  1.00  0.00     0.000 C 
ENDROOT
BRANCH   1   2
ATOM      2  C   UNL     1      32.750   4.785  11.240  1.00  0.00     0.000 C 
BRANCH   2   3
ATOM      3  C   UNL     1      32.317   3.653  10.294  1.00  0.00     0.000 C 
BRANCH   3   4
ATOM      4  C   UNL     1      32.677   2.258  10.831  1.00  0.00     0.000 C 
BRANCH   4   5
ATOM      5  C   UNL     1      33.738   2.322  11.944  1.00  0.00     0.000 C 
BRANCH   5   6
ATOM      6  C   UNL     1      33.157   2.009  13.332  1.00  0.00     0.000 C 
BRANCH   6   7
ATOM      7  C   UNL     1      33.966   2.655  14.472  1.00  0.00     0.000 C 
BRANCH   7   8
ATOM      8  C   UNL     1      33.820   4.192  14.509  1.00  0.00     0.000 C 
BRANCH   8   9
ATOM      9  C   UNL     1      35.155   4.950  14.381  1.00  0.00     0.000 C 
BRANCH   9  10
ATOM     10  C   UNL     1      35.139   6.142  13.406  1.00  0.00     0.000 C 
BRANCH  10  11
ATOM     11  C   UNL     1      35.991   5.960  12.136  1.00  0.00     0.000 C 
BRANCH  11  12
ATOM     12  C   UNL     1      36.539   7.285  11.585  1.00  0.00     0.000 C 
BRANCH  12  13
ATOM     13  C   UNL     1      37.745   7.042  10.669  1.00  0.00     0.006 C 
BRANCH  13  14
ATOM     14  C   UNL     1      38.798   6.172  11.366  1.00  0.00     0.053 C 
BRANCH  14  15
ATOM     15  C   UNL     1      40.002   6.978  11.745  1.00  0.00     0.041 C 
ATOM     16  O   UNL     1      41.128   6.423  11.863  1.00  0.00    -0.550 OA
ATOM     17  O   UNL     1      39.886   8.347  11.946  1.00  0.00    -0.550 OA
ENDBRANCH  14  15
ENDBRANCH  13  14
ENDBRANCH  12  13
ENDBRANCH  11  12
ENDBRANCH  10  11
ENDBRANCH   9  10
ENDBRANCH   8   9
ENDBRANCH   7   8
ENDBRANCH   6   7
ENDBRANCH   5   6
ENDBRANCH   4   5
ENDBRANCH   3   4
ENDBRANCH   2   3
ENDBRANCH   1   2
BRANCH   1  18
ATOM     18  C   UNL     1      31.246   6.749  12.050  1.00  0.00     0.000 C 
BRANCH  18  19
ATOM     19  C   UNL     1      32.141   7.664  12.901  1.00  0.00     0.000 C 
BRANCH  19  20
ATOM     20  C   UNL     1      33.119   8.499  12.055  1.00  0.00     0.000 C 
BRANCH  20  21
ATOM     21  C   UNL     1      32.891   8.446  10.533  1.00  0.00     0.000 C 
BRANCH  21  22
ATOM     22  C   UNL     1      34.153   8.053   9.749  1.00  0.00     0.000 C 
BRANCH  22  23
ATOM     23  C   UNL     1      33.863   7.085   8.587  1.00  0.00     0.000 C 
BRANCH  23  24
ATOM     24  C   UNL     1      34.739   5.818   8.548  1.00  0.00    -0.000 C 
BRANCH  24  25
ATOM     25  C   UNL     1      34.318   4.831   7.450  1.00  0.00    -0.000 C 
BRANCH  25  26
ATOM     26  C   UNL     1      32.981   5.243   6.825  1.00  0.00    -0.000 C 
BRANCH  26  27
ATOM     27  C   UNL     1      32.044   4.036   6.688  1.00  0.00    -0.000 C 
BRANCH  27  28
ATOM     28  C   UNL     1      31.814   3.680   5.212  1.00  0.00    -0.000 C 
BRANCH  28  29
ATOM     29  C   UNL     1      30.685   2.643   5.030  1.00  0.00    -0.000 C 
BRANCH  29  30
ATOM     30  C   UNL     1      29.294   3.272   4.822  1.00  0.00    -0.000 C 
BRANCH  30  31
ATOM     31  C   UNL     1      28.441   3.377   6.097  1.00  0.00    -0.003 C 
ATOM     32  C   UNL     1      28.088   4.820   6.458  1.00  0.00     0.004 C 
ENDBRANCH  30  31
ENDBRANCH  29  30
ENDBRANCH  28  29
ENDBRANCH  27  28
ENDBRANCH  26  27
ENDBRANCH  25  26
ENDBRANCH  24  25
ENDBRANCH  23  24
ENDBRANCH  22  23
ENDBRANCH  21  22
ENDBRANCH  20  21
ENDBRANCH  19  20
ENDBRANCH  18  19
ENDBRANCH   1  18
TORSDOF 28
ENDMDL
