MODEL 1
REMARK VINA RESULT:    -4.390      0.000      0.000
REMARK INTER + INTRA:          -5.127
REMARK INTER:                  -4.903
REMARK INTRA:                  -0.224
REMARK UNBOUND:                -0.224
REMARK SMILES O=C([O-])C=Cc1ccccc1
REMARK SMILES IDX 4 1 5 2 2 3 1 4 3 5 6 6 7 7 11 8 8 9 10 10 9 11
REMARK H PARENT
REMARK Flexibility Score: inf
ROOT
ATOM      1  C   UNL     1       9.093  54.294  43.230  1.00  0.00     0.025 C 
ATOM      2  C   UNL     1       8.580  53.054  43.187  1.00  0.00     0.010 C 
ENDROOT
BRANCH   1   3
ATOM      3  C   UNL     1       9.951  54.908  42.198  1.00  0.00     0.064 C 
ATOM      4  O   UNL     1       9.474  55.643  41.295  1.00  0.00    -0.545 OA
ATOM      5  O   UNL     1      11.326  54.725  42.268  1.00  0.00    -0.545 OA
ENDBRANCH   1   3
BRANCH   2   6
ATOM      6  C   UNL     1       8.926  52.017  42.192  1.00  0.00    -0.026 A 
ATOM      7  C   UNL     1      10.157  51.338  42.245  1.00  0.00     0.008 A 
ATOM      8  C   UNL     1       7.970  51.631  41.241  1.00  0.00     0.008 A 
ATOM      9  C   UNL     1      10.442  50.325  41.325  1.00  0.00     0.001 A 
ATOM     10  C   UNL     1       8.258  50.617  40.322  1.00  0.00     0.001 A 
ATOM     11  C   UNL     1       9.495  49.967  40.361  1.00  0.00     0.000 A 
ENDBRANCH   2   6
TORSDOF 2
ENDMDL
MODEL 2
REMARK VINA RESULT:    -4.384      4.969      5.917
REMARK INTER + INTRA:          -5.120
REMARK INTER:                  -4.873
REMARK INTRA:                  -0.247
REMARK UNBOUND:                -0.224
REMARK SMILES O=C([O-])C=Cc1ccccc1
REMARK SMILES IDX 4 1 5 2 2 3 1 4 3 5 6 6 7 7 11 8 8 9 10 10 9 11
REMARK H PARENT
REMARK Flexibility Score: inf
ROOT
ATOM      1  C   UNL     1      15.600  53.196  44.850  1.00  0.00     0.025 C 
ATOM      2  C   UNL     1      15.110  53.371  43.612  1.00  0.00     0.010 C 
ENDROOT
BRANCH   1   3
ATOM      3  C   UNL     1      15.566  51.937  45.620  1.00  0.00     0.064 C 
ATOM      4  O   UNL     1      14.617  51.668  46.401  1.00  0.00    -0.545 OA
ATOM      5  O   UNL     1      16.570  50.998  45.423  1.00  0.00    -0.545 OA
ENDBRANCH   1   3
BRANCH   2   6
ATOM      6  C   UNL     1      14.291  52.392  42.868  1.00  0.00    -0.026 A 
ATOM      7  C   UNL     1      14.886  51.322  42.176  1.00  0.00     0.008 A 
ATOM      8  C   UNL     1      12.892  52.471  42.938  1.00  0.00     0.008 A 
ATOM      9  C   UNL     1      14.089  50.377  41.521  1.00  0.00     0.001 A 
ATOM     10  C   UNL     1      12.098  51.524  42.282  1.00  0.00     0.001 A 
ATOM     11  C   UNL     1      12.696  50.480  41.571  1.00  0.00     0.000 A 
ENDBRANCH   2   6
TORSDOF 2
ENDMDL
MODEL 3
REMARK VINA RESULT:    -4.275      4.747      6.061
REMARK INTER + INTRA:          -4.999
REMARK INTER:                  -4.789
REMARK INTRA:                  -0.210
REMARK UNBOUND:                -0.224
REMARK SMILES O=C([O-])C=Cc1ccccc1
REMARK SMILES IDX 4 1 5 2 2 3 1 4 3 5 6 6 7 7 11 8 8 9 10 10 9 11
REMARK H PARENT
REMARK Flexibility Score: inf
ROOT
ATOM      1  C   UNL     1      16.473  51.665  43.365  1.00  0.00     0.025 C 
ATOM      2  C   UNL     1      15.690  51.666  42.274  1.00  0.00     0.010 C 
ENDROOT
BRANCH   1   3
ATOM      3  C   UNL     1      16.037  51.352  44.740  1.00  0.00     0.064 C 
ATOM      4  O   UNL     1      16.099  50.182  45.201  1.00  0.00    -0.545 OA
ATOM      5  O   UNL     1      15.613  52.385  45.565  1.00  0.00    -0.545 OA
ENDBRANCH   1   3
BRANCH   2   6
ATOM      6  C   UNL     1      14.219  51.529  42.276  1.00  0.00    -0.026 A 
ATOM      7  C   UNL     1      13.391  52.574  42.725  1.00  0.00     0.008 A 
ATOM      8  C   UNL     1      13.635  50.379  41.724  1.00  0.00     0.008 A 
ATOM      9  C   UNL     1      12.000  52.442  42.669  1.00  0.00     0.001 A 
ATOM     10  C   UNL     1      12.243  50.251  41.670  1.00  0.00     0.001 A 
ATOM     11  C   UNL     1      11.426  51.280  42.146  1.00  0.00     0.000 A 
ENDBRANCH   2   6
TORSDOF 2
ENDMDL
MODEL 4
REMARK VINA RESULT:    -4.274      5.448      6.566
REMARK INTER + INTRA:          -4.998
REMARK INTER:                  -4.723
REMARK INTRA:                  -0.275
REMARK UNBOUND:                -0.224
REMARK SMILES O=C([O-])C=Cc1ccccc1
REMARK SMILES IDX 4 1 5 2 2 3 1 4 3 5 6 6 7 7 11 8 8 9 10 10 9 11
REMARK H PARENT
REMARK Flexibility Score: inf
ROOT
ATOM      1  C   UNL     1      16.175  55.334  43.778  1.00  0.00     0.025 C 
ATOM      2  C   UNL     1      15.674  54.803  42.651  1.00  0.00     0.010 C 
ENDROOT
BRANCH   1   3
ATOM      3  C   UNL     1      16.371  54.620  45.055  1.00  0.00     0.064 C 
ATOM      4  O   UNL     1      17.442  54.010  45.312  1.00  0.00    -0.545 OA
ATOM      5  O   UNL     1      15.376  54.681  46.022  1.00  0.00    -0.545 OA
ENDBRANCH   1   3
BRANCH   2   6
ATOM      6  C   UNL     1      15.063  53.463  42.534  1.00  0.00    -0.026 A 
ATOM      7  C   UNL     1      13.694  53.261  42.789  1.00  0.00     0.008 A 
ATOM      8  C   UNL     1      15.837  52.393  42.060  1.00  0.00     0.008 A 
ATOM      9  C   UNL     1      13.126  51.995  42.621  1.00  0.00     0.001 A 
ATOM     10  C   UNL     1      15.265  51.128  41.893  1.00  0.00     0.001 A 
ATOM     11  C   UNL     1      13.911  50.927  42.178  1.00  0.00     0.000 A 
ENDBRANCH   2   6
TORSDOF 2
ENDMDL
MODEL 5
REMARK VINA RESULT:    -4.221     11.512     13.423
REMARK INTER + INTRA:          -4.938
REMARK INTER:                  -4.796
REMARK INTRA:                  -0.143
REMARK UNBOUND:                -0.224
REMARK SMILES O=C([O-])C=Cc1ccccc1
REMARK SMILES IDX 4 1 5 2 2 3 1 4 3 5 6 6 7 7 11 8 8 9 10 10 9 11
REMARK H PARENT
REMARK Flexibility Score: inf
ROOT
ATOM      1  C   UNL     1      19.237  63.911  45.741  1.00  0.00     0.025 C 
ATOM      2  C   UNL     1      18.702  62.720  46.054  1.00  0.00     0.010 C 
ENDROOT
BRANCH   1   3
ATOM      3  C   UNL     1      18.882  64.735  44.570  1.00  0.00     0.064 C 
ATOM      4  O   UNL     1      18.187  65.778  44.683  1.00  0.00    -0.545 OA
ATOM      5  O   UNL     1      19.384  64.388  43.323  1.00  0.00    -0.545 OA
ENDBRANCH   1   3
BRANCH   2   6
ATOM      6  C   UNL     1      17.793  61.936  45.192  1.00  0.00    -0.026 A 
ATOM      7  C   UNL     1      18.213  60.734  44.593  1.00  0.00     0.008 A 
ATOM      8  C   UNL     1      16.457  62.343  45.052  1.00  0.00     0.008 A 
ATOM      9  C   UNL     1      17.320  59.982  43.824  1.00  0.00     0.001 A 
ATOM     10  C   UNL     1      15.567  61.588  44.281  1.00  0.00     0.001 A 
ATOM     11  C   UNL     1      15.999  60.411  43.664  1.00  0.00     0.000 A 
ENDBRANCH   2   6
TORSDOF 2
ENDMDL
MODEL 6
REMARK VINA RESULT:    -4.123     16.143     17.085
REMARK INTER + INTRA:          -4.829
REMARK INTER:                  -4.655
REMARK INTRA:                  -0.174
REMARK UNBOUND:                -0.224
REMARK SMILES O=C([O-])C=Cc1ccccc1
REMARK SMILES IDX 4 1 5 2 2 3 1 4 3 5 6 6 7 7 11 8 8 9 10 10 9 11
REMARK H PARENT
REMARK Flexibility Score: inf
ROOT
ATOM      1  C   UNL     1      17.171  64.496  32.830  1.00  0.00     0.025 C 
ATOM      2  C   UNL     1      16.779  64.133  34.063  1.00  0.00     0.010 C 
ENDROOT
BRANCH   1   3
ATOM      3  C   UNL     1      18.329  65.353  32.512  1.00  0.00     0.064 C 
ATOM      4  O   UNL     1      19.509  64.980  32.743  1.00  0.00    -0.545 OA
ATOM      5  O   UNL     1      18.114  66.570  31.879  1.00  0.00    -0.545 OA
ENDBRANCH   1   3
BRANCH   2   6
ATOM      6  C   UNL     1      17.324  64.669  35.327  1.00  0.00    -0.026 A 
ATOM      7  C   UNL     1      18.235  63.925  36.100  1.00  0.00     0.008 A 
ATOM      8  C   UNL     1      17.009  65.981  35.712  1.00  0.00     0.008 A 
ATOM      9  C   UNL     1      18.779  64.472  37.266  1.00  0.00     0.001 A 
ATOM     10  C   UNL     1      17.555  66.524  36.879  1.00  0.00     0.001 A 
ATOM     11  C   UNL     1      18.436  65.769  37.658  1.00  0.00     0.000 A 
ENDBRANCH   2   6
TORSDOF 2
ENDMDL
MODEL 7
REMARK VINA RESULT:    -4.106      6.750      7.770
REMARK INTER + INTRA:          -4.810
REMARK INTER:                  -4.541
REMARK INTRA:                  -0.269
REMARK UNBOUND:                -0.224
REMARK SMILES O=C([O-])C=Cc1ccccc1
REMARK SMILES IDX 4 1 5 2 2 3 1 4 3 5 6 6 7 7 11 8 8 9 10 10 9 11
REMARK H PARENT
REMARK Flexibility Score: inf
ROOT
ATOM      1  C   UNL     1      16.215  55.888  46.123  1.00  0.00     0.025 C 
ATOM      2  C   UNL     1      15.631  54.707  45.862  1.00  0.00     0.010 C 
ENDROOT
BRANCH   1   3
ATOM      3  C   UNL     1      16.978  56.703  45.158  1.00  0.00     0.064 C 
ATOM      4  O   UNL     1      16.453  57.675  44.555  1.00  0.00    -0.545 OA
ATOM      5  O   UNL     1      18.327  56.434  44.965  1.00  0.00    -0.545 OA
ENDBRANCH   1   3
BRANCH   2   6
ATOM      6  C   UNL     1      15.797  53.925  44.619  1.00  0.00    -0.026 A 
ATOM      7  C   UNL     1      14.935  54.109  43.523  1.00  0.00     0.008 A 
ATOM      8  C   UNL     1      16.894  53.060  44.492  1.00  0.00     0.008 A 
ATOM      9  C   UNL     1      15.142  53.396  42.338  1.00  0.00     0.001 A 
ATOM     10  C   UNL     1      17.097  52.348  43.305  1.00  0.00     0.001 A 
ATOM     11  C   UNL     1      16.219  52.513  42.230  1.00  0.00     0.000 A 
ENDBRANCH   2   6
TORSDOF 2
ENDMDL
MODEL 8
REMARK VINA RESULT:    -4.004      7.217      8.733
REMARK INTER + INTRA:          -4.696
REMARK INTER:                  -4.447
REMARK INTRA:                  -0.249
REMARK UNBOUND:                -0.224
REMARK SMILES O=C([O-])C=Cc1ccccc1
REMARK SMILES IDX 4 1 5 2 2 3 1 4 3 5 6 6 7 7 11 8 8 9 10 10 9 11
REMARK H PARENT
REMARK Flexibility Score: inf
ROOT
ATOM      1  C   UNL     1      16.298  52.433  42.570  1.00  0.00     0.025 C 
ATOM      2  C   UNL     1      15.512  53.478  42.877  1.00  0.00     0.010 C 
ENDROOT
BRANCH   1   3
ATOM      3  C   UNL     1      17.460  51.970  43.353  1.00  0.00     0.064 C 
ATOM      4  O   UNL     1      17.382  50.983  44.129  1.00  0.00    -0.545 OA
ATOM      5  O   UNL     1      18.687  52.597  43.174  1.00  0.00    -0.545 OA
ENDBRANCH   1   3
BRANCH   2   6
ATOM      6  C   UNL     1      15.772  54.459  43.951  1.00  0.00    -0.026 A 
ATOM      7  C   UNL     1      15.408  54.194  45.284  1.00  0.00     0.008 A 
ATOM      8  C   UNL     1      16.486  55.630  43.654  1.00  0.00     0.008 A 
ATOM      9  C   UNL     1      15.710  55.115  46.292  1.00  0.00     0.001 A 
ATOM     10  C   UNL     1      16.787  56.548  44.665  1.00  0.00     0.001 A 
ATOM     11  C   UNL     1      16.395  56.293  45.983  1.00  0.00     0.000 A 
ENDBRANCH   2   6
TORSDOF 2
ENDMDL
MODEL 9
REMARK VINA RESULT:    -3.986     14.341     15.733
REMARK INTER + INTRA:          -4.676
REMARK INTER:                  -4.404
REMARK INTRA:                  -0.272
REMARK UNBOUND:                -0.224
REMARK SMILES O=C([O-])C=Cc1ccccc1
REMARK SMILES IDX 4 1 5 2 2 3 1 4 3 5 6 6 7 7 11 8 8 9 10 10 9 11
REMARK H PARENT
REMARK Flexibility Score: inf
ROOT
ATOM      1  C   UNL     1      19.665  63.806  38.476  1.00  0.00     0.025 C 
ATOM      2  C   UNL     1      19.740  64.286  37.225  1.00  0.00     0.010 C 
ENDROOT
BRANCH   1   3
ATOM      3  C   UNL     1      18.430  63.386  39.166  1.00  0.00     0.064 C 
ATOM      4  O   UNL     1      17.974  62.219  39.050  1.00  0.00    -0.545 OA
ATOM      5  O   UNL     1      17.796  64.280  40.019  1.00  0.00    -0.545 OA
ENDBRANCH   1   3
BRANCH   2   6
ATOM      6  C   UNL     1      18.585  64.650  36.377  1.00  0.00    -0.026 A 
ATOM      7  C   UNL     1      17.999  63.715  35.504  1.00  0.00     0.008 A 
ATOM      8  C   UNL     1      17.999  65.917  36.520  1.00  0.00     0.008 A 
ATOM      9  C   UNL     1      16.876  64.065  34.749  1.00  0.00     0.001 A 
ATOM     10  C   UNL     1      16.875  66.263  35.763  1.00  0.00     0.001 A 
ATOM     11  C   UNL     1      16.316  65.340  34.875  1.00  0.00     0.000 A 
ENDBRANCH   2   6
TORSDOF 2
ENDMDL
