MODEL 1
REMARK VINA RESULT:    -5.188      0.000      0.000
REMARK INTER + INTRA:          -5.993
REMARK INTER:                  -5.947
REMARK INTRA:                  -0.047
REMARK UNBOUND:                -0.047
REMARK SMILES O=C([O-])c1cc(O)c(O)c(O)c1
REMARK SMILES IDX 4 1 5 2 12 3 6 4 10 5 8 6 2 7 1 8 3 9 7 10 11 12 9 14
REMARK H PARENT 7 11 11 13 9 15
REMARK Flexibility Score: inf
ROOT
ATOM      1  C   UNL     1       8.836  10.657  17.483  1.00  0.00     0.005 A 
ATOM      2  C   UNL     1      10.109  11.248  17.463  1.00  0.00     0.060 A 
ATOM      3  C   UNL     1       8.580   9.565  16.642  1.00  0.00     0.060 A 
ATOM      4  C   UNL     1      11.117  10.764  16.620  1.00  0.00     0.162 A 
ATOM      5  C   UNL     1       9.574   9.069  15.793  1.00  0.00     0.162 A 
ATOM      6  C   UNL     1      10.850   9.661  15.773  1.00  0.00     0.200 A 
ENDROOT
BRANCH   1   7
ATOM      7  C   UNL     1       7.777  11.175  18.377  1.00  0.00     0.072 C 
ATOM      8  O   UNL     1       7.432  12.385  18.328  1.00  0.00    -0.545 OA
ATOM      9  O   UNL     1       7.146  10.330  19.285  1.00  0.00    -0.545 OA
ENDBRANCH   1   7
BRANCH   4  10
ATOM     10  O   UNL     1      12.356  11.405  16.657  1.00  0.00    -0.504 OA
ATOM     11  H   UNL     1      12.789  11.756  17.500  1.00  0.00     0.293 HD
ENDBRANCH   4  10
BRANCH   5  12
ATOM     12  O   UNL     1       9.274   7.980  14.974  1.00  0.00    -0.504 OA
ATOM     13  H   UNL     1       8.410   7.457  15.062  1.00  0.00     0.293 HD
ENDBRANCH   5  12
BRANCH   6  14
ATOM     14  O   UNL     1      11.816   9.134  14.911  1.00  0.00    -0.502 OA
ATOM     15  H   UNL     1      11.900   8.154  14.683  1.00  0.00     0.293 HD
ENDBRANCH   6  14
TORSDOF 4
ENDMDL
MODEL 2
REMARK VINA RESULT:    -5.163      0.101      2.445
REMARK INTER + INTRA:          -5.965
REMARK INTER:                  -5.918
REMARK INTRA:                  -0.046
REMARK UNBOUND:                -0.047
REMARK SMILES O=C([O-])c1cc(O)c(O)c(O)c1
REMARK SMILES IDX 4 1 5 2 12 3 6 4 10 5 8 6 2 7 1 8 3 9 7 10 11 12 9 14
REMARK H PARENT 7 11 11 13 9 15
REMARK Flexibility Score: inf
ROOT
ATOM      1  C   UNL     1       8.857  10.572  17.493  1.00  0.00     0.005 A 
ATOM      2  C   UNL     1       8.586   9.518  16.608  1.00  0.00     0.060 A 
ATOM      3  C   UNL     1      10.139  11.141  17.501  1.00  0.00     0.060 A 
ATOM      4  C   UNL     1       9.572   9.031  15.741  1.00  0.00     0.162 A 
ATOM      5  C   UNL     1      11.135  10.668  16.642  1.00  0.00     0.162 A 
ATOM      6  C   UNL     1      10.864   9.610  15.755  1.00  0.00     0.200 A 
ENDROOT
BRANCH   1   7
ATOM      7  C   UNL     1       7.809  11.081  18.406  1.00  0.00     0.072 C 
ATOM      8  O   UNL     1       7.427  12.279  18.339  1.00  0.00    -0.545 OA
ATOM      9  O   UNL     1       7.231  10.241  19.352  1.00  0.00    -0.545 OA
ENDBRANCH   1   7
BRANCH   4  10
ATOM     10  O   UNL     1       9.225   7.979  14.890  1.00  0.00    -0.504 OA
ATOM     11  H   UNL     1       8.613   7.219  15.149  1.00  0.00     0.293 HD
ENDBRANCH   4  10
BRANCH   5  12
ATOM     12  O   UNL     1      12.396  11.265  16.686  1.00  0.00    -0.504 OA
ATOM     13  H   UNL     1      12.525  12.241  16.923  1.00  0.00     0.293 HD
ENDBRANCH   5  12
BRANCH   6  14
ATOM     14  O   UNL     1      11.888   9.168  14.913  1.00  0.00    -0.502 OA
ATOM     15  H   UNL     1      11.739   8.785  13.991  1.00  0.00     0.293 HD
ENDBRANCH   6  14
TORSDOF 4
ENDMDL
MODEL 3
REMARK VINA RESULT:    -5.098      2.711      5.898
REMARK INTER + INTRA:          -5.890
REMARK INTER:                  -5.845
REMARK INTRA:                  -0.045
REMARK UNBOUND:                -0.047
REMARK SMILES O=C([O-])c1cc(O)c(O)c(O)c1
REMARK SMILES IDX 4 1 5 2 12 3 6 4 10 5 8 6 2 7 1 8 3 9 7 10 11 12 9 14
REMARK H PARENT 7 11 11 13 9 15
REMARK Flexibility Score: inf
ROOT
ATOM      1  C   UNL     1       6.943  10.764  17.378  1.00  0.00     0.005 A 
ATOM      2  C   UNL     1       5.676  10.623  16.791  1.00  0.00     0.060 A 
ATOM      3  C   UNL     1       7.034  10.922  18.769  1.00  0.00     0.060 A 
ATOM      4  C   UNL     1       4.513  10.638  17.570  1.00  0.00     0.162 A 
ATOM      5  C   UNL     1       5.883  10.939  19.562  1.00  0.00     0.162 A 
ATOM      6  C   UNL     1       4.613  10.798  18.974  1.00  0.00     0.200 A 
ENDROOT
BRANCH   1   7
ATOM      7  C   UNL     1       8.167  10.747  16.547  1.00  0.00     0.072 C 
ATOM      8  O   UNL     1       8.684  11.823  16.145  1.00  0.00    -0.545 OA
ATOM      9  O   UNL     1       8.766   9.541  16.200  1.00  0.00    -0.545 OA
ENDBRANCH   1   7
BRANCH   4  10
ATOM     10  O   UNL     1       3.290  10.493  16.912  1.00  0.00    -0.504 OA
ATOM     11  H   UNL     1       3.075  10.908  16.016  1.00  0.00     0.293 HD
ENDBRANCH   4  10
BRANCH   5  12
ATOM     12  O   UNL     1       6.023  11.098  20.941  1.00  0.00    -0.504 OA
ATOM     13  H   UNL     1       6.770  11.647  21.351  1.00  0.00     0.293 HD
ENDBRANCH   5  12
BRANCH   6  14
ATOM     14  O   UNL     1       3.488  10.821  19.803  1.00  0.00    -0.502 OA
ATOM     15  H   UNL     1       3.372  11.448  20.585  1.00  0.00     0.293 HD
ENDBRANCH   6  14
TORSDOF 4
ENDMDL
MODEL 4
REMARK VINA RESULT:    -5.064      2.436      3.280
REMARK INTER + INTRA:          -5.851
REMARK INTER:                  -5.802
REMARK INTRA:                  -0.049
REMARK UNBOUND:                -0.047
REMARK SMILES O=C([O-])c1cc(O)c(O)c(O)c1
REMARK SMILES IDX 4 1 5 2 12 3 6 4 10 5 8 6 2 7 1 8 3 9 7 10 11 12 9 14
REMARK H PARENT 7 11 11 13 9 15
REMARK Flexibility Score: inf
ROOT
ATOM      1  C   UNL     1      11.472  10.306  16.702  1.00  0.00     0.005 A 
ATOM      2  C   UNL     1      12.521  10.673  17.559  1.00  0.00     0.060 A 
ATOM      3  C   UNL     1      11.756  10.041  15.354  1.00  0.00     0.060 A 
ATOM      4  C   UNL     1      13.835  10.778  17.088  1.00  0.00     0.162 A 
ATOM      5  C   UNL     1      13.062  10.141  14.867  1.00  0.00     0.162 A 
ATOM      6  C   UNL     1      14.114  10.510  15.726  1.00  0.00     0.200 A 
ENDROOT
BRANCH   1   7
ATOM      7  C   UNL     1      10.086  10.197  17.208  1.00  0.00     0.072 C 
ATOM      8  O   UNL     1       9.119  10.635  16.529  1.00  0.00    -0.545 OA
ATOM      9  O   UNL     1       9.830   9.607  18.441  1.00  0.00    -0.545 OA
ENDBRANCH   1   7
BRANCH   4  10
ATOM     10  O   UNL     1      14.823  11.150  18.001  1.00  0.00    -0.504 OA
ATOM     11  H   UNL     1      15.815  11.051  17.836  1.00  0.00     0.293 HD
ENDBRANCH   4  10
BRANCH   5  12
ATOM     12  O   UNL     1      13.297   9.868  13.519  1.00  0.00    -0.504 OA
ATOM     13  H   UNL     1      14.231   9.819  13.130  1.00  0.00     0.293 HD
ENDBRANCH   5  12
BRANCH   6  14
ATOM     14  O   UNL     1      15.405  10.598  15.198  1.00  0.00    -0.502 OA
ATOM     15  H   UNL     1      16.144   9.938  15.392  1.00  0.00     0.293 HD
ENDBRANCH   6  14
TORSDOF 4
ENDMDL
MODEL 5
REMARK VINA RESULT:    -5.053      2.414      4.241
REMARK INTER + INTRA:          -5.839
REMARK INTER:                  -5.794
REMARK INTRA:                  -0.045
REMARK UNBOUND:                -0.047
REMARK SMILES O=C([O-])c1cc(O)c(O)c(O)c1
REMARK SMILES IDX 4 1 5 2 12 3 6 4 10 5 8 6 2 7 1 8 3 9 7 10 11 12 9 14
REMARK H PARENT 7 11 11 13 9 15
REMARK Flexibility Score: inf
ROOT
ATOM      1  C   UNL     1      12.934  11.681  17.016  1.00  0.00     0.005 A 
ATOM      2  C   UNL     1      13.365  11.240  15.755  1.00  0.00     0.060 A 
ATOM      3  C   UNL     1      11.751  11.153  17.553  1.00  0.00     0.060 A 
ATOM      4  C   UNL     1      12.634  10.289  15.034  1.00  0.00     0.162 A 
ATOM      5  C   UNL     1      11.009  10.202  16.847  1.00  0.00     0.162 A 
ATOM      6  C   UNL     1      11.440   9.760  15.583  1.00  0.00     0.200 A 
ENDROOT
BRANCH   1   7
ATOM      7  C   UNL     1      13.713  12.687  17.772  1.00  0.00     0.072 C 
ATOM      8  O   UNL     1      13.419  13.911  17.702  1.00  0.00    -0.545 OA
ATOM      9  O   UNL     1      14.782  12.296  18.571  1.00  0.00    -0.545 OA
ENDBRANCH   1   7
BRANCH   4  10
ATOM     10  O   UNL     1      13.127   9.901  13.787  1.00  0.00    -0.504 OA
ATOM     11  H   UNL     1      12.546   9.668  12.994  1.00  0.00     0.293 HD
ENDBRANCH   4  10
BRANCH   5  12
ATOM     12  O   UNL     1       9.839   9.706  17.422  1.00  0.00    -0.504 OA
ATOM     13  H   UNL     1       9.394   8.854  17.097  1.00  0.00     0.293 HD
ENDBRANCH   5  12
BRANCH   6  14
ATOM     14  O   UNL     1      10.669   8.809  14.911  1.00  0.00    -0.502 OA
ATOM     15  H   UNL     1      10.820   8.529  13.953  1.00  0.00     0.293 HD
ENDBRANCH   6  14
TORSDOF 4
ENDMDL
MODEL 6
REMARK VINA RESULT:    -5.048      2.439      3.869
REMARK INTER + INTRA:          -5.832
REMARK INTER:                  -5.783
REMARK INTRA:                  -0.049
REMARK UNBOUND:                -0.047
REMARK SMILES O=C([O-])c1cc(O)c(O)c(O)c1
REMARK SMILES IDX 4 1 5 2 12 3 6 4 10 5 8 6 2 7 1 8 3 9 7 10 11 12 9 14
REMARK H PARENT 7 11 11 13 9 15
REMARK Flexibility Score: inf
ROOT
ATOM      1  C   UNL     1      11.482  10.310  16.712  1.00  0.00     0.005 A 
ATOM      2  C   UNL     1      11.764  10.054  15.361  1.00  0.00     0.060 A 
ATOM      3  C   UNL     1      12.531  10.672  17.569  1.00  0.00     0.060 A 
ATOM      4  C   UNL     1      13.069  10.156  14.864  1.00  0.00     0.162 A 
ATOM      5  C   UNL     1      13.840  10.778  17.090  1.00  0.00     0.162 A 
ATOM      6  C   UNL     1      14.124  10.522  15.736  1.00  0.00     0.200 A 
ENDROOT
BRANCH   1   7
ATOM      7  C   UNL     1      10.100  10.200  17.229  1.00  0.00     0.072 C 
ATOM      8  O   UNL     1       9.126  10.623  16.550  1.00  0.00    -0.545 OA
ATOM      9  O   UNL     1       9.856   9.628  18.472  1.00  0.00    -0.545 OA
ENDBRANCH   1   7
BRANCH   4  10
ATOM     10  O   UNL     1      13.270   9.886  13.509  1.00  0.00    -0.504 OA
ATOM     11  H   UNL     1      13.158  10.567  12.772  1.00  0.00     0.293 HD
ENDBRANCH   4  10
BRANCH   5  12
ATOM     12  O   UNL     1      14.851  11.141  17.980  1.00  0.00    -0.504 OA
ATOM     13  H   UNL     1      15.445  10.457  18.435  1.00  0.00     0.293 HD
ENDBRANCH   5  12
BRANCH   6  14
ATOM     14  O   UNL     1      15.445  10.639  15.298  1.00  0.00    -0.502 OA
ATOM     15  H   UNL     1      16.251  10.384  15.850  1.00  0.00     0.293 HD
ENDBRANCH   6  14
TORSDOF 4
ENDMDL
MODEL 7
REMARK VINA RESULT:    -5.042      2.588      5.342
REMARK INTER + INTRA:          -5.826
REMARK INTER:                  -5.781
REMARK INTRA:                  -0.045
REMARK UNBOUND:                -0.047
REMARK SMILES O=C([O-])c1cc(O)c(O)c(O)c1
REMARK SMILES IDX 4 1 5 2 12 3 6 4 10 5 8 6 2 7 1 8 3 9 7 10 11 12 9 14
REMARK H PARENT 7 11 11 13 9 15
REMARK Flexibility Score: inf
ROOT
ATOM      1  C   UNL     1       7.295  10.660  17.360  1.00  0.00     0.005 A 
ATOM      2  C   UNL     1       7.260  10.783  18.758  1.00  0.00     0.060 A 
ATOM      3  C   UNL     1       6.087  10.668  16.647  1.00  0.00     0.060 A 
ATOM      4  C   UNL     1       6.046  10.911  19.442  1.00  0.00     0.162 A 
ATOM      5  C   UNL     1       4.865  10.794  17.314  1.00  0.00     0.162 A 
ATOM      6  C   UNL     1       4.830  10.917  18.715  1.00  0.00     0.200 A 
ENDROOT
BRANCH   1   7
ATOM      7  C   UNL     1       8.584  10.526  16.645  1.00  0.00     0.072 C 
ATOM      8  O   UNL     1       9.210  11.548  16.256  1.00  0.00    -0.545 OA
ATOM      9  O   UNL     1       9.121   9.269  16.392  1.00  0.00    -0.545 OA
ENDBRANCH   1   7
BRANCH   4  10
ATOM     10  O   UNL     1       6.094  11.027  20.833  1.00  0.00    -0.504 OA
ATOM     11  H   UNL     1       6.189  11.903  21.326  1.00  0.00     0.293 HD
ENDBRANCH   4  10
BRANCH   5  12
ATOM     12  O   UNL     1       3.690  10.796  16.562  1.00  0.00    -0.504 OA
ATOM     13  H   UNL     1       2.946  11.466  16.722  1.00  0.00     0.293 HD
ENDBRANCH   5  12
BRANCH   6  14
ATOM     14  O   UNL     1       3.588  11.041  19.342  1.00  0.00    -0.502 OA
ATOM     15  H   UNL     1       3.138  11.923  19.542  1.00  0.00     0.293 HD
ENDBRANCH   6  14
TORSDOF 4
ENDMDL
MODEL 8
REMARK VINA RESULT:    -4.993      2.380      4.356
REMARK INTER + INTRA:          -5.770
REMARK INTER:                  -5.725
REMARK INTRA:                  -0.045
REMARK UNBOUND:                -0.047
REMARK SMILES O=C([O-])c1cc(O)c(O)c(O)c1
REMARK SMILES IDX 4 1 5 2 12 3 6 4 10 5 8 6 2 7 1 8 3 9 7 10 11 12 9 14
REMARK H PARENT 7 11 11 13 9 15
REMARK Flexibility Score: inf
ROOT
ATOM      1  C   UNL     1      12.889  11.748  17.037  1.00  0.00     0.005 A 
ATOM      2  C   UNL     1      11.717  11.212  17.592  1.00  0.00     0.060 A 
ATOM      3  C   UNL     1      13.317  11.292  15.781  1.00  0.00     0.060 A 
ATOM      4  C   UNL     1      10.976  10.237  16.914  1.00  0.00     0.162 A 
ATOM      5  C   UNL     1      12.590  10.318  15.090  1.00  0.00     0.162 A 
ATOM      6  C   UNL     1      11.415   9.781  15.647  1.00  0.00     0.200 A 
ENDROOT
BRANCH   1   7
ATOM      7  C   UNL     1      13.666  12.779  17.761  1.00  0.00     0.072 C 
ATOM      8  O   UNL     1      13.312  13.988  17.729  1.00  0.00    -0.545 OA
ATOM      9  O   UNL     1      14.798  12.427  18.487  1.00  0.00    -0.545 OA
ENDBRANCH   1   7
BRANCH   4  10
ATOM     10  O   UNL     1       9.822   9.753  17.532  1.00  0.00    -0.504 OA
ATOM     11  H   UNL     1       9.379  10.190  18.328  1.00  0.00     0.293 HD
ENDBRANCH   4  10
BRANCH   5  12
ATOM     12  O   UNL     1      13.054   9.895  13.844  1.00  0.00    -0.504 OA
ATOM     13  H   UNL     1      13.921   9.384  13.734  1.00  0.00     0.293 HD
ENDBRANCH   5  12
BRANCH   6  14
ATOM     14  O   UNL     1      10.718   8.810  14.922  1.00  0.00    -0.502 OA
ATOM     15  H   UNL     1      10.361   8.946  13.988  1.00  0.00     0.293 HD
ENDBRANCH   6  14
TORSDOF 4
ENDMDL
MODEL 9
REMARK VINA RESULT:    -4.819      2.008      3.600
REMARK INTER + INTRA:          -5.570
REMARK INTER:                  -5.523
REMARK INTRA:                  -0.047
REMARK UNBOUND:                -0.047
REMARK SMILES O=C([O-])c1cc(O)c(O)c(O)c1
REMARK SMILES IDX 4 1 5 2 12 3 6 4 10 5 8 6 2 7 1 8 3 9 7 10 11 12 9 14
REMARK H PARENT 7 11 11 13 9 15
REMARK Flexibility Score: inf
ROOT
ATOM      1  C   UNL     1      10.592  10.017  16.596  1.00  0.00     0.005 A 
ATOM      2  C   UNL     1      11.632  10.208  15.673  1.00  0.00     0.060 A 
ATOM      3  C   UNL     1      10.826  10.293  17.951  1.00  0.00     0.060 A 
ATOM      4  C   UNL     1      12.889  10.667  16.086  1.00  0.00     0.162 A 
ATOM      5  C   UNL     1      12.075  10.751  18.381  1.00  0.00     0.162 A 
ATOM      6  C   UNL     1      13.118  10.943  17.456  1.00  0.00     0.200 A 
ENDROOT
BRANCH   1   7
ATOM      7  C   UNL     1       9.267   9.532  16.151  1.00  0.00     0.072 C 
ATOM      8  O   UNL     1       8.218  10.160  16.458  1.00  0.00    -0.545 OA
ATOM      9  O   UNL     1       9.160   8.376  15.385  1.00  0.00    -0.545 OA
ENDBRANCH   1   7
BRANCH   4  10
ATOM     10  O   UNL     1      13.872  10.831  15.109  1.00  0.00    -0.504 OA
ATOM     11  H   UNL     1      14.798  11.191  15.290  1.00  0.00     0.293 HD
ENDBRANCH   4  10
BRANCH   5  12
ATOM     12  O   UNL     1      12.261  11.012  19.739  1.00  0.00    -0.504 OA
ATOM     13  H   UNL     1      12.409  11.949  20.095  1.00  0.00     0.293 HD
ENDBRANCH   5  12
BRANCH   6  14
ATOM     14  O   UNL     1      14.350  11.402  17.928  1.00  0.00    -0.502 OA
ATOM     15  H   UNL     1      14.546  11.612  18.896  1.00  0.00     0.293 HD
ENDBRANCH   6  14
TORSDOF 4
ENDMDL
