MODEL 1
REMARK VINA RESULT:    -2.827      0.000      0.000
REMARK INTER + INTRA:          -2.737
REMARK INTER:                  -3.488
REMARK INTRA:                   0.751
REMARK UNBOUND:                 0.751
REMARK SMILES CC1=CC=CC(C)(C)CC1=O
REMARK SMILES IDX 1 1 2 2 3 3 10 4 11 5 9 6 4 8 5 9 6 10 7 11 8 12
REMARK H PARENT
REMARK Flexibility Score: 80.00
ROOT
ATOM      1  C   UNL     1     -47.822  -1.653  45.533  1.00  0.00     0.048 C 
ATOM      2  C   UNL     1     -49.046  -0.969  44.973  1.00  0.00    -0.008 C 
ATOM      3  C   UNL     1     -50.132  -1.732  44.726  1.00  0.00     0.007 C 
ENDROOT
BRANCH   2   4
ATOM      4  C   UNL     1     -48.930   0.479  44.666  1.00  0.00     0.159 C 
ATOM      5  O   UNL     1     -47.790   1.020  44.705  1.00  0.00    -0.295 OA
BRANCH   4   6
ATOM      6  C   UNL     1     -50.101   1.347  44.323  1.00  0.00     0.091 CG0
ATOM      7  G   UNL     1     -50.871   0.866  43.073  1.00  0.00     0.000 G0
ENDBRANCH   4   6
ENDBRANCH   2   4
BRANCH   3   8
ATOM      8  C   UNL     1     -51.450  -1.357  44.162  1.00  0.00    -0.003 C 
ATOM      9  C   UNL     1     -51.788  -0.272  43.456  1.00  0.00    -0.020 C 
BRANCH   9  10
ATOM     10  C   UNL     1     -50.878   0.876  43.083  1.00  0.00    -0.010 CG0
ATOM     11  C   UNL     1     -51.756   2.053  42.601  1.00  0.00     0.016 C 
ATOM     12  C   UNL     1     -49.956   0.459  41.914  1.00  0.00     0.016 C 
ATOM     13  G   UNL     1     -50.091   1.340  44.328  1.00  0.00     0.000 G0
ENDBRANCH   9  10
ENDBRANCH   3   8
TORSDOF 0
ENDMDL
MODEL 2
REMARK VINA RESULT:    -2.680     20.760     22.676
REMARK INTER + INTRA:          -2.555
REMARK INTER:                  -3.338
REMARK INTRA:                   0.783
REMARK UNBOUND:                 0.751
REMARK SMILES CC1=CC=CC(C)(C)CC1=O
REMARK SMILES IDX 1 1 2 2 3 3 10 4 11 5 9 6 4 8 5 9 6 10 7 11 8 12
REMARK H PARENT
REMARK Flexibility Score: 80.00
ROOT
ATOM      1  C   UNL     1     -33.513   2.305  55.392  1.00  0.00     0.048 C 
ATOM      2  C   UNL     1     -33.111   2.619  56.813  1.00  0.00    -0.008 C 
ATOM      3  C   UNL     1     -32.387   1.694  57.478  1.00  0.00     0.007 C 
ENDROOT
BRANCH   2   4
ATOM      4  C   UNL     1     -33.609   3.893  57.390  1.00  0.00     0.159 C 
ATOM      5  O   UNL     1     -34.502   4.534  56.771  1.00  0.00    -0.295 OA
BRANCH   4   6
ATOM      6  C   UNL     1     -33.096   4.475  58.671  1.00  0.00     0.091 CG0
ATOM      7  G   UNL     1     -33.327   3.558  59.892  1.00  0.00     0.000 G0
ENDBRANCH   4   6
ENDBRANCH   2   4
BRANCH   3   8
ATOM      8  C   UNL     1     -31.875   1.706  58.869  1.00  0.00    -0.003 C 
ATOM      9  C   UNL     1     -32.262   2.460  59.904  1.00  0.00    -0.020 C 
BRANCH   9  10
ATOM     10  C   UNL     1     -33.328   3.531  59.886  1.00  0.00    -0.010 CG0
ATOM     11  C   UNL     1     -33.206   4.358  61.186  1.00  0.00     0.016 C 
ATOM     12  C   UNL     1     -34.730   2.879  59.866  1.00  0.00     0.016 C 
ATOM     13  G   UNL     1     -33.093   4.478  58.688  1.00  0.00     0.000 G0
ENDBRANCH   9  10
ENDBRANCH   3   8
TORSDOF 0
ENDMDL
MODEL 3
REMARK VINA RESULT:    -2.677     19.979     21.007
REMARK INTER + INTRA:          -2.551
REMARK INTER:                  -3.317
REMARK INTRA:                   0.766
REMARK UNBOUND:                 0.751
REMARK SMILES CC1=CC=CC(C)(C)CC1=O
REMARK SMILES IDX 1 1 2 2 3 3 10 4 11 5 9 6 4 8 5 9 6 10 7 11 8 12
REMARK H PARENT
REMARK Flexibility Score: 80.00
ROOT
ATOM      1  C   UNL     1     -31.876   0.976  58.087  1.00  0.00     0.048 C 
ATOM      2  C   UNL     1     -33.020   1.792  57.534  1.00  0.00    -0.008 C 
ATOM      3  C   UNL     1     -33.009   2.069  56.212  1.00  0.00     0.007 C 
ENDROOT
BRANCH   2   4
ATOM      4  C   UNL     1     -34.027   2.288  58.504  1.00  0.00     0.159 C 
ATOM      5  O   UNL     1     -33.784   2.189  59.738  1.00  0.00    -0.295 OA
BRANCH   4   6
ATOM      6  C   UNL     1     -35.337   2.891  58.099  1.00  0.00     0.091 CG0
ATOM      7  G   UNL     1     -35.180   4.147  57.212  1.00  0.00     0.000 G0
ENDBRANCH   4   6
ENDBRANCH   2   4
BRANCH   3   8
ATOM      8  C   UNL     1     -33.965   2.855  55.398  1.00  0.00    -0.003 C 
ATOM      9  C   UNL     1     -34.882   3.745  55.797  1.00  0.00    -0.020 C 
BRANCH   9  10
ATOM     10  C   UNL     1     -35.183   4.146  57.222  1.00  0.00    -0.010 CG0
ATOM     11  C   UNL     1     -36.527   4.908  57.237  1.00  0.00     0.016 C 
ATOM     12  C   UNL     1     -34.086   5.102  57.744  1.00  0.00     0.016 C 
ATOM     13  G   UNL     1     -35.337   2.881  58.096  1.00  0.00     0.000 G0
ENDBRANCH   9  10
ENDBRANCH   3   8
TORSDOF 0
ENDMDL
MODEL 4
REMARK VINA RESULT:    -2.629     15.038     16.051
REMARK INTER + INTRA:          -2.492
REMARK INTER:                  -3.261
REMARK INTRA:                   0.769
REMARK UNBOUND:                 0.751
REMARK SMILES CC1=CC=CC(C)(C)CC1=O
REMARK SMILES IDX 1 1 2 2 3 3 10 4 11 5 9 6 4 8 5 9 6 10 7 11 8 12
REMARK H PARENT
REMARK Flexibility Score: 80.00
ROOT
ATOM      1  C   UNL     1     -34.668  -6.869  44.875  1.00  0.00     0.048 C 
ATOM      2  C   UNL     1     -35.354  -6.279  46.084  1.00  0.00    -0.008 C 
ATOM      3  C   UNL     1     -34.870  -5.118  46.575  1.00  0.00     0.007 C 
ENDROOT
BRANCH   2   4
ATOM      4  C   UNL     1     -36.463  -7.065  46.682  1.00  0.00     0.159 C 
ATOM      5  O   UNL     1     -36.641  -8.254  46.300  1.00  0.00    -0.295 OA
BRANCH   4   6
ATOM      6  C   UNL     1     -37.400  -6.517  47.713  1.00  0.00     0.091 CG0
ATOM      7  G   UNL     1     -36.689  -6.081  49.013  1.00  0.00     0.000 G0
ENDBRANCH   4   6
ENDBRANCH   2   4
BRANCH   3   8
ATOM      8  C   UNL     1     -35.309  -4.323  47.745  1.00  0.00    -0.003 C 
ATOM      9  C   UNL     1     -36.057  -4.701  48.789  1.00  0.00    -0.020 C 
BRANCH   9  10
ATOM     10  C   UNL     1     -36.670  -6.065  49.008  1.00  0.00    -0.010 CG0
ATOM     11  C   UNL     1     -37.719  -5.949  50.137  1.00  0.00     0.016 C 
ATOM     12  C   UNL     1     -35.583  -7.064  49.469  1.00  0.00     0.016 C 
ATOM     13  G   UNL     1     -37.394  -6.521  47.722  1.00  0.00     0.000 G0
ENDBRANCH   9  10
ENDBRANCH   3   8
TORSDOF 0
ENDMDL
MODEL 5
REMARK VINA RESULT:    -2.572      1.838      2.829
REMARK INTER + INTRA:          -2.423
REMARK INTER:                  -3.179
REMARK INTRA:                   0.756
REMARK UNBOUND:                 0.751
REMARK SMILES CC1=CC=CC(C)(C)CC1=O
REMARK SMILES IDX 1 1 2 2 3 3 10 4 11 5 9 6 4 8 5 9 6 10 7 11 8 12
REMARK H PARENT
REMARK Flexibility Score: 80.00
ROOT
ATOM      1  C   UNL     1     -50.238  -2.469  43.200  1.00  0.00     0.048 C 
ATOM      2  C   UNL     1     -50.045  -1.080  43.760  1.00  0.00    -0.008 C 
ATOM      3  C   UNL     1     -49.289  -0.953  44.872  1.00  0.00     0.007 C 
ENDROOT
BRANCH   2   4
ATOM      4  C   UNL     1     -50.765   0.028  43.084  1.00  0.00     0.159 C 
ATOM      5  O   UNL     1     -51.645  -0.253  42.224  1.00  0.00    -0.295 OA
BRANCH   4   6
ATOM      6  C   UNL     1     -50.496   1.476  43.356  1.00  0.00     0.091 CG0
ATOM      7  G   UNL     1     -50.719   1.870  44.833  1.00  0.00     0.000 G0
ENDBRANCH   4   6
ENDBRANCH   2   4
BRANCH   3   8
ATOM      8  C   UNL     1     -48.945   0.257  45.655  1.00  0.00    -0.003 C 
ATOM      9  C   UNL     1     -49.542   1.455  45.664  1.00  0.00    -0.020 C 
BRANCH   9  10
ATOM     10  C   UNL     1     -50.729   1.873  44.828  1.00  0.00    -0.010 CG0
ATOM     11  C   UNL     1     -50.847   3.413  44.889  1.00  0.00     0.016 C 
ATOM     12  C   UNL     1     -52.026   1.271  45.415  1.00  0.00     0.016 C 
ATOM     13  G   UNL     1     -50.495   1.466  43.355  1.00  0.00     0.000 G0
ENDBRANCH   9  10
ENDBRANCH   3   8
TORSDOF 0
ENDMDL
MODEL 6
REMARK VINA RESULT:    -2.564      6.587      7.958
REMARK INTER + INTRA:          -2.413
REMARK INTER:                  -3.155
REMARK INTRA:                   0.742
REMARK UNBOUND:                 0.751
REMARK SMILES CC1=CC=CC(C)(C)CC1=O
REMARK SMILES IDX 1 1 2 2 3 3 10 4 11 5 9 6 4 8 5 9 6 10 7 11 8 12
REMARK H PARENT
REMARK Flexibility Score: 80.00
ROOT
ATOM      1  C   UNL     1     -44.257  -4.750  44.377  1.00  0.00     0.048 C 
ATOM      2  C   UNL     1     -44.004  -3.984  45.653  1.00  0.00    -0.008 C 
ATOM      3  C   UNL     1     -42.965  -4.374  46.422  1.00  0.00     0.007 C 
ENDROOT
BRANCH   2   4
ATOM      4  C   UNL     1     -44.967  -2.908  45.997  1.00  0.00     0.159 C 
ATOM      5  O   UNL     1     -46.039  -2.816  45.337  1.00  0.00    -0.295 OA
BRANCH   4   6
ATOM      6  C   UNL     1     -44.731  -1.905  47.084  1.00  0.00     0.091 CG0
ATOM      7  G   UNL     1     -44.550  -2.548  48.477  1.00  0.00     0.000 G0
ENDBRANCH   4   6
ENDBRANCH   2   4
BRANCH   3   8
ATOM      8  C   UNL     1     -42.491  -3.842  47.721  1.00  0.00    -0.003 C 
ATOM      9  C   UNL     1     -43.141  -3.079  48.609  1.00  0.00    -0.020 C 
BRANCH   9  10
ATOM     10  C   UNL     1     -44.546  -2.542  48.473  1.00  0.00    -0.010 CG0
ATOM     11  C   UNL     1     -44.742  -1.423  49.521  1.00  0.00     0.016 C 
ATOM     12  C   UNL     1     -45.570  -3.661  48.774  1.00  0.00     0.016 C 
ATOM     13  G   UNL     1     -44.733  -1.925  47.068  1.00  0.00     0.000 G0
ENDBRANCH   9  10
ENDBRANCH   3   8
TORSDOF 0
ENDMDL
MODEL 7
REMARK VINA RESULT:    -2.499     15.917     17.082
REMARK INTER + INTRA:          -2.331
REMARK INTER:                  -3.083
REMARK INTRA:                   0.751
REMARK UNBOUND:                 0.751
REMARK SMILES CC1=CC=CC(C)(C)CC1=O
REMARK SMILES IDX 1 1 2 2 3 3 10 4 11 5 9 6 4 8 5 9 6 10 7 11 8 12
REMARK H PARENT
REMARK Flexibility Score: 80.00
ROOT
ATOM      1  C   UNL     1     -34.576  -7.384  44.496  1.00  0.00     0.048 C 
ATOM      2  C   UNL     1     -35.179  -7.555  45.870  1.00  0.00    -0.008 C 
ATOM      3  C   UNL     1     -36.520  -7.694  45.952  1.00  0.00     0.007 C 
ENDROOT
BRANCH   2   4
ATOM      4  C   UNL     1     -34.253  -7.480  47.028  1.00  0.00     0.159 C 
ATOM      5  O   UNL     1     -33.069  -7.091  46.836  1.00  0.00    -0.295 OA
BRANCH   4   6
ATOM      6  C   UNL     1     -34.645  -7.859  48.423  1.00  0.00     0.091 CG0
ATOM      7  G   UNL     1     -35.819  -7.020  48.975  1.00  0.00     0.000 G0
ENDBRANCH   4   6
ENDBRANCH   2   4
BRANCH   3   8
ATOM      8  C   UNL     1     -37.388  -7.851  47.142  1.00  0.00    -0.003 C 
ATOM      9  C   UNL     1     -37.126  -7.563  48.423  1.00  0.00    -0.020 C 
BRANCH   9  10
ATOM     10  C   UNL     1     -35.828  -7.019  48.973  1.00  0.00    -0.010 CG0
ATOM     11  C   UNL     1     -35.846  -7.184  50.510  1.00  0.00     0.016 C 
ATOM     12  C   UNL     1     -35.712  -5.510  48.657  1.00  0.00     0.016 C 
ATOM     13  G   UNL     1     -34.643  -7.839  48.414  1.00  0.00     0.000 G0
ENDBRANCH   9  10
ENDBRANCH   3   8
TORSDOF 0
ENDMDL
MODEL 8
REMARK VINA RESULT:    -2.465     15.601     17.072
REMARK INTER + INTRA:          -2.290
REMARK INTER:                  -3.055
REMARK INTRA:                   0.765
REMARK UNBOUND:                 0.751
REMARK SMILES CC1=CC=CC(C)(C)CC1=O
REMARK SMILES IDX 1 1 2 2 3 3 10 4 11 5 9 6 4 8 5 9 6 10 7 11 8 12
REMARK H PARENT
REMARK Flexibility Score: 80.00
ROOT
ATOM      1  C   UNL     1     -36.538  -5.385  48.809  1.00  0.00     0.048 C 
ATOM      2  C   UNL     1     -35.903  -6.354  47.840  1.00  0.00    -0.008 C 
ATOM      3  C   UNL     1     -35.237  -7.409  48.356  1.00  0.00     0.007 C 
ENDROOT
BRANCH   2   4
ATOM      4  C   UNL     1     -36.000  -6.026  46.396  1.00  0.00     0.159 C 
ATOM      5  O   UNL     1     -36.433  -4.890  46.057  1.00  0.00    -0.295 OA
BRANCH   4   6
ATOM      6  C   UNL     1     -35.623  -6.980  45.305  1.00  0.00     0.091 CG0
ATOM      7  G   UNL     1     -34.150  -7.443  45.383  1.00  0.00     0.000 G0
ENDBRANCH   4   6
ENDBRANCH   2   4
BRANCH   3   8
ATOM      8  C   UNL     1     -34.501  -8.497  47.670  1.00  0.00    -0.003 C 
ATOM      9  C   UNL     1     -34.020  -8.534  46.422  1.00  0.00    -0.020 C 
BRANCH   9  10
ATOM     10  C   UNL     1     -34.143  -7.448  45.380  1.00  0.00    -0.010 CG0
ATOM     11  C   UNL     1     -33.754  -8.045  44.008  1.00  0.00     0.016 C 
ATOM     12  C   UNL     1     -33.158  -6.299  45.695  1.00  0.00     0.016 C 
ATOM     13  G   UNL     1     -35.611  -6.971  45.298  1.00  0.00     0.000 G0
ENDBRANCH   9  10
ENDBRANCH   3   8
TORSDOF 0
ENDMDL
MODEL 9
REMARK VINA RESULT:    -2.419     14.524     15.702
REMARK INTER + INTRA:          -2.233
REMARK INTER:                  -2.985
REMARK INTRA:                   0.751
REMARK UNBOUND:                 0.751
REMARK SMILES CC1=CC=CC(C)(C)CC1=O
REMARK SMILES IDX 1 1 2 2 3 3 10 4 11 5 9 6 4 8 5 9 6 10 7 11 8 12
REMARK H PARENT
REMARK Flexibility Score: 80.00
ROOT
ATOM      1  C   UNL     1     -36.740  -2.600  49.367  1.00  0.00     0.048 C 
ATOM      2  C   UNL     1     -36.474  -3.903  48.650  1.00  0.00    -0.008 C 
ATOM      3  C   UNL     1     -36.035  -4.945  49.388  1.00  0.00     0.007 C 
ENDROOT
BRANCH   2   4
ATOM      4  C   UNL     1     -36.647  -3.910  47.176  1.00  0.00     0.159 C 
ATOM      5  O   UNL     1     -36.803  -2.811  46.576  1.00  0.00    -0.295 OA
BRANCH   4   6
ATOM      6  C   UNL     1     -36.661  -5.160  46.353  1.00  0.00     0.091 CG0
ATOM      7  G   UNL     1     -35.357  -5.981  46.469  1.00  0.00     0.000 G0
ENDBRANCH   4   6
ENDBRANCH   2   4
BRANCH   3   8
ATOM      8  C   UNL     1     -35.670  -6.319  48.970  1.00  0.00    -0.003 C 
ATOM      9  C   UNL     1     -35.370  -6.779  47.749  1.00  0.00    -0.020 C 
BRANCH   9  10
ATOM     10  C   UNL     1     -35.361  -5.980  46.467  1.00  0.00    -0.010 CG0
ATOM     11  C   UNL     1     -35.326  -6.970  45.280  1.00  0.00     0.016 C 
ATOM     12  C   UNL     1     -34.088  -5.107  46.397  1.00  0.00     0.016 C 
ATOM     13  G   UNL     1     -36.660  -5.150  46.363  1.00  0.00     0.000 G0
ENDBRANCH   9  10
ENDBRANCH   3   8
TORSDOF 0
ENDMDL
