MODEL 1
REMARK VINA RESULT:    -4.601      0.000      0.000
REMARK INTER + INTRA:          -5.849
REMARK INTER:                  -5.676
REMARK INTRA:                  -0.173
REMARK UNBOUND:                -0.173
REMARK SMILES C=CC[C@@H](C)C(=O)CC
REMARK SMILES IDX 4 1 5 2 6 3 7 4 8 5 9 6 3 7 2 8 1 9
REMARK H PARENT
REMARK Flexibility Score: inf
ROOT
ATOM      1  C   UNL     1     178.448 184.073 195.483  1.00  0.00     0.057 C 
ATOM      2  C   UNL     1     179.118 185.423 195.189  1.00  0.00     0.016 C 
ENDROOT
BRANCH   1   3
ATOM      3  C   UNL     1     177.106 184.278 196.153  1.00  0.00     0.135 C 
ATOM      4  O   UNL     1     176.087 184.194 195.481  1.00  0.00    -0.299 OA
BRANCH   3   5
ATOM      5  C   UNL     1     176.982 184.560 197.630  1.00  0.00     0.072 C 
ATOM      6  C   UNL     1     175.875 183.715 198.254  1.00  0.00     0.012 C 
ENDBRANCH   3   5
ENDBRANCH   1   3
BRANCH   1   7
ATOM      7  C   UNL     1     178.297 183.214 194.209  1.00  0.00     0.038 C 
BRANCH   7   8
ATOM      8  C   UNL     1     178.955 183.848 193.011  1.00  0.00    -0.034 C 
ATOM      9  C   UNL     1     178.613 183.517 191.762  1.00  0.00     0.004 C 
ENDBRANCH   7   8
ENDBRANCH   1   7
TORSDOF 4
ENDMDL
MODEL 2
REMARK VINA RESULT:    -4.372      1.253      2.056
REMARK INTER + INTRA:          -5.567
REMARK INTER:                  -5.380
REMARK INTRA:                  -0.187
REMARK UNBOUND:                -0.173
REMARK SMILES C=CC[C@@H](C)C(=O)CC
REMARK SMILES IDX 4 1 5 2 6 3 7 4 8 5 9 6 3 7 2 8 1 9
REMARK H PARENT
REMARK Flexibility Score: inf
ROOT
ATOM      1  C   UNL     1     178.019 184.314 194.462  1.00  0.00     0.057 C 
ATOM      2  C   UNL     1     178.482 182.915 194.032  1.00  0.00     0.016 C 
ENDROOT
BRANCH   1   3
ATOM      3  C   UNL     1     177.079 184.224 195.647  1.00  0.00     0.135 C 
ATOM      4  O   UNL     1     175.875 184.151 195.445  1.00  0.00    -0.299 OA
BRANCH   3   5
ATOM      5  C   UNL     1     177.582 184.193 197.069  1.00  0.00     0.072 C 
ATOM      6  C   UNL     1     176.484 184.606 198.044  1.00  0.00     0.012 C 
ENDBRANCH   3   5
ENDBRANCH   1   3
BRANCH   1   7
ATOM      7  C   UNL     1     179.210 185.243 194.781  1.00  0.00     0.038 C 
BRANCH   7   8
ATOM      8  C   UNL     1     180.313 185.129 193.761  1.00  0.00    -0.034 C 
ATOM      9  C   UNL     1     181.268 186.057 193.648  1.00  0.00     0.004 C 
ENDBRANCH   7   8
ENDBRANCH   1   7
TORSDOF 4
ENDMDL
MODEL 3
REMARK VINA RESULT:    -4.306      1.662      4.423
REMARK INTER + INTRA:          -5.486
REMARK INTER:                  -5.283
REMARK INTRA:                  -0.203
REMARK UNBOUND:                -0.173
REMARK SMILES C=CC[C@@H](C)C(=O)CC
REMARK SMILES IDX 4 1 5 2 6 3 7 4 8 5 9 6 3 7 2 8 1 9
REMARK H PARENT
REMARK Flexibility Score: inf
ROOT
ATOM      1  C   UNL     1     178.311 183.807 195.079  1.00  0.00     0.057 C 
ATOM      2  C   UNL     1     178.360 182.735 193.982  1.00  0.00     0.016 C 
ENDROOT
BRANCH   1   3
ATOM      3  C   UNL     1     179.178 184.992 194.705  1.00  0.00     0.135 C 
ATOM      4  O   UNL     1     179.062 186.035 195.334  1.00  0.00    -0.299 OA
BRANCH   3   5
ATOM      5  C   UNL     1     180.200 184.920 193.597  1.00  0.00     0.072 C 
ATOM      6  C   UNL     1     181.211 186.055 193.713  1.00  0.00     0.012 C 
ENDBRANCH   3   5
ENDBRANCH   1   3
BRANCH   1   7
ATOM      7  C   UNL     1     176.866 184.261 195.379  1.00  0.00     0.038 C 
BRANCH   7   8
ATOM      8  C   UNL     1     176.482 184.034 196.818  1.00  0.00    -0.034 C 
ATOM      9  C   UNL     1     176.953 184.804 197.803  1.00  0.00     0.004 C 
ENDBRANCH   7   8
ENDBRANCH   1   7
TORSDOF 4
ENDMDL
MODEL 4
REMARK VINA RESULT:    -4.291     15.842     17.313
REMARK INTER + INTRA:          -5.467
REMARK INTER:                  -5.262
REMARK INTRA:                  -0.205
REMARK UNBOUND:                -0.173
REMARK SMILES C=CC[C@@H](C)C(=O)CC
REMARK SMILES IDX 4 1 5 2 6 3 7 4 8 5 9 6 3 7 2 8 1 9
REMARK H PARENT
REMARK Flexibility Score: inf
ROOT
ATOM      1  C   UNL     1     194.376 188.968 195.030  1.00  0.00     0.057 C 
ATOM      2  C   UNL     1     194.396 190.018 193.910  1.00  0.00     0.016 C 
ENDROOT
BRANCH   1   3
ATOM      3  C   UNL     1     193.538 187.773 194.626  1.00  0.00     0.135 C 
ATOM      4  O   UNL     1     193.717 186.703 195.191  1.00  0.00    -0.299 OA
BRANCH   3   5
ATOM      5  C   UNL     1     192.469 187.866 193.565  1.00  0.00     0.072 C 
ATOM      6  C   UNL     1     191.504 186.688 193.660  1.00  0.00     0.012 C 
ENDBRANCH   3   5
ENDBRANCH   1   3
BRANCH   1   7
ATOM      7  C   UNL     1     195.800 188.526 195.432  1.00  0.00     0.038 C 
BRANCH   7   8
ATOM      8  C   UNL     1     196.080 188.759 196.893  1.00  0.00    -0.034 C 
ATOM      9  C   UNL     1     195.837 187.824 197.816  1.00  0.00     0.004 C 
ENDBRANCH   7   8
ENDBRANCH   1   7
TORSDOF 4
ENDMDL
MODEL 5
REMARK VINA RESULT:    -4.189     16.394     17.647
REMARK INTER + INTRA:          -5.342
REMARK INTER:                  -5.165
REMARK INTRA:                  -0.176
REMARK UNBOUND:                -0.173
REMARK SMILES C=CC[C@@H](C)C(=O)CC
REMARK SMILES IDX 4 1 5 2 6 3 7 4 8 5 9 6 3 7 2 8 1 9
REMARK H PARENT
REMARK Flexibility Score: inf
ROOT
ATOM      1  C   UNL     1     193.782 188.671 194.869  1.00  0.00     0.057 C 
ATOM      2  C   UNL     1     193.170 187.344 194.397  1.00  0.00     0.016 C 
ENDROOT
BRANCH   1   3
ATOM      3  C   UNL     1     195.029 188.419 195.691  1.00  0.00     0.135 C 
ATOM      4  O   UNL     1     196.124 188.634 195.191  1.00  0.00    -0.299 OA
BRANCH   3   5
ATOM      5  C   UNL     1     194.964 187.935 197.119  1.00  0.00     0.072 C 
ATOM      6  C   UNL     1     196.023 188.622 197.976  1.00  0.00     0.012 C 
ENDBRANCH   3   5
ENDBRANCH   1   3
BRANCH   1   7
ATOM      7  C   UNL     1     194.088 189.617 193.688  1.00  0.00     0.038 C 
BRANCH   7   8
ATOM      8  C   UNL     1     193.969 188.926 192.355  1.00  0.00    -0.034 C 
ATOM      9  C   UNL     1     194.105 189.589 191.203  1.00  0.00     0.004 C 
ENDBRANCH   7   8
ENDBRANCH   1   7
TORSDOF 4
ENDMDL
MODEL 6
REMARK VINA RESULT:    -3.499     15.739     17.015
REMARK INTER + INTRA:          -4.490
REMARK INTER:                  -4.300
REMARK INTRA:                  -0.190
REMARK UNBOUND:                -0.173
REMARK SMILES C=CC[C@@H](C)C(=O)CC
REMARK SMILES IDX 4 1 5 2 6 3 7 4 8 5 9 6 3 7 2 8 1 9
REMARK H PARENT
REMARK Flexibility Score: inf
ROOT
ATOM      1  C   UNL     1     194.197 188.202 194.069  1.00  0.00     0.057 C 
ATOM      2  C   UNL     1     194.258 189.403 193.115  1.00  0.00     0.016 C 
ENDROOT
BRANCH   1   3
ATOM      3  C   UNL     1     195.062 188.446 195.288  1.00  0.00     0.135 C 
ATOM      4  O   UNL     1     196.124 189.037 195.154  1.00  0.00    -0.299 OA
BRANCH   3   5
ATOM      5  C   UNL     1     194.644 188.004 196.669  1.00  0.00     0.072 C 
ATOM      6  C   UNL     1     195.763 188.240 197.679  1.00  0.00     0.012 C 
ENDBRANCH   3   5
ENDBRANCH   1   3
BRANCH   1   7
ATOM      7  C   UNL     1     192.749 187.868 194.485  1.00  0.00     0.038 C 
BRANCH   7   8
ATOM      8  C   UNL     1     192.304 186.520 193.979  1.00  0.00    -0.034 C 
ATOM      9  C   UNL     1     191.039 186.284 193.622  1.00  0.00     0.004 C 
ENDBRANCH   7   8
ENDBRANCH   1   7
TORSDOF 4
ENDMDL
MODEL 7
REMARK VINA RESULT:    -3.386     10.554     11.117
REMARK INTER + INTRA:          -4.351
REMARK INTER:                  -3.956
REMARK INTRA:                  -0.396
REMARK UNBOUND:                -0.173
REMARK SMILES C=CC[C@@H](C)C(=O)CC
REMARK SMILES IDX 4 1 5 2 6 3 7 4 8 5 9 6 3 7 2 8 1 9
REMARK H PARENT
REMARK Flexibility Score: inf
ROOT
ATOM      1  C   UNL     1     184.911 178.458 198.751  1.00  0.00     0.057 C 
ATOM      2  C   UNL     1     185.169 177.293 197.786  1.00  0.00     0.016 C 
ENDROOT
BRANCH   1   3
ATOM      3  C   UNL     1     184.068 178.002 199.924  1.00  0.00     0.135 C 
ATOM      4  O   UNL     1     183.607 178.840 200.687  1.00  0.00    -0.299 OA
BRANCH   3   5
ATOM      5  C   UNL     1     183.756 176.546 200.169  1.00  0.00     0.072 C 
ATOM      6  C   UNL     1     184.281 176.097 201.529  1.00  0.00     0.012 C 
ENDBRANCH   3   5
ENDBRANCH   1   3
BRANCH   1   7
ATOM      7  C   UNL     1     186.224 179.104 199.241  1.00  0.00     0.038 C 
BRANCH   7   8
ATOM      8  C   UNL     1     187.098 178.129 199.986  1.00  0.00    -0.034 C 
ATOM      9  C   UNL     1     188.181 178.525 200.661  1.00  0.00     0.004 C 
ENDBRANCH   7   8
ENDBRANCH   1   7
TORSDOF 4
ENDMDL
MODEL 8
REMARK VINA RESULT:    -3.386      9.950     10.584
REMARK INTER + INTRA:          -4.350
REMARK INTER:                  -4.019
REMARK INTRA:                  -0.332
REMARK UNBOUND:                -0.173
REMARK SMILES C=CC[C@@H](C)C(=O)CC
REMARK SMILES IDX 4 1 5 2 6 3 7 4 8 5 9 6 3 7 2 8 1 9
REMARK H PARENT
REMARK Flexibility Score: inf
ROOT
ATOM      1  C   UNL     1     183.686 176.672 199.904  1.00  0.00     0.057 C 
ATOM      2  C   UNL     1     184.240 175.938 201.133  1.00  0.00     0.016 C 
ENDROOT
BRANCH   1   3
ATOM      3  C   UNL     1     184.104 178.128 199.920  1.00  0.00     0.135 C 
ATOM      4  O   UNL     1     183.553 178.895 200.698  1.00  0.00    -0.299 OA
BRANCH   3   5
ATOM      5  C   UNL     1     185.196 178.659 199.024  1.00  0.00     0.072 C 
ATOM      6  C   UNL     1     186.453 178.977 199.827  1.00  0.00     0.012 C 
ENDBRANCH   3   5
ENDBRANCH   1   3
BRANCH   1   7
ATOM      7  C   UNL     1     184.117 175.995 198.585  1.00  0.00     0.038 C 
BRANCH   7   8
ATOM      8  C   UNL     1     183.080 176.140 197.502  1.00  0.00    -0.034 C 
ATOM      9  C   UNL     1     181.773 176.180 197.779  1.00  0.00     0.004 C 
ENDBRANCH   7   8
ENDBRANCH   1   7
TORSDOF 4
ENDMDL
MODEL 9
REMARK VINA RESULT:    -3.347     10.436     10.878
REMARK INTER + INTRA:          -4.302
REMARK INTER:                  -3.791
REMARK INTRA:                  -0.511
REMARK UNBOUND:                -0.173
REMARK SMILES C=CC[C@@H](C)C(=O)CC
REMARK SMILES IDX 4 1 5 2 6 3 7 4 8 5 9 6 3 7 2 8 1 9
REMARK H PARENT
REMARK Flexibility Score: inf
ROOT
ATOM      1  C   UNL     1     183.387 177.413 198.700  1.00  0.00     0.057 C 
ATOM      2  C   UNL     1     182.610 176.118 198.426  1.00  0.00     0.016 C 
ENDROOT
BRANCH   1   3
ATOM      3  C   UNL     1     183.774 177.502 200.162  1.00  0.00     0.135 C 
ATOM      4  O   UNL     1     184.176 178.569 200.606  1.00  0.00    -0.299 OA
BRANCH   3   5
ATOM      5  C   UNL     1     183.656 176.323 201.096  1.00  0.00     0.072 C 
ATOM      6  C   UNL     1     185.030 175.875 201.585  1.00  0.00     0.012 C 
ENDBRANCH   3   5
ENDBRANCH   1   3
BRANCH   1   7
ATOM      7  C   UNL     1     184.632 177.542 197.797  1.00  0.00     0.038 C 
BRANCH   7   8
ATOM      8  C   UNL     1     185.345 176.228 197.615  1.00  0.00    -0.034 C 
ATOM      9  C   UNL     1     186.525 175.980 198.193  1.00  0.00     0.004 C 
ENDBRANCH   7   8
ENDBRANCH   1   7
TORSDOF 4
ENDMDL
