MODEL 1
REMARK VINA RESULT:    -6.449      0.000      0.000
REMARK INTER + INTRA:          -8.395
REMARK INTER:                  -7.769
REMARK INTRA:                  -0.626
REMARK UNBOUND:                -0.626
REMARK SMILES O=c1ccn([C@@H]2O[C@@H](CO)[C@@H](O)[C@H]2O)c(=O)[nH]1
REMARK SMILES IDX 6 1 13 2 11 3 8 4 7 5 5 6 3 7 4 8 2 9 17 10 1 11 15 12 16 14
REMARK SMILES IDX 14 15 12 17 9 19 10 20
REMARK H PARENT 17 13 14 16 12 18 10 21
REMARK Flexibility Score: inf
ROOT
ATOM      1  C   UNL     1     -46.292  26.473 -17.039  1.00  0.00     0.255 C 
ATOM      2  C   UNL     1     -45.907  27.005 -15.663  1.00  0.00     0.196 C 
ATOM      3  C   UNL     1     -47.251  27.317 -15.057  1.00  0.00     0.179 C 
ATOM      4  C   UNL     1     -48.058  27.714 -16.302  1.00  0.00     0.178 C 
ATOM      5  O   UNL     1     -47.522  27.049 -17.428  1.00  0.00    -0.347 OA
ENDROOT
BRANCH   1   6
ATOM      6  N   UNL     1     -45.238  26.750 -18.037  1.00  0.00    -0.271 N 
ATOM      7  C   UNL     1     -43.643  28.288 -18.956  1.00  0.00     0.090 A 
ATOM      8  C   UNL     1     -44.628  27.974 -18.024  1.00  0.00     0.099 A 
ATOM      9  C   UNL     1     -43.298  27.337 -19.909  1.00  0.00     0.253 A 
ATOM     10  N   UNL     1     -43.927  26.132 -19.918  1.00  0.00    -0.274 N 
ATOM     11  O   UNL     1     -42.410  27.593 -20.764  1.00  0.00    -0.269 OA
ATOM     12  C   UNL     1     -44.891  25.833 -19.003  1.00  0.00     0.330 A 
ATOM     13  H   UNL     1     -43.669  25.425 -20.643  1.00  0.00     0.175 HD
ATOM     14  O   UNL     1     -45.462  24.711 -19.059  1.00  0.00    -0.248 OA
ENDBRANCH   1   6
BRANCH   2  15
ATOM     15  O   UNL     1     -45.199  26.041 -14.928  1.00  0.00    -0.386 OA
ATOM     16  H   UNL     1     -44.847  25.389 -15.588  1.00  0.00     0.211 HD
ENDBRANCH   2  15
BRANCH   3  17
ATOM     17  O   UNL     1     -47.780  26.167 -14.442  1.00  0.00    -0.387 OA
ATOM     18  H   UNL     1     -47.561  26.233 -13.475  1.00  0.00     0.211 HD
ENDBRANCH   3  17
BRANCH   4  19
ATOM     19  C   UNL     1     -49.562  27.433 -16.195  1.00  0.00     0.191 C 
BRANCH  19  20
ATOM     20  O   UNL     1     -49.832  26.114 -16.583  1.00  0.00    -0.394 OA
ATOM     21  H   UNL     1     -49.821  25.576 -15.751  1.00  0.00     0.210 HD
ENDBRANCH  19  20
ENDBRANCH   4  19
TORSDOF 5
ENDMDL
MODEL 2
REMARK VINA RESULT:    -6.440      2.876      6.230
REMARK INTER + INTRA:          -8.384
REMARK INTER:                  -7.704
REMARK INTRA:                  -0.680
REMARK UNBOUND:                -0.626
REMARK SMILES O=c1ccn([C@@H]2O[C@@H](CO)[C@@H](O)[C@H]2O)c(=O)[nH]1
REMARK SMILES IDX 6 1 13 2 11 3 8 4 7 5 5 6 3 7 4 8 2 9 17 10 1 11 15 12 16 14
REMARK SMILES IDX 14 15 12 17 9 19 10 20
REMARK H PARENT 17 13 14 16 12 18 10 21
REMARK Flexibility Score: inf
ROOT
ATOM      1  C   UNL     1     -48.009  26.210 -16.317  1.00  0.00     0.255 C 
ATOM      2  C   UNL     1     -47.994  25.630 -17.726  1.00  0.00     0.196 C 
ATOM      3  C   UNL     1     -46.697  26.164 -18.275  1.00  0.00     0.179 C 
ATOM      4  C   UNL     1     -46.592  27.509 -17.543  1.00  0.00     0.178 C 
ATOM      5  O   UNL     1     -47.270  27.414 -16.307  1.00  0.00    -0.347 OA
ENDROOT
BRANCH   1   6
ATOM      6  N   UNL     1     -49.390  26.432 -15.841  1.00  0.00    -0.271 N 
ATOM      7  C   UNL     1     -51.216  27.950 -15.492  1.00  0.00     0.090 A 
ATOM      8  C   UNL     1     -49.926  27.687 -15.944  1.00  0.00     0.099 A 
ATOM      9  C   UNL     1     -51.947  26.914 -14.922  1.00  0.00     0.253 A 
ATOM     10  N   UNL     1     -51.394  25.677 -14.813  1.00  0.00    -0.274 N 
ATOM     11  O   UNL     1     -53.117  27.122 -14.506  1.00  0.00    -0.269 OA
ATOM     12  C   UNL     1     -50.130  25.430 -15.257  1.00  0.00     0.330 A 
ATOM     13  H   UNL     1     -51.946  24.905 -14.376  1.00  0.00     0.175 HD
ATOM     14  O   UNL     1     -49.648  24.272 -15.118  1.00  0.00    -0.248 OA
ENDBRANCH   1   6
BRANCH   2  15
ATOM     15  O   UNL     1     -48.026  24.226 -17.695  1.00  0.00    -0.386 OA
ATOM     16  H   UNL     1     -47.152  23.918 -18.052  1.00  0.00     0.211 HD
ENDBRANCH   2  15
BRANCH   3  17
ATOM     17  O   UNL     1     -45.638  25.302 -17.932  1.00  0.00    -0.387 OA
ATOM     18  H   UNL     1     -45.142  25.738 -17.190  1.00  0.00     0.211 HD
ENDBRANCH   3  17
BRANCH   4  19
ATOM     19  C   UNL     1     -45.154  27.993 -17.314  1.00  0.00     0.191 C 
BRANCH  19  20
ATOM     20  O   UNL     1     -44.431  27.931 -18.513  1.00  0.00    -0.394 OA
ATOM     21  H   UNL     1     -43.508  28.219 -18.291  1.00  0.00     0.210 HD
ENDBRANCH  19  20
ENDBRANCH   4  19
TORSDOF 5
ENDMDL
MODEL 3
REMARK VINA RESULT:    -6.413      2.339      3.273
REMARK INTER + INTRA:          -8.351
REMARK INTER:                  -7.688
REMARK INTRA:                  -0.664
REMARK UNBOUND:                -0.626
REMARK SMILES O=c1ccn([C@@H]2O[C@@H](CO)[C@@H](O)[C@H]2O)c(=O)[nH]1
REMARK SMILES IDX 6 1 13 2 11 3 8 4 7 5 5 6 3 7 4 8 2 9 17 10 1 11 15 12 16 14
REMARK SMILES IDX 14 15 12 17 9 19 10 20
REMARK H PARENT 17 13 14 16 12 18 10 21
REMARK Flexibility Score: inf
ROOT
ATOM      1  C   UNL     1     -48.852  25.906 -16.532  1.00  0.00     0.255 C 
ATOM      2  C   UNL     1     -48.665  24.750 -15.556  1.00  0.00     0.196 C 
ATOM      3  C   UNL     1     -50.018  24.672 -14.897  1.00  0.00     0.179 C 
ATOM      4  C   UNL     1     -50.453  26.143 -14.926  1.00  0.00     0.178 C 
ATOM      5  O   UNL     1     -49.836  26.783 -16.024  1.00  0.00    -0.347 OA
ENDROOT
BRANCH   1   6
ATOM      6  N   UNL     1     -47.579  26.619 -16.771  1.00  0.00    -0.271 N 
ATOM      7  C   UNL     1     -46.166  28.500 -16.299  1.00  0.00     0.090 A 
ATOM      8  C   UNL     1     -47.342  27.783 -16.093  1.00  0.00     0.099 A 
ATOM      9  C   UNL     1     -45.241  28.015 -17.216  1.00  0.00     0.253 A 
ATOM     10  N   UNL     1     -45.501  26.866 -17.893  1.00  0.00    -0.274 N 
ATOM     11  O   UNL     1     -44.169  28.642 -17.422  1.00  0.00    -0.269 OA
ATOM     12  C   UNL     1     -46.655  26.171 -17.686  1.00  0.00     0.330 A 
ATOM     13  H   UNL     1     -44.805  26.512 -18.588  1.00  0.00     0.175 HD
ATOM     14  O   UNL     1     -46.864  25.120 -18.351  1.00  0.00    -0.248 OA
ENDBRANCH   1   6
BRANCH   2  15
ATOM     15  O   UNL     1     -48.330  23.567 -16.233  1.00  0.00    -0.386 OA
ATOM     16  H   UNL     1     -48.931  22.861 -15.880  1.00  0.00     0.211 HD
ENDBRANCH   2  15
BRANCH   3  17
ATOM     17  O   UNL     1     -50.879  23.861 -15.660  1.00  0.00    -0.387 OA
ATOM     18  H   UNL     1     -50.305  23.329 -16.273  1.00  0.00     0.211 HD
ENDBRANCH   3  17
BRANCH   4  19
ATOM     19  C   UNL     1     -51.972  26.352 -14.985  1.00  0.00     0.191 C 
BRANCH  19  20
ATOM     20  O   UNL     1     -52.609  25.503 -14.070  1.00  0.00    -0.394 OA
ATOM     21  H   UNL     1     -51.930  25.285 -13.380  1.00  0.00     0.210 HD
ENDBRANCH  19  20
ENDBRANCH   4  19
TORSDOF 5
ENDMDL
MODEL 4
REMARK VINA RESULT:    -6.009      1.895      2.501
REMARK INTER + INTRA:          -7.864
REMARK INTER:                  -7.432
REMARK INTRA:                  -0.432
REMARK UNBOUND:                -0.626
REMARK SMILES O=c1ccn([C@@H]2O[C@@H](CO)[C@@H](O)[C@H]2O)c(=O)[nH]1
REMARK SMILES IDX 6 1 13 2 11 3 8 4 7 5 5 6 3 7 4 8 2 9 17 10 1 11 15 12 16 14
REMARK SMILES IDX 14 15 12 17 9 19 10 20
REMARK H PARENT 17 13 14 16 12 18 10 21
REMARK Flexibility Score: inf
ROOT
ATOM      1  C   UNL     1     -46.215  27.157 -16.584  1.00  0.00     0.255 C 
ATOM      2  C   UNL     1     -47.366  28.154 -16.528  1.00  0.00     0.196 C 
ATOM      3  C   UNL     1     -48.540  27.264 -16.212  1.00  0.00     0.179 C 
ATOM      4  C   UNL     1     -48.129  25.963 -16.914  1.00  0.00     0.178 C 
ATOM      5  O   UNL     1     -46.718  25.893 -16.964  1.00  0.00    -0.347 OA
ENDROOT
BRANCH   1   6
ATOM      6  N   UNL     1     -45.159  27.608 -17.515  1.00  0.00    -0.271 N 
ATOM      7  C   UNL     1     -44.106  27.418 -19.663  1.00  0.00     0.090 A 
ATOM      8  C   UNL     1     -45.094  27.041 -18.758  1.00  0.00     0.099 A 
ATOM      9  C   UNL     1     -43.177  28.377 -19.274  1.00  0.00     0.253 A 
ATOM     10  N   UNL     1     -43.246  28.918 -18.030  1.00  0.00    -0.274 N 
ATOM     11  O   UNL     1     -42.273  28.739 -20.072  1.00  0.00    -0.269 OA
ATOM     12  C   UNL     1     -44.216  28.541 -17.150  1.00  0.00     0.330 A 
ATOM     13  H   UNL     1     -42.539  29.632 -17.742  1.00  0.00     0.175 HD
ATOM     14  O   UNL     1     -44.231  29.055 -15.999  1.00  0.00    -0.248 OA
ENDBRANCH   1   6
BRANCH   2  15
ATOM     15  O   UNL     1     -47.147  29.124 -15.536  1.00  0.00    -0.386 OA
ATOM     16  H   UNL     1     -46.759  29.913 -15.997  1.00  0.00     0.211 HD
ENDBRANCH   2  15
BRANCH   3  17
ATOM     17  O   UNL     1     -48.650  27.089 -14.819  1.00  0.00    -0.387 OA
ATOM     18  H   UNL     1     -49.486  26.577 -14.659  1.00  0.00     0.211 HD
ENDBRANCH   3  17
BRANCH   4  19
ATOM     19  C   UNL     1     -48.692  24.690 -16.268  1.00  0.00     0.191 C 
BRANCH  19  20
ATOM     20  O   UNL     1     -48.322  23.567 -17.019  1.00  0.00    -0.394 OA
ATOM     21  H   UNL     1     -47.583  23.134 -16.520  1.00  0.00     0.210 HD
ENDBRANCH  19  20
ENDBRANCH   4  19
TORSDOF 5
ENDMDL
MODEL 5
REMARK VINA RESULT:    -5.895      2.725      4.539
REMARK INTER + INTRA:          -7.727
REMARK INTER:                  -7.357
REMARK INTRA:                  -0.370
REMARK UNBOUND:                -0.626
REMARK SMILES O=c1ccn([C@@H]2O[C@@H](CO)[C@@H](O)[C@H]2O)c(=O)[nH]1
REMARK SMILES IDX 6 1 13 2 11 3 8 4 7 5 5 6 3 7 4 8 2 9 17 10 1 11 15 12 16 14
REMARK SMILES IDX 14 15 12 17 9 19 10 20
REMARK H PARENT 17 13 14 16 12 18 10 21
REMARK Flexibility Score: inf
ROOT
ATOM      1  C   UNL     1     -49.439  26.073 -15.069  1.00  0.00     0.255 C 
ATOM      2  C   UNL     1     -50.589  26.628 -15.902  1.00  0.00     0.196 C 
ATOM      3  C   UNL     1     -51.745  25.772 -15.456  1.00  0.00     0.179 C 
ATOM      4  C   UNL     1     -51.036  24.447 -15.144  1.00  0.00     0.178 C 
ATOM      5  O   UNL     1     -49.701  24.717 -14.769  1.00  0.00    -0.347 OA
ENDROOT
BRANCH   1   6
ATOM      6  N   UNL     1     -48.146  26.221 -15.769  1.00  0.00    -0.271 N 
ATOM      7  C   UNL     1     -46.930  26.246 -17.837  1.00  0.00     0.090 A 
ATOM      8  C   UNL     1     -48.126  26.132 -17.134  1.00  0.00     0.099 A 
ATOM      9  C   UNL     1     -45.753  26.441 -17.124  1.00  0.00     0.253 A 
ATOM     10  N   UNL     1     -45.789  26.511 -15.767  1.00  0.00    -0.274 N 
ATOM     11  O   UNL     1     -44.656  26.549 -17.733  1.00  0.00    -0.269 OA
ATOM     12  C   UNL     1     -46.964  26.397 -15.087  1.00  0.00     0.330 A 
ATOM     13  H   UNL     1     -44.899  26.649 -15.237  1.00  0.00     0.175 HD
ATOM     14  O   UNL     1     -46.950  26.448 -13.827  1.00  0.00    -0.248 OA
ENDBRANCH   1   6
BRANCH   2  15
ATOM     15  O   UNL     1     -50.795  27.991 -15.633  1.00  0.00    -0.386 OA
ATOM     16  H   UNL     1     -50.625  28.114 -14.663  1.00  0.00     0.211 HD
ENDBRANCH   2  15
BRANCH   3  17
ATOM     17  O   UNL     1     -52.338  26.326 -14.306  1.00  0.00    -0.387 OA
ATOM     18  H   UNL     1     -52.205  25.672 -13.570  1.00  0.00     0.211 HD
ENDBRANCH   3  17
BRANCH   4  19
ATOM     19  C   UNL     1     -51.722  23.603 -14.061  1.00  0.00     0.191 C 
BRANCH  19  20
ATOM     20  O   UNL     1     -52.110  22.366 -14.592  1.00  0.00    -0.394 OA
ATOM     21  H   UNL     1     -52.898  22.549 -15.166  1.00  0.00     0.210 HD
ENDBRANCH  19  20
ENDBRANCH   4  19
TORSDOF 5
ENDMDL
MODEL 6
REMARK VINA RESULT:    -5.828      2.044      5.563
REMARK INTER + INTRA:          -7.647
REMARK INTER:                  -7.014
REMARK INTRA:                  -0.633
REMARK UNBOUND:                -0.626
REMARK SMILES O=c1ccn([C@@H]2O[C@@H](CO)[C@@H](O)[C@H]2O)c(=O)[nH]1
REMARK SMILES IDX 6 1 13 2 11 3 8 4 7 5 5 6 3 7 4 8 2 9 17 10 1 11 15 12 16 14
REMARK SMILES IDX 14 15 12 17 9 19 10 20
REMARK H PARENT 17 13 14 16 12 18 10 21
REMARK Flexibility Score: inf
ROOT
ATOM      1  C   UNL     1     -46.001  26.499 -17.023  1.00  0.00     0.255 C 
ATOM      2  C   UNL     1     -46.575  26.008 -18.347  1.00  0.00     0.196 C 
ATOM      3  C   UNL     1     -45.392  26.132 -19.270  1.00  0.00     0.179 C 
ATOM      4  C   UNL     1     -44.664  27.341 -18.666  1.00  0.00     0.178 C 
ATOM      5  O   UNL     1     -44.952  27.408 -17.285  1.00  0.00    -0.347 OA
ENDROOT
BRANCH   1   6
ATOM      6  N   UNL     1     -47.045  27.122 -16.182  1.00  0.00    -0.271 N 
ATOM      7  C   UNL     1     -48.100  29.120 -15.375  1.00  0.00     0.090 A 
ATOM      8  C   UNL     1     -47.146  28.486 -16.165  1.00  0.00     0.099 A 
ATOM      9  C   UNL     1     -48.944  28.340 -14.593  1.00  0.00     0.253 A 
ATOM     10  N   UNL     1     -48.819  26.986 -14.609  1.00  0.00    -0.274 N 
ATOM     11  O   UNL     1     -49.817  28.886 -13.868  1.00  0.00    -0.269 OA
ATOM     12  C   UNL     1     -47.881  26.375 -15.385  1.00  0.00     0.330 A 
ATOM     13  H   UNL     1     -49.451  26.407 -14.012  1.00  0.00     0.175 HD
ATOM     14  O   UNL     1     -47.787  25.117 -15.355  1.00  0.00    -0.248 OA
ENDBRANCH   1   6
BRANCH   2  15
ATOM     15  O   UNL     1     -47.035  24.685 -18.239  1.00  0.00    -0.386 OA
ATOM     16  H   UNL     1     -47.932  24.665 -18.663  1.00  0.00     0.211 HD
ENDBRANCH   2  15
BRANCH   3  17
ATOM     17  O   UNL     1     -44.605  24.966 -19.203  1.00  0.00    -0.387 OA
ATOM     18  H   UNL     1     -43.656  25.260 -19.208  1.00  0.00     0.211 HD
ENDBRANCH   3  17
BRANCH   4  19
ATOM     19  C   UNL     1     -43.145  27.337 -18.884  1.00  0.00     0.191 C 
BRANCH  19  20
ATOM     20  O   UNL     1     -42.843  26.812 -20.147  1.00  0.00    -0.394 OA
ATOM     21  H   UNL     1     -43.024  25.839 -20.090  1.00  0.00     0.210 HD
ENDBRANCH  19  20
ENDBRANCH   4  19
TORSDOF 5
ENDMDL
MODEL 7
REMARK VINA RESULT:    -5.823      3.487      6.810
REMARK INTER + INTRA:          -7.641
REMARK INTER:                  -7.010
REMARK INTRA:                  -0.631
REMARK UNBOUND:                -0.626
REMARK SMILES O=c1ccn([C@@H]2O[C@@H](CO)[C@@H](O)[C@H]2O)c(=O)[nH]1
REMARK SMILES IDX 6 1 13 2 11 3 8 4 7 5 5 6 3 7 4 8 2 9 17 10 1 11 15 12 16 14
REMARK SMILES IDX 14 15 12 17 9 19 10 20
REMARK H PARENT 17 13 14 16 12 18 10 21
REMARK Flexibility Score: inf
ROOT
ATOM      1  C   UNL     1     -49.070  26.649 -15.651  1.00  0.00     0.255 C 
ATOM      2  C   UNL     1     -47.914  26.559 -14.661  1.00  0.00     0.196 C 
ATOM      3  C   UNL     1     -46.714  26.621 -15.570  1.00  0.00     0.179 C 
ATOM      4  C   UNL     1     -47.255  25.933 -16.831  1.00  0.00     0.178 C 
ATOM      5  O   UNL     1     -48.654  26.124 -16.894  1.00  0.00    -0.347 OA
ENDROOT
BRANCH   1   6
ATOM      6  N   UNL     1     -50.265  25.939 -15.148  1.00  0.00    -0.271 N 
ATOM      7  C   UNL     1     -51.341  23.859 -14.625  1.00  0.00     0.090 A 
ATOM      8  C   UNL     1     -50.234  24.574 -15.074  1.00  0.00     0.099 A 
ATOM      9  C   UNL     1     -52.485  24.561 -14.263  1.00  0.00     0.253 A 
ATOM     10  N   UNL     1     -52.505  25.916 -14.359  1.00  0.00    -0.274 N 
ATOM     11  O   UNL     1     -53.502  23.941 -13.853  1.00  0.00    -0.269 OA
ATOM     12  C   UNL     1     -51.416  26.607 -14.800  1.00  0.00     0.330 A 
ATOM     13  H   UNL     1     -53.371  26.437 -14.093  1.00  0.00     0.175 HD
ATOM     14  O   UNL     1     -51.484  27.863 -14.892  1.00  0.00    -0.248 OA
ENDBRANCH   1   6
BRANCH   2  15
ATOM     15  O   UNL     1     -47.948  27.623 -13.746  1.00  0.00    -0.386 OA
ATOM     16  H   UNL     1     -48.894  27.922 -13.698  1.00  0.00     0.211 HD
ENDBRANCH   2  15
BRANCH   3  17
ATOM     17  O   UNL     1     -46.369  27.963 -15.820  1.00  0.00    -0.387 OA
ATOM     18  H   UNL     1     -47.055  28.326 -16.440  1.00  0.00     0.211 HD
ENDBRANCH   3  17
BRANCH   4  19
ATOM     19  C   UNL     1     -46.604  26.405 -18.137  1.00  0.00     0.191 C 
BRANCH  19  20
ATOM     20  O   UNL     1     -47.191  27.605 -18.559  1.00  0.00    -0.394 OA
ATOM     21  H   UNL     1     -48.101  27.619 -18.166  1.00  0.00     0.210 HD
ENDBRANCH  19  20
ENDBRANCH   4  19
TORSDOF 5
ENDMDL
MODEL 8
REMARK VINA RESULT:    -5.807      3.431      6.727
REMARK INTER + INTRA:          -7.621
REMARK INTER:                  -7.035
REMARK INTRA:                  -0.586
REMARK UNBOUND:                -0.626
REMARK SMILES O=c1ccn([C@@H]2O[C@@H](CO)[C@@H](O)[C@H]2O)c(=O)[nH]1
REMARK SMILES IDX 6 1 13 2 11 3 8 4 7 5 5 6 3 7 4 8 2 9 17 10 1 11 15 12 16 14
REMARK SMILES IDX 14 15 12 17 9 19 10 20
REMARK H PARENT 17 13 14 16 12 18 10 21
REMARK Flexibility Score: inf
ROOT
ATOM      1  C   UNL     1     -49.050  26.192 -16.505  1.00  0.00     0.255 C 
ATOM      2  C   UNL     1     -49.389  27.394 -17.379  1.00  0.00     0.196 C 
ATOM      3  C   UNL     1     -48.072  28.123 -17.439  1.00  0.00     0.179 C 
ATOM      4  C   UNL     1     -47.476  27.783 -16.066  1.00  0.00     0.178 C 
ATOM      5  O   UNL     1     -47.989  26.537 -15.639  1.00  0.00    -0.347 OA
ENDROOT
BRANCH   1   6
ATOM      6  N   UNL     1     -50.229  25.731 -15.742  1.00  0.00    -0.271 N 
ATOM      7  C   UNL     1     -52.336  26.251 -14.719  1.00  0.00     0.090 A 
ATOM      8  C   UNL     1     -51.216  26.633 -15.452  1.00  0.00     0.099 A 
ATOM      9  C   UNL     1     -52.428  24.936 -14.278  1.00  0.00     0.253 A 
ATOM     10  N   UNL     1     -51.431  24.057 -14.562  1.00  0.00    -0.274 N 
ATOM     11  O   UNL     1     -53.431  24.562 -13.615  1.00  0.00    -0.269 OA
ATOM     12  C   UNL     1     -50.337  24.441 -15.278  1.00  0.00     0.330 A 
ATOM     13  H   UNL     1     -51.503  23.072 -14.219  1.00  0.00     0.175 HD
ATOM     14  O   UNL     1     -49.426  23.598 -15.502  1.00  0.00    -0.248 OA
ENDBRANCH   1   6
BRANCH   2  15
ATOM     15  O   UNL     1     -49.836  26.988 -18.647  1.00  0.00    -0.386 OA
ATOM     16  H   UNL     1     -50.806  26.799 -18.555  1.00  0.00     0.211 HD
ENDBRANCH   2  15
BRANCH   3  17
ATOM     17  O   UNL     1     -47.286  27.610 -18.487  1.00  0.00    -0.387 OA
ATOM     18  H   UNL     1     -47.078  26.667 -18.255  1.00  0.00     0.211 HD
ENDBRANCH   3  17
BRANCH   4  19
ATOM     19  C   UNL     1     -45.943  27.756 -16.032  1.00  0.00     0.191 C 
BRANCH  19  20
ATOM     20  O   UNL     1     -45.478  26.471 -16.341  1.00  0.00    -0.394 OA
ATOM     21  H   UNL     1     -44.970  26.164 -15.547  1.00  0.00     0.210 HD
ENDBRANCH  19  20
ENDBRANCH   4  19
TORSDOF 5
ENDMDL
MODEL 9
REMARK VINA RESULT:    -5.753      2.606      5.859
REMARK INTER + INTRA:          -7.556
REMARK INTER:                  -6.974
REMARK INTRA:                  -0.581
REMARK UNBOUND:                -0.626
REMARK SMILES O=c1ccn([C@@H]2O[C@@H](CO)[C@@H](O)[C@H]2O)c(=O)[nH]1
REMARK SMILES IDX 6 1 13 2 11 3 8 4 7 5 5 6 3 7 4 8 2 9 17 10 1 11 15 12 16 14
REMARK SMILES IDX 14 15 12 17 9 19 10 20
REMARK H PARENT 17 13 14 16 12 18 10 21
REMARK Flexibility Score: inf
ROOT
ATOM      1  C   UNL     1     -47.353  26.940 -16.931  1.00  0.00     0.255 C 
ATOM      2  C   UNL     1     -46.192  26.950 -15.943  1.00  0.00     0.196 C 
ATOM      3  C   UNL     1     -44.998  26.874 -16.859  1.00  0.00     0.179 C 
ATOM      4  C   UNL     1     -45.562  26.046 -18.022  1.00  0.00     0.178 C 
ATOM      5  O   UNL     1     -46.957  26.256 -18.101  1.00  0.00    -0.347 OA
ENDROOT
BRANCH   1   6
ATOM      6  N   UNL     1     -48.559  26.322 -16.338  1.00  0.00    -0.271 N 
ATOM      7  C   UNL     1     -49.534  24.509 -15.106  1.00  0.00     0.090 A 
ATOM      8  C   UNL     1     -48.426  25.139 -15.665  1.00  0.00     0.099 A 
ATOM      9  C   UNL     1     -50.783  25.102 -15.255  1.00  0.00     0.253 A 
ATOM     10  N   UNL     1     -50.899  26.269 -15.941  1.00  0.00    -0.274 N 
ATOM     11  O   UNL     1     -51.803  24.555 -14.759  1.00  0.00    -0.269 OA
ATOM     12  C   UNL     1     -49.809  26.877 -16.486  1.00  0.00     0.330 A 
ATOM     13  H   UNL     1     -51.843  26.704 -16.056  1.00  0.00     0.175 HD
ATOM     14  O   UNL     1     -49.965  27.950 -17.131  1.00  0.00    -0.248 OA
ENDBRANCH   1   6
BRANCH   2  15
ATOM     15  O   UNL     1     -46.199  28.119 -15.166  1.00  0.00    -0.386 OA
ATOM     16  H   UNL     1     -45.672  27.916 -14.350  1.00  0.00     0.211 HD
ENDBRANCH   2  15
BRANCH   3  17
ATOM     17  O   UNL     1     -44.628  28.167 -17.274  1.00  0.00    -0.387 OA
ATOM     18  H   UNL     1     -44.341  28.659 -16.461  1.00  0.00     0.211 HD
ENDBRANCH   3  17
BRANCH   4  19
ATOM     19  C   UNL     1     -44.911  26.339 -19.380  1.00  0.00     0.191 C 
BRANCH  19  20
ATOM     20  O   UNL     1     -43.516  26.277 -19.266  1.00  0.00    -0.394 OA
ATOM     21  H   UNL     1     -43.307  25.361 -18.951  1.00  0.00     0.210 HD
ENDBRANCH  19  20
ENDBRANCH   4  19
TORSDOF 5
ENDMDL
