MODEL 1
REMARK VINA RESULT:    -4.399      0.000      0.000
REMARK INTER + INTRA:          -6.156
REMARK INTER:                  -5.685
REMARK INTRA:                  -0.471
REMARK UNBOUND:                -0.471
REMARK SMILES CCO[C@H]1O[C@@H](CO)[C@H](O)[C@H](O)[C@H]1O
REMARK SMILES IDX 4 1 13 2 11 3 9 4 6 5 5 6 3 7 2 8 1 9 14 10 12 12 7 14 8 15
REMARK SMILES IDX 10 17
REMARK H PARENT 14 11 12 13 8 16 10 18
REMARK Flexibility Score: inf
ROOT
ATOM      1  C   UNL     1      15.733  27.879  49.251  1.00  0.00     0.281 C 
ATOM      2  C   UNL     1      15.243  27.157  47.980  1.00  0.00     0.202 C 
ATOM      3  C   UNL     1      14.140  26.152  48.328  1.00  0.00     0.179 C 
ATOM      4  C   UNL     1      14.640  25.201  49.419  1.00  0.00     0.177 C 
ATOM      5  C   UNL     1      15.199  25.990  50.628  1.00  0.00     0.178 C 
ATOM      6  O   UNL     1      16.164  26.974  50.263  1.00  0.00    -0.341 OA
ENDROOT
BRANCH   1   7
ATOM      7  O   UNL     1      14.732  28.758  49.734  1.00  0.00    -0.350 OA
BRANCH   7   8
ATOM      8  C   UNL     1      15.320  29.928  50.266  1.00  0.00     0.160 C 
ATOM      9  C   UNL     1      14.271  30.695  51.057  1.00  0.00     0.035 C 
ENDBRANCH   7   8
ENDBRANCH   1   7
BRANCH   2  10
ATOM     10  O   UNL     1      14.750  28.093  47.055  1.00  0.00    -0.385 OA
ATOM     11  H   UNL     1      14.276  27.579  46.351  1.00  0.00     0.211 HD
ENDBRANCH   2  10
BRANCH   3  12
ATOM     12  O   UNL     1      13.784  25.408  47.190  1.00  0.00    -0.387 OA
ATOM     13  H   UNL     1      14.541  24.795  46.997  1.00  0.00     0.211 HD
ENDBRANCH   3  12
BRANCH   5  14
ATOM     14  C   UNL     1      14.094  26.539  51.555  1.00  0.00     0.191 C 
BRANCH  14  15
ATOM     15  O   UNL     1      14.644  27.369  52.542  1.00  0.00    -0.394 OA
ATOM     16  H   UNL     1      14.997  28.171  52.076  1.00  0.00     0.210 HD
ENDBRANCH  14  15
ENDBRANCH   5  14
BRANCH   4  17
ATOM     17  O   UNL     1      15.645  24.370  48.891  1.00  0.00    -0.387 OA
ATOM     18  H   UNL     1      15.188  23.591  48.478  1.00  0.00     0.211 HD
ENDBRANCH   4  17
TORSDOF 7
ENDMDL
MODEL 2
REMARK VINA RESULT:    -4.390      2.051      4.056
REMARK INTER + INTRA:          -6.145
REMARK INTER:                  -5.864
REMARK INTRA:                  -0.281
REMARK UNBOUND:                -0.471
REMARK SMILES CCO[C@H]1O[C@@H](CO)[C@H](O)[C@H](O)[C@H]1O
REMARK SMILES IDX 4 1 13 2 11 3 9 4 6 5 5 6 3 7 2 8 1 9 14 10 12 12 7 14 8 15
REMARK SMILES IDX 10 17
REMARK H PARENT 14 11 12 13 8 16 10 18
REMARK Flexibility Score: inf
ROOT
ATOM      1  C   UNL     1      14.720  27.034  51.789  1.00  0.00     0.281 C 
ATOM      2  C   UNL     1      14.880  26.126  53.024  1.00  0.00     0.202 C 
ATOM      3  C   UNL     1      15.371  24.736  52.606  1.00  0.00     0.179 C 
ATOM      4  C   UNL     1      14.433  24.162  51.541  1.00  0.00     0.177 C 
ATOM      5  C   UNL     1      14.246  25.159  50.372  1.00  0.00     0.178 C 
ATOM      6  O   UNL     1      13.869  26.466  50.799  1.00  0.00    -0.341 OA
ENDROOT
BRANCH   1   7
ATOM      7  O   UNL     1      15.990  27.364  51.254  1.00  0.00    -0.350 OA
BRANCH   7   8
ATOM      8  C   UNL     1      15.970  28.665  50.704  1.00  0.00     0.160 C 
ATOM      9  C   UNL     1      15.309  29.613  51.693  1.00  0.00     0.035 C 
ENDBRANCH   7   8
ENDBRANCH   1   7
BRANCH   2  10
ATOM     10  O   UNL     1      15.797  26.695  53.925  1.00  0.00    -0.385 OA
ATOM     11  H   UNL     1      16.592  26.962  53.395  1.00  0.00     0.211 HD
ENDBRANCH   2  10
BRANCH   3  12
ATOM     12  O   UNL     1      15.394  23.875  53.717  1.00  0.00    -0.387 OA
ATOM     13  H   UNL     1      16.110  23.206  53.550  1.00  0.00     0.211 HD
ENDBRANCH   3  12
BRANCH   5  14
ATOM     14  C   UNL     1      15.434  25.163  49.385  1.00  0.00     0.191 C 
BRANCH  14  15
ATOM     15  O   UNL     1      15.049  24.627  48.147  1.00  0.00    -0.394 OA
ATOM     16  H   UNL     1      15.698  23.907  47.934  1.00  0.00     0.210 HD
ENDBRANCH  14  15
ENDBRANCH   5  14
BRANCH   4  17
ATOM     17  O   UNL     1      13.184  23.875  52.121  1.00  0.00    -0.387 OA
ATOM     18  H   UNL     1      12.978  22.927  51.910  1.00  0.00     0.211 HD
ENDBRANCH   4  17
TORSDOF 7
ENDMDL
MODEL 3
REMARK VINA RESULT:    -4.337      2.550      3.784
REMARK INTER + INTRA:          -6.076
REMARK INTER:                  -5.614
REMARK INTRA:                  -0.462
REMARK UNBOUND:                -0.471
REMARK SMILES CCO[C@H]1O[C@@H](CO)[C@H](O)[C@H](O)[C@H]1O
REMARK SMILES IDX 4 1 13 2 11 3 9 4 6 5 5 6 3 7 2 8 1 9 14 10 12 12 7 14 8 15
REMARK SMILES IDX 10 17
REMARK H PARENT 14 11 12 13 8 16 10 18
REMARK Flexibility Score: inf
ROOT
ATOM      1  C   UNL     1      15.034  26.983  51.220  1.00  0.00     0.281 C 
ATOM      2  C   UNL     1      14.513  25.766  52.009  1.00  0.00     0.202 C 
ATOM      3  C   UNL     1      15.540  25.330  53.059  1.00  0.00     0.179 C 
ATOM      4  C   UNL     1      16.892  25.088  52.381  1.00  0.00     0.177 C 
ATOM      5  C   UNL     1      17.314  26.313  51.535  1.00  0.00     0.178 C 
ATOM      6  O   UNL     1      16.306  26.746  50.625  1.00  0.00    -0.341 OA
ENDROOT
BRANCH   1   7
ATOM      7  O   UNL     1      15.055  28.134  52.048  1.00  0.00    -0.350 OA
BRANCH   7   8
ATOM      8  C   UNL     1      14.521  29.246  51.359  1.00  0.00     0.160 C 
ATOM      9  C   UNL     1      15.306  30.492  51.741  1.00  0.00     0.035 C 
ENDBRANCH   7   8
ENDBRANCH   1   7
BRANCH   2  10
ATOM     10  O   UNL     1      13.301  26.088  52.645  1.00  0.00    -0.385 OA
ATOM     11  H   UNL     1      12.891  25.231  52.931  1.00  0.00     0.211 HD
ENDBRANCH   2  10
BRANCH   3  12
ATOM     12  O   UNL     1      15.118  24.147  53.689  1.00  0.00    -0.387 OA
ATOM     13  H   UNL     1      15.879  23.510  53.650  1.00  0.00     0.211 HD
ENDBRANCH   3  12
BRANCH   5  14
ATOM     14  C   UNL     1      17.898  27.462  52.385  1.00  0.00     0.191 C 
BRANCH  14  15
ATOM     15  O   UNL     1      18.153  28.587  51.586  1.00  0.00    -0.394 OA
ATOM     16  H   UNL     1      17.302  28.806  51.123  1.00  0.00     0.210 HD
ENDBRANCH  14  15
ENDBRANCH   5  14
BRANCH   4  17
ATOM     17  O   UNL     1      16.806  23.951  51.557  1.00  0.00    -0.387 OA
ATOM     18  H   UNL     1      17.722  23.768  51.220  1.00  0.00     0.211 HD
ENDBRANCH   4  17
TORSDOF 7
ENDMDL
MODEL 4
REMARK VINA RESULT:    -4.330      2.182      4.478
REMARK INTER + INTRA:          -6.067
REMARK INTER:                  -5.561
REMARK INTRA:                  -0.506
REMARK UNBOUND:                -0.471
REMARK SMILES CCO[C@H]1O[C@@H](CO)[C@H](O)[C@H](O)[C@H]1O
REMARK SMILES IDX 4 1 13 2 11 3 9 4 6 5 5 6 3 7 2 8 1 9 14 10 12 12 7 14 8 15
REMARK SMILES IDX 10 17
REMARK H PARENT 14 11 12 13 8 16 10 18
REMARK Flexibility Score: inf
ROOT
ATOM      1  C   UNL     1      14.860  26.669  51.032  1.00  0.00     0.281 C 
ATOM      2  C   UNL     1      15.719  27.945  50.940  1.00  0.00     0.202 C 
ATOM      3  C   UNL     1      16.770  27.964  52.055  1.00  0.00     0.179 C 
ATOM      4  C   UNL     1      16.080  27.786  53.411  1.00  0.00     0.177 C 
ATOM      5  C   UNL     1      15.166  26.537  53.407  1.00  0.00     0.178 C 
ATOM      6  O   UNL     1      14.254  26.508  52.311  1.00  0.00    -0.341 OA
ENDROOT
BRANCH   1   7
ATOM      7  O   UNL     1      15.628  25.533  50.676  1.00  0.00    -0.350 OA
BRANCH   7   8
ATOM      8  C   UNL     1      14.838  24.611  49.952  1.00  0.00     0.160 C 
ATOM      9  C   UNL     1      14.227  25.316  48.751  1.00  0.00     0.035 C 
ENDBRANCH   7   8
ENDBRANCH   1   7
BRANCH   2  10
ATOM     10  O   UNL     1      16.360  28.005  49.691  1.00  0.00    -0.385 OA
ATOM     11  H   UNL     1      17.336  28.033  49.869  1.00  0.00     0.211 HD
ENDBRANCH   2  10
BRANCH   3  12
ATOM     12  O   UNL     1      17.466  29.185  52.045  1.00  0.00    -0.387 OA
ATOM     13  H   UNL     1      18.359  29.006  51.647  1.00  0.00     0.211 HD
ENDBRANCH   3  12
BRANCH   5  14
ATOM     14  C   UNL     1      15.945  25.217  53.583  1.00  0.00     0.191 C 
BRANCH  14  15
ATOM     15  O   UNL     1      15.085  24.115  53.467  1.00  0.00    -0.394 OA
ATOM     16  H   UNL     1      14.191  24.419  53.775  1.00  0.00     0.210 HD
ENDBRANCH  14  15
ENDBRANCH   5  14
BRANCH   4  17
ATOM     17  O   UNL     1      15.316  28.931  53.701  1.00  0.00    -0.387 OA
ATOM     18  H   UNL     1      15.956  29.663  53.902  1.00  0.00     0.211 HD
ENDBRANCH   4  17
TORSDOF 7
ENDMDL
MODEL 5
REMARK VINA RESULT:    -4.299      2.009      2.808
REMARK INTER + INTRA:          -6.027
REMARK INTER:                  -5.592
REMARK INTRA:                  -0.435
REMARK UNBOUND:                -0.471
REMARK SMILES CCO[C@H]1O[C@@H](CO)[C@H](O)[C@H](O)[C@H]1O
REMARK SMILES IDX 4 1 13 2 11 3 9 4 6 5 5 6 3 7 2 8 1 9 14 10 12 12 7 14 8 15
REMARK SMILES IDX 10 17
REMARK H PARENT 14 11 12 13 8 16 10 18
REMARK Flexibility Score: inf
ROOT
ATOM      1  C   UNL     1      16.059  26.616  51.436  1.00  0.00     0.281 C 
ATOM      2  C   UNL     1      15.482  27.094  50.089  1.00  0.00     0.202 C 
ATOM      3  C   UNL     1      14.310  26.203  49.663  1.00  0.00     0.179 C 
ATOM      4  C   UNL     1      14.759  24.738  49.653  1.00  0.00     0.177 C 
ATOM      5  C   UNL     1      15.409  24.349  51.003  1.00  0.00     0.178 C 
ATOM      6  O   UNL     1      16.440  25.244  51.413  1.00  0.00    -0.341 OA
ENDROOT
BRANCH   1   7
ATOM      7  O   UNL     1      15.144  26.882  52.485  1.00  0.00    -0.350 OA
BRANCH   7   8
ATOM      8  C   UNL     1      15.751  27.687  53.475  1.00  0.00     0.160 C 
ATOM      9  C   UNL     1      15.891  26.878  54.756  1.00  0.00     0.035 C 
ENDBRANCH   7   8
ENDBRANCH   1   7
BRANCH   2  10
ATOM     10  O   UNL     1      15.043  28.425  50.197  1.00  0.00    -0.385 OA
ATOM     11  H   UNL     1      14.088  28.391  50.464  1.00  0.00     0.211 HD
ENDBRANCH   2  10
BRANCH   3  12
ATOM     12  O   UNL     1      13.869  26.562  48.378  1.00  0.00    -0.387 OA
ATOM     13  H   UNL     1      14.454  27.301  48.067  1.00  0.00     0.211 HD
ENDBRANCH   3  12
BRANCH   5  14
ATOM     14  C   UNL     1      14.373  24.069  52.114  1.00  0.00     0.191 C 
BRANCH  14  15
ATOM     15  O   UNL     1      15.012  23.875  53.348  1.00  0.00    -0.394 OA
ATOM     16  H   UNL     1      14.302  23.648  54.003  1.00  0.00     0.210 HD
ENDBRANCH  14  15
ENDBRANCH   5  14
BRANCH   4  17
ATOM     17  O   UNL     1      15.680  24.538  48.610  1.00  0.00    -0.387 OA
ATOM     18  H   UNL     1      16.576  24.779  48.964  1.00  0.00     0.211 HD
ENDBRANCH   4  17
TORSDOF 7
ENDMDL
MODEL 6
REMARK VINA RESULT:    -4.295      2.541      4.619
REMARK INTER + INTRA:          -6.022
REMARK INTER:                  -5.525
REMARK INTRA:                  -0.497
REMARK UNBOUND:                -0.471
REMARK SMILES CCO[C@H]1O[C@@H](CO)[C@H](O)[C@H](O)[C@H]1O
REMARK SMILES IDX 4 1 13 2 11 3 9 4 6 5 5 6 3 7 2 8 1 9 14 10 12 12 7 14 8 15
REMARK SMILES IDX 10 17
REMARK H PARENT 14 11 12 13 8 16 10 18
REMARK Flexibility Score: inf
ROOT
ATOM      1  C   UNL     1      16.427  25.956  52.329  1.00  0.00     0.281 C 
ATOM      2  C   UNL     1      15.261  25.075  52.818  1.00  0.00     0.202 C 
ATOM      3  C   UNL     1      14.307  24.761  51.661  1.00  0.00     0.179 C 
ATOM      4  C   UNL     1      13.853  26.067  51.003  1.00  0.00     0.177 C 
ATOM      5  C   UNL     1      15.069  26.943  50.616  1.00  0.00     0.178 C 
ATOM      6  O   UNL     1      15.981  27.150  51.693  1.00  0.00    -0.341 OA
ENDROOT
BRANCH   1   7
ATOM      7  O   UNL     1      17.287  25.210  51.486  1.00  0.00    -0.350 OA
BRANCH   7   8
ATOM      8  C   UNL     1      18.637  25.535  51.749  1.00  0.00     0.160 C 
ATOM      9  C   UNL     1      18.833  25.667  53.252  1.00  0.00     0.035 C 
ENDBRANCH   7   8
ENDBRANCH   1   7
BRANCH   2  10
ATOM     10  O   UNL     1      15.757  23.875  53.356  1.00  0.00    -0.385 OA
ATOM     11  H   UNL     1      15.134  23.605  54.079  1.00  0.00     0.211 HD
ENDBRANCH   2  10
BRANCH   3  12
ATOM     12  O   UNL     1      13.182  24.065  52.135  1.00  0.00    -0.387 OA
ATOM     13  H   UNL     1      12.568  23.945  51.363  1.00  0.00     0.211 HD
ENDBRANCH   3  12
BRANCH   5  14
ATOM     14  C   UNL     1      15.760  26.479  49.317  1.00  0.00     0.191 C 
BRANCH  14  15
ATOM     15  O   UNL     1      16.932  27.216  49.089  1.00  0.00    -0.394 OA
ATOM     16  H   UNL     1      16.904  27.993  49.706  1.00  0.00     0.210 HD
ENDBRANCH  14  15
ENDBRANCH   5  14
BRANCH   4  17
ATOM     17  O   UNL     1      13.023  26.775  51.890  1.00  0.00    -0.387 OA
ATOM     18  H   UNL     1      12.935  26.220  52.709  1.00  0.00     0.211 HD
ENDBRANCH   4  17
TORSDOF 7
ENDMDL
MODEL 7
REMARK VINA RESULT:    -4.295      8.692     10.058
REMARK INTER + INTRA:          -6.021
REMARK INTER:                  -5.588
REMARK INTRA:                  -0.433
REMARK UNBOUND:                -0.471
REMARK SMILES CCO[C@H]1O[C@@H](CO)[C@H](O)[C@H](O)[C@H]1O
REMARK SMILES IDX 4 1 13 2 11 3 9 4 6 5 5 6 3 7 2 8 1 9 14 10 12 12 7 14 8 15
REMARK SMILES IDX 10 17
REMARK H PARENT 14 11 12 13 8 16 10 18
REMARK Flexibility Score: inf
ROOT
ATOM      1  C   UNL     1      23.441  32.668  53.025  1.00  0.00     0.281 C 
ATOM      2  C   UNL     1      24.578  31.692  52.664  1.00  0.00     0.202 C 
ATOM      3  C   UNL     1      24.003  30.353  52.191  1.00  0.00     0.179 C 
ATOM      4  C   UNL     1      23.040  29.807  53.249  1.00  0.00     0.177 C 
ATOM      5  C   UNL     1      21.978  30.867  53.630  1.00  0.00     0.178 C 
ATOM      6  O   UNL     1      22.541  32.128  53.987  1.00  0.00    -0.341 OA
ENDROOT
BRANCH   1   7
ATOM      7  O   UNL     1      22.760  33.084  51.854  1.00  0.00    -0.350 OA
BRANCH   7   8
ATOM      8  C   UNL     1      22.811  34.491  51.728  1.00  0.00     0.160 C 
ATOM      9  C   UNL     1      21.418  35.060  51.948  1.00  0.00     0.035 C 
ENDBRANCH   7   8
ENDBRANCH   1   7
BRANCH   2  10
ATOM     10  O   UNL     1      25.381  32.241  51.650  1.00  0.00    -0.385 OA
ATOM     11  H   UNL     1      25.834  33.033  52.040  1.00  0.00     0.211 HD
ENDBRANCH   2  10
BRANCH   3  12
ATOM     12  O   UNL     1      25.038  29.426  51.984  1.00  0.00    -0.387 OA
ATOM     13  H   UNL     1      25.680  29.534  52.735  1.00  0.00     0.211 HD
ENDBRANCH   3  12
BRANCH   5  14
ATOM     14  C   UNL     1      20.840  30.983  52.593  1.00  0.00     0.191 C 
BRANCH  14  15
ATOM     15  O   UNL     1      20.008  32.072  52.892  1.00  0.00    -0.394 OA
ATOM     16  H   UNL     1      20.323  32.832  52.338  1.00  0.00     0.210 HD
ENDBRANCH  14  15
ENDBRANCH   5  14
BRANCH   4  17
ATOM     17  O   UNL     1      23.765  29.432  54.394  1.00  0.00    -0.387 OA
ATOM     18  H   UNL     1      23.109  29.332  55.133  1.00  0.00     0.211 HD
ENDBRANCH   4  17
TORSDOF 7
ENDMDL
MODEL 8
REMARK VINA RESULT:    -4.254      2.384      3.449
REMARK INTER + INTRA:          -5.969
REMARK INTER:                  -5.486
REMARK INTRA:                  -0.483
REMARK UNBOUND:                -0.471
REMARK SMILES CCO[C@H]1O[C@@H](CO)[C@H](O)[C@H](O)[C@H]1O
REMARK SMILES IDX 4 1 13 2 11 3 9 4 6 5 5 6 3 7 2 8 1 9 14 10 12 12 7 14 8 15
REMARK SMILES IDX 10 17
REMARK H PARENT 14 11 12 13 8 16 10 18
REMARK Flexibility Score: inf
ROOT
ATOM      1  C   UNL     1      17.060  25.452  51.532  1.00  0.00     0.281 C 
ATOM      2  C   UNL     1      17.585  26.157  50.265  1.00  0.00     0.202 C 
ATOM      3  C   UNL     1      16.418  26.699  49.433  1.00  0.00     0.179 C 
ATOM      4  C   UNL     1      15.430  25.566  49.139  1.00  0.00     0.177 C 
ATOM      5  C   UNL     1      15.012  24.844  50.443  1.00  0.00     0.178 C 
ATOM      6  O   UNL     1      16.120  24.424  51.236  1.00  0.00    -0.341 OA
ENDROOT
BRANCH   1   7
ATOM      7  O   UNL     1      16.522  26.402  52.436  1.00  0.00    -0.350 OA
BRANCH   7   8
ATOM      8  C   UNL     1      16.918  26.100  53.759  1.00  0.00     0.160 C 
ATOM      9  C   UNL     1      16.034  26.870  54.729  1.00  0.00     0.035 C 
ENDBRANCH   7   8
ENDBRANCH   1   7
BRANCH   2  10
ATOM     10  O   UNL     1      18.437  27.216  50.622  1.00  0.00    -0.385 OA
ATOM     11  H   UNL     1      19.343  26.828  50.740  1.00  0.00     0.211 HD
ENDBRANCH   2  10
BRANCH   3  12
ATOM     12  O   UNL     1      16.891  27.228  48.220  1.00  0.00    -0.387 OA
ATOM     13  H   UNL     1      17.657  27.821  48.442  1.00  0.00     0.211 HD
ENDBRANCH   3  12
BRANCH   5  14
ATOM     14  C   UNL     1      13.948  25.620  51.249  1.00  0.00     0.191 C 
BRANCH  14  15
ATOM     15  O   UNL     1      13.765  25.039  52.513  1.00  0.00    -0.394 OA
ATOM     16  H   UNL     1      14.105  24.108  52.451  1.00  0.00     0.210 HD
ENDBRANCH  14  15
ENDBRANCH   5  14
BRANCH   4  17
ATOM     17  O   UNL     1      16.023  24.644  48.257  1.00  0.00    -0.387 OA
ATOM     18  H   UNL     1      15.647  23.752  48.476  1.00  0.00     0.211 HD
ENDBRANCH   4  17
TORSDOF 7
ENDMDL
MODEL 9
REMARK VINA RESULT:    -4.228      2.301      4.576
REMARK INTER + INTRA:          -5.935
REMARK INTER:                  -5.475
REMARK INTRA:                  -0.461
REMARK UNBOUND:                -0.471
REMARK SMILES CCO[C@H]1O[C@@H](CO)[C@H](O)[C@H](O)[C@H]1O
REMARK SMILES IDX 4 1 13 2 11 3 9 4 6 5 5 6 3 7 2 8 1 9 14 10 12 12 7 14 8 15
REMARK SMILES IDX 10 17
REMARK H PARENT 14 11 12 13 8 16 10 18
REMARK Flexibility Score: inf
ROOT
ATOM      1  C   UNL     1      16.458  26.100  50.697  1.00  0.00     0.281 C 
ATOM      2  C   UNL     1      16.330  25.369  52.047  1.00  0.00     0.202 C 
ATOM      3  C   UNL     1      15.109  24.443  52.041  1.00  0.00     0.179 C 
ATOM      4  C   UNL     1      13.862  25.243  51.656  1.00  0.00     0.177 C 
ATOM      5  C   UNL     1      14.088  26.023  50.338  1.00  0.00     0.178 C 
ATOM      6  O   UNL     1      15.275  26.812  50.345  1.00  0.00    -0.341 OA
ENDROOT
BRANCH   1   7
ATOM      7  O   UNL     1      16.836  25.190  49.679  1.00  0.00    -0.350 OA
BRANCH   7   8
ATOM      8  C   UNL     1      17.676  25.826  48.737  1.00  0.00     0.160 C 
ATOM      9  C   UNL     1      17.699  25.004  47.457  1.00  0.00     0.035 C 
ENDBRANCH   7   8
ENDBRANCH   1   7
BRANCH   2  10
ATOM     10  O   UNL     1      17.489  24.616  52.299  1.00  0.00    -0.385 OA
ATOM     11  H   UNL     1      17.997  25.097  53.002  1.00  0.00     0.211 HD
ENDBRANCH   2  10
BRANCH   3  12
ATOM     12  O   UNL     1      14.923  23.875  53.312  1.00  0.00    -0.387 OA
ATOM     13  H   UNL     1      14.015  24.137  53.617  1.00  0.00     0.211 HD
ENDBRANCH   3  12
BRANCH   5  14
ATOM     14  C   UNL     1      13.957  25.135  49.081  1.00  0.00     0.191 C 
BRANCH  14  15
ATOM     15  O   UNL     1      14.223  25.878  47.921  1.00  0.00    -0.394 OA
ATOM     16  H   UNL     1      13.426  25.787  47.336  1.00  0.00     0.210 HD
ENDBRANCH  14  15
ENDBRANCH   5  14
BRANCH   4  17
ATOM     17  O   UNL     1      13.546  26.144  52.689  1.00  0.00    -0.387 OA
ATOM     18  H   UNL     1      12.614  26.449  52.533  1.00  0.00     0.211 HD
ENDBRANCH   4  17
TORSDOF 7
ENDMDL
