MODEL 1
REMARK VINA RESULT:    -3.559      0.000      0.000
REMARK INTER + INTRA:          -3.985
REMARK INTER:                  -3.975
REMARK INTRA:                  -0.010
REMARK UNBOUND:                -0.010
REMARK SMILES CCCC(=O)[O-]
REMARK SMILES IDX 3 1 4 2 5 3 6 4 2 5 1 6
REMARK H PARENT
REMARK Flexibility Score: inf
ROOT
ATOM      1  C   UNL     1      95.430 124.035 124.221  1.00  0.00     0.052 C 
ENDROOT
BRANCH   1   2
ATOM      2  C   UNL     1      96.495 124.313 125.238  1.00  0.00     0.041 C 
ATOM      3  O   UNL     1      96.672 123.522 126.202  1.00  0.00    -0.550 OA
ATOM      4  O   UNL     1      97.270 125.462 125.139  1.00  0.00    -0.550 OA
ENDBRANCH   1   2
BRANCH   1   5
ATOM      5  C   UNL     1      94.305 123.165 124.800  1.00  0.00     0.003 C 
ATOM      6  C   UNL     1      92.986 123.345 124.050  1.00  0.00     0.004 C 
ENDBRANCH   1   5
TORSDOF 2
ENDMDL
MODEL 2
REMARK VINA RESULT:    -3.456      1.191      1.974
REMARK INTER + INTRA:          -3.870
REMARK INTER:                  -3.855
REMARK INTRA:                  -0.015
REMARK UNBOUND:                -0.010
REMARK SMILES CCCC(=O)[O-]
REMARK SMILES IDX 3 1 4 2 5 3 6 4 2 5 1 6
REMARK H PARENT
REMARK Flexibility Score: inf
ROOT
ATOM      1  C   UNL     1      96.427 123.778 125.666  1.00  0.00     0.052 C 
ENDROOT
BRANCH   1   2
ATOM      2  C   UNL     1      97.585 124.664 126.011  1.00  0.00     0.041 C 
ATOM      3  O   UNL     1      97.595 125.866 125.635  1.00  0.00    -0.550 OA
ATOM      4  O   UNL     1      98.667 124.154 126.717  1.00  0.00    -0.550 OA
ENDBRANCH   1   2
BRANCH   1   5
ATOM      5  C   UNL     1      95.811 124.148 124.310  1.00  0.00     0.003 C 
ATOM      6  C   UNL     1      94.340 123.747 124.211  1.00  0.00     0.004 C 
ENDBRANCH   1   5
TORSDOF 2
ENDMDL
MODEL 3
REMARK VINA RESULT:    -3.432      2.030      3.320
REMARK INTER + INTRA:          -3.843
REMARK INTER:                  -3.833
REMARK INTRA:                  -0.010
REMARK UNBOUND:                -0.010
REMARK SMILES CCCC(=O)[O-]
REMARK SMILES IDX 3 1 4 2 5 3 6 4 2 5 1 6
REMARK H PARENT
REMARK Flexibility Score: inf
ROOT
ATOM      1  C   UNL     1      95.954 124.164 124.370  1.00  0.00     0.052 C 
ENDROOT
BRANCH   1   2
ATOM      2  C   UNL     1      94.662 123.481 124.702  1.00  0.00     0.041 C 
ATOM      3  O   UNL     1      94.616 122.629 125.628  1.00  0.00    -0.550 OA
ATOM      4  O   UNL     1      93.517 123.760 123.965  1.00  0.00    -0.550 OA
ENDBRANCH   1   2
BRANCH   1   5
ATOM      5  C   UNL     1      96.864 124.286 125.600  1.00  0.00     0.003 C 
ATOM      6  C   UNL     1      97.663 125.589 125.606  1.00  0.00     0.004 C 
ENDBRANCH   1   5
TORSDOF 2
ENDMDL
MODEL 4
REMARK VINA RESULT:    -3.330      1.983      3.621
REMARK INTER + INTRA:          -3.729
REMARK INTER:                  -3.703
REMARK INTRA:                  -0.025
REMARK UNBOUND:                -0.010
REMARK SMILES CCCC(=O)[O-]
REMARK SMILES IDX 3 1 4 2 5 3 6 4 2 5 1 6
REMARK H PARENT
REMARK Flexibility Score: inf
ROOT
ATOM      1  C   UNL     1      96.212 123.474 125.968  1.00  0.00     0.052 C 
ENDROOT
BRANCH   1   2
ATOM      2  C   UNL     1      95.456 123.885 124.742  1.00  0.00     0.041 C 
ATOM      3  O   UNL     1      95.998 124.633 123.885  1.00  0.00    -0.550 OA
ATOM      4  O   UNL     1      94.142 123.471 124.562  1.00  0.00    -0.550 OA
ENDBRANCH   1   2
BRANCH   1   5
ATOM      5  C   UNL     1      97.457 124.344 126.187  1.00  0.00     0.003 C 
ATOM      6  C   UNL     1      98.689 123.516 126.551  1.00  0.00     0.004 C 
ENDBRANCH   1   5
TORSDOF 2
ENDMDL
MODEL 5
REMARK VINA RESULT:    -3.247     13.541     14.277
REMARK INTER + INTRA:          -3.636
REMARK INTER:                  -3.630
REMARK INTRA:                  -0.006
REMARK UNBOUND:                -0.010
REMARK SMILES CCCC(=O)[O-]
REMARK SMILES IDX 3 1 4 2 5 3 6 4 2 5 1 6
REMARK H PARENT
REMARK Flexibility Score: inf
ROOT
ATOM      1  C   UNL     1      96.809 136.571 118.757  1.00  0.00     0.052 C 
ENDROOT
BRANCH   1   2
ATOM      2  C   UNL     1      97.530 135.986 119.933  1.00  0.00     0.041 C 
ATOM      3  O   UNL     1      98.745 135.668 119.837  1.00  0.00    -0.550 OA
ATOM      4  O   UNL     1      96.851 135.759 121.124  1.00  0.00    -0.550 OA
ENDBRANCH   1   2
BRANCH   1   5
ATOM      5  C   UNL     1      96.501 138.061 118.964  1.00  0.00     0.003 C 
ATOM      6  C   UNL     1      96.475 138.838 117.648  1.00  0.00     0.004 C 
ENDBRANCH   1   5
TORSDOF 2
ENDMDL
MODEL 6
REMARK VINA RESULT:    -3.069      2.761      3.407
REMARK INTER + INTRA:          -3.438
REMARK INTER:                  -3.417
REMARK INTRA:                  -0.021
REMARK UNBOUND:                -0.010
REMARK SMILES CCCC(=O)[O-]
REMARK SMILES IDX 3 1 4 2 5 3 6 4 2 5 1 6
REMARK H PARENT
REMARK Flexibility Score: inf
ROOT
ATOM      1  C   UNL     1      98.262 124.125 126.411  1.00  0.00     0.052 C 
ENDROOT
BRANCH   1   2
ATOM      2  C   UNL     1      99.125 122.904 126.501  1.00  0.00     0.041 C 
ATOM      3  O   UNL     1      98.615 121.788 126.788  1.00  0.00    -0.550 OA
ATOM      4  O   UNL     1     100.496 123.003 126.303  1.00  0.00    -0.550 OA
ENDBRANCH   1   2
BRANCH   1   5
ATOM      5  C   UNL     1      96.819 123.774 126.022  1.00  0.00     0.003 C 
ATOM      6  C   UNL     1      96.407 124.401 124.690  1.00  0.00     0.004 C 
ENDBRANCH   1   5
TORSDOF 2
ENDMDL
MODEL 7
REMARK VINA RESULT:    -3.037     14.803     15.396
REMARK INTER + INTRA:          -3.402
REMARK INTER:                  -3.392
REMARK INTRA:                  -0.010
REMARK UNBOUND:                -0.010
REMARK SMILES CCCC(=O)[O-]
REMARK SMILES IDX 3 1 4 2 5 3 6 4 2 5 1 6
REMARK H PARENT
REMARK Flexibility Score: inf
ROOT
ATOM      1  C   UNL     1      82.948 130.400 131.440  1.00  0.00     0.052 C 
ENDROOT
BRANCH   1   2
ATOM      2  C   UNL     1      83.365 131.743 131.956  1.00  0.00     0.041 C 
ATOM      3  O   UNL     1      84.282 131.835 132.814  1.00  0.00    -0.550 OA
ATOM      4  O   UNL     1      82.717 132.890 131.514  1.00  0.00    -0.550 OA
ENDBRANCH   1   2
BRANCH   1   5
ATOM      5  C   UNL     1      84.149 129.457 131.274  1.00  0.00     0.003 C 
ATOM      6  C   UNL     1      84.090 128.664 129.969  1.00  0.00     0.004 C 
ENDBRANCH   1   5
TORSDOF 2
ENDMDL
MODEL 8
REMARK VINA RESULT:    -3.013      2.412      3.830
REMARK INTER + INTRA:          -3.375
REMARK INTER:                  -3.368
REMARK INTRA:                  -0.007
REMARK UNBOUND:                -0.010
REMARK SMILES CCCC(=O)[O-]
REMARK SMILES IDX 3 1 4 2 5 3 6 4 2 5 1 6
REMARK H PARENT
REMARK Flexibility Score: inf
ROOT
ATOM      1  C   UNL     1      97.354 122.986 126.368  1.00  0.00     0.052 C 
ENDROOT
BRANCH   1   2
ATOM      2  C   UNL     1      96.863 124.225 125.684  1.00  0.00     0.041 C 
ATOM      3  O   UNL     1      95.902 124.161 124.873  1.00  0.00    -0.550 OA
ATOM      4  O   UNL     1      97.490 125.443 125.915  1.00  0.00    -0.550 OA
ENDBRANCH   1   2
BRANCH   1   5
ATOM      5  C   UNL     1      98.884 122.966 126.480  1.00  0.00     0.003 C 
ATOM      6  C   UNL     1      99.448 121.545 126.498  1.00  0.00     0.004 C 
ENDBRANCH   1   5
TORSDOF 2
ENDMDL
MODEL 9
REMARK VINA RESULT:    -2.927      5.146      6.283
REMARK INTER + INTRA:          -3.279
REMARK INTER:                  -3.257
REMARK INTRA:                  -0.023
REMARK UNBOUND:                -0.010
REMARK SMILES CCCC(=O)[O-]
REMARK SMILES IDX 3 1 4 2 5 3 6 4 2 5 1 6
REMARK H PARENT
REMARK Flexibility Score: inf
ROOT
ATOM      1  C   UNL     1     100.004 120.570 126.217  1.00  0.00     0.052 C 
ENDROOT
BRANCH   1   2
ATOM      2  C   UNL     1      99.559 121.979 126.464  1.00  0.00     0.041 C 
ATOM      3  O   UNL     1      98.353 122.225 126.728  1.00  0.00    -0.550 OA
ATOM      4  O   UNL     1     100.470 123.024 126.369  1.00  0.00    -0.550 OA
ENDBRANCH   1   2
BRANCH   1   5
ATOM      5  C   UNL     1     101.527 120.424 126.342  1.00  0.00     0.003 C 
ATOM      6  C   UNL     1     102.125 119.579 125.218  1.00  0.00     0.004 C 
ENDBRANCH   1   5
TORSDOF 2
ENDMDL
