MODEL 1
REMARK VINA RESULT:    -5.838      0.000      0.000
REMARK INTER + INTRA:          -6.737
REMARK INTER:                  -6.521
REMARK INTRA:                  -0.216
REMARK UNBOUND:                -0.216
REMARK SMILES CC(C)c1ccc(C(=O)[O-])cc1
REMARK SMILES IDX 7 1 6 2 11 3 5 4 12 5 4 6 8 7 9 8 10 9 2 10 1 11 3 12
REMARK H PARENT
REMARK Flexibility Score: inf
ROOT
ATOM      1  C   UNL     1      43.115  29.217  -9.322  1.00  0.00    -0.003 A 
ATOM      2  C   UNL     1      43.718  29.095 -10.586  1.00  0.00     0.010 A 
ATOM      3  C   UNL     1      43.418  28.269  -8.330  1.00  0.00     0.010 A 
ATOM      4  C   UNL     1      44.605  28.047 -10.851  1.00  0.00     0.004 A 
ATOM      5  C   UNL     1      44.305  27.222  -8.595  1.00  0.00     0.004 A 
ATOM      6  C   UNL     1      44.908  27.099  -9.857  1.00  0.00    -0.045 A 
ENDROOT
BRANCH   1   7
ATOM      7  C   UNL     1      42.176  30.324  -9.038  1.00  0.00     0.071 C 
ATOM      8  O   UNL     1      42.289  31.006  -7.985  1.00  0.00    -0.545 OA
ATOM      9  O   UNL     1      41.156  30.628  -9.932  1.00  0.00    -0.545 OA
ENDBRANCH   1   7
BRANCH   6  10
ATOM     10  C   UNL     1      45.869  25.956 -10.131  1.00  0.00     0.013 C 
ATOM     11  C   UNL     1      45.608  24.777  -9.187  1.00  0.00     0.012 C 
ATOM     12  C   UNL     1      45.799  25.516 -11.598  1.00  0.00     0.012 C 
ENDBRANCH   6  10
TORSDOF 2
ENDMDL
MODEL 2
REMARK VINA RESULT:    -5.509      2.861      5.076
REMARK INTER + INTRA:          -6.369
REMARK INTER:                  -6.162
REMARK INTRA:                  -0.207
REMARK UNBOUND:                -0.216
REMARK SMILES CC(C)c1ccc(C(=O)[O-])cc1
REMARK SMILES IDX 7 1 6 2 11 3 5 4 12 5 4 6 8 7 9 8 10 9 2 10 1 11 3 12
REMARK H PARENT
REMARK Flexibility Score: inf
ROOT
ATOM      1  C   UNL     1      44.415  27.504  -9.478  1.00  0.00    -0.003 A 
ATOM      2  C   UNL     1      44.107  28.540 -10.377  1.00  0.00     0.010 A 
ATOM      3  C   UNL     1      43.686  27.404  -8.281  1.00  0.00     0.010 A 
ATOM      4  C   UNL     1      43.092  29.455 -10.085  1.00  0.00     0.004 A 
ATOM      5  C   UNL     1      42.671  28.319  -7.989  1.00  0.00     0.004 A 
ATOM      6  C   UNL     1      42.362  29.354  -8.886  1.00  0.00    -0.045 A 
ENDROOT
BRANCH   1   7
ATOM      7  C   UNL     1      45.489  26.533  -9.784  1.00  0.00     0.071 C 
ATOM      8  O   UNL     1      46.365  26.798 -10.648  1.00  0.00    -0.545 OA
ATOM      9  O   UNL     1      45.544  25.314  -9.118  1.00  0.00    -0.545 OA
ENDBRANCH   1   7
BRANCH   6  10
ATOM     10  C   UNL     1      41.257  30.341  -8.556  1.00  0.00     0.013 C 
ATOM     11  C   UNL     1      41.772  31.784  -8.611  1.00  0.00     0.012 C 
ATOM     12  C   UNL     1      40.051  30.150  -9.482  1.00  0.00     0.012 C 
ENDBRANCH   6  10
TORSDOF 2
ENDMDL
MODEL 3
REMARK VINA RESULT:    -5.382      3.245      5.123
REMARK INTER + INTRA:          -6.228
REMARK INTER:                  -6.022
REMARK INTRA:                  -0.206
REMARK UNBOUND:                -0.216
REMARK SMILES CC(C)c1ccc(C(=O)[O-])cc1
REMARK SMILES IDX 7 1 6 2 11 3 5 4 12 5 4 6 8 7 9 8 10 9 2 10 1 11 3 12
REMARK H PARENT
REMARK Flexibility Score: inf
ROOT
ATOM      1  C   UNL     1      45.223  26.799 -10.440  1.00  0.00    -0.003 A 
ATOM      2  C   UNL     1      45.079  27.911 -11.287  1.00  0.00     0.010 A 
ATOM      3  C   UNL     1      44.542  26.788  -9.211  1.00  0.00     0.010 A 
ATOM      4  C   UNL     1      44.270  28.989 -10.913  1.00  0.00     0.004 A 
ATOM      5  C   UNL     1      43.734  27.864  -8.836  1.00  0.00     0.004 A 
ATOM      6  C   UNL     1      43.588  28.976  -9.682  1.00  0.00    -0.045 A 
ENDROOT
BRANCH   1   7
ATOM      7  C   UNL     1      46.077  25.657 -10.833  1.00  0.00     0.071 C 
ATOM      8  O   UNL     1      45.990  25.158 -11.986  1.00  0.00    -0.545 OA
ATOM      9  O   UNL     1      46.991  25.119  -9.933  1.00  0.00    -0.545 OA
ENDBRANCH   1   7
BRANCH   6  10
ATOM     10  C   UNL     1      42.708  30.139  -9.262  1.00  0.00     0.013 C 
ATOM     11  C   UNL     1      41.225  29.751  -9.302  1.00  0.00     0.012 C 
ATOM     12  C   UNL     1      43.104  30.660  -7.876  1.00  0.00     0.012 C 
ENDBRANCH   6  10
TORSDOF 2
ENDMDL
MODEL 4
REMARK VINA RESULT:    -5.353     12.496     13.646
REMARK INTER + INTRA:          -6.196
REMARK INTER:                  -5.981
REMARK INTRA:                  -0.215
REMARK UNBOUND:                -0.216
REMARK SMILES CC(C)c1ccc(C(=O)[O-])cc1
REMARK SMILES IDX 7 1 6 2 11 3 5 4 12 5 4 6 8 7 9 8 10 9 2 10 1 11 3 12
REMARK H PARENT
REMARK Flexibility Score: inf
ROOT
ATOM      1  C   UNL     1      44.152  39.823 -16.456  1.00  0.00    -0.003 A 
ATOM      2  C   UNL     1      43.414  40.295 -15.357  1.00  0.00     0.010 A 
ATOM      3  C   UNL     1      43.572  38.863 -17.302  1.00  0.00     0.010 A 
ATOM      4  C   UNL     1      42.124  39.816 -15.109  1.00  0.00     0.004 A 
ATOM      5  C   UNL     1      42.283  38.384 -17.055  1.00  0.00     0.004 A 
ATOM      6  C   UNL     1      41.544  38.854 -15.957  1.00  0.00    -0.045 A 
ENDROOT
BRANCH   1   7
ATOM      7  C   UNL     1      45.517  40.328 -16.722  1.00  0.00     0.071 C 
ATOM      8  O   UNL     1      46.421  40.219 -15.852  1.00  0.00    -0.545 OA
ATOM      9  O   UNL     1      45.821  40.929 -17.938  1.00  0.00    -0.545 OA
ENDBRANCH   1   7
BRANCH   6  10
ATOM     10  C   UNL     1      40.145  38.325 -15.700  1.00  0.00     0.013 C 
ATOM     11  C   UNL     1      39.896  37.025 -16.474  1.00  0.00     0.012 C 
ATOM     12  C   UNL     1      39.895  38.132 -14.200  1.00  0.00     0.012 C 
ENDBRANCH   6  10
TORSDOF 2
ENDMDL
MODEL 5
REMARK VINA RESULT:    -5.316     12.716     13.148
REMARK INTER + INTRA:          -6.153
REMARK INTER:                  -5.933
REMARK INTRA:                  -0.221
REMARK UNBOUND:                -0.216
REMARK SMILES CC(C)c1ccc(C(=O)[O-])cc1
REMARK SMILES IDX 7 1 6 2 11 3 5 4 12 5 4 6 8 7 9 8 10 9 2 10 1 11 3 12
REMARK H PARENT
REMARK Flexibility Score: inf
ROOT
ATOM      1  C   UNL     1      32.727  28.961 -16.691  1.00  0.00    -0.003 A 
ATOM      2  C   UNL     1      32.825  27.743 -15.995  1.00  0.00     0.010 A 
ATOM      3  C   UNL     1      33.366  29.085 -17.936  1.00  0.00     0.010 A 
ATOM      4  C   UNL     1      33.545  26.673 -16.535  1.00  0.00     0.004 A 
ATOM      5  C   UNL     1      34.086  28.016 -18.476  1.00  0.00     0.004 A 
ATOM      6  C   UNL     1      34.184  26.799 -17.782  1.00  0.00    -0.045 A 
ENDROOT
BRANCH   1   7
ATOM      7  C   UNL     1      31.966  30.095 -16.124  1.00  0.00     0.071 C 
ATOM      8  O   UNL     1      31.880  31.185 -16.748  1.00  0.00    -0.545 OA
ATOM      9  O   UNL     1      31.333  29.971 -14.892  1.00  0.00    -0.545 OA
ENDBRANCH   1   7
BRANCH   6  10
ATOM     10  C   UNL     1      34.970  25.646 -18.379  1.00  0.00     0.013 C 
ATOM     11  C   UNL     1      34.668  24.333 -17.646  1.00  0.00     0.012 C 
ATOM     12  C   UNL     1      34.699  25.513 -19.882  1.00  0.00     0.012 C 
ENDBRANCH   6  10
TORSDOF 2
ENDMDL
MODEL 6
REMARK VINA RESULT:    -5.269      0.923      1.908
REMARK INTER + INTRA:          -6.101
REMARK INTER:                  -5.890
REMARK INTRA:                  -0.212
REMARK UNBOUND:                -0.216
REMARK SMILES CC(C)c1ccc(C(=O)[O-])cc1
REMARK SMILES IDX 7 1 6 2 11 3 5 4 12 5 4 6 8 7 9 8 10 9 2 10 1 11 3 12
REMARK H PARENT
REMARK Flexibility Score: inf
ROOT
ATOM      1  C   UNL     1      42.277  29.554  -8.938  1.00  0.00    -0.003 A 
ATOM      2  C   UNL     1      42.533  28.527  -8.013  1.00  0.00     0.010 A 
ATOM      3  C   UNL     1      43.024  29.600 -10.127  1.00  0.00     0.010 A 
ATOM      4  C   UNL     1      43.516  27.566  -8.274  1.00  0.00     0.004 A 
ATOM      5  C   UNL     1      44.005  28.640 -10.388  1.00  0.00     0.004 A 
ATOM      6  C   UNL     1      44.263  27.613  -9.465  1.00  0.00    -0.045 A 
ENDROOT
BRANCH   1   7
ATOM      7  C   UNL     1      41.238  30.572  -8.667  1.00  0.00     0.071 C 
ATOM      8  O   UNL     1      40.048  30.386  -9.033  1.00  0.00    -0.545 OA
ATOM      9  O   UNL     1      41.564  31.748  -8.001  1.00  0.00    -0.545 OA
ENDBRANCH   1   7
BRANCH   6  10
ATOM     10  C   UNL     1      45.332  26.577  -9.761  1.00  0.00     0.013 C 
ATOM     11  C   UNL     1      45.241  25.397  -8.787  1.00  0.00     0.012 C 
ATOM     12  C   UNL     1      45.251  26.100 -11.216  1.00  0.00     0.012 C 
ENDBRANCH   6  10
TORSDOF 2
ENDMDL
MODEL 7
REMARK VINA RESULT:    -5.255     12.930     13.950
REMARK INTER + INTRA:          -6.085
REMARK INTER:                  -5.864
REMARK INTRA:                  -0.221
REMARK UNBOUND:                -0.216
REMARK SMILES CC(C)c1ccc(C(=O)[O-])cc1
REMARK SMILES IDX 7 1 6 2 11 3 5 4 12 5 4 6 8 7 9 8 10 9 2 10 1 11 3 12
REMARK H PARENT
REMARK Flexibility Score: inf
ROOT
ATOM      1  C   UNL     1      34.208  26.788 -17.715  1.00  0.00    -0.003 A 
ATOM      2  C   UNL     1      33.459  26.746 -16.526  1.00  0.00     0.010 A 
ATOM      3  C   UNL     1      34.331  28.009 -18.399  1.00  0.00     0.010 A 
ATOM      4  C   UNL     1      32.848  27.903 -16.032  1.00  0.00     0.004 A 
ATOM      5  C   UNL     1      33.720  29.165 -17.905  1.00  0.00     0.004 A 
ATOM      6  C   UNL     1      32.972  29.125 -16.717  1.00  0.00    -0.045 A 
ENDROOT
BRANCH   1   7
ATOM      7  C   UNL     1      34.857  25.567 -18.241  1.00  0.00     0.071 C 
ATOM      8  O   UNL     1      35.674  25.636 -19.196  1.00  0.00    -0.545 OA
ATOM      9  O   UNL     1      34.573  24.324 -17.684  1.00  0.00    -0.545 OA
ENDBRANCH   1   7
BRANCH   6  10
ATOM     10  C   UNL     1      32.313  30.388 -16.193  1.00  0.00     0.013 C 
ATOM     11  C   UNL     1      31.732  31.225 -17.339  1.00  0.00     0.012 C 
ATOM     12  C   UNL     1      31.238  30.058 -15.151  1.00  0.00     0.012 C 
ENDBRANCH   6  10
TORSDOF 2
ENDMDL
MODEL 8
REMARK VINA RESULT:    -5.112     12.508     13.370
REMARK INTER + INTRA:          -5.926
REMARK INTER:                  -5.713
REMARK INTRA:                  -0.213
REMARK UNBOUND:                -0.216
REMARK SMILES CC(C)c1ccc(C(=O)[O-])cc1
REMARK SMILES IDX 7 1 6 2 11 3 5 4 12 5 4 6 8 7 9 8 10 9 2 10 1 11 3 12
REMARK H PARENT
REMARK Flexibility Score: inf
ROOT
ATOM      1  C   UNL     1      42.329  39.279 -16.325  1.00  0.00    -0.003 A 
ATOM      2  C   UNL     1      41.280  38.391 -16.622  1.00  0.00     0.010 A 
ATOM      3  C   UNL     1      42.396  39.847 -15.041  1.00  0.00     0.010 A 
ATOM      4  C   UNL     1      40.320  38.078 -15.655  1.00  0.00     0.004 A 
ATOM      5  C   UNL     1      41.436  39.534 -14.075  1.00  0.00     0.004 A 
ATOM      6  C   UNL     1      40.388  38.647 -14.370  1.00  0.00    -0.045 A 
ENDROOT
BRANCH   1   7
ATOM      7  C   UNL     1      43.347  39.612 -17.345  1.00  0.00     0.071 C 
ATOM      8  O   UNL     1      44.490  39.088 -17.304  1.00  0.00    -0.545 OA
ATOM      9  O   UNL     1      43.052  40.511 -18.365  1.00  0.00    -0.545 OA
ENDBRANCH   1   7
BRANCH   6  10
ATOM     10  C   UNL     1      39.353  38.316 -13.310  1.00  0.00     0.013 C 
ATOM     11  C   UNL     1      39.380  39.343 -12.172  1.00  0.00     0.012 C 
ATOM     12  C   UNL     1      37.951  38.209 -13.923  1.00  0.00     0.012 C 
ENDBRANCH   6  10
TORSDOF 2
ENDMDL
MODEL 9
REMARK VINA RESULT:    -5.089     12.440     13.361
REMARK INTER + INTRA:          -5.901
REMARK INTER:                  -5.689
REMARK INTRA:                  -0.211
REMARK UNBOUND:                -0.216
REMARK SMILES CC(C)c1ccc(C(=O)[O-])cc1
REMARK SMILES IDX 7 1 6 2 11 3 5 4 12 5 4 6 8 7 9 8 10 9 2 10 1 11 3 12
REMARK H PARENT
REMARK Flexibility Score: inf
ROOT
ATOM      1  C   UNL     1      41.493  38.824 -15.735  1.00  0.00    -0.003 A 
ATOM      2  C   UNL     1      42.162  39.795 -14.969  1.00  0.00     0.010 A 
ATOM      3  C   UNL     1      42.088  38.367 -16.923  1.00  0.00     0.010 A 
ATOM      4  C   UNL     1      43.400  40.296 -15.383  1.00  0.00     0.004 A 
ATOM      5  C   UNL     1      43.326  38.868 -17.337  1.00  0.00     0.004 A 
ATOM      6  C   UNL     1      43.996  39.837 -16.572  1.00  0.00    -0.045 A 
ENDROOT
BRANCH   1   7
ATOM      7  C   UNL     1      40.183  38.291 -15.301  1.00  0.00     0.071 C 
ATOM      8  O   UNL     1      39.363  37.843 -16.144  1.00  0.00    -0.545 OA
ATOM      9  O   UNL     1      39.842  38.277 -13.953  1.00  0.00    -0.545 OA
ENDBRANCH   1   7
BRANCH   6  10
ATOM     10  C   UNL     1      45.339  40.373 -17.033  1.00  0.00     0.013 C 
ATOM     11  C   UNL     1      46.491  39.686 -16.291  1.00  0.00     0.012 C 
ATOM     12  C   UNL     1      45.498  40.230 -18.551  1.00  0.00     0.012 C 
ENDBRANCH   6  10
TORSDOF 2
ENDMDL
