MODEL 1
REMARK VINA RESULT:     6.206      0.000      0.000
REMARK INTER + INTRA:          10.864
REMARK INTER:                  10.922
REMARK INTRA:                  -0.058
REMARK UNBOUND:                -0.058
REMARK SMILES CCCCCCCCCCCCCCC(=O)[O-]
REMARK SMILES IDX 9 1 10 2 11 3 12 4 13 5 14 6 15 7 16 8 17 9 8 10 7 11 6 12
REMARK SMILES IDX 5 13 4 14 3 15 2 16 1 17
REMARK H PARENT
REMARK Flexibility Score: inf
ROOT
ATOM      1  C   UNL     1       8.363 -28.844 -15.987  1.00  0.00     0.000 C 
ENDROOT
BRANCH   1   2
ATOM      2  C   UNL     1       8.186 -29.584 -14.651  1.00  0.00     0.000 C 
BRANCH   2   3
ATOM      3  C   UNL     1       9.173 -30.751 -14.487  1.00  0.00     0.000 C 
BRANCH   3   4
ATOM      4  C   UNL     1       9.992 -31.020 -15.763  1.00  0.00     0.000 C 
BRANCH   4   5
ATOM      5  C   UNL     1       9.191 -31.785 -16.827  1.00  0.00     0.006 C 
BRANCH   5   6
ATOM      6  C   UNL     1       9.349 -33.306 -16.704  1.00  0.00     0.053 C 
BRANCH   6   7
ATOM      7  C   UNL     1       8.517 -33.828 -15.575  1.00  0.00     0.041 C 
ATOM      8  O   UNL     1       8.906 -33.693 -14.386  1.00  0.00    -0.550 OA
ATOM      9  O   UNL     1       7.285 -34.416 -15.834  1.00  0.00    -0.550 OA
ENDBRANCH   6   7
ENDBRANCH   5   6
ENDBRANCH   4   5
ENDBRANCH   3   4
ENDBRANCH   2   3
ENDBRANCH   1   2
BRANCH   1  10
ATOM     10  C   UNL     1       7.042 -28.264 -16.520  1.00  0.00     0.000 C 
BRANCH  10  11
ATOM     11  C   UNL     1       6.413 -29.141 -17.616  1.00  0.00    -0.000 C 
BRANCH  11  12
ATOM     12  C   UNL     1       6.569 -28.531 -19.019  1.00  0.00    -0.000 C 
BRANCH  12  13
ATOM     13  C   UNL     1       7.769 -29.111 -19.788  1.00  0.00    -0.000 C 
BRANCH  13  14
ATOM     14  C   UNL     1       7.440 -29.425 -21.258  1.00  0.00    -0.000 C 
BRANCH  14  15
ATOM     15  C   UNL     1       6.000 -29.081 -21.689  1.00  0.00    -0.000 C 
BRANCH  15  16
ATOM     16  C   UNL     1       5.875 -28.431 -23.078  1.00  0.00    -0.003 C 
ATOM     17  C   UNL     1       6.434 -27.009 -23.124  1.00  0.00     0.004 C 
ENDBRANCH  15  16
ENDBRANCH  14  15
ENDBRANCH  13  14
ENDBRANCH  12  13
ENDBRANCH  11  12
ENDBRANCH  10  11
ENDBRANCH   1  10
TORSDOF 13
ENDMDL
MODEL 2
REMARK VINA RESULT:     6.868      3.113      4.410
REMARK INTER + INTRA:          12.030
REMARK INTER:                  12.597
REMARK INTRA:                  -0.567
REMARK UNBOUND:                -0.058
REMARK SMILES CCCCCCCCCCCCCCC(=O)[O-]
REMARK SMILES IDX 9 1 10 2 11 3 12 4 13 5 14 6 15 7 16 8 17 9 8 10 7 11 6 12
REMARK SMILES IDX 5 13 4 14 3 15 2 16 1 17
REMARK H PARENT
REMARK Flexibility Score: inf
ROOT
ATOM      1  C   UNL     1       9.414 -31.630 -16.628  1.00  0.00     0.000 C 
ENDROOT
BRANCH   1   2
ATOM      2  C   UNL     1       9.184 -31.595 -15.107  1.00  0.00     0.000 C 
BRANCH   2   3
ATOM      3  C   UNL     1       9.286 -30.175 -14.527  1.00  0.00     0.000 C 
BRANCH   3   4
ATOM      4  C   UNL     1       8.253 -29.913 -13.416  1.00  0.00     0.000 C 
BRANCH   4   5
ATOM      5  C   UNL     1       8.873 -29.955 -12.011  1.00  0.00     0.006 C 
BRANCH   5   6
ATOM      6  C   UNL     1       8.025 -29.216 -10.969  1.00  0.00     0.053 C 
BRANCH   6   7
ATOM      7  C   UNL     1       8.812 -28.995  -9.715  1.00  0.00     0.041 C 
ATOM      8  O   UNL     1       8.963 -29.932  -8.889  1.00  0.00    -0.550 OA
ATOM      9  O   UNL     1       9.423 -27.768  -9.486  1.00  0.00    -0.550 OA
ENDBRANCH   6   7
ENDBRANCH   5   6
ENDBRANCH   4   5
ENDBRANCH   3   4
ENDBRANCH   2   3
ENDBRANCH   1   2
BRANCH   1  10
ATOM     10  C   UNL     1       9.837 -30.264 -17.192  1.00  0.00     0.000 C 
BRANCH  10  11
ATOM     11  C   UNL     1       8.768 -29.651 -18.114  1.00  0.00    -0.000 C 
BRANCH  11  12
ATOM     12  C   UNL     1       7.613 -29.008 -17.329  1.00  0.00    -0.000 C 
BRANCH  12  13
ATOM     13  C   UNL     1       6.347 -28.819 -18.185  1.00  0.00    -0.000 C 
BRANCH  13  14
ATOM     14  C   UNL     1       6.646 -28.199 -19.561  1.00  0.00    -0.000 C 
BRANCH  14  15
ATOM     15  C   UNL     1       6.580 -29.183 -20.745  1.00  0.00    -0.000 C 
BRANCH  15  16
ATOM     16  C   UNL     1       6.994 -28.593 -22.106  1.00  0.00    -0.003 C 
ATOM     17  C   UNL     1       5.878 -27.786 -22.769  1.00  0.00     0.004 C 
ENDBRANCH  15  16
ENDBRANCH  14  15
ENDBRANCH  13  14
ENDBRANCH  12  13
ENDBRANCH  11  12
ENDBRANCH  10  11
ENDBRANCH   1  10
TORSDOF 13
ENDMDL
MODEL 3
REMARK VINA RESULT:     7.219      3.900      8.053
REMARK INTER + INTRA:          12.647
REMARK INTER:                  13.000
REMARK INTRA:                  -0.353
REMARK UNBOUND:                -0.058
REMARK SMILES CCCCCCCCCCCCCCC(=O)[O-]
REMARK SMILES IDX 9 1 10 2 11 3 12 4 13 5 14 6 15 7 16 8 17 9 8 10 7 11 6 12
REMARK SMILES IDX 5 13 4 14 3 15 2 16 1 17
REMARK H PARENT
REMARK Flexibility Score: inf
ROOT
ATOM      1  C   UNL     1       9.886 -30.211 -17.063  1.00  0.00     0.000 C 
ENDROOT
BRANCH   1   2
ATOM      2  C   UNL     1       8.746 -29.683 -17.952  1.00  0.00     0.000 C 
BRANCH   2   3
ATOM      3  C   UNL     1       7.649 -28.971 -17.144  1.00  0.00     0.000 C 
BRANCH   3   4
ATOM      4  C   UNL     1       6.486 -28.481 -18.027  1.00  0.00     0.000 C 
BRANCH   4   5
ATOM      5  C   UNL     1       6.574 -29.012 -19.466  1.00  0.00     0.006 C 
BRANCH   5   6
ATOM      6  C   UNL     1       6.391 -27.908 -20.514  1.00  0.00     0.053 C 
BRANCH   6   7
ATOM      7  C   UNL     1       6.571 -28.461 -21.893  1.00  0.00     0.041 C 
ATOM      8  O   UNL     1       6.187 -27.802 -22.895  1.00  0.00    -0.550 OA
ATOM      9  O   UNL     1       7.212 -29.680 -22.075  1.00  0.00    -0.550 OA
ENDBRANCH   6   7
ENDBRANCH   5   6
ENDBRANCH   4   5
ENDBRANCH   3   4
ENDBRANCH   2   3
ENDBRANCH   1   2
BRANCH   1  10
ATOM     10  C   UNL     1       9.561 -31.578 -16.438  1.00  0.00     0.000 C 
BRANCH  10  11
ATOM     11  C   UNL     1       9.261 -31.481 -14.932  1.00  0.00    -0.000 C 
BRANCH  11  12
ATOM     12  C   UNL     1       9.019 -30.034 -14.473  1.00  0.00    -0.000 C 
BRANCH  12  13
ATOM     13  C   UNL     1       8.127 -29.950 -13.222  1.00  0.00    -0.000 C 
BRANCH  13  14
ATOM     14  C   UNL     1       8.932 -29.992 -11.911  1.00  0.00    -0.000 C 
BRANCH  14  15
ATOM     15  C   UNL     1       8.273 -29.268 -10.720  1.00  0.00    -0.000 C 
BRANCH  15  16
ATOM     16  C   UNL     1       9.160 -29.133  -9.469  1.00  0.00    -0.003 C 
ATOM     17  C   UNL     1       9.601 -27.694  -9.203  1.00  0.00     0.004 C 
ENDBRANCH  15  16
ENDBRANCH  14  15
ENDBRANCH  13  14
ENDBRANCH  12  13
ENDBRANCH  11  12
ENDBRANCH  10  11
ENDBRANCH   1  10
TORSDOF 13
ENDMDL
MODEL 4
REMARK VINA RESULT:     7.265      3.712      7.167
REMARK INTER + INTRA:          12.729
REMARK INTER:                  11.408
REMARK INTRA:                   1.321
REMARK UNBOUND:                -0.058
REMARK SMILES CCCCCCCCCCCCCCC(=O)[O-]
REMARK SMILES IDX 9 1 10 2 11 3 12 4 13 5 14 6 15 7 16 8 17 9 8 10 7 11 6 12
REMARK SMILES IDX 5 13 4 14 3 15 2 16 1 17
REMARK H PARENT
REMARK Flexibility Score: inf
ROOT
ATOM      1  C   UNL     1       9.492 -30.107 -18.860  1.00  0.00     0.000 C 
ENDROOT
BRANCH   1   2
ATOM      2  C   UNL     1       8.315 -29.906 -19.830  1.00  0.00     0.000 C 
BRANCH   2   3
ATOM      3  C   UNL     1       7.460 -28.679 -19.473  1.00  0.00     0.000 C 
BRANCH   3   4
ATOM      4  C   UNL     1       6.315 -28.443 -20.476  1.00  0.00     0.000 C 
BRANCH   4   5
ATOM      5  C   UNL     1       6.221 -29.551 -21.536  1.00  0.00     0.006 C 
BRANCH   5   6
ATOM      6  C   UNL     1       6.231 -28.999 -22.967  1.00  0.00     0.053 C 
BRANCH   6   7
ATOM      7  C   UNL     1       6.703 -27.579 -22.977  1.00  0.00     0.041 C 
ATOM      8  O   UNL     1       5.876 -26.638 -23.096  1.00  0.00    -0.550 OA
ATOM      9  O   UNL     1       8.051 -27.294 -22.802  1.00  0.00    -0.550 OA
ENDBRANCH   6   7
ENDBRANCH   5   6
ENDBRANCH   4   5
ENDBRANCH   3   4
ENDBRANCH   2   3
ENDBRANCH   1   2
BRANCH   1  10
ATOM     10  C   UNL     1       9.339 -29.287 -17.569  1.00  0.00     0.000 C 
BRANCH  10  11
ATOM     11  C   UNL     1       7.907 -29.330 -17.010  1.00  0.00    -0.000 C 
BRANCH  11  12
ATOM     12  C   UNL     1       7.826 -28.830 -15.558  1.00  0.00    -0.000 C 
BRANCH  12  13
ATOM     13  C   UNL     1       8.569 -29.748 -14.572  1.00  0.00    -0.000 C 
BRANCH  13  14
ATOM     14  C   UNL     1       9.405 -30.829 -15.278  1.00  0.00    -0.000 C 
BRANCH  14  15
ATOM     15  C   UNL     1       9.200 -32.261 -14.745  1.00  0.00    -0.000 C 
BRANCH  15  16
ATOM     16  C   UNL     1       9.048 -33.343 -15.830  1.00  0.00    -0.003 C 
ATOM     17  C   UNL     1       9.318 -32.816 -17.239  1.00  0.00     0.004 C 
ENDBRANCH  15  16
ENDBRANCH  14  15
ENDBRANCH  13  14
ENDBRANCH  12  13
ENDBRANCH  11  12
ENDBRANCH  10  11
ENDBRANCH   1  10
TORSDOF 13
ENDMDL
MODEL 5
REMARK VINA RESULT:     7.274      2.396      3.510
REMARK INTER + INTRA:          12.743
REMARK INTER:                  13.007
REMARK INTRA:                  -0.264
REMARK UNBOUND:                -0.058
REMARK SMILES CCCCCCCCCCCCCCC(=O)[O-]
REMARK SMILES IDX 9 1 10 2 11 3 12 4 13 5 14 6 15 7 16 8 17 9 8 10 7 11 6 12
REMARK SMILES IDX 5 13 4 14 3 15 2 16 1 17
REMARK H PARENT
REMARK Flexibility Score: inf
ROOT
ATOM      1  C   UNL     1       6.480 -29.181 -18.021  1.00  0.00     0.000 C 
ENDROOT
BRANCH   1   2
ATOM      2  C   UNL     1       6.954 -28.478 -16.737  1.00  0.00     0.000 C 
BRANCH   2   3
ATOM      3  C   UNL     1       8.095 -29.233 -16.037  1.00  0.00     0.000 C 
BRANCH   3   4
ATOM      4  C   UNL     1       9.172 -29.725 -17.022  1.00  0.00     0.000 C 
BRANCH   4   5
ATOM      5  C   UNL     1      10.204 -30.647 -16.355  1.00  0.00     0.006 C 
BRANCH   5   6
ATOM      6  C   UNL     1       9.607 -31.462 -15.201  1.00  0.00     0.053 C 
BRANCH   6   7
ATOM      7  C   UNL     1       9.155 -32.803 -15.686  1.00  0.00     0.041 C 
ATOM      8  O   UNL     1       9.297 -33.120 -16.896  1.00  0.00    -0.550 OA
ATOM      9  O   UNL     1       8.625 -33.724 -14.791  1.00  0.00    -0.550 OA
ENDBRANCH   6   7
ENDBRANCH   5   6
ENDBRANCH   4   5
ENDBRANCH   3   4
ENDBRANCH   2   3
ENDBRANCH   1   2
BRANCH   1  10
ATOM     10  C   UNL     1       7.372 -28.862 -19.232  1.00  0.00     0.000 C 
BRANCH  10  11
ATOM     11  C   UNL     1       6.579 -28.801 -20.548  1.00  0.00    -0.000 C 
BRANCH  11  12
ATOM     12  C   UNL     1       7.316 -29.483 -21.712  1.00  0.00    -0.000 C 
BRANCH  12  13
ATOM     13  C   UNL     1       8.469 -30.385 -21.237  1.00  0.00    -0.000 C 
BRANCH  13  14
ATOM     14  C   UNL     1       8.476 -31.759 -21.932  1.00  0.00    -0.000 C 
BRANCH  14  15
ATOM     15  C   UNL     1       9.784 -32.559 -21.775  1.00  0.00    -0.000 C 
BRANCH  15  16
ATOM     16  C   UNL     1      10.489 -32.918 -23.096  1.00  0.00    -0.003 C 
ATOM     17  C   UNL     1      11.956 -32.489 -23.124  1.00  0.00     0.004 C 
ENDBRANCH  15  16
ENDBRANCH  14  15
ENDBRANCH  13  14
ENDBRANCH  12  13
ENDBRANCH  11  12
ENDBRANCH  10  11
ENDBRANCH   1  10
TORSDOF 13
ENDMDL
MODEL 6
REMARK VINA RESULT:     7.413      1.371      3.162
REMARK INTER + INTRA:          12.989
REMARK INTER:                  11.563
REMARK INTRA:                   1.426
REMARK UNBOUND:                -0.058
REMARK SMILES CCCCCCCCCCCCCCC(=O)[O-]
REMARK SMILES IDX 9 1 10 2 11 3 12 4 13 5 14 6 15 7 16 8 17 9 8 10 7 11 6 12
REMARK SMILES IDX 5 13 4 14 3 15 2 16 1 17
REMARK H PARENT
REMARK Flexibility Score: inf
ROOT
ATOM      1  C   UNL     1       6.585 -28.150 -17.758  1.00  0.00     0.000 C 
ENDROOT
BRANCH   1   2
ATOM      2  C   UNL     1       6.954 -29.234 -16.731  1.00  0.00     0.000 C 
BRANCH   2   3
ATOM      3  C   UNL     1       8.196 -28.865 -15.904  1.00  0.00     0.000 C 
BRANCH   3   4
ATOM      4  C   UNL     1       8.249 -29.601 -14.553  1.00  0.00     0.000 C 
BRANCH   4   5
ATOM      5  C   UNL     1       9.278 -30.742 -14.542  1.00  0.00     0.006 C 
BRANCH   5   6
ATOM      6  C   UNL     1       9.669 -31.197 -15.954  1.00  0.00     0.053 C 
BRANCH   6   7
ATOM      7  C   UNL     1       9.227 -32.607 -16.189  1.00  0.00     0.041 C 
ATOM      8  O   UNL     1       9.281 -33.103 -17.345  1.00  0.00    -0.550 OA
ATOM      9  O   UNL     1       8.807 -33.392 -15.123  1.00  0.00    -0.550 OA
ENDBRANCH   6   7
ENDBRANCH   5   6
ENDBRANCH   4   5
ENDBRANCH   3   4
ENDBRANCH   2   3
ENDBRANCH   1   2
BRANCH   1  10
ATOM     10  C   UNL     1       6.406 -28.718 -19.176  1.00  0.00     0.000 C 
BRANCH  10  11
ATOM     11  C   UNL     1       6.247 -27.614 -20.236  1.00  0.00    -0.000 C 
BRANCH  11  12
ATOM     12  C   UNL     1       6.087 -28.182 -21.656  1.00  0.00    -0.000 C 
BRANCH  12  13
ATOM     13  C   UNL     1       7.346 -28.918 -22.146  1.00  0.00    -0.000 C 
BRANCH  13  14
ATOM     14  C   UNL     1       7.790 -30.040 -21.191  1.00  0.00    -0.000 C 
BRANCH  14  15
ATOM     15  C   UNL     1       9.149 -29.807 -20.502  1.00  0.00    -0.000 C 
BRANCH  15  16
ATOM     16  C   UNL     1       9.162 -30.070 -18.985  1.00  0.00    -0.003 C 
ATOM     17  C   UNL     1      10.358 -29.431 -18.279  1.00  0.00     0.004 C 
ENDBRANCH  15  16
ENDBRANCH  14  15
ENDBRANCH  13  14
ENDBRANCH  12  13
ENDBRANCH  11  12
ENDBRANCH  10  11
ENDBRANCH   1  10
TORSDOF 13
ENDMDL
MODEL 7
REMARK VINA RESULT:     7.591      2.093      2.484
REMARK INTER + INTRA:          13.303
REMARK INTER:                  12.308
REMARK INTRA:                   0.994
REMARK UNBOUND:                -0.058
REMARK SMILES CCCCCCCCCCCCCCC(=O)[O-]
REMARK SMILES IDX 9 1 10 2 11 3 12 4 13 5 14 6 15 7 16 8 17 9 8 10 7 11 6 12
REMARK SMILES IDX 5 13 4 14 3 15 2 16 1 17
REMARK H PARENT
REMARK Flexibility Score: inf
ROOT
ATOM      1  C   UNL     1       8.097 -29.025 -16.167  1.00  0.00     0.000 C 
ENDROOT
BRANCH   1   2
ATOM      2  C   UNL     1       8.277 -29.610 -14.756  1.00  0.00     0.000 C 
BRANCH   2   3
ATOM      3  C   UNL     1       9.420 -30.636 -14.683  1.00  0.00     0.000 C 
BRANCH   3   4
ATOM      4  C   UNL     1       8.973 -32.050 -15.097  1.00  0.00     0.000 C 
BRANCH   4   5
ATOM      5  C   UNL     1       9.268 -32.354 -16.574  1.00  0.00     0.006 C 
BRANCH   5   6
ATOM      6  C   UNL     1      10.385 -31.472 -17.145  1.00  0.00     0.053 C 
BRANCH   6   7
ATOM      7  C   UNL     1       9.816 -30.439 -18.067  1.00  0.00     0.041 C 
ATOM      8  O   UNL     1       8.880 -30.739 -18.853  1.00  0.00    -0.550 OA
ATOM      9  O   UNL     1      10.284 -29.132 -18.020  1.00  0.00    -0.550 OA
ENDBRANCH   6   7
ENDBRANCH   5   6
ENDBRANCH   4   5
ENDBRANCH   3   4
ENDBRANCH   2   3
ENDBRANCH   1   2
BRANCH   1  10
ATOM     10  C   UNL     1       7.032 -27.917 -16.215  1.00  0.00     0.000 C 
BRANCH  10  11
ATOM     11  C   UNL     1       6.086 -28.062 -17.420  1.00  0.00    -0.000 C 
BRANCH  11  12
ATOM     12  C   UNL     1       6.627 -29.035 -18.480  1.00  0.00    -0.000 C 
BRANCH  12  13
ATOM     13  C   UNL     1       6.618 -28.434 -19.897  1.00  0.00    -0.000 C 
BRANCH  13  14
ATOM     14  C   UNL     1       6.859 -29.487 -20.993  1.00  0.00    -0.000 C 
BRANCH  14  15
ATOM     15  C   UNL     1       6.448 -29.052 -22.413  1.00  0.00    -0.000 C 
BRANCH  15  16
ATOM     16  C   UNL     1       7.008 -27.690 -22.863  1.00  0.00    -0.003 C 
ATOM     17  C   UNL     1       5.914 -26.653 -23.124  1.00  0.00     0.004 C 
ENDBRANCH  15  16
ENDBRANCH  14  15
ENDBRANCH  13  14
ENDBRANCH  12  13
ENDBRANCH  11  12
ENDBRANCH  10  11
ENDBRANCH   1  10
TORSDOF 13
ENDMDL
MODEL 8
REMARK VINA RESULT:     7.605      1.860      3.098
REMARK INTER + INTRA:          13.327
REMARK INTER:                  14.154
REMARK INTRA:                  -0.827
REMARK UNBOUND:                -0.058
REMARK SMILES CCCCCCCCCCCCCCC(=O)[O-]
REMARK SMILES IDX 9 1 10 2 11 3 12 4 13 5 14 6 15 7 16 8 17 9 8 10 7 11 6 12
REMARK SMILES IDX 5 13 4 14 3 15 2 16 1 17
REMARK H PARENT
REMARK Flexibility Score: inf
ROOT
ATOM      1  C   UNL     1       9.746 -31.140 -16.404  1.00  0.00     0.000 C 
ENDROOT
BRANCH   1   2
ATOM      2  C   UNL     1       9.298 -32.610 -16.455  1.00  0.00     0.000 C 
BRANCH   2   3
ATOM      3  C   UNL     1       9.054 -33.202 -15.057  1.00  0.00     0.000 C 
BRANCH   3   4
ATOM      4  C   UNL     1       7.999 -34.324 -15.063  1.00  0.00     0.000 C 
BRANCH   4   5
ATOM      5  C   UNL     1       7.127 -34.307 -16.328  1.00  0.00     0.006 C 
BRANCH   5   6
ATOM      6  C   UNL     1       5.955 -35.292 -16.250  1.00  0.00     0.053 C 
BRANCH   6   7
ATOM      7  C   UNL     1       6.232 -36.501 -17.087  1.00  0.00     0.041 C 
ATOM      8  O   UNL     1       6.738 -37.530 -16.566  1.00  0.00    -0.550 OA
ATOM      9  O   UNL     1       5.880 -36.512 -18.431  1.00  0.00    -0.550 OA
ENDBRANCH   6   7
ENDBRANCH   5   6
ENDBRANCH   4   5
ENDBRANCH   3   4
ENDBRANCH   2   3
ENDBRANCH   1   2
BRANCH   1  10
ATOM     10  C   UNL     1       9.068 -30.355 -15.269  1.00  0.00     0.000 C 
BRANCH  10  11
ATOM     11  C   UNL     1       8.146 -29.240 -15.792  1.00  0.00    -0.000 C 
BRANCH  11  12
ATOM     12  C   UNL     1       7.984 -29.280 -17.320  1.00  0.00    -0.000 C 
BRANCH  12  13
ATOM     13  C   UNL     1       6.584 -28.836 -17.780  1.00  0.00    -0.000 C 
BRANCH  13  14
ATOM     14  C   UNL     1       6.557 -28.375 -19.248  1.00  0.00    -0.000 C 
BRANCH  14  15
ATOM     15  C   UNL     1       7.232 -29.338 -20.245  1.00  0.00    -0.000 C 
BRANCH  15  16
ATOM     16  C   UNL     1       6.682 -29.278 -21.681  1.00  0.00    -0.003 C 
ATOM     17  C   UNL     1       6.383 -27.852 -22.146  1.00  0.00     0.004 C 
ENDBRANCH  15  16
ENDBRANCH  14  15
ENDBRANCH  13  14
ENDBRANCH  12  13
ENDBRANCH  11  12
ENDBRANCH  10  11
ENDBRANCH   1  10
TORSDOF 13
ENDMDL
MODEL 9
REMARK VINA RESULT:     7.676      1.955      2.892
REMARK INTER + INTRA:          13.452
REMARK INTER:                  10.207
REMARK INTRA:                   3.246
REMARK UNBOUND:                -0.058
REMARK SMILES CCCCCCCCCCCCCCC(=O)[O-]
REMARK SMILES IDX 9 1 10 2 11 3 12 4 13 5 14 6 15 7 16 8 17 9 8 10 7 11 6 12
REMARK SMILES IDX 5 13 4 14 3 15 2 16 1 17
REMARK H PARENT
REMARK Flexibility Score: inf
ROOT
ATOM      1  C   UNL     1      10.063 -29.925 -18.144  1.00  0.00     0.000 C 
ENDROOT
BRANCH   1   2
ATOM      2  C   UNL     1       9.944 -30.766 -16.862  1.00  0.00     0.000 C 
BRANCH   2   3
ATOM      3  C   UNL     1       9.457 -32.198 -17.138  1.00  0.00     0.000 C 
BRANCH   3   4
ATOM      4  C   UNL     1       9.151 -32.979 -15.847  1.00  0.00     0.000 C 
BRANCH   4   5
ATOM      5  C   UNL     1       8.856 -32.057 -14.654  1.00  0.00     0.006 C 
BRANCH   5   6
ATOM      6  C   UNL     1       9.348 -30.622 -14.883  1.00  0.00     0.053 C 
BRANCH   6   7
ATOM      7  C   UNL     1       8.308 -29.638 -14.449  1.00  0.00     0.041 C 
ATOM      8  O   UNL     1       7.862 -28.788 -15.264  1.00  0.00    -0.550 OA
ATOM      9  O   UNL     1       7.792 -29.693 -13.161  1.00  0.00    -0.550 OA
ENDBRANCH   6   7
ENDBRANCH   5   6
ENDBRANCH   4   5
ENDBRANCH   3   4
ENDBRANCH   2   3
ENDBRANCH   1   2
BRANCH   1  10
ATOM     10  C   UNL     1       8.711 -29.734 -18.852  1.00  0.00     0.000 C 
BRANCH  10  11
ATOM     11  C   UNL     1       7.779 -28.774 -18.093  1.00  0.00    -0.000 C 
BRANCH  11  12
ATOM     12  C   UNL     1       6.295 -29.024 -18.405  1.00  0.00    -0.000 C 
BRANCH  12  13
ATOM     13  C   UNL     1       5.942 -28.741 -19.876  1.00  0.00    -0.000 C 
BRANCH  13  14
ATOM     14  C   UNL     1       7.170 -28.354 -20.720  1.00  0.00    -0.000 C 
BRANCH  14  15
ATOM     15  C   UNL     1       7.208 -28.969 -22.133  1.00  0.00    -0.000 C 
BRANCH  15  16
ATOM     16  C   UNL     1       6.182 -28.389 -23.122  1.00  0.00    -0.003 C 
ATOM     17  C   UNL     1       5.878 -26.912 -22.868  1.00  0.00     0.004 C 
ENDBRANCH  15  16
ENDBRANCH  14  15
ENDBRANCH  13  14
ENDBRANCH  12  13
ENDBRANCH  11  12
ENDBRANCH  10  11
ENDBRANCH   1  10
TORSDOF 13
ENDMDL
