MODEL 1
REMARK VINA RESULT:    -3.885      0.000      0.000
REMARK INTER + INTRA:          -7.402
REMARK INTER:                  -6.838
REMARK INTRA:                  -0.564
REMARK UNBOUND:                -0.564
REMARK SMILES CCCCCCCCCCCCCCC(=O)[O-]
REMARK SMILES IDX 9 1 10 2 11 3 12 4 13 5 14 6 15 7 16 8 17 9 8 10 7 11 6 12
REMARK SMILES IDX 5 13 4 14 3 15 2 16 1 17
REMARK H PARENT
REMARK Flexibility Score: inf
ROOT
ATOM      1  C   UNL     1       7.144  16.367  22.601  1.00  0.00     0.000 C 
ENDROOT
BRANCH   1   2
ATOM      2  C   UNL     1       8.430  16.088  21.814  1.00  0.00     0.000 C 
BRANCH   2   3
ATOM      3  C   UNL     1       8.812  17.291  20.940  1.00  0.00     0.000 C 
BRANCH   3   4
ATOM      4  C   UNL     1      10.151  17.099  20.205  1.00  0.00     0.000 C 
BRANCH   4   5
ATOM      5  C   UNL     1      10.835  15.737  20.439  1.00  0.00     0.006 C 
BRANCH   5   6
ATOM      6  C   UNL     1      10.985  14.872  19.178  1.00  0.00     0.053 C 
BRANCH   6   7
ATOM      7  C   UNL     1      10.478  13.479  19.391  1.00  0.00     0.041 C 
ATOM      8  O   UNL     1      10.094  13.112  20.532  1.00  0.00    -0.550 OA
ATOM      9  O   UNL     1      10.397  12.596  18.321  1.00  0.00    -0.550 OA
ENDBRANCH   6   7
ENDBRANCH   5   6
ENDBRANCH   4   5
ENDBRANCH   3   4
ENDBRANCH   2   3
ENDBRANCH   1   2
BRANCH   1  10
ATOM     10  C   UNL     1       5.905  16.173  21.719  1.00  0.00     0.000 C 
BRANCH  10  11
ATOM     11  C   UNL     1       5.056  14.996  22.212  1.00  0.00    -0.000 C 
BRANCH  11  12
ATOM     12  C   UNL     1       3.892  15.486  23.087  1.00  0.00    -0.000 C 
BRANCH  12  13
ATOM     13  C   UNL     1       2.849  16.291  22.294  1.00  0.00    -0.000 C 
BRANCH  13  14
ATOM     14  C   UNL     1       1.418  16.075  22.812  1.00  0.00    -0.000 C 
BRANCH  14  15
ATOM     15  C   UNL     1       0.399  15.894  21.675  1.00  0.00    -0.000 C 
BRANCH  15  16
ATOM     16  C   UNL     1      -0.937  16.597  21.959  1.00  0.00    -0.003 C 
ATOM     17  C   UNL     1      -2.112  15.772  21.442  1.00  0.00     0.004 C 
ENDBRANCH  15  16
ENDBRANCH  14  15
ENDBRANCH  13  14
ENDBRANCH  12  13
ENDBRANCH  11  12
ENDBRANCH  10  11
ENDBRANCH   1  10
TORSDOF 13
ENDMDL
MODEL 2
REMARK VINA RESULT:    -3.873      3.968      8.473
REMARK INTER + INTRA:          -7.380
REMARK INTER:                  -6.655
REMARK INTRA:                  -0.725
REMARK UNBOUND:                -0.564
REMARK SMILES CCCCCCCCCCCCCCC(=O)[O-]
REMARK SMILES IDX 9 1 10 2 11 3 12 4 13 5 14 6 15 7 16 8 17 9 8 10 7 11 6 12
REMARK SMILES IDX 5 13 4 14 3 15 2 16 1 17
REMARK H PARENT
REMARK Flexibility Score: inf
ROOT
ATOM      1  C   UNL     1      -2.470  16.497  21.565  1.00  0.00     0.000 C 
ENDROOT
BRANCH   1   2
ATOM      2  C   UNL     1      -1.181  15.694  21.358  1.00  0.00     0.000 C 
BRANCH   2   3
ATOM      3  C   UNL     1      -0.027  16.281  22.185  1.00  0.00     0.000 C 
BRANCH   3   4
ATOM      4  C   UNL     1       1.360  15.915  21.626  1.00  0.00     0.000 C 
BRANCH   4   5
ATOM      5  C   UNL     1       2.553  16.515  22.397  1.00  0.00     0.006 C 
BRANCH   5   6
ATOM      6  C   UNL     1       3.752  15.568  22.555  1.00  0.00     0.053 C 
BRANCH   6   7
ATOM      7  C   UNL     1       4.997  16.134  21.945  1.00  0.00     0.041 C 
ATOM      8  O   UNL     1       4.924  16.885  20.937  1.00  0.00    -0.550 OA
ATOM      9  O   UNL     1       6.238  15.859  22.508  1.00  0.00    -0.550 OA
ENDBRANCH   6   7
ENDBRANCH   5   6
ENDBRANCH   4   5
ENDBRANCH   3   4
ENDBRANCH   2   3
ENDBRANCH   1   2
BRANCH   1  10
ATOM     10  C   UNL     1      -3.018  16.304  22.984  1.00  0.00     0.000 C 
BRANCH  10  11
ATOM     11  C   UNL     1      -4.544  16.164  22.971  1.00  0.00    -0.000 C 
BRANCH  11  12
ATOM     12  C   UNL     1      -5.032  15.582  21.635  1.00  0.00    -0.000 C 
BRANCH  12  13
ATOM     13  C   UNL     1      -6.091  14.482  21.816  1.00  0.00    -0.000 C 
BRANCH  13  14
ATOM     14  C   UNL     1      -7.449  14.863  21.202  1.00  0.00    -0.000 C 
BRANCH  14  15
ATOM     15  C   UNL     1      -8.354  15.615  22.192  1.00  0.00    -0.000 C 
BRANCH  15  16
ATOM     16  C   UNL     1      -8.953  16.896  21.591  1.00  0.00    -0.003 C 
ATOM     17  C   UNL     1      -8.205  17.312  20.328  1.00  0.00     0.004 C 
ENDBRANCH  15  16
ENDBRANCH  14  15
ENDBRANCH  13  14
ENDBRANCH  12  13
ENDBRANCH  11  12
ENDBRANCH  10  11
ENDBRANCH   1  10
TORSDOF 13
ENDMDL
MODEL 3
REMARK VINA RESULT:    -3.731      2.433      5.513
REMARK INTER + INTRA:          -7.130
REMARK INTER:                  -6.675
REMARK INTRA:                  -0.455
REMARK UNBOUND:                -0.564
REMARK SMILES CCCCCCCCCCCCCCC(=O)[O-]
REMARK SMILES IDX 9 1 10 2 11 3 12 4 13 5 14 6 15 7 16 8 17 9 8 10 7 11 6 12
REMARK SMILES IDX 5 13 4 14 3 15 2 16 1 17
REMARK H PARENT
REMARK Flexibility Score: inf
ROOT
ATOM      1  C   UNL     1       1.370  15.995  21.663  1.00  0.00     0.000 C 
ENDROOT
BRANCH   1   2
ATOM      2  C   UNL     1       2.429  16.370  22.705  1.00  0.00     0.000 C 
BRANCH   2   3
ATOM      3  C   UNL     1       3.719  15.563  22.494  1.00  0.00     0.000 C 
BRANCH   3   4
ATOM      4  C   UNL     1       4.782  16.330  21.686  1.00  0.00     0.000 C 
BRANCH   4   5
ATOM      5  C   UNL     1       6.179  15.678  21.661  1.00  0.00     0.006 C 
BRANCH   5   6
ATOM      6  C   UNL     1       7.301  16.549  22.247  1.00  0.00     0.053 C 
BRANCH   6   7
ATOM      7  C   UNL     1       8.522  16.548  21.379  1.00  0.00     0.041 C 
ATOM      8  O   UNL     1       9.066  15.461  21.051  1.00  0.00    -0.550 OA
ATOM      9  O   UNL     1       9.040  17.747  20.903  1.00  0.00    -0.550 OA
ENDBRANCH   6   7
ENDBRANCH   5   6
ENDBRANCH   4   5
ENDBRANCH   3   4
ENDBRANCH   2   3
ENDBRANCH   1   2
BRANCH   1  10
ATOM     10  C   UNL     1      -0.038  16.034  22.269  1.00  0.00     0.000 C 
BRANCH  10  11
ATOM     11  C   UNL     1      -1.086  15.547  21.261  1.00  0.00    -0.000 C 
BRANCH  11  12
ATOM     12  C   UNL     1      -2.380  16.368  21.374  1.00  0.00    -0.000 C 
BRANCH  12  13
ATOM     13  C   UNL     1      -2.945  16.394  22.803  1.00  0.00    -0.000 C 
BRANCH  13  14
ATOM     14  C   UNL     1      -4.410  15.928  22.868  1.00  0.00    -0.000 C 
BRANCH  14  15
ATOM     15  C   UNL     1      -4.918  15.389  21.521  1.00  0.00    -0.000 C 
BRANCH  15  16
ATOM     16  C   UNL     1      -6.305  14.738  21.629  1.00  0.00    -0.003 C 
ATOM     17  C   UNL     1      -7.406  15.724  21.252  1.00  0.00     0.004 C 
ENDBRANCH  15  16
ENDBRANCH  14  15
ENDBRANCH  13  14
ENDBRANCH  12  13
ENDBRANCH  11  12
ENDBRANCH  10  11
ENDBRANCH   1  10
TORSDOF 13
ENDMDL
MODEL 4
REMARK VINA RESULT:    -3.668      3.519      7.307
REMARK INTER + INTRA:          -7.019
REMARK INTER:                  -6.423
REMARK INTRA:                  -0.596
REMARK UNBOUND:                -0.564
REMARK SMILES CCCCCCCCCCCCCCC(=O)[O-]
REMARK SMILES IDX 9 1 10 2 11 3 12 4 13 5 14 6 15 7 16 8 17 9 8 10 7 11 6 12
REMARK SMILES IDX 5 13 4 14 3 15 2 16 1 17
REMARK H PARENT
REMARK Flexibility Score: inf
ROOT
ATOM      1  C   UNL     1      -1.281  16.046  22.127  1.00  0.00     0.000 C 
ENDROOT
BRANCH   1   2
ATOM      2  C   UNL     1       0.150  16.004  21.581  1.00  0.00     0.000 C 
BRANCH   2   3
ATOM      3  C   UNL     1       1.177  16.063  22.721  1.00  0.00     0.000 C 
BRANCH   3   4
ATOM      4  C   UNL     1       2.605  16.361  22.229  1.00  0.00     0.000 C 
BRANCH   4   5
ATOM      5  C   UNL     1       3.723  15.605  22.975  1.00  0.00     0.006 C 
BRANCH   5   6
ATOM      6  C   UNL     1       5.082  15.602  22.256  1.00  0.00     0.053 C 
BRANCH   6   7
ATOM      7  C   UNL     1       5.713  14.244  22.256  1.00  0.00     0.041 C 
ATOM      8  O   UNL     1       6.853  14.075  21.749  1.00  0.00    -0.550 OA
ATOM      9  O   UNL     1       5.057  13.171  22.847  1.00  0.00    -0.550 OA
ENDBRANCH   6   7
ENDBRANCH   5   6
ENDBRANCH   4   5
ENDBRANCH   3   4
ENDBRANCH   2   3
ENDBRANCH   1   2
BRANCH   1  10
ATOM     10  C   UNL     1      -2.026  17.289  21.626  1.00  0.00     0.000 C 
BRANCH  10  11
ATOM     11  C   UNL     1      -2.948  17.854  22.713  1.00  0.00    -0.000 C 
BRANCH  11  12
ATOM     12  C   UNL     1      -4.418  17.521  22.415  1.00  0.00    -0.000 C 
BRANCH  12  13
ATOM     13  C   UNL     1      -4.748  16.036  22.634  1.00  0.00    -0.000 C 
BRANCH  13  14
ATOM     14  C   UNL     1      -5.215  15.338  21.346  1.00  0.00    -0.000 C 
BRANCH  14  15
ATOM     15  C   UNL     1      -6.605  14.698  21.491  1.00  0.00    -0.000 C 
BRANCH  15  16
ATOM     16  C   UNL     1      -7.673  15.700  21.955  1.00  0.00    -0.003 C 
ATOM     17  C   UNL     1      -8.021  16.686  20.844  1.00  0.00     0.004 C 
ENDBRANCH  15  16
ENDBRANCH  14  15
ENDBRANCH  13  14
ENDBRANCH  12  13
ENDBRANCH  11  12
ENDBRANCH  10  11
ENDBRANCH   1  10
TORSDOF 13
ENDMDL
MODEL 5
REMARK VINA RESULT:    -3.666      7.015     12.677
REMARK INTER + INTRA:          -7.017
REMARK INTER:                  -6.553
REMARK INTRA:                  -0.464
REMARK UNBOUND:                -0.564
REMARK SMILES CCCCCCCCCCCCCCC(=O)[O-]
REMARK SMILES IDX 9 1 10 2 11 3 12 4 13 5 14 6 15 7 16 8 17 9 8 10 7 11 6 12
REMARK SMILES IDX 5 13 4 14 3 15 2 16 1 17
REMARK H PARENT
REMARK Flexibility Score: inf
ROOT
ATOM      1  C   UNL     1      -2.816  15.955  21.614  1.00  0.00     0.000 C 
ENDROOT
BRANCH   1   2
ATOM      2  C   UNL     1      -3.791  16.567  22.626  1.00  0.00     0.000 C 
BRANCH   2   3
ATOM      3  C   UNL     1      -5.110  15.781  22.665  1.00  0.00     0.000 C 
BRANCH   3   4
ATOM      4  C   UNL     1      -5.630  15.408  21.265  1.00  0.00     0.000 C 
BRANCH   4   5
ATOM      5  C   UNL     1      -7.048  14.804  21.234  1.00  0.00     0.006 C 
BRANCH   5   6
ATOM      6  C   UNL     1      -8.146  15.723  21.791  1.00  0.00     0.053 C 
BRANCH   6   7
ATOM      7  C   UNL     1      -8.099  17.088  21.176  1.00  0.00     0.041 C 
ATOM      8  O   UNL     1      -7.772  18.085  21.872  1.00  0.00    -0.550 OA
ATOM      9  O   UNL     1      -8.384  17.255  19.826  1.00  0.00    -0.550 OA
ENDBRANCH   6   7
ENDBRANCH   5   6
ENDBRANCH   4   5
ENDBRANCH   3   4
ENDBRANCH   2   3
ENDBRANCH   1   2
BRANCH   1  10
ATOM     10  C   UNL     1      -1.528  16.781  21.520  1.00  0.00     0.000 C 
BRANCH  10  11
ATOM     11  C   UNL     1      -0.477  16.279  22.517  1.00  0.00    -0.000 C 
BRANCH  11  12
ATOM     12  C   UNL     1       0.876  16.056  21.824  1.00  0.00    -0.000 C 
BRANCH  12  13
ATOM     13  C   UNL     1       2.071  16.292  22.761  1.00  0.00    -0.000 C 
BRANCH  13  14
ATOM     14  C   UNL     1       3.414  16.322  22.011  1.00  0.00    -0.000 C 
BRANCH  14  15
ATOM     15  C   UNL     1       4.452  15.365  22.618  1.00  0.00    -0.000 C 
BRANCH  15  16
ATOM     16  C   UNL     1       5.789  15.384  21.863  1.00  0.00    -0.003 C 
ATOM     17  C   UNL     1       6.852  16.149  22.646  1.00  0.00     0.004 C 
ENDBRANCH  15  16
ENDBRANCH  14  15
ENDBRANCH  13  14
ENDBRANCH  12  13
ENDBRANCH  11  12
ENDBRANCH  10  11
ENDBRANCH   1  10
TORSDOF 13
ENDMDL
MODEL 6
REMARK VINA RESULT:    -3.661      4.569      9.076
REMARK INTER + INTRA:          -7.007
REMARK INTER:                  -6.096
REMARK INTRA:                  -0.911
REMARK UNBOUND:                -0.564
REMARK SMILES CCCCCCCCCCCCCCC(=O)[O-]
REMARK SMILES IDX 9 1 10 2 11 3 12 4 13 5 14 6 15 7 16 8 17 9 8 10 7 11 6 12
REMARK SMILES IDX 5 13 4 14 3 15 2 16 1 17
REMARK H PARENT
REMARK Flexibility Score: inf
ROOT
ATOM      1  C   UNL     1       5.761  15.021  22.287  1.00  0.00     0.000 C 
ENDROOT
BRANCH   1   2
ATOM      2  C   UNL     1       4.400  15.281  22.941  1.00  0.00     0.000 C 
BRANCH   2   3
ATOM      3  C   UNL     1       3.494  16.109  22.019  1.00  0.00     0.000 C 
BRANCH   3   4
ATOM      4  C   UNL     1       2.146  16.473  22.667  1.00  0.00     0.000 C 
BRANCH   4   5
ATOM      5  C   UNL     1       0.901  15.973  21.908  1.00  0.00     0.006 C 
BRANCH   5   6
ATOM      6  C   UNL     1      -0.437  16.309  22.584  1.00  0.00     0.053 C 
BRANCH   6   7
ATOM      7  C   UNL     1      -1.508  16.620  21.584  1.00  0.00     0.041 C 
ATOM      8  O   UNL     1      -1.633  17.789  21.132  1.00  0.00    -0.550 OA
ATOM      9  O   UNL     1      -2.348  15.613  21.125  1.00  0.00    -0.550 OA
ENDBRANCH   6   7
ENDBRANCH   5   6
ENDBRANCH   4   5
ENDBRANCH   3   4
ENDBRANCH   2   3
ENDBRANCH   1   2
BRANCH   1  10
ATOM     10  C   UNL     1       6.893  15.675  23.089  1.00  0.00     0.000 C 
BRANCH  10  11
ATOM     11  C   UNL     1       8.216  14.929  22.884  1.00  0.00    -0.000 C 
BRANCH  11  12
ATOM     12  C   UNL     1       8.191  14.112  21.583  1.00  0.00    -0.000 C 
BRANCH  12  13
ATOM     13  C   UNL     1       9.593  13.681  21.123  1.00  0.00    -0.000 C 
BRANCH  13  14
ATOM     14  C   UNL     1      10.598  14.845  21.119  1.00  0.00    -0.000 C 
BRANCH  14  15
ATOM     15  C   UNL     1      10.334  15.849  19.985  1.00  0.00    -0.000 C 
BRANCH  15  16
ATOM     16  C   UNL     1      10.305  17.305  20.477  1.00  0.00    -0.003 C 
ATOM     17  C   UNL     1       8.873  17.774  20.720  1.00  0.00     0.004 C 
ENDBRANCH  15  16
ENDBRANCH  14  15
ENDBRANCH  13  14
ENDBRANCH  12  13
ENDBRANCH  11  12
ENDBRANCH  10  11
ENDBRANCH   1  10
TORSDOF 13
ENDMDL
MODEL 7
REMARK VINA RESULT:    -3.565      5.844     10.871
REMARK INTER + INTRA:          -6.838
REMARK INTER:                  -6.430
REMARK INTRA:                  -0.408
REMARK UNBOUND:                -0.564
REMARK SMILES CCCCCCCCCCCCCCC(=O)[O-]
REMARK SMILES IDX 9 1 10 2 11 3 12 4 13 5 14 6 15 7 16 8 17 9 8 10 7 11 6 12
REMARK SMILES IDX 5 13 4 14 3 15 2 16 1 17
REMARK H PARENT
REMARK Flexibility Score: inf
ROOT
ATOM      1  C   UNL     1       1.524  16.237  22.719  1.00  0.00     0.000 C 
ENDROOT
BRANCH   1   2
ATOM      2  C   UNL     1       0.352  15.995  21.760  1.00  0.00     0.000 C 
BRANCH   2   3
ATOM      3  C   UNL     1      -0.928  16.671  22.274  1.00  0.00     0.000 C 
BRANCH   3   4
ATOM      4  C   UNL     1      -2.212  16.000  21.754  1.00  0.00     0.000 C 
BRANCH   4   5
ATOM      5  C   UNL     1      -3.509  16.801  21.989  1.00  0.00     0.006 C 
BRANCH   5   6
ATOM      6  C   UNL     1      -4.603  16.035  22.749  1.00  0.00     0.053 C 
BRANCH   6   7
ATOM      7  C   UNL     1      -5.745  15.657  21.856  1.00  0.00     0.041 C 
ATOM      8  O   UNL     1      -5.995  14.445  21.626  1.00  0.00    -0.550 OA
ATOM      9  O   UNL     1      -6.554  16.643  21.304  1.00  0.00    -0.550 OA
ENDBRANCH   6   7
ENDBRANCH   5   6
ENDBRANCH   4   5
ENDBRANCH   3   4
ENDBRANCH   2   3
ENDBRANCH   1   2
BRANCH   1  10
ATOM     10  C   UNL     1       2.868  16.046  22.006  1.00  0.00     0.000 C 
BRANCH  10  11
ATOM     11  C   UNL     1       3.951  15.582  22.986  1.00  0.00    -0.000 C 
BRANCH  11  12
ATOM     12  C   UNL     1       4.739  14.394  22.413  1.00  0.00    -0.000 C 
BRANCH  12  13
ATOM     13  C   UNL     1       6.258  14.629  22.419  1.00  0.00    -0.000 C 
BRANCH  13  14
ATOM     14  C   UNL     1       6.625  16.120  22.495  1.00  0.00    -0.000 C 
BRANCH  14  15
ATOM     15  C   UNL     1       8.111  16.379  22.200  1.00  0.00    -0.000 C 
BRANCH  15  16
ATOM     16  C   UNL     1       8.331  17.137  20.882  1.00  0.00    -0.003 C 
ATOM     17  C   UNL     1       9.665  16.758  20.247  1.00  0.00     0.004 C 
ENDBRANCH  15  16
ENDBRANCH  14  15
ENDBRANCH  13  14
ENDBRANCH  12  13
ENDBRANCH  11  12
ENDBRANCH  10  11
ENDBRANCH   1  10
TORSDOF 13
ENDMDL
MODEL 8
REMARK VINA RESULT:    -3.537      4.615      9.476
REMARK INTER + INTRA:          -6.788
REMARK INTER:                  -6.307
REMARK INTRA:                  -0.482
REMARK UNBOUND:                -0.564
REMARK SMILES CCCCCCCCCCCCCCC(=O)[O-]
REMARK SMILES IDX 9 1 10 2 11 3 12 4 13 5 14 6 15 7 16 8 17 9 8 10 7 11 6 12
REMARK SMILES IDX 5 13 4 14 3 15 2 16 1 17
REMARK H PARENT
REMARK Flexibility Score: inf
ROOT
ATOM      1  C   UNL     1       4.802  14.799  22.281  1.00  0.00     0.000 C 
ENDROOT
BRANCH   1   2
ATOM      2  C   UNL     1       3.805  15.613  23.113  1.00  0.00     0.000 C 
BRANCH   2   3
ATOM      3  C   UNL     1       2.736  16.256  22.217  1.00  0.00     0.000 C 
BRANCH   3   4
ATOM      4  C   UNL     1       1.301  15.999  22.714  1.00  0.00     0.000 C 
BRANCH   4   5
ATOM      5  C   UNL     1       0.220  15.997  21.614  1.00  0.00     0.006 C 
BRANCH   5   6
ATOM      6  C   UNL     1      -1.219  16.132  22.133  1.00  0.00     0.053 C 
BRANCH   6   7
ATOM      7  C   UNL     1      -1.865  17.402  21.670  1.00  0.00     0.041 C 
ATOM      8  O   UNL     1      -1.292  18.131  20.818  1.00  0.00    -0.550 OA
ATOM      9  O   UNL     1      -3.117  17.764  22.153  1.00  0.00    -0.550 OA
ENDBRANCH   6   7
ENDBRANCH   5   6
ENDBRANCH   4   5
ENDBRANCH   3   4
ENDBRANCH   2   3
ENDBRANCH   1   2
BRANCH   1  10
ATOM     10  C   UNL     1       6.242  15.250  22.550  1.00  0.00     0.000 C 
BRANCH  10  11
ATOM     11  C   UNL     1       6.663  16.359  21.579  1.00  0.00    -0.000 C 
BRANCH  11  12
ATOM     12  C   UNL     1       8.128  16.762  21.806  1.00  0.00    -0.000 C 
BRANCH  12  13
ATOM     13  C   UNL     1       8.766  17.413  20.568  1.00  0.00    -0.000 C 
BRANCH  13  14
ATOM     14  C   UNL     1      10.254  17.054  20.412  1.00  0.00    -0.000 C 
BRANCH  14  15
ATOM     15  C   UNL     1      10.465  15.688  19.739  1.00  0.00    -0.000 C 
BRANCH  15  16
ATOM     16  C   UNL     1      10.390  14.519  20.733  1.00  0.00    -0.003 C 
ATOM     17  C   UNL     1       9.937  13.238  20.040  1.00  0.00     0.004 C 
ENDBRANCH  15  16
ENDBRANCH  14  15
ENDBRANCH  13  14
ENDBRANCH  12  13
ENDBRANCH  11  12
ENDBRANCH  10  11
ENDBRANCH   1  10
TORSDOF 13
ENDMDL
