MODEL 1
REMARK VINA RESULT:    -4.113      0.000      0.000
REMARK INTER + INTRA:          -6.281
REMARK INTER:                  -6.277
REMARK INTRA:                  -0.003
REMARK UNBOUND:                -0.003
REMARK SMILES CC1=CCC[C@@H](C)C(=O)C[C@H](C(C)C)C(=O)C1
REMARK SMILES IDX 8 1 9 2 6 3 7 4 5 5 4 6 3 7 2 8 1 9 10 11 11 12 15 13 16 14
REMARK SMILES IDX 17 15 12 17 13 18 14 19
REMARK H PARENT
REMARK Flexibility Score: 70.00
ROOT
ATOM      1  C   UNL     1     -25.092   2.925  -2.809  1.00  0.00     0.136 C 
ATOM      2  O   UNL     1     -26.024   3.613  -3.203  1.00  0.00    -0.299 OA
ENDROOT
BRANCH   1   3
ATOM      3  C   UNL     1     -24.957   1.492  -3.291  1.00  0.00     0.053 C 
ATOM      4  C   UNL     1     -24.671   1.442  -4.800  1.00  0.00     0.016 C 
BRANCH   3   5
ATOM      5  C   UNL     1     -26.232   0.685  -2.942  1.00  0.00     0.015 C 
BRANCH   5   6
ATOM      6  C   UNL     1     -26.220   0.172  -1.489  1.00  0.00     0.028 C 
BRANCH   6   7
ATOM      7  C   UNL     1     -24.818  -0.151  -1.035  1.00  0.00    -0.028 C 
ATOM      8  C   UNL     1     -24.203   0.415   0.029  1.00  0.00    -0.070 CG0
ATOM      9  C   UNL     1     -22.815  -0.057   0.380  1.00  0.00     0.039 C 
ATOM     10  G   UNL     1     -24.846   1.502   0.877  1.00  0.00     0.000 G0
ENDBRANCH   6   7
ENDBRANCH   5   6
ENDBRANCH   3   5
ENDBRANCH   1   3
BRANCH   1  11
ATOM     11  C   UNL     1     -24.111   3.517  -1.823  1.00  0.00     0.087 C 
BRANCH  11  12
ATOM     12  C   UNL     1     -24.775   3.802  -0.450  1.00  0.00     0.066 C 
BRANCH  12  13
ATOM     13  C   UNL     1     -24.270   2.869   0.645  1.00  0.00     0.140 C 
ATOM     14  O   UNL     1     -23.299   3.214   1.303  1.00  0.00    -0.299 OA
BRANCH  13  15
ATOM     15  C   UNL     1     -24.857   1.498   0.883  1.00  0.00     0.106 CG0
ATOM     16  G   UNL     1     -24.199   0.430   0.022  1.00  0.00     0.000 G0
ENDBRANCH  13  15
ENDBRANCH  12  13
BRANCH  12  17
ATOM     17  C   UNL     1     -24.735   5.305  -0.014  1.00  0.00    -0.006 C 
ATOM     18  C   UNL     1     -23.396   6.018  -0.277  1.00  0.00     0.008 C 
ATOM     19  C   UNL     1     -25.875   6.104  -0.672  1.00  0.00     0.008 C 
ENDBRANCH  12  17
ENDBRANCH  11  12
ENDBRANCH   1  11
TORSDOF 1
ENDMDL
MODEL 2
REMARK VINA RESULT:    -4.069      1.861      4.114
REMARK INTER + INTRA:          -6.212
REMARK INTER:                  -5.985
REMARK INTRA:                  -0.227
REMARK UNBOUND:                -0.003
REMARK SMILES CC1=CCC[C@@H](C)C(=O)C[C@H](C(C)C)C(=O)C1
REMARK SMILES IDX 8 1 9 2 6 3 7 4 5 5 4 6 3 7 2 8 1 9 10 11 11 12 15 13 16 14
REMARK SMILES IDX 17 15 12 17 13 18 14 19
REMARK H PARENT
REMARK Flexibility Score: 70.00
ROOT
ATOM      1  C   UNL     1     -25.634  -0.007  -1.833  1.00  0.00     0.136 C 
ATOM      2  O   UNL     1     -25.036  -0.998  -2.232  1.00  0.00    -0.299 OA
ENDROOT
BRANCH   1   3
ATOM      3  C   UNL     1     -26.551   0.751  -2.776  1.00  0.00     0.053 C 
ATOM      4  C   UNL     1     -27.729  -0.129  -3.225  1.00  0.00     0.016 C 
BRANCH   3   5
ATOM      5  C   UNL     1     -25.753   1.272  -3.997  1.00  0.00     0.015 C 
BRANCH   5   6
ATOM      6  C   UNL     1     -24.778   2.404  -3.617  1.00  0.00     0.028 C 
BRANCH   6   7
ATOM      7  C   UNL     1     -25.503   3.555  -2.968  1.00  0.00    -0.028 C 
ATOM      8  C   UNL     1     -25.105   4.174  -1.832  1.00  0.00    -0.070 CG0
ATOM      9  C   UNL     1     -25.916   5.346  -1.341  1.00  0.00     0.039 C 
ATOM     10  G   UNL     1     -23.886   3.738  -1.033  1.00  0.00     0.000 G0
ENDBRANCH   6   7
ENDBRANCH   5   6
ENDBRANCH   3   5
ENDBRANCH   1   3
BRANCH   1  11
ATOM     11  C   UNL     1     -25.418   0.454  -0.410  1.00  0.00     0.087 C 
BRANCH  11  12
ATOM     12  C   UNL     1     -24.059   1.182  -0.240  1.00  0.00     0.066 C 
BRANCH  12  13
ATOM     13  C   UNL     1     -24.227   2.676   0.009  1.00  0.00     0.140 C 
ATOM     14  O   UNL     1     -24.743   3.038   1.057  1.00  0.00    -0.299 OA
BRANCH  13  15
ATOM     15  C   UNL     1     -23.875   3.720  -1.024  1.00  0.00     0.106 CG0
ATOM     16  G   UNL     1     -25.088   4.183  -1.815  1.00  0.00     0.000 G0
ENDBRANCH  13  15
ENDBRANCH  12  13
BRANCH  12  17
ATOM     17  C   UNL     1     -23.094   0.512   0.796  1.00  0.00    -0.006 C 
ATOM     18  C   UNL     1     -22.807  -0.979   0.539  1.00  0.00     0.008 C 
ATOM     19  C   UNL     1     -21.762   1.278   0.889  1.00  0.00     0.008 C 
ENDBRANCH  12  17
ENDBRANCH  11  12
ENDBRANCH   1  11
TORSDOF 1
ENDMDL
MODEL 3
REMARK VINA RESULT:    -4.031      1.364      2.165
REMARK INTER + INTRA:          -6.155
REMARK INTER:                  -6.111
REMARK INTRA:                  -0.044
REMARK UNBOUND:                -0.003
REMARK SMILES CC1=CCC[C@@H](C)C(=O)C[C@H](C(C)C)C(=O)C1
REMARK SMILES IDX 8 1 9 2 6 3 7 4 5 5 4 6 3 7 2 8 1 9 10 11 11 12 15 13 16 14
REMARK SMILES IDX 17 15 12 17 13 18 14 19
REMARK H PARENT
REMARK Flexibility Score: 70.00
ROOT
ATOM      1  C   UNL     1     -24.898   2.606  -3.189  1.00  0.00     0.136 C 
ATOM      2  O   UNL     1     -25.877   3.338  -3.240  1.00  0.00    -0.299 OA
ENDROOT
BRANCH   1   3
ATOM      3  C   UNL     1     -24.630   1.626  -4.317  1.00  0.00     0.053 C 
ATOM      4  C   UNL     1     -24.266   2.365  -5.615  1.00  0.00     0.016 C 
BRANCH   3   5
ATOM      5  C   UNL     1     -25.856   0.703  -4.530  1.00  0.00     0.015 C 
BRANCH   5   6
ATOM      6  C   UNL     1     -25.708  -0.643  -3.796  1.00  0.00     0.028 C 
BRANCH   6   7
ATOM      7  C   UNL     1     -26.644  -0.730  -2.617  1.00  0.00    -0.028 C 
ATOM      8  C   UNL     1     -26.308  -0.420  -1.343  1.00  0.00    -0.070 CG0
ATOM      9  C   UNL     1     -27.379  -0.512  -0.285  1.00  0.00     0.039 C 
ATOM     10  G   UNL     1     -24.908   0.009  -0.935  1.00  0.00     0.000 G0
ENDBRANCH   6   7
ENDBRANCH   5   6
ENDBRANCH   3   5
ENDBRANCH   1   3
BRANCH   1  11
ATOM     11  C   UNL     1     -23.993   2.678  -1.980  1.00  0.00     0.087 C 
BRANCH  11  12
ATOM     12  C   UNL     1     -24.798   2.658  -0.655  1.00  0.00     0.066 C 
BRANCH  12  13
ATOM     13  C   UNL     1     -24.908   1.259  -0.061  1.00  0.00     0.140 C 
ATOM     14  O   UNL     1     -24.909   1.141   1.156  1.00  0.00    -0.299 OA
BRANCH  13  15
ATOM     15  C   UNL     1     -24.915   0.010  -0.910  1.00  0.00     0.106 CG0
ATOM     16  G   UNL     1     -26.318  -0.390  -1.340  1.00  0.00     0.000 G0
ENDBRANCH  13  15
ENDBRANCH  12  13
BRANCH  12  17
ATOM     17  C   UNL     1     -24.330   3.716   0.400  1.00  0.00    -0.006 C 
ATOM     18  C   UNL     1     -22.812   3.744   0.655  1.00  0.00     0.008 C 
ATOM     19  C   UNL     1     -24.809   5.129   0.019  1.00  0.00     0.008 C 
ENDBRANCH  12  17
ENDBRANCH  11  12
ENDBRANCH   1  11
TORSDOF 1
ENDMDL
MODEL 4
REMARK VINA RESULT:    -4.021      1.985      4.659
REMARK INTER + INTRA:          -6.140
REMARK INTER:                  -5.864
REMARK INTRA:                  -0.276
REMARK UNBOUND:                -0.003
REMARK SMILES CC1=CCC[C@@H](C)C(=O)C[C@H](C(C)C)C(=O)C1
REMARK SMILES IDX 8 1 9 2 6 3 7 4 5 5 4 6 3 7 2 8 1 9 10 11 11 12 15 13 16 14
REMARK SMILES IDX 17 15 12 17 13 18 14 19
REMARK H PARENT
REMARK Flexibility Score: 70.00
ROOT
ATOM      1  C   UNL     1     -23.069   0.023  -1.156  1.00  0.00     0.136 C 
ATOM      2  O   UNL     1     -23.256  -1.070  -1.675  1.00  0.00    -0.299 OA
ENDROOT
BRANCH   1   3
ATOM      3  C   UNL     1     -22.524   0.103   0.258  1.00  0.00     0.053 C 
ATOM      4  C   UNL     1     -23.663   0.073   1.290  1.00  0.00     0.016 C 
BRANCH   3   5
ATOM      5  C   UNL     1     -21.656   1.375   0.428  1.00  0.00     0.015 C 
BRANCH   5   6
ATOM      6  C   UNL     1     -22.285   2.385   1.407  1.00  0.00     0.028 C 
BRANCH   6   7
ATOM      7  C   UNL     1     -22.302   3.775   0.823  1.00  0.00    -0.028 C 
ATOM      8  C   UNL     1     -23.381   4.358   0.251  1.00  0.00    -0.070 CG0
ATOM      9  C   UNL     1     -23.245   5.777  -0.240  1.00  0.00     0.039 C 
ATOM     10  G   UNL     1     -24.714   3.647   0.080  1.00  0.00     0.000 G0
ENDBRANCH   6   7
ENDBRANCH   5   6
ENDBRANCH   3   5
ENDBRANCH   1   3
BRANCH   1  11
ATOM     11  C   UNL     1     -23.416   1.271  -1.936  1.00  0.00     0.087 C 
BRANCH  11  12
ATOM     12  C   UNL     1     -24.888   1.702  -1.708  1.00  0.00     0.066 C 
BRANCH  12  13
ATOM     13  C   UNL     1     -25.009   3.165  -1.298  1.00  0.00     0.140 C 
ATOM     14  O   UNL     1     -25.258   3.994  -2.163  1.00  0.00    -0.299 OA
BRANCH  13  15
ATOM     15  C   UNL     1     -24.737   3.645   0.108  1.00  0.00     0.106 CG0
ATOM     16  G   UNL     1     -23.390   4.340   0.231  1.00  0.00     0.000 G0
ENDBRANCH  13  15
ENDBRANCH  12  13
BRANCH  12  17
ATOM     17  C   UNL     1     -25.858   1.332  -2.880  1.00  0.00    -0.006 C 
ATOM     18  C   UNL     1     -25.193   1.255  -4.267  1.00  0.00     0.008 C 
ATOM     19  C   UNL     1     -26.594   0.011  -2.595  1.00  0.00     0.008 C 
ENDBRANCH  12  17
ENDBRANCH  11  12
ENDBRANCH   1  11
TORSDOF 1
ENDMDL
MODEL 5
REMARK VINA RESULT:    -3.819      2.489      4.607
REMARK INTER + INTRA:          -5.832
REMARK INTER:                  -5.717
REMARK INTRA:                  -0.115
REMARK UNBOUND:                -0.003
REMARK SMILES CC1=CCC[C@@H](C)C(=O)C[C@H](C(C)C)C(=O)C1
REMARK SMILES IDX 8 1 9 2 6 3 7 4 5 5 4 6 3 7 2 8 1 9 10 11 11 12 15 13 16 14
REMARK SMILES IDX 17 15 12 17 13 18 14 19
REMARK H PARENT
REMARK Flexibility Score: 70.00
ROOT
ATOM      1  C   UNL     1     -22.247   4.761   2.159  1.00  0.00     0.136 C 
ATOM      2  O   UNL     1     -21.861   5.922   2.119  1.00  0.00    -0.299 OA
ENDROOT
BRANCH   1   3
ATOM      3  C   UNL     1     -21.260   3.648   2.457  1.00  0.00     0.053 C 
ATOM      4  C   UNL     1     -20.640   3.820   3.853  1.00  0.00     0.016 C 
BRANCH   3   5
ATOM      5  C   UNL     1     -20.162   3.598   1.366  1.00  0.00     0.015 C 
BRANCH   5   6
ATOM      6  C   UNL     1     -20.583   2.746   0.153  1.00  0.00     0.028 C 
BRANCH   6   7
ATOM      7  C   UNL     1     -21.123   1.406   0.586  1.00  0.00    -0.028 C 
ATOM      8  C   UNL     1     -22.333   0.913   0.233  1.00  0.00    -0.070 CG0
ATOM      9  C   UNL     1     -22.702  -0.469   0.711  1.00  0.00     0.039 C 
ATOM     10  G   UNL     1     -23.330   1.688  -0.614  1.00  0.00     0.000 G0
ENDBRANCH   6   7
ENDBRANCH   5   6
ENDBRANCH   3   5
ENDBRANCH   1   3
BRANCH   1  11
ATOM     11  C   UNL     1     -23.703   4.466   1.880  1.00  0.00     0.087 C 
BRANCH  11  12
ATOM     12  C   UNL     1     -23.938   4.080   0.396  1.00  0.00     0.066 C 
BRANCH  12  13
ATOM     13  C   UNL     1     -24.224   2.594   0.219  1.00  0.00     0.140 C 
ATOM     14  O   UNL     1     -25.150   2.100   0.847  1.00  0.00    -0.299 OA
BRANCH  13  15
ATOM     15  C   UNL     1     -23.354   1.689  -0.620  1.00  0.00     0.106 CG0
ATOM     16  G   UNL     1     -22.366   0.895   0.220  1.00  0.00     0.000 G0
ENDBRANCH  13  15
ENDBRANCH  12  13
BRANCH  12  17
ATOM     17  C   UNL     1     -24.985   4.979  -0.345  1.00  0.00    -0.006 C 
ATOM     18  C   UNL     1     -24.510   6.414  -0.639  1.00  0.00     0.008 C 
ATOM     19  C   UNL     1     -25.454   4.320  -1.655  1.00  0.00     0.008 C 
ENDBRANCH  12  17
ENDBRANCH  11  12
ENDBRANCH   1  11
TORSDOF 1
ENDMDL
MODEL 6
REMARK VINA RESULT:    -3.678      7.019     10.033
REMARK INTER + INTRA:          -5.616
REMARK INTER:                  -5.877
REMARK INTRA:                   0.260
REMARK UNBOUND:                -0.003
REMARK SMILES CC1=CCC[C@@H](C)C(=O)C[C@H](C(C)C)C(=O)C1
REMARK SMILES IDX 8 1 9 2 6 3 7 4 5 5 4 6 3 7 2 8 1 9 10 11 11 12 15 13 16 14
REMARK SMILES IDX 17 15 12 17 13 18 14 19
REMARK H PARENT
REMARK Flexibility Score: 70.00
ROOT
ATOM      1  C   UNL     1     -26.558  -3.554  -4.633  1.00  0.00     0.136 C 
ATOM      2  O   UNL     1     -26.358  -3.991  -3.507  1.00  0.00    -0.299 OA
ENDROOT
BRANCH   1   3
ATOM      3  C   UNL     1     -26.705  -2.058  -4.846  1.00  0.00     0.053 C 
ATOM      4  C   UNL     1     -26.202  -1.275  -3.623  1.00  0.00     0.016 C 
BRANCH   3   5
ATOM      5  C   UNL     1     -28.179  -1.703  -5.164  1.00  0.00     0.015 C 
BRANCH   5   6
ATOM      6  C   UNL     1     -28.316  -0.881  -6.460  1.00  0.00     0.028 C 
BRANCH   6   7
ATOM      7  C   UNL     1     -27.566  -1.524  -7.598  1.00  0.00    -0.028 C 
ATOM      8  C   UNL     1     -27.927  -2.679  -8.205  1.00  0.00    -0.070 CG0
ATOM      9  C   UNL     1     -27.094  -3.162  -9.365  1.00  0.00     0.039 C 
ATOM     10  G   UNL     1     -29.125  -3.506  -7.766  1.00  0.00     0.000 G0
ENDBRANCH   6   7
ENDBRANCH   5   6
ENDBRANCH   3   5
ENDBRANCH   1   3
BRANCH   1  11
ATOM     11  C   UNL     1     -26.685  -4.527  -5.783  1.00  0.00     0.087 C 
BRANCH  11  12
ATOM     12  C   UNL     1     -28.118  -5.110  -5.891  1.00  0.00     0.066 C 
BRANCH  12  13
ATOM     13  C   UNL     1     -28.731  -4.895  -7.269  1.00  0.00     0.140 C 
ATOM     14  O   UNL     1     -28.826  -5.856  -8.020  1.00  0.00    -0.299 OA
BRANCH  13  15
ATOM     15  C   UNL     1     -29.133  -3.533  -7.781  1.00  0.00     0.106 CG0
ATOM     16  G   UNL     1     -27.935  -2.695  -8.199  1.00  0.00     0.000 G0
ENDBRANCH  13  15
ENDBRANCH  12  13
BRANCH  12  17
ATOM     17  C   UNL     1     -28.249  -6.593  -5.406  1.00  0.00    -0.006 C 
ATOM     18  C   UNL     1     -27.037  -7.487  -5.731  1.00  0.00     0.008 C 
ATOM     19  C   UNL     1     -28.541  -6.660  -3.896  1.00  0.00     0.008 C 
ENDBRANCH  12  17
ENDBRANCH  11  12
ENDBRANCH   1  11
TORSDOF 1
ENDMDL
MODEL 7
REMARK VINA RESULT:    -3.612      2.962      5.428
REMARK INTER + INTRA:          -5.516
REMARK INTER:                  -5.223
REMARK INTRA:                  -0.293
REMARK UNBOUND:                -0.003
REMARK SMILES CC1=CCC[C@@H](C)C(=O)C[C@H](C(C)C)C(=O)C1
REMARK SMILES IDX 8 1 9 2 6 3 7 4 5 5 4 6 3 7 2 8 1 9 10 11 11 12 15 13 16 14
REMARK SMILES IDX 17 15 12 17 13 18 14 19
REMARK H PARENT
REMARK Flexibility Score: 70.00
ROOT
ATOM      1  C   UNL     1     -24.860   4.483  -0.533  1.00  0.00     0.136 C 
ATOM      2  O   UNL     1     -24.568   3.909  -1.573  1.00  0.00    -0.299 OA
ENDROOT
BRANCH   1   3
ATOM      3  C   UNL     1     -25.295   5.937  -0.569  1.00  0.00     0.053 C 
ATOM      4  C   UNL     1     -26.595   6.103  -1.373  1.00  0.00     0.016 C 
BRANCH   3   5
ATOM      5  C   UNL     1     -24.165   6.821  -1.154  1.00  0.00     0.015 C 
BRANCH   5   6
ATOM      6  C   UNL     1     -22.965   6.945  -0.196  1.00  0.00     0.028 C 
BRANCH   6   7
ATOM      7  C   UNL     1     -23.410   7.340   1.190  1.00  0.00    -0.028 C 
ATOM      8  C   UNL     1     -23.013   6.729   2.330  1.00  0.00    -0.070 CG0
ATOM      9  C   UNL     1     -23.512   7.281   3.641  1.00  0.00     0.039 C 
ATOM     10  G   UNL     1     -22.096   5.516   2.346  1.00  0.00     0.000 G0
ENDBRANCH   6   7
ENDBRANCH   5   6
ENDBRANCH   3   5
ENDBRANCH   1   3
BRANCH   1  11
ATOM     11  C   UNL     1     -24.748   3.730   0.773  1.00  0.00     0.087 C 
BRANCH  11  12
ATOM     12  C   UNL     1     -23.271   3.459   1.159  1.00  0.00     0.066 C 
BRANCH  12  13
ATOM     13  C   UNL     1     -22.851   4.209   2.418  1.00  0.00     0.140 C 
ATOM     14  O   UNL     1     -23.216   3.777   3.502  1.00  0.00    -0.299 OA
BRANCH  13  15
ATOM     15  C   UNL     1     -22.090   5.512   2.376  1.00  0.00     0.106 CG0
ATOM     16  G   UNL     1     -23.013   6.719   2.320  1.00  0.00     0.000 G0
ENDBRANCH  13  15
ENDBRANCH  12  13
BRANCH  12  17
ATOM     17  C   UNL     1     -22.887   1.942   1.215  1.00  0.00    -0.006 C 
ATOM     18  C   UNL     1     -23.903   0.994   0.552  1.00  0.00     0.008 C 
ATOM     19  C   UNL     1     -21.493   1.699   0.609  1.00  0.00     0.008 C 
ENDBRANCH  12  17
ENDBRANCH  11  12
ENDBRANCH   1  11
TORSDOF 1
ENDMDL
MODEL 8
REMARK VINA RESULT:    -3.583      2.712      4.828
REMARK INTER + INTRA:          -5.471
REMARK INTER:                  -5.237
REMARK INTRA:                  -0.234
REMARK UNBOUND:                -0.003
REMARK SMILES CC1=CCC[C@@H](C)C(=O)C[C@H](C(C)C)C(=O)C1
REMARK SMILES IDX 8 1 9 2 6 3 7 4 5 5 4 6 3 7 2 8 1 9 10 11 11 12 15 13 16 14
REMARK SMILES IDX 17 15 12 17 13 18 14 19
REMARK H PARENT
REMARK Flexibility Score: 70.00
ROOT
ATOM      1  C   UNL     1     -23.429   2.196   1.185  1.00  0.00     0.136 C 
ATOM      2  O   UNL     1     -22.462   1.450   1.107  1.00  0.00    -0.299 OA
ENDROOT
BRANCH   1   3
ATOM      3  C   UNL     1     -24.650   1.941   0.320  1.00  0.00     0.053 C 
ATOM      4  C   UNL     1     -25.344   0.629   0.720  1.00  0.00     0.016 C 
BRANCH   3   5
ATOM      5  C   UNL     1     -24.253   1.924  -1.177  1.00  0.00     0.015 C 
BRANCH   5   6
ATOM      6  C   UNL     1     -23.807   3.311  -1.679  1.00  0.00     0.028 C 
BRANCH   6   7
ATOM      7  C   UNL     1     -24.855   4.358  -1.399  1.00  0.00    -0.028 C 
ATOM      8  C   UNL     1     -24.611   5.559  -0.825  1.00  0.00    -0.070 CG0
ATOM      9  C   UNL     1     -25.765   6.514  -0.661  1.00  0.00     0.039 C 
ATOM     10  G   UNL     1     -23.233   5.980  -0.337  1.00  0.00     0.000 G0
ENDBRANCH   6   7
ENDBRANCH   5   6
ENDBRANCH   3   5
ENDBRANCH   1   3
BRANCH   1  11
ATOM     11  C   UNL     1     -23.366   3.378   2.125  1.00  0.00     0.087 C 
BRANCH  11  12
ATOM     12  C   UNL     1     -22.345   4.442   1.647  1.00  0.00     0.066 C 
BRANCH  12  13
ATOM     13  C   UNL     1     -23.020   5.714   1.147  1.00  0.00     0.140 C 
ATOM     14  O   UNL     1     -23.484   6.490   1.970  1.00  0.00    -0.299 OA
BRANCH  13  15
ATOM     15  C   UNL     1     -23.228   6.005  -0.320  1.00  0.00     0.106 CG0
ATOM     16  G   UNL     1     -24.599   5.564  -0.809  1.00  0.00     0.000 G0
ENDBRANCH  13  15
ENDBRANCH  12  13
BRANCH  12  17
ATOM     17  C   UNL     1     -21.198   4.742   2.671  1.00  0.00    -0.006 C 
ATOM     18  C   UNL     1     -21.634   4.731   4.148  1.00  0.00     0.008 C 
ATOM     19  C   UNL     1     -20.017   3.774   2.481  1.00  0.00     0.008 C 
ENDBRANCH  12  17
ENDBRANCH  11  12
ENDBRANCH   1  11
TORSDOF 1
ENDMDL
MODEL 9
REMARK VINA RESULT:    -3.528      2.281      4.636
REMARK INTER + INTRA:          -5.387
REMARK INTER:                  -5.154
REMARK INTRA:                  -0.233
REMARK UNBOUND:                -0.003
REMARK SMILES CC1=CCC[C@@H](C)C(=O)C[C@H](C(C)C)C(=O)C1
REMARK SMILES IDX 8 1 9 2 6 3 7 4 5 5 4 6 3 7 2 8 1 9 10 11 11 12 15 13 16 14
REMARK SMILES IDX 17 15 12 17 13 18 14 19
REMARK H PARENT
REMARK Flexibility Score: 70.00
ROOT
ATOM      1  C   UNL     1     -24.993   4.136  -0.656  1.00  0.00     0.136 C 
ATOM      2  O   UNL     1     -25.525   4.031  -1.753  1.00  0.00    -0.299 OA
ENDROOT
BRANCH   1   3
ATOM      3  C   UNL     1     -24.596   5.506  -0.137  1.00  0.00     0.053 C 
ATOM      4  C   UNL     1     -25.383   6.615  -0.854  1.00  0.00     0.016 C 
BRANCH   3   5
ATOM      5  C   UNL     1     -23.070   5.718  -0.295  1.00  0.00     0.015 C 
BRANCH   5   6
ATOM      6  C   UNL     1     -22.305   5.458   1.016  1.00  0.00     0.028 C 
BRANCH   6   7
ATOM      7  C   UNL     1     -21.026   4.699   0.763  1.00  0.00    -0.028 C 
ATOM      8  C   UNL     1     -20.888   3.359   0.886  1.00  0.00    -0.070 CG0
ATOM      9  C   UNL     1     -19.552   2.749   0.546  1.00  0.00     0.039 C 
ATOM     10  G   UNL     1     -22.013   2.448   1.353  1.00  0.00     0.000 G0
ENDBRANCH   6   7
ENDBRANCH   5   6
ENDBRANCH   3   5
ENDBRANCH   1   3
BRANCH   1  11
ATOM     11  C   UNL     1     -24.716   2.883   0.143  1.00  0.00     0.087 C 
BRANCH  11  12
ATOM     12  C   UNL     1     -23.755   1.922  -0.604  1.00  0.00     0.066 C 
BRANCH  12  13
ATOM     13  C   UNL     1     -22.535   1.552   0.232  1.00  0.00     0.140 C 
ATOM     14  O   UNL     1     -22.011   0.463   0.048  1.00  0.00    -0.299 OA
BRANCH  13  15
ATOM     15  C   UNL     1     -22.010   2.431   1.342  1.00  0.00     0.106 CG0
ATOM     16  G   UNL     1     -20.882   3.339   0.876  1.00  0.00     0.000 G0
ENDBRANCH  13  15
ENDBRANCH  12  13
BRANCH  12  17
ATOM     17  C   UNL     1     -24.454   0.665  -1.224  1.00  0.00    -0.006 C 
ATOM     18  C   UNL     1     -25.781   0.268  -0.551  1.00  0.00     0.008 C 
ATOM     19  C   UNL     1     -24.683   0.846  -2.735  1.00  0.00     0.008 C 
ENDBRANCH  12  17
ENDBRANCH  11  12
ENDBRANCH   1  11
TORSDOF 1
ENDMDL
