MODEL 1
REMARK VINA RESULT:    -4.688      0.000      0.000
REMARK INTER + INTRA:          -9.424
REMARK INTER:                  -7.155
REMARK INTRA:                  -2.269
REMARK UNBOUND:                -2.269
REMARK SMILES CC(=O)CCC=C(C)CCC=C(C)CCC=C(C)C
REMARK SMILES IDX 10 1 11 2 12 3 13 4 14 5 15 6 16 7 18 8 17 9 19 10 9 11 7 12
REMARK SMILES IDX 6 13 8 14 5 15 4 16 2 17 3 18 1 19
REMARK H PARENT
REMARK Flexibility Score: inf
ROOT
ATOM      1  C   UNL     1       0.799  14.062  20.111  1.00  0.00     0.032 C 
ENDROOT
BRANCH   1   2
ATOM      2  C   UNL     1       1.917  13.078  19.862  1.00  0.00    -0.028 C 
ATOM      3  C   UNL     1       3.112  13.388  19.307  1.00  0.00    -0.077 C 
ATOM      4  C   UNL     1       3.425  14.780  18.809  1.00  0.00     0.039 C 
BRANCH   3   5
ATOM      5  C   UNL     1       4.166  12.310  19.184  1.00  0.00     0.034 C 
BRANCH   5   6
ATOM      6  C   UNL     1       4.293  11.833  17.734  1.00  0.00     0.032 C 
BRANCH   6   7
ATOM      7  C   UNL     1       3.507  10.565  17.517  1.00  0.00    -0.028 C 
ATOM      8  C   UNL     1       1.688   9.148  16.666  1.00  0.00     0.039 C 
ATOM      9  C   UNL     1       2.342  10.496  16.834  1.00  0.00    -0.080 C 
ATOM     10  C   UNL     1       1.677  11.723  16.258  1.00  0.00     0.039 C 
ENDBRANCH   6   7
ENDBRANCH   5   6
ENDBRANCH   3   5
ENDBRANCH   1   2
BRANCH   1  11
ATOM     11  C   UNL     1       0.678  14.394  21.604  1.00  0.00     0.034 C 
BRANCH  11  12
ATOM     12  C   UNL     1       1.153  15.801  21.914  1.00  0.00    -0.077 C 
ATOM     13  C   UNL     1       2.387  16.076  22.396  1.00  0.00    -0.028 C 
ATOM     14  C   UNL     1       0.206  16.952  21.691  1.00  0.00     0.039 C 
BRANCH  13  15
ATOM     15  C   UNL     1       3.478  15.059  22.639  1.00  0.00     0.035 C 
BRANCH  15  16
ATOM     16  C   UNL     1       3.431  14.518  24.073  1.00  0.00     0.079 C 
BRANCH  16  17
ATOM     17  C   UNL     1       3.141  13.040  24.101  1.00  0.00     0.130 C 
ATOM     18  O   UNL     1       2.536  12.561  25.048  1.00  0.00    -0.300 OA
ATOM     19  C   UNL     1       3.586  12.139  22.988  1.00  0.00     0.087 C 
ENDBRANCH  16  17
ENDBRANCH  15  16
ENDBRANCH  13  15
ENDBRANCH  11  12
ENDBRANCH   1  11
TORSDOF 9
ENDMDL
MODEL 2
REMARK VINA RESULT:    -4.659      2.711      6.069
REMARK INTER + INTRA:          -9.380
REMARK INTER:                  -7.074
REMARK INTRA:                  -2.306
REMARK UNBOUND:                -2.269
REMARK SMILES CC(=O)CCC=C(C)CCC=C(C)CCC=C(C)C
REMARK SMILES IDX 10 1 11 2 12 3 13 4 14 5 15 6 16 7 18 8 17 9 19 10 9 11 7 12
REMARK SMILES IDX 6 13 8 14 5 15 4 16 2 17 3 18 1 19
REMARK H PARENT
REMARK Flexibility Score: inf
ROOT
ATOM      1  C   UNL     1       2.186  11.538  21.053  1.00  0.00     0.032 C 
ENDROOT
BRANCH   1   2
ATOM      2  C   UNL     1       2.898  12.673  21.751  1.00  0.00    -0.028 C 
ATOM      3  C   UNL     1       2.763  12.980  23.062  1.00  0.00    -0.077 C 
ATOM      4  C   UNL     1       1.808  12.234  23.965  1.00  0.00     0.039 C 
BRANCH   3   5
ATOM      5  C   UNL     1       3.596  14.102  23.642  1.00  0.00     0.034 C 
BRANCH   5   6
ATOM      6  C   UNL     1       3.578  15.327  22.720  1.00  0.00     0.032 C 
BRANCH   6   7
ATOM      7  C   UNL     1       2.251  16.037  22.801  1.00  0.00    -0.028 C 
ATOM      8  C   UNL     1       0.126  16.959  21.981  1.00  0.00     0.039 C 
ATOM      9  C   UNL     1       1.445  16.270  21.741  1.00  0.00    -0.080 C 
ATOM     10  C   UNL     1       1.835  15.878  20.336  1.00  0.00     0.039 C 
ENDBRANCH   6   7
ENDBRANCH   5   6
ENDBRANCH   3   5
ENDBRANCH   1   2
BRANCH   1  11
ATOM     11  C   UNL     1       1.111  12.066  20.095  1.00  0.00     0.034 C 
BRANCH  11  12
ATOM     12  C   UNL     1      -0.284  11.937  20.679  1.00  0.00    -0.077 C 
ATOM     13  C   UNL     1      -1.082  10.867  20.458  1.00  0.00    -0.028 C 
ATOM     14  C   UNL     1      -0.818  13.055  21.537  1.00  0.00     0.039 C 
BRANCH  13  15
ATOM     15  C   UNL     1      -0.700   9.639  19.663  1.00  0.00     0.035 C 
BRANCH  15  16
ATOM     16  C   UNL     1      -0.052   8.573  20.554  1.00  0.00     0.079 C 
BRANCH  16  17
ATOM     17  C   UNL     1       1.227   8.048  19.955  1.00  0.00     0.130 C 
ATOM     18  O   UNL     1       1.839   7.157  20.524  1.00  0.00    -0.300 OA
ATOM     19  C   UNL     1       1.769   8.605  18.672  1.00  0.00     0.087 C 
ENDBRANCH  16  17
ENDBRANCH  15  16
ENDBRANCH  13  15
ENDBRANCH  11  12
ENDBRANCH   1  11
TORSDOF 9
ENDMDL
MODEL 3
REMARK VINA RESULT:    -4.632      2.611      4.169
REMARK INTER + INTRA:          -9.339
REMARK INTER:                  -7.689
REMARK INTRA:                  -1.650
REMARK UNBOUND:                -2.269
REMARK SMILES CC(=O)CCC=C(C)CCC=C(C)CCC=C(C)C
REMARK SMILES IDX 10 1 11 2 12 3 13 4 14 5 15 6 16 7 18 8 17 9 19 10 9 11 7 12
REMARK SMILES IDX 6 13 8 14 5 15 4 16 2 17 3 18 1 19
REMARK H PARENT
REMARK Flexibility Score: inf
ROOT
ATOM      1  C   UNL     1       0.135  12.562  22.434  1.00  0.00     0.032 C 
ENDROOT
BRANCH   1   2
ATOM      2  C   UNL     1      -0.348  11.262  21.836  1.00  0.00    -0.028 C 
ATOM      3  C   UNL     1      -1.064  11.156  20.692  1.00  0.00    -0.077 C 
ATOM      4  C   UNL     1      -1.516  12.370  19.915  1.00  0.00     0.039 C 
BRANCH   3   5
ATOM      5  C   UNL     1      -1.417   9.779  20.173  1.00  0.00     0.034 C 
BRANCH   5   6
ATOM      6  C   UNL     1      -0.168   8.897  20.072  1.00  0.00     0.032 C 
BRANCH   6   7
ATOM      7  C   UNL     1       0.291   8.782  18.640  1.00  0.00    -0.028 C 
ATOM      8  C   UNL     1       1.695   9.224  16.672  1.00  0.00     0.039 C 
ATOM      9  C   UNL     1       1.326   9.472  18.113  1.00  0.00    -0.080 C 
ATOM     10  C   UNL     1       2.104  10.488  18.915  1.00  0.00     0.039 C 
ENDBRANCH   6   7
ENDBRANCH   5   6
ENDBRANCH   3   5
ENDBRANCH   1   2
BRANCH   1  11
ATOM     11  C   UNL     1       1.641  12.747  22.210  1.00  0.00     0.034 C 
BRANCH  11  12
ATOM     12  C   UNL     1       2.383  13.000  23.510  1.00  0.00    -0.077 C 
ATOM     13  C   UNL     1       3.235  14.036  23.686  1.00  0.00    -0.028 C 
ATOM     14  C   UNL     1       2.176  12.048  24.660  1.00  0.00     0.039 C 
BRANCH  13  15
ATOM     15  C   UNL     1       3.531  15.109  22.664  1.00  0.00     0.035 C 
BRANCH  15  16
ATOM     16  C   UNL     1       2.570  16.296  22.801  1.00  0.00     0.079 C 
BRANCH  16  17
ATOM     17  C   UNL     1       1.701  16.454  21.581  1.00  0.00     0.130 C 
ATOM     18  O   UNL     1       2.199  16.372  20.469  1.00  0.00    -0.300 OA
ATOM     19  C   UNL     1       0.229  16.715  21.705  1.00  0.00     0.087 C 
ENDBRANCH  16  17
ENDBRANCH  15  16
ENDBRANCH  13  15
ENDBRANCH  11  12
ENDBRANCH   1  11
TORSDOF 9
ENDMDL
MODEL 4
REMARK VINA RESULT:    -4.610      3.071      7.042
REMARK INTER + INTRA:          -9.304
REMARK INTER:                  -7.480
REMARK INTRA:                  -1.824
REMARK UNBOUND:                -2.269
REMARK SMILES CC(=O)CCC=C(C)CCC=C(C)CCC=C(C)C
REMARK SMILES IDX 10 1 11 2 12 3 13 4 14 5 15 6 16 7 18 8 17 9 19 10 9 11 7 12
REMARK SMILES IDX 6 13 8 14 5 15 4 16 2 17 3 18 1 19
REMARK H PARENT
REMARK Flexibility Score: inf
ROOT
ATOM      1  C   UNL     1       0.330  11.510  19.321  1.00  0.00     0.032 C 
ENDROOT
BRANCH   1   2
ATOM      2  C   UNL     1       1.202  12.716  19.062  1.00  0.00    -0.028 C 
ATOM      3  C   UNL     1       0.904  13.716  18.200  1.00  0.00    -0.077 C 
ATOM      4  C   UNL     1      -0.339  13.688  17.341  1.00  0.00     0.039 C 
BRANCH   3   5
ATOM      5  C   UNL     1       1.840  14.899  18.097  1.00  0.00     0.034 C 
BRANCH   5   6
ATOM      6  C   UNL     1       1.412  16.019  19.052  1.00  0.00     0.032 C 
BRANCH   6   7
ATOM      7  C   UNL     1       2.206  15.963  20.333  1.00  0.00    -0.028 C 
ATOM      8  C   UNL     1       2.620  16.155  22.747  1.00  0.00     0.039 C 
ATOM      9  C   UNL     1       1.719  16.299  21.548  1.00  0.00    -0.080 C 
ATOM     10  C   UNL     1       0.316  16.828  21.731  1.00  0.00     0.039 C 
ENDBRANCH   6   7
ENDBRANCH   5   6
ENDBRANCH   3   5
ENDBRANCH   1   2
BRANCH   1  11
ATOM     11  C   UNL     1       1.177  10.241  19.487  1.00  0.00     0.034 C 
BRANCH  11  12
ATOM     12  C   UNL     1       0.800   9.170  18.479  1.00  0.00    -0.077 C 
ATOM     13  C   UNL     1       1.309   9.121  17.227  1.00  0.00    -0.028 C 
ATOM     14  C   UNL     1      -0.198   8.115  18.881  1.00  0.00     0.039 C 
BRANCH  13  15
ATOM     15  C   UNL     1       2.348  10.065  16.667  1.00  0.00     0.035 C 
BRANCH  15  16
ATOM     16  C   UNL     1       1.804  10.854  15.471  1.00  0.00     0.079 C 
BRANCH  16  17
ATOM     17  C   UNL     1       2.505  12.178  15.310  1.00  0.00     0.130 C 
ATOM     18  O   UNL     1       1.990  13.056  14.635  1.00  0.00    -0.300 OA
ATOM     19  C   UNL     1       3.830  12.439  15.962  1.00  0.00     0.087 C 
ENDBRANCH  16  17
ENDBRANCH  15  16
ENDBRANCH  13  15
ENDBRANCH  11  12
ENDBRANCH   1  11
TORSDOF 9
ENDMDL
MODEL 5
REMARK VINA RESULT:    -4.530      2.565      4.042
REMARK INTER + INTRA:          -9.183
REMARK INTER:                  -7.042
REMARK INTRA:                  -2.140
REMARK UNBOUND:                -2.269
REMARK SMILES CC(=O)CCC=C(C)CCC=C(C)CCC=C(C)C
REMARK SMILES IDX 10 1 11 2 12 3 13 4 14 5 15 6 16 7 18 8 17 9 19 10 9 11 7 12
REMARK SMILES IDX 6 13 8 14 5 15 4 16 2 17 3 18 1 19
REMARK H PARENT
REMARK Flexibility Score: inf
ROOT
ATOM      1  C   UNL     1       2.536  14.899  22.804  1.00  0.00     0.032 C 
ENDROOT
BRANCH   1   2
ATOM      2  C   UNL     1       2.802  13.765  21.841  1.00  0.00    -0.028 C 
ATOM      3  C   UNL     1       1.846  13.020  21.240  1.00  0.00    -0.077 C 
ATOM      4  C   UNL     1       0.376  13.216  21.533  1.00  0.00     0.039 C 
BRANCH   3   5
ATOM      5  C   UNL     1       2.260  11.962  20.241  1.00  0.00     0.034 C 
BRANCH   5   6
ATOM      6  C   UNL     1       1.147  11.714  19.217  1.00  0.00     0.032 C 
BRANCH   6   7
ATOM      7  C   UNL     1       0.507  10.367  19.439  1.00  0.00    -0.028 C 
ATOM      8  C   UNL     1      -0.001   8.003  18.999  1.00  0.00     0.039 C 
ATOM      9  C   UNL     1       0.672   9.300  18.627  1.00  0.00    -0.080 C 
ATOM     10  C   UNL     1       1.491   9.376  17.360  1.00  0.00     0.039 C 
ENDBRANCH   6   7
ENDBRANCH   5   6
ENDBRANCH   3   5
ENDBRANCH   1   2
BRANCH   1  11
ATOM     11  C   UNL     1       2.697  16.259  22.113  1.00  0.00     0.034 C 
BRANCH  11  12
ATOM     12  C   UNL     1       1.466  16.639  21.310  1.00  0.00    -0.077 C 
ATOM     13  C   UNL     1       1.442  16.656  19.957  1.00  0.00    -0.028 C 
ATOM     14  C   UNL     1       0.211  17.029  22.047  1.00  0.00     0.039 C 
BRANCH  13  15
ATOM     15  C   UNL     1       2.588  16.256  19.056  1.00  0.00     0.035 C 
BRANCH  15  16
ATOM     16  C   UNL     1       2.120  15.321  17.936  1.00  0.00     0.079 C 
BRANCH  16  17
ATOM     17  C   UNL     1       3.194  14.339  17.544  1.00  0.00     0.130 C 
ATOM     18  O   UNL     1       3.033  13.625  16.566  1.00  0.00    -0.300 OA
ATOM     19  C   UNL     1       4.461  14.217  18.338  1.00  0.00     0.087 C 
ENDBRANCH  16  17
ENDBRANCH  15  16
ENDBRANCH  13  15
ENDBRANCH  11  12
ENDBRANCH   1  11
TORSDOF 9
ENDMDL
MODEL 6
REMARK VINA RESULT:    -4.520      1.724      2.527
REMARK INTER + INTRA:          -9.167
REMARK INTER:                  -7.090
REMARK INTRA:                  -2.078
REMARK UNBOUND:                -2.269
REMARK SMILES CC(=O)CCC=C(C)CCC=C(C)CCC=C(C)C
REMARK SMILES IDX 10 1 11 2 12 3 13 4 14 5 15 6 16 7 18 8 17 9 19 10 9 11 7 12
REMARK SMILES IDX 6 13 8 14 5 15 4 16 2 17 3 18 1 19
REMARK H PARENT
REMARK Flexibility Score: inf
ROOT
ATOM      1  C   UNL     1       1.098  15.756  19.255  1.00  0.00     0.032 C 
ENDROOT
BRANCH   1   2
ATOM      2  C   UNL     1       1.543  14.313  19.281  1.00  0.00    -0.028 C 
ATOM      3  C   UNL     1       0.880  13.310  19.902  1.00  0.00    -0.077 C 
ATOM      4  C   UNL     1      -0.373  13.559  20.709  1.00  0.00     0.039 C 
BRANCH   3   5
ATOM      5  C   UNL     1       1.407  11.897  19.782  1.00  0.00     0.034 C 
BRANCH   5   6
ATOM      6  C   UNL     1       0.625  11.112  18.723  1.00  0.00     0.032 C 
BRANCH   6   7
ATOM      7  C   UNL     1       1.189  11.363  17.347  1.00  0.00    -0.028 C 
ATOM      8  C   UNL     1       2.321  10.823  15.234  1.00  0.00     0.039 C 
ATOM      9  C   UNL     1       1.847  10.439  16.612  1.00  0.00    -0.080 C 
ATOM     10  C   UNL     1       2.134   9.052  17.138  1.00  0.00     0.039 C 
ENDBRANCH   6   7
ENDBRANCH   5   6
ENDBRANCH   3   5
ENDBRANCH   1   2
BRANCH   1  11
ATOM     11  C   UNL     1       1.950  16.613  20.200  1.00  0.00     0.034 C 
BRANCH  11  12
ATOM     12  C   UNL     1       1.475  16.517  21.639  1.00  0.00    -0.077 C 
ATOM     13  C   UNL     1       2.203  15.936  22.620  1.00  0.00    -0.028 C 
ATOM     14  C   UNL     1       0.123  17.081  21.996  1.00  0.00     0.039 C 
BRANCH  13  15
ATOM     15  C   UNL     1       3.590  15.359  22.456  1.00  0.00     0.035 C 
BRANCH  15  16
ATOM     16  C   UNL     1       3.572  13.827  22.514  1.00  0.00     0.079 C 
BRANCH  16  17
ATOM     17  C   UNL     1       4.706  13.226  21.725  1.00  0.00     0.130 C 
ATOM     18  O   UNL     1       5.557  12.564  22.300  1.00  0.00    -0.300 OA
ATOM     19  C   UNL     1       4.814  13.428  20.243  1.00  0.00     0.087 C 
ENDBRANCH  16  17
ENDBRANCH  15  16
ENDBRANCH  13  15
ENDBRANCH  11  12
ENDBRANCH   1  11
TORSDOF 9
ENDMDL
MODEL 7
REMARK VINA RESULT:    -4.492      2.685      6.135
REMARK INTER + INTRA:          -9.124
REMARK INTER:                  -7.006
REMARK INTRA:                  -2.118
REMARK UNBOUND:                -2.269
REMARK SMILES CC(=O)CCC=C(C)CCC=C(C)CCC=C(C)C
REMARK SMILES IDX 10 1 11 2 12 3 13 4 14 5 15 6 16 7 18 8 17 9 19 10 9 11 7 12
REMARK SMILES IDX 6 13 8 14 5 15 4 16 2 17 3 18 1 19
REMARK H PARENT
REMARK Flexibility Score: inf
ROOT
ATOM      1  C   UNL     1       2.794  11.121  21.055  1.00  0.00     0.032 C 
ENDROOT
BRANCH   1   2
ATOM      2  C   UNL     1       3.410  12.297  21.775  1.00  0.00    -0.028 C 
ATOM      3  C   UNL     1       2.774  13.062  22.693  1.00  0.00    -0.077 C 
ATOM      4  C   UNL     1       1.322  12.845  23.048  1.00  0.00     0.039 C 
BRANCH   3   5
ATOM      5  C   UNL     1       3.542  14.165  23.387  1.00  0.00     0.034 C 
BRANCH   5   6
ATOM      6  C   UNL     1       2.851  15.519  23.188  1.00  0.00     0.032 C 
BRANCH   6   7
ATOM      7  C   UNL     1       2.897  15.935  21.740  1.00  0.00    -0.028 C 
ATOM      8  C   UNL     1       2.020  16.737  19.588  1.00  0.00     0.039 C 
ATOM      9  C   UNL     1       1.816  16.308  21.019  1.00  0.00    -0.080 C 
ATOM     10  C   UNL     1       0.421  16.289  21.598  1.00  0.00     0.039 C 
ENDBRANCH   6   7
ENDBRANCH   5   6
ENDBRANCH   3   5
ENDBRANCH   1   2
BRANCH   1  11
ATOM     11  C   UNL     1       2.774  11.349  19.539  1.00  0.00     0.034 C 
BRANCH  11  12
ATOM     12  C   UNL     1       1.377  11.649  19.027  1.00  0.00    -0.077 C 
ATOM     13  C   UNL     1       0.630  10.749  18.347  1.00  0.00    -0.028 C 
ATOM     14  C   UNL     1       0.793  13.017  19.272  1.00  0.00     0.039 C 
BRANCH  13  15
ATOM     15  C   UNL     1       1.033   9.324  18.048  1.00  0.00     0.035 C 
BRANCH  15  16
ATOM     16  C   UNL     1       0.153   8.321  18.802  1.00  0.00     0.079 C 
BRANCH  16  17
ATOM     17  C   UNL     1       0.686   8.038  20.182  1.00  0.00     0.130 C 
ATOM     18  O   UNL     1       1.686   7.348  20.314  1.00  0.00    -0.300 OA
ATOM     19  C   UNL     1       0.008   8.583  21.404  1.00  0.00     0.087 C 
ENDBRANCH  16  17
ENDBRANCH  15  16
ENDBRANCH  13  15
ENDBRANCH  11  12
ENDBRANCH   1  11
TORSDOF 9
ENDMDL
MODEL 8
REMARK VINA RESULT:    -4.444      2.566      6.707
REMARK INTER + INTRA:          -9.051
REMARK INTER:                  -7.412
REMARK INTRA:                  -1.639
REMARK UNBOUND:                -2.269
REMARK SMILES CC(=O)CCC=C(C)CCC=C(C)CCC=C(C)C
REMARK SMILES IDX 10 1 11 2 12 3 13 4 14 5 15 6 16 7 18 8 17 9 19 10 9 11 7 12
REMARK SMILES IDX 6 13 8 14 5 15 4 16 2 17 3 18 1 19
REMARK H PARENT
REMARK Flexibility Score: inf
ROOT
ATOM      1  C   UNL     1       3.144  12.157  18.265  1.00  0.00     0.032 C 
ENDROOT
BRANCH   1   2
ATOM      2  C   UNL     1       3.241  13.659  18.141  1.00  0.00    -0.028 C 
ATOM      3  C   UNL     1       2.190  14.510  18.197  1.00  0.00    -0.077 C 
ATOM      4  C   UNL     1       0.768  14.018  18.330  1.00  0.00     0.039 C 
BRANCH   3   5
ATOM      5  C   UNL     1       2.448  15.999  18.130  1.00  0.00     0.034 C 
BRANCH   5   6
ATOM      6  C   UNL     1       1.761  16.724  19.292  1.00  0.00     0.032 C 
BRANCH   6   7
ATOM      7  C   UNL     1       2.424  16.383  20.603  1.00  0.00    -0.028 C 
ATOM      8  C   UNL     1       2.577  15.975  23.021  1.00  0.00     0.039 C 
ATOM      9  C   UNL     1       1.793  16.376  21.798  1.00  0.00    -0.080 C 
ATOM     10  C   UNL     1       0.343  16.773  21.941  1.00  0.00     0.039 C 
ENDBRANCH   6   7
ENDBRANCH   5   6
ENDBRANCH   3   5
ENDBRANCH   1   2
BRANCH   1  11
ATOM     11  C   UNL     1       3.442  11.471  16.926  1.00  0.00     0.034 C 
BRANCH  11  12
ATOM     12  C   UNL     1       2.179  10.965  16.252  1.00  0.00    -0.077 C 
ATOM     13  C   UNL     1       1.712   9.705  16.410  1.00  0.00    -0.028 C 
ATOM     14  C   UNL     1       1.411  11.900  15.353  1.00  0.00     0.039 C 
BRANCH  13  15
ATOM     15  C   UNL     1       2.324   8.649  17.301  1.00  0.00     0.035 C 
BRANCH  15  16
ATOM     16  C   UNL     1       1.896   8.831  18.762  1.00  0.00     0.079 C 
BRANCH  16  17
ATOM     17  C   UNL     1       0.405   9.008  18.888  1.00  0.00     0.130 C 
ATOM     18  O   UNL     1      -0.340   8.079  18.616  1.00  0.00    -0.300 OA
ATOM     19  C   UNL     1      -0.186  10.311  19.338  1.00  0.00     0.087 C 
ENDBRANCH  16  17
ENDBRANCH  15  16
ENDBRANCH  13  15
ENDBRANCH  11  12
ENDBRANCH   1  11
TORSDOF 9
ENDMDL
MODEL 9
REMARK VINA RESULT:    -4.405      2.477      6.398
REMARK INTER + INTRA:          -8.992
REMARK INTER:                  -7.391
REMARK INTRA:                  -1.601
REMARK UNBOUND:                -2.269
REMARK SMILES CC(=O)CCC=C(C)CCC=C(C)CCC=C(C)C
REMARK SMILES IDX 10 1 11 2 12 3 13 4 14 5 15 6 16 7 18 8 17 9 19 10 9 11 7 12
REMARK SMILES IDX 6 13 8 14 5 15 4 16 2 17 3 18 1 19
REMARK H PARENT
REMARK Flexibility Score: inf
ROOT
ATOM      1  C   UNL     1       0.171  12.922  18.526  1.00  0.00     0.032 C 
ENDROOT
BRANCH   1   2
ATOM      2  C   UNL     1       0.211  13.875  19.697  1.00  0.00    -0.028 C 
ATOM      3  C   UNL     1       0.488  15.197  19.611  1.00  0.00    -0.077 C 
ATOM      4  C   UNL     1       0.860  15.853  18.301  1.00  0.00     0.039 C 
BRANCH   3   5
ATOM      5  C   UNL     1       0.420  16.044  20.862  1.00  0.00     0.034 C 
BRANCH   5   6
ATOM      6  C   UNL     1       1.805  16.589  21.228  1.00  0.00     0.032 C 
BRANCH   6   7
ATOM      7  C   UNL     1       2.302  15.968  22.509  1.00  0.00    -0.028 C 
ATOM      8  C   UNL     1       3.622  14.454  23.926  1.00  0.00     0.039 C 
ATOM      9  C   UNL     1       3.186  14.947  22.569  1.00  0.00    -0.080 C 
ATOM     10  C   UNL     1       3.727  14.281  21.327  1.00  0.00     0.039 C 
ENDBRANCH   6   7
ENDBRANCH   5   6
ENDBRANCH   3   5
ENDBRANCH   1   2
BRANCH   1  11
ATOM     11  C   UNL     1       1.232  11.824  18.671  1.00  0.00     0.034 C 
BRANCH  11  12
ATOM     12  C   UNL     1       1.403  11.025  17.392  1.00  0.00    -0.077 C 
ATOM     13  C   UNL     1       1.501   9.676  17.370  1.00  0.00    -0.028 C 
ATOM     14  C   UNL     1       1.481  11.764  16.080  1.00  0.00     0.039 C 
BRANCH  13  15
ATOM     15  C   UNL     1       1.402   8.771  18.577  1.00  0.00     0.035 C 
BRANCH  15  16
ATOM     16  C   UNL     1      -0.045   8.333  18.832  1.00  0.00     0.079 C 
BRANCH  16  17
ATOM     17  C   UNL     1      -0.541   8.801  20.175  1.00  0.00     0.130 C 
ATOM     18  O   UNL     1      -0.145   8.251  21.191  1.00  0.00    -0.300 OA
ATOM     19  C   UNL     1      -1.519   9.932  20.290  1.00  0.00     0.087 C 
ENDBRANCH  16  17
ENDBRANCH  15  16
ENDBRANCH  13  15
ENDBRANCH  11  12
ENDBRANCH   1  11
TORSDOF 9
ENDMDL
