MODEL 1
REMARK VINA RESULT:    -3.208      0.000      0.000
REMARK INTER + INTRA:          -2.915
REMARK INTER:                  -3.958
REMARK INTRA:                   1.043
REMARK UNBOUND:                 1.043
REMARK SMILES CC1=CC=CC(C)(C)CC1=O
REMARK SMILES IDX 1 1 2 2 3 3 10 4 11 5 9 6 4 8 5 9 6 10 7 11 8 12
REMARK H PARENT
REMARK Flexibility Score: 80.00
ROOT
ATOM      1  C   UNL     1      75.321  74.250  77.745  1.00  0.00     0.048 C 
ATOM      2  C   UNL     1      74.956  74.454  76.295  1.00  0.00    -0.008 C 
ATOM      3  C   UNL     1      73.797  73.914  75.858  1.00  0.00     0.007 C 
ENDROOT
BRANCH   2   4
ATOM      4  C   UNL     1      75.865  75.301  75.482  1.00  0.00     0.159 C 
ATOM      5  O   UNL     1      77.016  75.561  75.929  1.00  0.00    -0.295 OA
BRANCH   4   6
ATOM      6  C   UNL     1      75.496  75.860  74.142  1.00  0.00     0.091 CG0
ATOM      7  G   UNL     1      75.129  74.771  73.108  1.00  0.00     0.000 G0
ENDBRANCH   4   6
ENDBRANCH   2   4
BRANCH   3   8
ATOM      8  C   UNL     1      73.169  73.966  74.518  1.00  0.00    -0.003 C 
ATOM      9  C   UNL     1      73.704  74.337  73.348  1.00  0.00    -0.020 C 
BRANCH   9  10
ATOM     10  C   UNL     1      75.130  74.778  73.113  1.00  0.00    -0.010 CG0
ATOM     11  C   UNL     1      75.301  75.258  71.654  1.00  0.00     0.016 C 
ATOM     12  C   UNL     1      76.056  73.558  73.326  1.00  0.00     0.016 C 
ATOM     13  G   UNL     1      75.517  75.861  74.145  1.00  0.00     0.000 G0
ENDBRANCH   9  10
ENDBRANCH   3   8
TORSDOF 0
ENDMDL
MODEL 2
REMARK VINA RESULT:    -2.873      1.533      2.446
REMARK INTER + INTRA:          -2.501
REMARK INTER:                  -3.264
REMARK INTRA:                   0.763
REMARK UNBOUND:                 1.043
REMARK SMILES CC1=CC=CC(C)(C)CC1=O
REMARK SMILES IDX 1 1 2 2 3 3 10 4 11 5 9 6 4 8 5 9 6 10 7 11 8 12
REMARK H PARENT
REMARK Flexibility Score: 80.00
ROOT
ATOM      1  C   UNL     1      74.979  74.070  77.698  1.00  0.00     0.048 C 
ATOM      2  C   UNL     1      75.016  74.575  76.276  1.00  0.00    -0.008 C 
ATOM      3  C   UNL     1      76.144  75.189  75.858  1.00  0.00     0.007 C 
ENDROOT
BRANCH   2   4
ATOM      4  C   UNL     1      73.833  74.287  75.425  1.00  0.00     0.159 C 
ATOM      5  O   UNL     1      72.956  73.488  75.854  1.00  0.00    -0.295 OA
BRANCH   4   6
ATOM      6  C   UNL     1      73.613  74.906  74.079  1.00  0.00     0.091 CG0
ATOM      7  G   UNL     1      74.744  74.595  73.073  1.00  0.00     0.000 G0
ENDBRANCH   4   6
ENDBRANCH   2   4
BRANCH   3   8
ATOM      8  C   UNL     1      76.483  75.757  74.533  1.00  0.00    -0.003 C 
ATOM      9  C   UNL     1      75.917  75.520  73.343  1.00  0.00    -0.020 C 
BRANCH   9  10
ATOM     10  C   UNL     1      74.744  74.608  73.072  1.00  0.00    -0.010 CG0
ATOM     11  C   UNL     1      75.203  73.132  73.109  1.00  0.00     0.016 C 
ATOM     12  C   UNL     1      74.213  74.907  71.651  1.00  0.00     0.016 C 
ATOM     13  G   UNL     1      73.611  74.905  74.080  1.00  0.00     0.000 G0
ENDBRANCH   9  10
ENDBRANCH   3   8
TORSDOF 0
ENDMDL
MODEL 3
REMARK VINA RESULT:    -2.199      1.462      2.361
REMARK INTER + INTRA:          -1.670
REMARK INTER:                  -2.442
REMARK INTRA:                   0.773
REMARK UNBOUND:                 1.043
REMARK SMILES CC1=CC=CC(C)(C)CC1=O
REMARK SMILES IDX 1 1 2 2 3 3 10 4 11 5 9 6 4 8 5 9 6 10 7 11 8 12
REMARK H PARENT
REMARK Flexibility Score: 80.00
ROOT
ATOM      1  C   UNL     1      77.174  76.040  75.465  1.00  0.00     0.048 C 
ATOM      2  C   UNL     1      76.040  75.186  74.951  1.00  0.00    -0.008 C 
ATOM      3  C   UNL     1      75.158  74.706  75.854  1.00  0.00     0.007 C 
ENDROOT
BRANCH   2   4
ATOM      4  C   UNL     1      75.943  75.005  73.480  1.00  0.00     0.159 C 
ATOM      5  O   UNL     1      76.658  75.725  72.731  1.00  0.00    -0.295 OA
BRANCH   4   6
ATOM      6  C   UNL     1      75.045  73.998  72.830  1.00  0.00     0.091 CG0
ATOM      7  G   UNL     1      73.550  74.212  73.157  1.00  0.00     0.000 G0
ENDBRANCH   4   6
ENDBRANCH   2   4
BRANCH   3   8
ATOM      8  C   UNL     1      73.948  73.875  75.654  1.00  0.00    -0.003 C 
ATOM      9  C   UNL     1      73.245  73.664  74.535  1.00  0.00    -0.020 C 
BRANCH   9  10
ATOM     10  C   UNL     1      73.549  74.222  73.165  1.00  0.00    -0.010 CG0
ATOM     11  C   UNL     1      73.151  75.714  73.101  1.00  0.00     0.016 C 
ATOM     12  C   UNL     1      72.696  73.456  72.127  1.00  0.00     0.016 C 
ATOM     13  G   UNL     1      75.039  73.989  72.827  1.00  0.00     0.000 G0
ENDBRANCH   9  10
ENDBRANCH   3   8
TORSDOF 0
ENDMDL
MODEL 4
REMARK VINA RESULT:    -2.101      1.877      3.533
REMARK INTER + INTRA:          -1.549
REMARK INTER:                  -2.304
REMARK INTRA:                   0.754
REMARK UNBOUND:                 1.043
REMARK SMILES CC1=CC=CC(C)(C)CC1=O
REMARK SMILES IDX 1 1 2 2 3 3 10 4 11 5 9 6 4 8 5 9 6 10 7 11 8 12
REMARK H PARENT
REMARK Flexibility Score: 80.00
ROOT
ATOM      1  C   UNL     1      73.493  72.370  71.374  1.00  0.00     0.048 C 
ATOM      2  C   UNL     1      74.034  73.459  72.269  1.00  0.00    -0.008 C 
ATOM      3  C   UNL     1      73.277  74.564  72.439  1.00  0.00     0.007 C 
ENDROOT
BRANCH   2   4
ATOM      4  C   UNL     1      75.326  73.194  72.951  1.00  0.00     0.159 C 
ATOM      5  O   UNL     1      75.800  72.024  72.923  1.00  0.00    -0.295 OA
BRANCH   4   6
ATOM      6  C   UNL     1      76.114  74.247  73.668  1.00  0.00     0.091 CG0
ATOM      7  G   UNL     1      75.332  74.912  74.823  1.00  0.00     0.000 G0
ENDBRANCH   4   6
ENDBRANCH   2   4
BRANCH   3   8
ATOM      8  C   UNL     1      73.525  75.770  73.264  1.00  0.00    -0.003 C 
ATOM      9  C   UNL     1      74.375  75.934  74.285  1.00  0.00    -0.020 C 
BRANCH   9  10
ATOM     10  C   UNL     1      75.331  74.901  74.832  1.00  0.00    -0.010 CG0
ATOM     11  C   UNL     1      74.562  73.872  75.693  1.00  0.00     0.016 C 
ATOM     12  C   UNL     1      76.351  75.618  75.745  1.00  0.00     0.016 C 
ATOM     13  G   UNL     1      76.107  74.242  73.669  1.00  0.00     0.000 G0
ENDBRANCH   9  10
ENDBRANCH   3   8
TORSDOF 0
ENDMDL
MODEL 5
REMARK VINA RESULT:    -1.893      9.237     10.692
REMARK INTER + INTRA:          -1.292
REMARK INTER:                  -2.387
REMARK INTRA:                   1.095
REMARK UNBOUND:                 1.043
REMARK SMILES CC1=CC=CC(C)(C)CC1=O
REMARK SMILES IDX 1 1 2 2 3 3 10 4 11 5 9 6 4 8 5 9 6 10 7 11 8 12
REMARK H PARENT
REMARK Flexibility Score: 80.00
ROOT
ATOM      1  C   UNL     1      72.856  72.882  82.903  1.00  0.00     0.048 C 
ATOM      2  C   UNL     1      72.179  71.537  83.007  1.00  0.00    -0.008 C 
ATOM      3  C   UNL     1      71.082  71.446  83.789  1.00  0.00     0.007 C 
ENDROOT
BRANCH   2   4
ATOM      4  C   UNL     1      72.732  70.436  82.178  1.00  0.00     0.159 C 
ATOM      5  O   UNL     1      73.890  70.562  81.694  1.00  0.00    -0.295 OA
BRANCH   4   6
ATOM      6  C   UNL     1      71.993  69.165  81.893  1.00  0.00     0.091 CG0
ATOM      7  G   UNL     1      71.607  68.384  83.169  1.00  0.00     0.000 G0
ENDBRANCH   4   6
ENDBRANCH   2   4
BRANCH   3   8
ATOM      8  C   UNL     1      70.202  70.286  84.065  1.00  0.00    -0.003 C 
ATOM      9  C   UNL     1      70.404  68.991  83.792  1.00  0.00    -0.020 C 
BRANCH   9  10
ATOM     10  C   UNL     1      71.628  68.390  83.143  1.00  0.00    -0.010 CG0
ATOM     11  C   UNL     1      71.400  66.884  82.876  1.00  0.00     0.016 C 
ATOM     12  C   UNL     1      72.814  68.526  84.125  1.00  0.00     0.016 C 
ATOM     13  G   UNL     1      71.975  69.176  81.859  1.00  0.00     0.000 G0
ENDBRANCH   9  10
ENDBRANCH   3   8
TORSDOF 0
ENDMDL
MODEL 6
REMARK VINA RESULT:    -1.880      8.793     10.006
REMARK INTER + INTRA:          -1.277
REMARK INTER:                  -2.287
REMARK INTRA:                   1.011
REMARK UNBOUND:                 1.043
REMARK SMILES CC1=CC=CC(C)(C)CC1=O
REMARK SMILES IDX 1 1 2 2 3 3 10 4 11 5 9 6 4 8 5 9 6 10 7 11 8 12
REMARK H PARENT
REMARK Flexibility Score: 80.00
ROOT
ATOM      1  C   UNL     1      75.209  75.145  82.754  1.00  0.00     0.048 C 
ATOM      2  C   UNL     1      75.309  76.574  83.231  1.00  0.00    -0.008 C 
ATOM      3  C   UNL     1      74.166  77.196  83.590  1.00  0.00     0.007 C 
ENDROOT
BRANCH   2   4
ATOM      4  C   UNL     1      76.671  77.157  83.339  1.00  0.00     0.159 C 
ATOM      5  O   UNL     1      77.631  76.569  82.768  1.00  0.00    -0.295 OA
BRANCH   4   6
ATOM      6  C   UNL     1      76.971  78.421  84.083  1.00  0.00     0.091 CG0
ATOM      7  G   UNL     1      76.213  79.649  83.530  1.00  0.00     0.000 G0
ENDBRANCH   4   6
ENDBRANCH   2   4
BRANCH   3   8
ATOM      8  C   UNL     1      73.951  78.565  84.114  1.00  0.00    -0.003 C 
ATOM      9  C   UNL     1      74.793  79.606  84.125  1.00  0.00    -0.020 C 
BRANCH   9  10
ATOM     10  C   UNL     1      76.194  79.634  83.562  1.00  0.00    -0.010 CG0
ATOM     11  C   UNL     1      76.886  80.967  83.928  1.00  0.00     0.016 C 
ATOM     12  C   UNL     1      76.100  79.553  82.021  1.00  0.00     0.016 C 
ATOM     13  G   UNL     1      76.979  78.399  84.060  1.00  0.00     0.000 G0
ENDBRANCH   9  10
ENDBRANCH   3   8
TORSDOF 0
ENDMDL
MODEL 7
REMARK VINA RESULT:    -1.833      1.939      3.535
REMARK INTER + INTRA:          -1.219
REMARK INTER:                  -2.270
REMARK INTRA:                   1.051
REMARK UNBOUND:                 1.043
REMARK SMILES CC1=CC=CC(C)(C)CC1=O
REMARK SMILES IDX 1 1 2 2 3 3 10 4 11 5 9 6 4 8 5 9 6 10 7 11 8 12
REMARK H PARENT
REMARK Flexibility Score: 80.00
ROOT
ATOM      1  C   UNL     1      72.304  73.340  71.896  1.00  0.00     0.048 C 
ATOM      2  C   UNL     1      73.442  74.130  72.495  1.00  0.00    -0.008 C 
ATOM      3  C   UNL     1      74.317  74.711  71.646  1.00  0.00     0.007 C 
ENDROOT
BRANCH   2   4
ATOM      4  C   UNL     1      73.464  74.269  73.973  1.00  0.00     0.159 C 
ATOM      5  O   UNL     1      72.745  73.499  74.667  1.00  0.00    -0.295 OA
BRANCH   4   6
ATOM      6  C   UNL     1      74.309  75.273  74.696  1.00  0.00     0.091 CG0
ATOM      7  G   UNL     1      75.820  75.108  74.421  1.00  0.00     0.000 G0
ENDBRANCH   4   6
ENDBRANCH   2   4
BRANCH   3   8
ATOM      8  C   UNL     1      75.501  75.556  71.929  1.00  0.00    -0.003 C 
ATOM      9  C   UNL     1      76.141  75.750  73.089  1.00  0.00    -0.020 C 
BRANCH   9  10
ATOM     10  C   UNL     1      75.809  75.109  74.416  1.00  0.00    -0.010 CG0
ATOM     11  C   UNL     1      76.695  75.711  75.530  1.00  0.00     0.016 C 
ATOM     12  C   UNL     1      76.125  73.599  74.319  1.00  0.00     0.016 C 
ATOM     13  G   UNL     1      74.299  75.266  74.706  1.00  0.00     0.000 G0
ENDBRANCH   9  10
ENDBRANCH   3   8
TORSDOF 0
ENDMDL
MODEL 8
REMARK VINA RESULT:    -1.807      1.727      3.688
REMARK INTER + INTRA:          -1.187
REMARK INTER:                  -1.945
REMARK INTRA:                   0.758
REMARK UNBOUND:                 1.043
REMARK SMILES CC1=CC=CC(C)(C)CC1=O
REMARK SMILES IDX 1 1 2 2 3 3 10 4 11 5 9 6 4 8 5 9 6 10 7 11 8 12
REMARK H PARENT
REMARK Flexibility Score: 80.00
ROOT
ATOM      1  C   UNL     1      74.998  76.264  70.983  1.00  0.00     0.048 C 
ATOM      2  C   UNL     1      74.946  75.348  72.182  1.00  0.00    -0.008 C 
ATOM      3  C   UNL     1      75.750  74.263  72.177  1.00  0.00     0.007 C 
ENDROOT
BRANCH   2   4
ATOM      4  C   UNL     1      74.068  75.757  73.307  1.00  0.00     0.159 C 
ATOM      5  O   UNL     1      73.550  76.908  73.287  1.00  0.00    -0.295 OA
BRANCH   4   6
ATOM      6  C   UNL     1      73.746  74.869  74.469  1.00  0.00     0.091 CG0
ATOM      7  G   UNL     1      74.999  74.396  75.240  1.00  0.00     0.000 G0
ENDBRANCH   4   6
ENDBRANCH   2   4
BRANCH   3   8
ATOM      8  C   UNL     1      75.937  73.213  73.205  1.00  0.00    -0.003 C 
ATOM      9  C   UNL     1      75.640  73.246  74.510  1.00  0.00    -0.020 C 
BRANCH   9  10
ATOM     10  C   UNL     1      74.998  74.393  75.256  1.00  0.00    -0.010 CG0
ATOM     11  C   UNL     1      76.035  75.514  75.495  1.00  0.00     0.016 C 
ATOM     12  C   UNL     1      74.530  73.874  76.635  1.00  0.00     0.016 C 
ATOM     13  G   UNL     1      73.755  74.886  74.481  1.00  0.00     0.000 G0
ENDBRANCH   9  10
ENDBRANCH   3   8
TORSDOF 0
ENDMDL
MODEL 9
REMARK VINA RESULT:    -1.384      1.852      2.761
REMARK INTER + INTRA:          -0.664
REMARK INTER:                  -1.439
REMARK INTRA:                   0.775
REMARK UNBOUND:                 1.043
REMARK SMILES CC1=CC=CC(C)(C)CC1=O
REMARK SMILES IDX 1 1 2 2 3 3 10 4 11 5 9 6 4 8 5 9 6 10 7 11 8 12
REMARK H PARENT
REMARK Flexibility Score: 80.00
ROOT
ATOM      1  C   UNL     1      72.327  73.489  75.466  1.00  0.00     0.048 C 
ATOM      2  C   UNL     1      73.521  74.271  74.976  1.00  0.00    -0.008 C 
ATOM      3  C   UNL     1      74.532  74.482  75.846  1.00  0.00     0.007 C 
ENDROOT
BRANCH   2   4
ATOM      4  C   UNL     1      73.521  74.682  73.548  1.00  0.00     0.159 C 
ATOM      5  O   UNL     1      72.657  74.187  72.774  1.00  0.00    -0.295 OA
BRANCH   4   6
ATOM      6  C   UNL     1      74.489  75.669  72.972  1.00  0.00     0.091 CG0
ATOM      7  G   UNL     1      75.964  75.231  73.117  1.00  0.00     0.000 G0
ENDBRANCH   4   6
ENDBRANCH   2   4
BRANCH   3   8
ATOM      8  C   UNL     1      75.824  75.181  75.652  1.00  0.00    -0.003 C 
ATOM      9  C   UNL     1      76.453  75.491  74.512  1.00  0.00    -0.020 C 
BRANCH   9  10
ATOM     10  C   UNL     1      75.960  75.216  73.111  1.00  0.00    -0.010 CG0
ATOM     11  C   UNL     1      76.146  73.720  72.769  1.00  0.00     0.016 C 
ATOM     12  C   UNL     1      76.818  76.041  72.124  1.00  0.00     0.016 C 
ATOM     13  G   UNL     1      74.492  75.680  72.976  1.00  0.00     0.000 G0
ENDBRANCH   9  10
ENDBRANCH   3   8
TORSDOF 0
ENDMDL
