MODEL 1
REMARK VINA RESULT:    -7.643      0.000      0.000
REMARK INTER + INTRA:          -8.381
REMARK INTER:                  -8.313
REMARK INTRA:                  -0.068
REMARK UNBOUND:                -0.068
REMARK SMILES C[C@H]1[C@H](C)CC[C@]2(C(=O)[O-])CC[C@@]3(C)C(=CC[C@@H]4[C@@]5(C)CC[C@H](O)C(C)(C)[C@H]5CC[C@]43C)[C@H]12
REMARK SMILES IDX 7 1 6 2 11 3 33 4 5 5 12 6 15 7 2 8 3 9 13 10 16 11 1 12
REMARK SMILES IDX 4 13 14 14 31 15 17 16 18 17 30 18 32 19 19 20 29 21 28 22
REMARK SMILES IDX 21 23 20 24 25 25 22 26 23 27 26 28 27 29 8 30 9 31 10 32
REMARK SMILES IDX 24 33
REMARK H PARENT 24 34
REMARK Flexibility Score: inf
ROOT
ATOM      1  C   UNL     1      14.571  18.809  47.686  1.00  0.00     0.017 C 
ATOM      2  C   UNL     1      15.310  18.131  48.863  1.00  0.00     0.014 C 
ATOM      3  C   UNL     1      15.209  18.393  46.334  1.00  0.00     0.014 C 
ATOM      4  C   UNL     1      14.644  20.364  47.809  1.00  0.00     0.030 C 
ATOM      5  C   UNL     1      16.751  18.595  49.010  1.00  0.00     0.004 C 
ATOM      6  C   UNL     1      14.391  18.867  45.132  1.00  0.00     0.013 C 
ATOM      7  C   UNL     1      14.005  21.031  46.576  1.00  0.00    -0.063 C 
ATOM      8  C   UNL     1      16.112  20.896  48.078  1.00  0.00    -0.003 C 
ATOM      9  C   UNL     1      16.815  20.110  49.234  1.00  0.00    -0.011 C 
ATOM     10  C   UNL     1      13.883  20.368  45.177  1.00  0.00    -0.006 C 
ATOM     11  C   UNL     1      13.551  22.305  46.691  1.00  0.00    -0.027 C 
ATOM     12  C   UNL     1      16.122  22.407  48.411  1.00  0.00     0.008 C 
ATOM     13  C   UNL     1      18.296  20.509  49.419  1.00  0.00     0.008 C 
ATOM     14  C   UNL     1      12.328  20.235  44.949  1.00  0.00     0.017 C 
ATOM     15  C   UNL     1      14.601  21.328  44.055  1.00  0.00    -0.020 C 
ATOM     16  C   UNL     1      13.531  23.204  45.476  1.00  0.00     0.032 C 
ATOM     17  C   UNL     1      14.744  22.817  44.589  1.00  0.00     0.006 C 
ATOM     18  C   UNL     1      16.057  20.878  43.726  1.00  0.00     0.008 C 
ATOM     19  C   UNL     1      13.792  21.230  42.727  1.00  0.00     0.012 C 
ATOM     20  C   UNL     1      15.277  23.914  43.571  1.00  0.00    -0.025 C 
ATOM     21  C   UNL     1      17.022  21.973  43.202  1.00  0.00     0.005 C 
ATOM     22  C   UNL     1      16.397  23.288  42.615  1.00  0.00     0.003 C 
ATOM     23  C   UNL     1      15.869  25.129  44.385  1.00  0.00     0.010 C 
ATOM     24  C   UNL     1      14.085  24.471  42.734  1.00  0.00     0.012 C 
ATOM     25  C   UNL     1      17.541  24.311  42.188  1.00  0.00    -0.006 C 
ATOM     26  C   UNL     1      17.354  24.989  44.717  1.00  0.00     0.033 C 
ATOM     27  C   UNL     1      18.247  24.917  43.457  1.00  0.00     0.120 C 
ATOM     28  C   UNL     1      16.961  25.425  41.267  1.00  0.00     0.014 C 
ATOM     29  C   UNL     1      18.625  23.607  41.318  1.00  0.00     0.014 C 
ENDROOT
BRANCH   1  30
ATOM     30  C   UNL     1      13.130  18.315  47.777  1.00  0.00     0.048 C 
ATOM     31  O   UNL     1      12.812  17.193  47.294  1.00  0.00    -0.550 OA
ATOM     32  O   UNL     1      12.170  19.037  48.477  1.00  0.00    -0.550 OA
ENDBRANCH   1  30
BRANCH  27  33
ATOM     33  O   UNL     1      18.847  26.161  43.179  1.00  0.00    -0.393 OA
ATOM     34  H   UNL     1      19.313  26.471  43.999  1.00  0.00     0.210 HD
ENDBRANCH  27  33
TORSDOF 2
ENDMDL
MODEL 2
REMARK VINA RESULT:    -7.119      2.889      8.591
REMARK INTER + INTRA:          -7.811
REMARK INTER:                  -7.820
REMARK INTRA:                   0.009
REMARK UNBOUND:                -0.068
REMARK SMILES C[C@H]1[C@H](C)CC[C@]2(C(=O)[O-])CC[C@@]3(C)C(=CC[C@@H]4[C@@]5(C)CC[C@H](O)C(C)(C)[C@H]5CC[C@]43C)[C@H]12
REMARK SMILES IDX 7 1 6 2 11 3 33 4 5 5 12 6 15 7 2 8 3 9 13 10 16 11 1 12
REMARK SMILES IDX 4 13 14 14 31 15 17 16 18 17 30 18 32 19 19 20 29 21 28 22
REMARK SMILES IDX 21 23 20 24 25 25 22 26 23 27 26 28 27 29 8 30 9 31 10 32
REMARK SMILES IDX 24 33
REMARK H PARENT 24 34
REMARK Flexibility Score: inf
ROOT
ATOM      1  C   UNL     1      19.352  25.099  39.524  1.00  0.00     0.017 C 
ATOM      2  C   UNL     1      19.761  24.848  38.054  1.00  0.00     0.014 C 
ATOM      3  C   UNL     1      19.789  23.909  40.419  1.00  0.00     0.014 C 
ATOM      4  C   UNL     1      17.805  25.267  39.646  1.00  0.00     0.030 C 
ATOM      5  C   UNL     1      19.036  23.667  37.427  1.00  0.00     0.004 C 
ATOM      6  C   UNL     1      19.595  24.196  41.908  1.00  0.00     0.013 C 
ATOM      7  C   UNL     1      17.394  25.404  41.126  1.00  0.00    -0.063 C 
ATOM      8  C   UNL     1      16.996  24.121  38.910  1.00  0.00    -0.003 C 
ATOM      9  C   UNL     1      17.519  23.881  37.455  1.00  0.00    -0.011 C 
ATOM     10  C   UNL     1      18.212  24.849  42.323  1.00  0.00    -0.006 C 
ATOM     11  C   UNL     1      16.216  26.010  41.418  1.00  0.00    -0.027 C 
ATOM     12  C   UNL     1      15.480  24.430  38.860  1.00  0.00     0.008 C 
ATOM     13  C   UNL     1      16.847  22.673  36.765  1.00  0.00     0.008 C 
ATOM     14  C   UNL     1      18.641  26.137  43.126  1.00  0.00     0.017 C 
ATOM     15  C   UNL     1      17.263  23.845  43.212  1.00  0.00    -0.020 C 
ATOM     16  C   UNL     1      15.467  25.624  42.673  1.00  0.00     0.032 C 
ATOM     17  C   UNL     1      15.725  24.115  42.924  1.00  0.00     0.006 C 
ATOM     18  C   UNL     1      17.481  22.343  42.853  1.00  0.00     0.008 C 
ATOM     19  C   UNL     1      17.642  24.004  44.714  1.00  0.00     0.012 C 
ATOM     20  C   UNL     1      14.665  23.337  43.816  1.00  0.00    -0.025 C 
ATOM     21  C   UNL     1      16.294  21.383  43.125  1.00  0.00     0.005 C 
ATOM     22  C   UNL     1      15.179  21.854  44.125  1.00  0.00     0.003 C 
ATOM     23  C   UNL     1      13.285  23.288  43.051  1.00  0.00     0.010 C 
ATOM     24  C   UNL     1      14.418  24.124  45.139  1.00  0.00     0.012 C 
ATOM     25  C   UNL     1      14.021  20.765  44.227  1.00  0.00    -0.006 C 
ATOM     26  C   UNL     1      13.125  22.075  42.137  1.00  0.00     0.033 C 
ATOM     27  C   UNL     1      13.170  20.734  42.905  1.00  0.00     0.120 C 
ATOM     28  C   UNL     1      13.130  21.032  45.477  1.00  0.00     0.014 C 
ATOM     29  C   UNL     1      14.610  19.342  44.461  1.00  0.00     0.014 C 
ENDROOT
BRANCH   1  30
ATOM     30  C   UNL     1      20.081  26.376  39.932  1.00  0.00     0.048 C 
ATOM     31  O   UNL     1      19.502  27.494  39.843  1.00  0.00    -0.550 OA
ATOM     32  O   UNL     1      21.349  26.324  40.500  1.00  0.00    -0.550 OA
ENDBRANCH   1  30
BRANCH  27  33
ATOM     33  O   UNL     1      11.875  20.223  43.126  1.00  0.00    -0.393 OA
ATOM     34  H   UNL     1      11.239  20.735  42.562  1.00  0.00     0.210 HD
ENDBRANCH  27  33
TORSDOF 2
ENDMDL
MODEL 3
REMARK VINA RESULT:    -6.990      1.765      3.173
REMARK INTER + INTRA:          -7.671
REMARK INTER:                  -7.584
REMARK INTRA:                  -0.087
REMARK UNBOUND:                -0.068
REMARK SMILES C[C@H]1[C@H](C)CC[C@]2(C(=O)[O-])CC[C@@]3(C)C(=CC[C@@H]4[C@@]5(C)CC[C@H](O)C(C)(C)[C@H]5CC[C@]43C)[C@H]12
REMARK SMILES IDX 7 1 6 2 11 3 33 4 5 5 12 6 15 7 2 8 3 9 13 10 16 11 1 12
REMARK SMILES IDX 4 13 14 14 31 15 17 16 18 17 30 18 32 19 19 20 29 21 28 22
REMARK SMILES IDX 21 23 20 24 25 25 22 26 23 27 26 28 27 29 8 30 9 31 10 32
REMARK SMILES IDX 24 33
REMARK H PARENT 24 34
REMARK Flexibility Score: inf
ROOT
ATOM      1  C   UNL     1      13.571  19.693  47.688  1.00  0.00     0.017 C 
ATOM      2  C   UNL     1      13.497  18.159  47.505  1.00  0.00     0.014 C 
ATOM      3  C   UNL     1      12.643  20.405  46.668  1.00  0.00     0.014 C 
ATOM      4  C   UNL     1      15.029  20.206  47.472  1.00  0.00     0.030 C 
ATOM      5  C   UNL     1      14.042  17.691  46.165  1.00  0.00     0.004 C 
ATOM      6  C   UNL     1      12.518  21.904  46.940  1.00  0.00     0.013 C 
ATOM      7  C   UNL     1      15.073  21.745  47.544  1.00  0.00    -0.063 C 
ATOM      8  C   UNL     1      15.689  19.655  46.142  1.00  0.00    -0.003 C 
ATOM      9  C   UNL     1      15.508  18.108  45.998  1.00  0.00    -0.011 C 
ATOM     10  C   UNL     1      13.869  22.678  47.242  1.00  0.00    -0.006 C 
ATOM     11  C   UNL     1      16.251  22.346  47.848  1.00  0.00    -0.027 C 
ATOM     12  C   UNL     1      17.196  20.000  46.064  1.00  0.00     0.008 C 
ATOM     13  C   UNL     1      16.013  17.566  44.642  1.00  0.00     0.008 C 
ATOM     14  C   UNL     1      13.581  23.393  48.618  1.00  0.00     0.017 C 
ATOM     15  C   UNL     1      14.285  23.739  46.060  1.00  0.00    -0.020 C 
ATOM     16  C   UNL     1      16.540  23.734  47.324  1.00  0.00     0.032 C 
ATOM     17  C   UNL     1      15.864  23.857  45.933  1.00  0.00     0.006 C 
ATOM     18  C   UNL     1      13.802  23.282  44.649  1.00  0.00     0.008 C 
ATOM     19  C   UNL     1      13.590  25.102  46.350  1.00  0.00     0.012 C 
ATOM     20  C   UNL     1      16.439  24.958  44.942  1.00  0.00    -0.025 C 
ATOM     21  C   UNL     1      14.607  23.809  43.433  1.00  0.00     0.005 C 
ATOM     22  C   UNL     1      15.514  25.074  43.642  1.00  0.00     0.003 C 
ATOM     23  C   UNL     1      17.911  24.564  44.532  1.00  0.00     0.010 C 
ATOM     24  C   UNL     1      16.530  26.328  45.680  1.00  0.00     0.012 C 
ATOM     25  C   UNL     1      16.304  25.424  42.303  1.00  0.00    -0.006 C 
ATOM     26  C   UNL     1      17.992  23.675  43.292  1.00  0.00     0.033 C 
ATOM     27  C   UNL     1      17.427  24.358  42.025  1.00  0.00     0.120 C 
ATOM     28  C   UNL     1      16.887  26.867  42.376  1.00  0.00     0.014 C 
ATOM     29  C   UNL     1      15.344  25.451  41.077  1.00  0.00     0.014 C 
ENDROOT
BRANCH   1  30
ATOM     30  C   UNL     1      13.100  19.950  49.117  1.00  0.00     0.048 C 
ATOM     31  O   UNL     1      11.875  19.861  49.408  1.00  0.00    -0.550 OA
ATOM     32  O   UNL     1      14.013  20.187  50.138  1.00  0.00    -0.550 OA
ENDBRANCH   1  30
BRANCH  27  33
ATOM     33  O   UNL     1      18.456  24.879  41.217  1.00  0.00    -0.393 OA
ATOM     34  H   UNL     1      19.166  25.238  41.811  1.00  0.00     0.210 HD
ENDBRANCH  27  33
TORSDOF 2
ENDMDL
MODEL 4
REMARK VINA RESULT:    -6.856      1.641      2.183
REMARK INTER + INTRA:          -7.525
REMARK INTER:                  -7.624
REMARK INTRA:                   0.100
REMARK UNBOUND:                -0.068
REMARK SMILES C[C@H]1[C@H](C)CC[C@]2(C(=O)[O-])CC[C@@]3(C)C(=CC[C@@H]4[C@@]5(C)CC[C@H](O)C(C)(C)[C@H]5CC[C@]43C)[C@H]12
REMARK SMILES IDX 7 1 6 2 11 3 33 4 5 5 12 6 15 7 2 8 3 9 13 10 16 11 1 12
REMARK SMILES IDX 4 13 14 14 31 15 17 16 18 17 30 18 32 19 19 20 29 21 28 22
REMARK SMILES IDX 21 23 20 24 25 25 22 26 23 27 26 28 27 29 8 30 9 31 10 32
REMARK SMILES IDX 24 33
REMARK H PARENT 24 34
REMARK Flexibility Score: inf
ROOT
ATOM      1  C   UNL     1      15.417  18.760  47.298  1.00  0.00     0.017 C 
ATOM      2  C   UNL     1      15.663  18.104  48.676  1.00  0.00     0.014 C 
ATOM      3  C   UNL     1      16.764  19.024  46.575  1.00  0.00     0.014 C 
ATOM      4  C   UNL     1      14.668  20.120  47.459  1.00  0.00     0.030 C 
ATOM      5  C   UNL     1      16.398  19.014  49.648  1.00  0.00     0.004 C 
ATOM      6  C   UNL     1      16.571  19.478  45.128  1.00  0.00     0.013 C 
ATOM      7  C   UNL     1      14.527  20.822  46.094  1.00  0.00    -0.063 C 
ATOM      8  C   UNL     1      15.327  21.066  48.546  1.00  0.00    -0.003 C 
ATOM      9  C   UNL     1      15.609  20.307  49.885  1.00  0.00    -0.011 C 
ATOM     10  C   UNL     1      15.472  20.594  44.883  1.00  0.00    -0.006 C 
ATOM     11  C   UNL     1      13.539  21.738  45.935  1.00  0.00    -0.027 C 
ATOM     12  C   UNL     1      14.446  22.304  48.840  1.00  0.00     0.008 C 
ATOM     13  C   UNL     1      16.384  21.164  50.911  1.00  0.00     0.008 C 
ATOM     14  C   UNL     1      14.541  19.956  43.782  1.00  0.00     0.017 C 
ATOM     15  C   UNL     1      16.106  22.034  44.409  1.00  0.00    -0.020 C 
ATOM     16  C   UNL     1      13.721  22.872  44.952  1.00  0.00     0.032 C 
ATOM     17  C   UNL     1      15.227  23.244  44.944  1.00  0.00     0.006 C 
ATOM     18  C   UNL     1      17.530  22.282  44.995  1.00  0.00     0.008 C 
ATOM     19  C   UNL     1      16.255  22.024  42.859  1.00  0.00     0.012 C 
ATOM     20  C   UNL     1      15.611  24.704  44.447  1.00  0.00    -0.025 C 
ATOM     21  C   UNL     1      17.969  23.761  45.152  1.00  0.00     0.005 C 
ATOM     22  C   UNL     1      17.199  24.851  44.326  1.00  0.00     0.003 C 
ATOM     23  C   UNL     1      15.040  25.763  45.468  1.00  0.00     0.010 C 
ATOM     24  C   UNL     1      14.923  24.985  43.076  1.00  0.00     0.012 C 
ATOM     25  C   UNL     1      17.751  26.306  44.666  1.00  0.00    -0.006 C 
ATOM     26  C   UNL     1      15.998  26.104  46.608  1.00  0.00     0.033 C 
ATOM     27  C   UNL     1      17.317  26.741  46.115  1.00  0.00     0.120 C 
ATOM     28  C   UNL     1      17.281  27.333  43.593  1.00  0.00     0.014 C 
ATOM     29  C   UNL     1      19.307  26.347  44.592  1.00  0.00     0.014 C 
ENDROOT
BRANCH   1  30
ATOM     30  C   UNL     1      14.574  17.754  46.518  1.00  0.00     0.048 C 
ATOM     31  O   UNL     1      15.116  16.995  45.668  1.00  0.00    -0.550 OA
ATOM     32  O   UNL     1      13.222  17.586  46.797  1.00  0.00    -0.550 OA
ENDBRANCH   1  30
BRANCH  27  33
ATOM     33  O   UNL     1      17.298  28.142  46.258  1.00  0.00    -0.393 OA
ATOM     34  H   UNL     1      18.189  28.493  45.997  1.00  0.00     0.210 HD
ENDBRANCH  27  33
TORSDOF 2
ENDMDL
MODEL 5
REMARK VINA RESULT:    -6.803      3.115      6.416
REMARK INTER + INTRA:          -7.467
REMARK INTER:                  -7.385
REMARK INTRA:                  -0.082
REMARK UNBOUND:                -0.068
REMARK SMILES C[C@H]1[C@H](C)CC[C@]2(C(=O)[O-])CC[C@@]3(C)C(=CC[C@@H]4[C@@]5(C)CC[C@H](O)C(C)(C)[C@H]5CC[C@]43C)[C@H]12
REMARK SMILES IDX 7 1 6 2 11 3 33 4 5 5 12 6 15 7 2 8 3 9 13 10 16 11 1 12
REMARK SMILES IDX 4 13 14 14 31 15 17 16 18 17 30 18 32 19 19 20 29 21 28 22
REMARK SMILES IDX 21 23 20 24 25 25 22 26 23 27 26 28 27 29 8 30 9 31 10 32
REMARK SMILES IDX 24 33
REMARK H PARENT 24 34
REMARK Flexibility Score: inf
ROOT
ATOM      1  C   UNL     1      14.448  26.462  47.889  1.00  0.00     0.017 C 
ATOM      2  C   UNL     1      15.334  27.729  47.843  1.00  0.00     0.014 C 
ATOM      3  C   UNL     1      14.972  25.473  48.964  1.00  0.00     0.014 C 
ATOM      4  C   UNL     1      14.450  25.736  46.507  1.00  0.00     0.030 C 
ATOM      5  C   UNL     1      16.756  27.446  47.382  1.00  0.00     0.004 C 
ATOM      6  C   UNL     1      14.017  24.302  49.195  1.00  0.00     0.013 C 
ATOM      7  C   UNL     1      13.659  24.416  46.592  1.00  0.00    -0.063 C 
ATOM      8  C   UNL     1      15.907  25.517  45.923  1.00  0.00    -0.003 C 
ATOM      9  C   UNL     1      16.761  26.827  45.979  1.00  0.00    -0.011 C 
ATOM     10  C   UNL     1      13.436  23.603  47.896  1.00  0.00    -0.006 C 
ATOM     11  C   UNL     1      13.151  23.890  45.448  1.00  0.00    -0.027 C 
ATOM     12  C   UNL     1      15.869  24.998  44.466  1.00  0.00     0.008 C 
ATOM     13  C   UNL     1      18.229  26.607  45.554  1.00  0.00     0.008 C 
ATOM     14  C   UNL     1      11.875  23.655  48.119  1.00  0.00     0.017 C 
ATOM     15  C   UNL     1      13.988  22.071  47.683  1.00  0.00    -0.020 C 
ATOM     16  C   UNL     1      12.965  22.395  45.331  1.00  0.00     0.032 C 
ATOM     17  C   UNL     1      14.103  21.718  46.139  1.00  0.00     0.006 C 
ATOM     18  C   UNL     1      15.427  21.870  48.249  1.00  0.00     0.008 C 
ATOM     19  C   UNL     1      13.059  21.096  48.466  1.00  0.00     0.012 C 
ATOM     20  C   UNL     1      14.474  20.222  45.755  1.00  0.00    -0.025 C 
ATOM     21  C   UNL     1      16.277  20.743  47.607  1.00  0.00     0.005 C 
ATOM     22  C   UNL     1      15.528  19.624  46.800  1.00  0.00     0.003 C 
ATOM     23  C   UNL     1      15.078  20.199  44.297  1.00  0.00     0.010 C 
ATOM     24  C   UNL     1      13.178  19.356  45.718  1.00  0.00     0.012 C 
ATOM     25  C   UNL     1      16.569  18.597  46.168  1.00  0.00    -0.006 C 
ATOM     26  C   UNL     1      16.593  20.387  44.250  1.00  0.00     0.033 C 
ATOM     27  C   UNL     1      17.362  19.266  44.986  1.00  0.00     0.120 C 
ATOM     28  C   UNL     1      15.842  17.297  45.710  1.00  0.00     0.014 C 
ATOM     29  C   UNL     1      17.598  18.116  47.234  1.00  0.00     0.014 C 
ENDROOT
BRANCH   1  30
ATOM     30  C   UNL     1      13.052  26.961  48.249  1.00  0.00     0.048 C 
ATOM     31  O   UNL     1      12.781  27.286  49.438  1.00  0.00    -0.550 OA
ATOM     32  O   UNL     1      12.089  27.161  47.266  1.00  0.00    -0.550 OA
ENDBRANCH   1  30
BRANCH  27  33
ATOM     33  O   UNL     1      17.865  18.308  44.083  1.00  0.00    -0.393 OA
ATOM     34  H   UNL     1      17.447  17.433  44.294  1.00  0.00     0.210 HD
ENDBRANCH  27  33
TORSDOF 2
ENDMDL
MODEL 6
REMARK VINA RESULT:    -6.531      3.098      5.481
REMARK INTER + INTRA:          -7.172
REMARK INTER:                  -7.130
REMARK INTRA:                  -0.042
REMARK UNBOUND:                -0.068
REMARK SMILES C[C@H]1[C@H](C)CC[C@]2(C(=O)[O-])CC[C@@]3(C)C(=CC[C@@H]4[C@@]5(C)CC[C@H](O)C(C)(C)[C@H]5CC[C@]43C)[C@H]12
REMARK SMILES IDX 7 1 6 2 11 3 33 4 5 5 12 6 15 7 2 8 3 9 13 10 16 11 1 12
REMARK SMILES IDX 4 13 14 14 31 15 17 16 18 17 30 18 32 19 19 20 29 21 28 22
REMARK SMILES IDX 21 23 20 24 25 25 22 26 23 27 26 28 27 29 8 30 9 31 10 32
REMARK SMILES IDX 24 33
REMARK H PARENT 24 34
REMARK Flexibility Score: inf
ROOT
ATOM      1  C   UNL     1      15.544  19.760  45.596  1.00  0.00     0.017 C 
ATOM      2  C   UNL     1      16.316  19.478  44.286  1.00  0.00     0.014 C 
ATOM      3  C   UNL     1      14.146  20.357  45.284  1.00  0.00     0.014 C 
ATOM      4  C   UNL     1      16.325  20.772  46.492  1.00  0.00     0.030 C 
ATOM      5  C   UNL     1      16.652  20.741  43.509  1.00  0.00     0.004 C 
ATOM      6  C   UNL     1      13.264  20.461  46.528  1.00  0.00     0.013 C 
ATOM      7  C   UNL     1      15.497  21.135  47.741  1.00  0.00    -0.063 C 
ATOM      8  C   UNL     1      16.800  22.061  45.701  1.00  0.00    -0.003 C 
ATOM      9  C   UNL     1      17.507  21.691  44.355  1.00  0.00    -0.011 C 
ATOM     10  C   UNL     1      13.949  21.055  47.827  1.00  0.00    -0.006 C 
ATOM     11  C   UNL     1      16.149  21.600  48.837  1.00  0.00    -0.027 C 
ATOM     12  C   UNL     1      17.753  22.936  46.551  1.00  0.00     0.008 C 
ATOM     13  C   UNL     1      17.850  22.928  43.496  1.00  0.00     0.008 C 
ATOM     14  C   UNL     1      13.681  19.950  48.921  1.00  0.00     0.017 C 
ATOM     15  C   UNL     1      13.352  22.522  48.261  1.00  0.00    -0.020 C 
ATOM     16  C   UNL     1      15.440  22.540  49.785  1.00  0.00     0.032 C 
ATOM     17  C   UNL     1      14.476  23.415  48.941  1.00  0.00     0.006 C 
ATOM     18  C   UNL     1      12.865  23.355  47.036  1.00  0.00     0.008 C 
ATOM     19  C   UNL     1      12.109  22.302  49.174  1.00  0.00     0.012 C 
ATOM     20  C   UNL     1      14.031  24.808  49.561  1.00  0.00    -0.025 C 
ATOM     21  C   UNL     1      12.867  24.898  47.198  1.00  0.00     0.005 C 
ATOM     22  C   UNL     1      12.902  25.486  48.653  1.00  0.00     0.003 C 
ATOM     23  C   UNL     1      15.290  25.753  49.665  1.00  0.00     0.010 C 
ATOM     24  C   UNL     1      13.513  24.589  51.016  1.00  0.00     0.012 C 
ATOM     25  C   UNL     1      12.960  27.078  48.612  1.00  0.00    -0.006 C 
ATOM     26  C   UNL     1      15.533  26.600  48.417  1.00  0.00     0.033 C 
ATOM     27  C   UNL     1      14.368  27.570  48.112  1.00  0.00     0.120 C 
ATOM     28  C   UNL     1      12.607  27.672  50.009  1.00  0.00     0.014 C 
ATOM     29  C   UNL     1      11.875  27.654  47.655  1.00  0.00     0.014 C 
ENDROOT
BRANCH   1  30
ATOM     30  C   UNL     1      15.409  18.404  46.283  1.00  0.00     0.048 C 
ATOM     31  O   UNL     1      14.693  17.501  45.771  1.00  0.00    -0.550 OA
ATOM     32  O   UNL     1      16.146  18.105  47.424  1.00  0.00    -0.550 OA
ENDBRANCH   1  30
BRANCH  27  33
ATOM     33  O   UNL     1      14.655  28.876  48.556  1.00  0.00    -0.393 OA
ATOM     34  H   UNL     1      15.482  28.843  49.104  1.00  0.00     0.210 HD
ENDBRANCH  27  33
TORSDOF 2
ENDMDL
MODEL 7
REMARK VINA RESULT:    -6.523      1.662      7.585
REMARK INTER + INTRA:          -7.163
REMARK INTER:                  -7.184
REMARK INTRA:                   0.021
REMARK UNBOUND:                -0.068
REMARK SMILES C[C@H]1[C@H](C)CC[C@]2(C(=O)[O-])CC[C@@]3(C)C(=CC[C@@H]4[C@@]5(C)CC[C@H](O)C(C)(C)[C@H]5CC[C@]43C)[C@H]12
REMARK SMILES IDX 7 1 6 2 11 3 33 4 5 5 12 6 15 7 2 8 3 9 13 10 16 11 1 12
REMARK SMILES IDX 4 13 14 14 31 15 17 16 18 17 30 18 32 19 19 20 29 21 28 22
REMARK SMILES IDX 21 23 20 24 25 25 22 26 23 27 26 28 27 29 8 30 9 31 10 32
REMARK SMILES IDX 24 33
REMARK H PARENT 24 34
REMARK Flexibility Score: inf
ROOT
ATOM      1  C   UNL     1      16.950  25.588  42.659  1.00  0.00     0.017 C 
ATOM      2  C   UNL     1      16.739  26.035  41.193  1.00  0.00     0.014 C 
ATOM      3  C   UNL     1      17.780  24.278  42.711  1.00  0.00     0.014 C 
ATOM      4  C   UNL     1      15.580  25.334  43.363  1.00  0.00     0.030 C 
ATOM      5  C   UNL     1      15.890  25.062  40.390  1.00  0.00     0.004 C 
ATOM      6  C   UNL     1      18.194  23.905  44.135  1.00  0.00     0.013 C 
ATOM      7  C   UNL     1      15.800  24.780  44.784  1.00  0.00    -0.063 C 
ATOM      8  C   UNL     1      14.608  24.415  42.513  1.00  0.00    -0.003 C 
ATOM      9  C   UNL     1      14.505  24.892  41.027  1.00  0.00    -0.011 C 
ATOM     10  C   UNL     1      17.065  24.005  45.243  1.00  0.00    -0.006 C 
ATOM     11  C   UNL     1      14.811  24.935  45.700  1.00  0.00    -0.027 C 
ATOM     12  C   UNL     1      13.188  24.360  43.128  1.00  0.00     0.008 C 
ATOM     13  C   UNL     1      13.681  23.932  40.142  1.00  0.00     0.008 C 
ATOM     14  C   UNL     1      17.711  24.937  46.341  1.00  0.00     0.017 C 
ATOM     15  C   UNL     1      16.619  22.544  45.847  1.00  0.00    -0.020 C 
ATOM     16  C   UNL     1      14.661  23.927  46.816  1.00  0.00     0.032 C 
ATOM     17  C   UNL     1      15.084  22.543  46.255  1.00  0.00     0.006 C 
ATOM     18  C   UNL     1      16.756  21.397  44.799  1.00  0.00     0.008 C 
ATOM     19  C   UNL     1      17.567  22.185  47.029  1.00  0.00     0.012 C 
ATOM     20  C   UNL     1      14.524  21.257  47.001  1.00  0.00    -0.025 C 
ATOM     21  C   UNL     1      15.839  20.162  44.994  1.00  0.00     0.005 C 
ATOM     22  C   UNL     1      15.203  19.933  46.412  1.00  0.00     0.003 C 
ATOM     23  C   UNL     1      12.958  21.195  46.818  1.00  0.00     0.010 C 
ATOM     24  C   UNL     1      14.794  21.383  48.531  1.00  0.00     0.012 C 
ATOM     25  C   UNL     1      14.251  18.656  46.399  1.00  0.00    -0.006 C 
ATOM     26  C   UNL     1      12.509  20.436  45.571  1.00  0.00     0.033 C 
ATOM     27  C   UNL     1      12.938  18.951  45.584  1.00  0.00     0.120 C 
ATOM     28  C   UNL     1      13.933  18.199  47.854  1.00  0.00     0.014 C 
ATOM     29  C   UNL     1      14.963  17.432  45.750  1.00  0.00     0.014 C 
ENDROOT
BRANCH   1  30
ATOM     30  C   UNL     1      17.709  26.733  43.323  1.00  0.00     0.048 C 
ATOM     31  O   UNL     1      17.123  27.491  44.145  1.00  0.00    -0.550 OA
ATOM     32  O   UNL     1      19.074  26.901  43.116  1.00  0.00    -0.550 OA
ENDBRANCH   1  30
BRANCH  27  33
ATOM     33  O   UNL     1      11.877  18.111  45.977  1.00  0.00    -0.393 OA
ATOM     34  H   UNL     1      11.933  17.273  45.449  1.00  0.00     0.210 HD
ENDBRANCH  27  33
TORSDOF 2
ENDMDL
MODEL 8
REMARK VINA RESULT:    -6.308      4.822      7.525
REMARK INTER + INTRA:          -6.929
REMARK INTER:                  -6.853
REMARK INTRA:                  -0.076
REMARK UNBOUND:                -0.068
REMARK SMILES C[C@H]1[C@H](C)CC[C@]2(C(=O)[O-])CC[C@@]3(C)C(=CC[C@@H]4[C@@]5(C)CC[C@H](O)C(C)(C)[C@H]5CC[C@]43C)[C@H]12
REMARK SMILES IDX 7 1 6 2 11 3 33 4 5 5 12 6 15 7 2 8 3 9 13 10 16 11 1 12
REMARK SMILES IDX 4 13 14 14 31 15 17 16 18 17 30 18 32 19 19 20 29 21 28 22
REMARK SMILES IDX 21 23 20 24 25 25 22 26 23 27 26 28 27 29 8 30 9 31 10 32
REMARK SMILES IDX 24 33
REMARK H PARENT 24 34
REMARK Flexibility Score: inf
ROOT
ATOM      1  C   UNL     1      15.165  23.204  46.049  1.00  0.00     0.017 C 
ATOM      2  C   UNL     1      16.058  22.015  45.624  1.00  0.00     0.014 C 
ATOM      3  C   UNL     1      16.012  24.497  46.182  1.00  0.00     0.014 C 
ATOM      4  C   UNL     1      14.481  22.918  47.422  1.00  0.00     0.030 C 
ATOM      5  C   UNL     1      17.091  21.638  46.675  1.00  0.00     0.004 C 
ATOM      6  C   UNL     1      15.150  25.741  46.397  1.00  0.00     0.013 C 
ATOM      7  C   UNL     1      13.684  24.150  47.893  1.00  0.00    -0.063 C 
ATOM      8  C   UNL     1      15.496  22.410  48.528  1.00  0.00    -0.003 C 
ATOM      9  C   UNL     1      16.410  21.257  47.995  1.00  0.00    -0.011 C 
ATOM     10  C   UNL     1      13.986  25.612  47.466  1.00  0.00    -0.006 C 
ATOM     11  C   UNL     1      12.672  23.968  48.779  1.00  0.00    -0.027 C 
ATOM     12  C   UNL     1      14.763  21.929  49.803  1.00  0.00     0.008 C 
ATOM     13  C   UNL     1      17.506  20.844  49.002  1.00  0.00     0.008 C 
ATOM     14  C   UNL     1      12.701  26.051  46.663  1.00  0.00     0.017 C 
ATOM     15  C   UNL     1      14.233  26.531  48.804  1.00  0.00    -0.020 C 
ATOM     16  C   UNL     1      12.307  25.079  49.736  1.00  0.00     0.032 C 
ATOM     17  C   UNL     1      13.613  25.837  50.092  1.00  0.00     0.006 C 
ATOM     18  C   UNL     1      15.746  26.713  49.135  1.00  0.00     0.008 C 
ATOM     19  C   UNL     1      13.658  27.955  48.541  1.00  0.00     0.012 C 
ATOM     20  C   UNL     1      13.626  26.663  51.448  1.00  0.00    -0.025 C 
ATOM     21  C   UNL     1      16.106  26.996  50.616  1.00  0.00     0.005 C 
ATOM     22  C   UNL     1      14.970  27.524  51.563  1.00  0.00     0.003 C 
ATOM     23  C   UNL     1      13.512  25.663  52.663  1.00  0.00     0.010 C 
ATOM     24  C   UNL     1      12.371  27.587  51.508  1.00  0.00     0.012 C 
ATOM     25  C   UNL     1      15.515  27.696  53.050  1.00  0.00    -0.006 C 
ATOM     26  C   UNL     1      14.859  25.158  53.179  1.00  0.00     0.033 C 
ATOM     27  C   UNL     1      15.760  26.292  53.717  1.00  0.00     0.120 C 
ATOM     28  C   UNL     1      14.537  28.569  53.892  1.00  0.00     0.014 C 
ATOM     29  C   UNL     1      16.858  28.485  53.067  1.00  0.00     0.014 C 
ENDROOT
BRANCH   1  30
ATOM     30  C   UNL     1      14.131  23.349  44.936  1.00  0.00     0.048 C 
ATOM     31  O   UNL     1      14.432  23.942  43.864  1.00  0.00    -0.550 OA
ATOM     32  O   UNL     1      12.882  22.747  45.039  1.00  0.00    -0.550 OA
ENDBRANCH   1  30
BRANCH  27  33
ATOM     33  O   UNL     1      15.713  26.365  55.124  1.00  0.00    -0.393 OA
ATOM     34  H   UNL     1      16.618  26.161  55.476  1.00  0.00     0.210 HD
ENDBRANCH  27  33
TORSDOF 2
ENDMDL
MODEL 9
REMARK VINA RESULT:    -6.285      3.208      4.734
REMARK INTER + INTRA:          -6.904
REMARK INTER:                  -6.936
REMARK INTRA:                   0.032
REMARK UNBOUND:                -0.068
REMARK SMILES C[C@H]1[C@H](C)CC[C@]2(C(=O)[O-])CC[C@@]3(C)C(=CC[C@@H]4[C@@]5(C)CC[C@H](O)C(C)(C)[C@H]5CC[C@]43C)[C@H]12
REMARK SMILES IDX 7 1 6 2 11 3 33 4 5 5 12 6 15 7 2 8 3 9 13 10 16 11 1 12
REMARK SMILES IDX 4 13 14 14 31 15 17 16 18 17 30 18 32 19 19 20 29 21 28 22
REMARK SMILES IDX 21 23 20 24 25 25 22 26 23 27 26 28 27 29 8 30 9 31 10 32
REMARK SMILES IDX 24 33
REMARK H PARENT 24 34
REMARK Flexibility Score: inf
ROOT
ATOM      1  C   UNL     1      15.732  19.333  46.548  1.00  0.00     0.017 C 
ATOM      2  C   UNL     1      16.380  18.197  47.373  1.00  0.00     0.014 C 
ATOM      3  C   UNL     1      16.756  20.470  46.292  1.00  0.00     0.014 C 
ATOM      4  C   UNL     1      14.504  19.934  47.303  1.00  0.00     0.030 C 
ATOM      5  C   UNL     1      16.767  18.627  48.779  1.00  0.00     0.004 C 
ATOM      6  C   UNL     1      16.233  21.518  45.310  1.00  0.00     0.013 C 
ATOM      7  C   UNL     1      13.934  21.138  46.529  1.00  0.00    -0.063 C 
ATOM      8  C   UNL     1      14.822  20.295  48.812  1.00  0.00    -0.003 C 
ATOM      9  C   UNL     1      15.541  19.121  49.555  1.00  0.00    -0.011 C 
ATOM     10  C   UNL     1      14.748  22.021  45.544  1.00  0.00    -0.006 C 
ATOM     11  C   UNL     1      12.642  21.493  46.743  1.00  0.00    -0.027 C 
ATOM     12  C   UNL     1      13.541  20.680  49.591  1.00  0.00     0.008 C 
ATOM     13  C   UNL     1      15.993  19.499  50.983  1.00  0.00     0.008 C 
ATOM     14  C   UNL     1      14.056  21.780  44.148  1.00  0.00     0.017 C 
ATOM     15  C   UNL     1      14.664  23.590  46.023  1.00  0.00    -0.020 C 
ATOM     16  C   UNL     1      12.223  22.935  46.568  1.00  0.00     0.032 C 
ATOM     17  C   UNL     1      13.424  23.824  46.987  1.00  0.00     0.006 C 
ATOM     18  C   UNL     1      15.908  24.029  46.856  1.00  0.00     0.008 C 
ATOM     19  C   UNL     1      14.633  24.494  44.756  1.00  0.00     0.012 C 
ATOM     20  C   UNL     1      13.103  25.318  47.420  1.00  0.00    -0.025 C 
ATOM     21  C   UNL     1      15.702  25.201  47.850  1.00  0.00     0.005 C 
ATOM     22  C   UNL     1      14.460  26.138  47.638  1.00  0.00     0.003 C 
ATOM     23  C   UNL     1      12.257  25.299  48.752  1.00  0.00     0.010 C 
ATOM     24  C   UNL     1      12.215  25.997  46.333  1.00  0.00     0.012 C 
ATOM     25  C   UNL     1      14.385  27.238  48.787  1.00  0.00    -0.006 C 
ATOM     26  C   UNL     1      13.103  25.312  50.024  1.00  0.00     0.033 C 
ATOM     27  C   UNL     1      13.971  26.584  50.156  1.00  0.00     0.120 C 
ATOM     28  C   UNL     1      13.413  28.386  48.381  1.00  0.00     0.014 C 
ATOM     29  C   UNL     1      15.762  27.941  48.980  1.00  0.00     0.014 C 
ENDROOT
BRANCH   1  30
ATOM     30  C   UNL     1      15.308  18.684  45.233  1.00  0.00     0.048 C 
ATOM     31  O   UNL     1      14.086  18.485  44.987  1.00  0.00    -0.550 OA
ATOM     32  O   UNL     1      16.243  18.395  44.245  1.00  0.00    -0.550 OA
ENDBRANCH   1  30
BRANCH  27  33
ATOM     33  O   UNL     1      13.382  27.521  51.029  1.00  0.00    -0.393 OA
ATOM     34  H   UNL     1      13.815  28.401  50.877  1.00  0.00     0.210 HD
ENDBRANCH  27  33
TORSDOF 2
ENDMDL
