MODEL 1
REMARK VINA RESULT:    -5.303      0.000      0.000
REMARK INTER + INTRA:          -5.768
REMARK INTER:                  -5.768
REMARK INTRA:                   0.000
REMARK UNBOUND:                 0.000
REMARK SMILES Cc1cc(O)c2c(c1)C(=O)c1cc(O)cc(O)c1C2=O
REMARK SMILES IDX 1 1 2 2 8 3 7 4 6 5 4 6 3 7 19 8 20 9 18 10 11 11 9 12 10 13
REMARK SMILES IDX 12 14 13 15 15 16 16 17 5 18 17 20 14 22
REMARK H PARENT 5 19 17 21 14 23
REMARK Flexibility Score: inf
ROOT
ATOM      1  C   UNL     1      38.187 -94.127  32.791  1.00  0.00     0.044 C 
ATOM      2  C   UNL     1      39.100 -94.259  33.974  1.00  0.00    -0.047 A 
ATOM      3  C   UNL     1      38.649 -94.872  35.147  1.00  0.00     0.016 A 
ATOM      4  C   UNL     1      39.509 -95.043  36.245  1.00  0.00     0.038 A 
ATOM      5  C   UNL     1      40.856 -94.618  36.159  1.00  0.00     0.076 A 
ATOM      6  C   UNL     1      41.290 -93.942  34.986  1.00  0.00     0.127 A 
ATOM      7  C   UNL     1      40.421 -93.807  33.899  1.00  0.00     0.050 A 
ATOM      8  C   UNL     1      41.779 -94.956  37.280  1.00  0.00     0.201 C 
ATOM      9  O   UNL     1      43.024 -94.981  37.089  1.00  0.00    -0.288 OA
ATOM     10  C   UNL     1      41.232 -95.378  38.596  1.00  0.00     0.076 A 
ATOM     11  C   UNL     1      39.872 -95.741  38.690  1.00  0.00     0.041 A 
ATOM     12  C   UNL     1      39.003 -95.662  37.493  1.00  0.00     0.194 C 
ATOM     13  O   UNL     1      37.823 -96.106  37.543  1.00  0.00    -0.289 OA
ATOM     14  C   UNL     1      39.349 -96.180  39.919  1.00  0.00     0.059 A 
ATOM     15  C   UNL     1      40.164 -96.252  41.052  1.00  0.00     0.120 A 
ATOM     16  C   UNL     1      41.507 -95.885  40.964  1.00  0.00     0.093 A 
ATOM     17  C   UNL     1      42.048 -95.447  39.749  1.00  0.00     0.131 A 
ENDROOT
BRANCH   6  18
ATOM     18  O   UNL     1      42.553 -93.359  34.867  1.00  0.00    -0.507 OA
ATOM     19  H   UNL     1      42.861 -92.847  34.052  1.00  0.00     0.293 HD
ENDBRANCH   6  18
BRANCH  17  20
ATOM     20  O   UNL     1      43.391 -95.074  39.693  1.00  0.00    -0.507 OA
ATOM     21  H   UNL     1      44.136 -95.760  39.724  1.00  0.00     0.293 HD
ENDBRANCH  17  20
BRANCH  15  22
ATOM     22  O   UNL     1      39.649 -96.685  42.272  1.00  0.00    -0.508 OA
ATOM     23  H   UNL     1      38.958 -96.144  42.778  1.00  0.00     0.293 HD
ENDBRANCH  15  22
TORSDOF 3
ENDMDL
MODEL 2
REMARK VINA RESULT:    -5.264      4.565      8.767
REMARK INTER + INTRA:          -5.725
REMARK INTER:                  -5.725
REMARK INTRA:                   0.000
REMARK UNBOUND:                 0.000
REMARK SMILES Cc1cc(O)c2c(c1)C(=O)c1cc(O)cc(O)c1C2=O
REMARK SMILES IDX 1 1 2 2 8 3 7 4 6 5 4 6 3 7 19 8 20 9 18 10 11 11 9 12 10 13
REMARK SMILES IDX 12 14 13 15 15 16 16 17 5 18 17 20 14 22
REMARK H PARENT 5 19 17 21 14 23
REMARK Flexibility Score: inf
ROOT
ATOM      1  C   UNL     1      41.947 -94.719  36.312  1.00  0.00     0.044 C 
ATOM      2  C   UNL     1      41.395 -94.605  34.921  1.00  0.00    -0.047 A 
ATOM      3  C   UNL     1      42.125 -95.090  33.832  1.00  0.00     0.016 A 
ATOM      4  C   UNL     1      41.598 -95.030  32.530  1.00  0.00     0.038 A 
ATOM      5  C   UNL     1      40.304 -94.500  32.317  1.00  0.00     0.076 A 
ATOM      6  C   UNL     1      39.594 -93.954  33.421  1.00  0.00     0.127 A 
ATOM      7  C   UNL     1      40.131 -94.049  34.709  1.00  0.00     0.050 A 
ATOM      8  C   UNL     1      39.715 -94.596  30.951  1.00  0.00     0.201 C 
ATOM      9  O   UNL     1      38.467 -94.535  30.794  1.00  0.00    -0.288 OA
ATOM     10  C   UNL     1      40.587 -94.882  29.781  1.00  0.00     0.076 A 
ATOM     11  C   UNL     1      41.899 -95.351  30.000  1.00  0.00     0.041 A 
ATOM     12  C   UNL     1      42.402 -95.516  31.383  1.00  0.00     0.194 C 
ATOM     13  O   UNL     1      43.525 -96.054  31.583  1.00  0.00    -0.289 OA
ATOM     14  C   UNL     1      42.722 -95.664  28.904  1.00  0.00     0.059 A 
ATOM     15  C   UNL     1      42.253 -95.505  27.596  1.00  0.00     0.120 A 
ATOM     16  C   UNL     1      40.959 -95.033  27.377  1.00  0.00     0.093 A 
ATOM     17  C   UNL     1      40.123 -94.719  28.455  1.00  0.00     0.131 A 
ENDROOT
BRANCH   6  18
ATOM     18  O   UNL     1      38.378 -93.281  33.286  1.00  0.00    -0.507 OA
ATOM     19  H   UNL     1      37.665 -93.262  34.001  1.00  0.00     0.293 HD
ENDBRANCH   6  18
BRANCH  17  20
ATOM     20  O   UNL     1      38.837 -94.237  28.206  1.00  0.00    -0.507 OA
ATOM     21  H   UNL     1      38.438 -94.241  27.275  1.00  0.00     0.293 HD
ENDBRANCH  17  20
BRANCH  15  22
ATOM     22  O   UNL     1      43.066 -95.812  26.508  1.00  0.00    -0.508 OA
ATOM     23  H   UNL     1      42.971 -96.686  26.005  1.00  0.00     0.293 HD
ENDBRANCH  15  22
TORSDOF 3
ENDMDL
MODEL 3
REMARK VINA RESULT:    -5.106      4.983      8.062
REMARK INTER + INTRA:          -5.554
REMARK INTER:                  -5.554
REMARK INTRA:                   0.000
REMARK UNBOUND:                 0.000
REMARK SMILES Cc1cc(O)c2c(c1)C(=O)c1cc(O)cc(O)c1C2=O
REMARK SMILES IDX 1 1 2 2 8 3 7 4 6 5 4 6 3 7 19 8 20 9 18 10 11 11 9 12 10 13
REMARK SMILES IDX 12 14 13 15 15 16 16 17 5 18 17 20 14 22
REMARK H PARENT 5 19 17 21 14 23
REMARK Flexibility Score: inf
ROOT
ATOM      1  C   UNL     1      43.754 -94.992  34.734  1.00  0.00     0.044 C 
ATOM      2  C   UNL     1      42.860 -95.129  33.537  1.00  0.00    -0.047 A 
ATOM      3  C   UNL     1      41.515 -94.754  33.616  1.00  0.00     0.016 A 
ATOM      4  C   UNL     1      40.680 -94.836  32.488  1.00  0.00     0.038 A 
ATOM      5  C   UNL     1      41.206 -95.274  31.250  1.00  0.00     0.076 A 
ATOM      6  C   UNL     1      42.558 -95.710  31.194  1.00  0.00     0.127 A 
ATOM      7  C   UNL     1      43.374 -95.595  32.324  1.00  0.00     0.050 A 
ATOM      8  C   UNL     1      40.335 -95.198  30.043  1.00  0.00     0.201 C 
ATOM      9  O   UNL     1      40.848 -95.171  28.893  1.00  0.00    -0.288 OA
ATOM     10  C   UNL     1      38.865 -95.036  30.192  1.00  0.00     0.076 A 
ATOM     11  C   UNL     1      38.339 -94.660  31.446  1.00  0.00     0.041 A 
ATOM     12  C   UNL     1      39.248 -94.468  32.600  1.00  0.00     0.194 C 
ATOM     13  O   UNL     1      38.797 -94.009  33.685  1.00  0.00    -0.289 OA
ATOM     14  C   UNL     1      36.954 -94.464  31.593  1.00  0.00     0.059 A 
ATOM     15  C   UNL     1      36.092 -94.649  30.508  1.00  0.00     0.120 A 
ATOM     16  C   UNL     1      36.609 -95.029  29.270  1.00  0.00     0.093 A 
ATOM     17  C   UNL     1      37.985 -95.226  29.101  1.00  0.00     0.131 A 
ENDROOT
BRANCH   6  18
ATOM     18  O   UNL     1      43.123 -96.293  30.057  1.00  0.00    -0.507 OA
ATOM     19  H   UNL     1      43.271 -95.800  29.188  1.00  0.00     0.293 HD
ENDBRANCH   6  18
BRANCH  17  20
ATOM     20  O   UNL     1      38.472 -95.619  27.855  1.00  0.00    -0.507 OA
ATOM     21  H   UNL     1      39.160 -95.069  27.354  1.00  0.00     0.293 HD
ENDBRANCH  17  20
BRANCH  15  22
ATOM     22  O   UNL     1      34.720 -94.457  30.651  1.00  0.00    -0.508 OA
ATOM     23  H   UNL     1      34.090 -94.520  29.859  1.00  0.00     0.293 HD
ENDBRANCH  15  22
TORSDOF 3
ENDMDL
MODEL 4
REMARK VINA RESULT:    -4.987      4.103      6.463
REMARK INTER + INTRA:          -5.424
REMARK INTER:                  -5.424
REMARK INTRA:                   0.000
REMARK UNBOUND:                 0.000
REMARK SMILES Cc1cc(O)c2c(c1)C(=O)c1cc(O)cc(O)c1C2=O
REMARK SMILES IDX 1 1 2 2 8 3 7 4 6 5 4 6 3 7 19 8 20 9 18 10 11 11 9 12 10 13
REMARK SMILES IDX 12 14 13 15 15 16 16 17 5 18 17 20 14 22
REMARK H PARENT 5 19 17 21 14 23
REMARK Flexibility Score: inf
ROOT
ATOM      1  C   UNL     1      34.666 -94.425  29.550  1.00  0.00     0.044 C 
ATOM      2  C   UNL     1      36.125 -94.649  29.820  1.00  0.00    -0.047 A 
ATOM      3  C   UNL     1      36.638 -94.468  31.108  1.00  0.00     0.016 A 
ATOM      4  C   UNL     1      37.994 -94.719  31.382  1.00  0.00     0.038 A 
ATOM      5  C   UNL     1      38.846 -95.188  30.355  1.00  0.00     0.076 A 
ATOM      6  C   UNL     1      38.331 -95.310  29.036  1.00  0.00     0.127 A 
ATOM      7  C   UNL     1      36.973 -95.078  28.795  1.00  0.00     0.050 A 
ATOM      8  C   UNL     1      40.235 -95.592  30.717  1.00  0.00     0.201 C 
ATOM      9  O   UNL     1      40.879 -96.378  29.972  1.00  0.00    -0.288 OA
ATOM     10  C   UNL     1      40.823 -95.166  32.014  1.00  0.00     0.076 A 
ATOM     11  C   UNL     1      39.977 -94.641  33.012  1.00  0.00     0.041 A 
ATOM     12  C   UNL     1      38.528 -94.487  32.745  1.00  0.00     0.194 C 
ATOM     13  O   UNL     1      37.752 -94.139  33.677  1.00  0.00    -0.289 OA
ATOM     14  C   UNL     1      40.512 -94.270  34.258  1.00  0.00     0.059 A 
ATOM     15  C   UNL     1      41.880 -94.409  34.513  1.00  0.00     0.120 A 
ATOM     16  C   UNL     1      42.721 -94.919  33.524  1.00  0.00     0.093 A 
ATOM     17  C   UNL     1      42.207 -95.297  32.277  1.00  0.00     0.131 A 
ENDROOT
BRANCH   6  18
ATOM     18  O   UNL     1      39.128 -95.623  27.933  1.00  0.00    -0.507 OA
ATOM     19  H   UNL     1      39.137 -95.088  27.077  1.00  0.00     0.293 HD
ENDBRANCH   6  18
BRANCH  17  20
ATOM     20  O   UNL     1      43.072 -95.793  31.302  1.00  0.00    -0.507 OA
ATOM     21  H   UNL     1      44.065 -95.590  31.318  1.00  0.00     0.293 HD
ENDBRANCH  17  20
BRANCH  15  22
ATOM     22  O   UNL     1      42.414 -94.041  35.745  1.00  0.00    -0.508 OA
ATOM     23  H   UNL     1      42.646 -94.730  36.450  1.00  0.00     0.293 HD
ENDBRANCH  15  22
TORSDOF 3
ENDMDL
MODEL 5
REMARK VINA RESULT:    -4.930      2.631      3.806
REMARK INTER + INTRA:          -5.363
REMARK INTER:                  -5.363
REMARK INTRA:                   0.000
REMARK UNBOUND:                 0.000
REMARK SMILES Cc1cc(O)c2c(c1)C(=O)c1cc(O)cc(O)c1C2=O
REMARK SMILES IDX 1 1 2 2 8 3 7 4 6 5 4 6 3 7 19 8 20 9 18 10 11 11 9 12 10 13
REMARK SMILES IDX 12 14 13 15 15 16 16 17 5 18 17 20 14 22
REMARK H PARENT 5 19 17 21 14 23
REMARK Flexibility Score: inf
ROOT
ATOM      1  C   UNL     1      39.380 -94.833  29.076  1.00  0.00     0.044 C 
ATOM      2  C   UNL     1      40.201 -94.920  30.329  1.00  0.00    -0.047 A 
ATOM      3  C   UNL     1      39.615 -94.668  31.573  1.00  0.00     0.016 A 
ATOM      4  C   UNL     1      40.363 -94.792  32.758  1.00  0.00     0.038 A 
ATOM      5  C   UNL     1      41.715 -95.204  32.698  1.00  0.00     0.076 A 
ATOM      6  C   UNL     1      42.319 -95.399  31.426  1.00  0.00     0.127 A 
ATOM      7  C   UNL     1      41.546 -95.293  30.265  1.00  0.00     0.050 A 
ATOM      8  C   UNL     1      42.430 -95.476  33.978  1.00  0.00     0.201 C 
ATOM      9  O   UNL     1      43.449 -96.217  33.988  1.00  0.00    -0.288 OA
ATOM     10  C   UNL     1      41.878 -94.973  35.263  1.00  0.00     0.076 A 
ATOM     11  C   UNL     1      40.548 -94.504  35.303  1.00  0.00     0.041 A 
ATOM     12  C   UNL     1      39.735 -94.486  34.065  1.00  0.00     0.194 C 
ATOM     13  O   UNL     1      38.510 -94.189  34.123  1.00  0.00    -0.289 OA
ATOM     14  C   UNL     1      39.999 -94.062  36.519  1.00  0.00     0.059 A 
ATOM     15  C   UNL     1      40.764 -94.073  37.689  1.00  0.00     0.120 A 
ATOM     16  C   UNL     1      42.082 -94.527  37.651  1.00  0.00     0.093 A 
ATOM     17  C   UNL     1      42.647 -94.975  36.450  1.00  0.00     0.131 A 
ENDROOT
BRANCH   6  18
ATOM     18  O   UNL     1      43.681 -95.662  31.262  1.00  0.00    -0.507 OA
ATOM     19  H   UNL     1      44.113 -96.546  31.492  1.00  0.00     0.293 HD
ENDBRANCH   6  18
BRANCH  17  20
ATOM     20  O   UNL     1      43.972 -95.412  36.438  1.00  0.00    -0.507 OA
ATOM     21  H   UNL     1      44.276 -96.175  35.844  1.00  0.00     0.293 HD
ENDBRANCH  17  20
BRANCH  15  22
ATOM     22  O   UNL     1      40.224 -93.634  38.895  1.00  0.00    -0.508 OA
ATOM     23  H   UNL     1      40.446 -94.089  39.773  1.00  0.00     0.293 HD
ENDBRANCH  15  22
TORSDOF 3
ENDMDL
MODEL 6
REMARK VINA RESULT:    -4.916      1.943      6.300
REMARK INTER + INTRA:          -5.348
REMARK INTER:                  -5.348
REMARK INTRA:                   0.000
REMARK UNBOUND:                 0.000
REMARK SMILES Cc1cc(O)c2c(c1)C(=O)c1cc(O)cc(O)c1C2=O
REMARK SMILES IDX 1 1 2 2 8 3 7 4 6 5 4 6 3 7 19 8 20 9 18 10 11 11 9 12 10 13
REMARK SMILES IDX 12 14 13 15 15 16 16 17 5 18 17 20 14 22
REMARK H PARENT 5 19 17 21 14 23
REMARK Flexibility Score: inf
ROOT
ATOM      1  C   UNL     1      43.699 -95.238  41.881  1.00  0.00     0.044 C 
ATOM      2  C   UNL     1      42.817 -95.019  40.687  1.00  0.00    -0.047 A 
ATOM      3  C   UNL     1      43.277 -95.333  39.404  1.00  0.00     0.016 A 
ATOM      4  C   UNL     1      42.443 -95.176  38.283  1.00  0.00     0.038 A 
ATOM      5  C   UNL     1      41.114 -94.722  38.452  1.00  0.00     0.076 A 
ATOM      6  C   UNL     1      40.675 -94.347  39.750  1.00  0.00     0.127 A 
ATOM      7  C   UNL     1      41.515 -94.537  40.851  1.00  0.00     0.050 A 
ATOM      8  C   UNL     1      40.212 -94.716  37.265  1.00  0.00     0.201 C 
ATOM      9  O   UNL     1      38.962 -94.729  37.420  1.00  0.00    -0.288 OA
ATOM     10  C   UNL     1      40.780 -94.815  35.895  1.00  0.00     0.076 A 
ATOM     11  C   UNL     1      42.126 -95.208  35.735  1.00  0.00     0.041 A 
ATOM     12  C   UNL     1      42.960 -95.480  36.928  1.00  0.00     0.194 C 
ATOM     13  O   UNL     1      44.121 -95.953  36.787  1.00  0.00    -0.289 OA
ATOM     14  C   UNL     1      42.666 -95.343  34.444  1.00  0.00     0.059 A 
ATOM     15  C   UNL     1      41.883 -95.083  33.316  1.00  0.00     0.120 A 
ATOM     16  C   UNL     1      40.555 -94.686  33.471  1.00  0.00     0.093 A 
ATOM     17  C   UNL     1      39.997 -94.547  34.748  1.00  0.00     0.131 A 
ENDROOT
BRANCH   6  18
ATOM     18  O   UNL     1      39.434 -93.753  39.992  1.00  0.00    -0.507 OA
ATOM     19  H   UNL     1      39.055 -93.601  40.916  1.00  0.00     0.293 HD
ENDBRANCH   6  18
BRANCH  17  20
ATOM     20  O   UNL     1      38.669 -94.136  34.873  1.00  0.00    -0.507 OA
ATOM     21  H   UNL     1      38.385 -93.463  35.575  1.00  0.00     0.293 HD
ENDBRANCH  17  20
BRANCH  15  22
ATOM     22  O   UNL     1      42.415 -95.215  32.036  1.00  0.00    -0.508 OA
ATOM     23  H   UNL     1      41.977 -94.782  31.232  1.00  0.00     0.293 HD
ENDBRANCH  15  22
TORSDOF 3
ENDMDL
MODEL 7
REMARK VINA RESULT:    -4.880      2.261      6.588
REMARK INTER + INTRA:          -5.307
REMARK INTER:                  -5.307
REMARK INTRA:                   0.000
REMARK UNBOUND:                 0.000
REMARK SMILES Cc1cc(O)c2c(c1)C(=O)c1cc(O)cc(O)c1C2=O
REMARK SMILES IDX 1 1 2 2 8 3 7 4 6 5 4 6 3 7 19 8 20 9 18 10 11 11 9 12 10 13
REMARK SMILES IDX 12 14 13 15 15 16 16 17 5 18 17 20 14 22
REMARK H PARENT 5 19 17 21 14 23
REMARK Flexibility Score: inf
ROOT
ATOM      1  C   UNL     1      44.125 -95.378  39.428  1.00  0.00     0.044 C 
ATOM      2  C   UNL     1      43.011 -95.075  38.468  1.00  0.00    -0.047 A 
ATOM      3  C   UNL     1      43.186 -95.289  37.097  1.00  0.00     0.016 A 
ATOM      4  C   UNL     1      42.135 -95.052  36.194  1.00  0.00     0.038 A 
ATOM      5  C   UNL     1      40.876 -94.620  36.675  1.00  0.00     0.076 A 
ATOM      6  C   UNL     1      40.726 -94.347  38.061  1.00  0.00     0.127 A 
ATOM      7  C   UNL     1      41.780 -94.615  38.941  1.00  0.00     0.050 A 
ATOM      8  C   UNL     1      39.742 -94.531  35.710  1.00  0.00     0.201 C 
ATOM      9  O   UNL     1      38.554 -94.563  36.126  1.00  0.00    -0.288 OA
ATOM     10  C   UNL     1      40.006 -94.522  34.247  1.00  0.00     0.076 A 
ATOM     11  C   UNL     1      41.283 -94.893  33.777  1.00  0.00     0.041 A 
ATOM     12  C   UNL     1      42.349 -95.249  34.741  1.00  0.00     0.194 C 
ATOM     13  O   UNL     1      43.449 -95.703  34.321  1.00  0.00    -0.289 OA
ATOM     14  C   UNL     1      41.535 -94.927  32.394  1.00  0.00     0.059 A 
ATOM     15  C   UNL     1      40.533 -94.587  31.481  1.00  0.00     0.120 A 
ATOM     16  C   UNL     1      39.272 -94.211  31.944  1.00  0.00     0.093 A 
ATOM     17  C   UNL     1      38.999 -94.173  33.316  1.00  0.00     0.131 A 
ENDROOT
BRANCH   6  18
ATOM     18  O   UNL     1      39.571 -93.782  38.605  1.00  0.00    -0.507 OA
ATOM     19  H   UNL     1      39.578 -93.084  39.336  1.00  0.00     0.293 HD
ENDBRANCH   6  18
BRANCH  17  20
ATOM     20  O   UNL     1      37.733 -93.781  33.752  1.00  0.00    -0.507 OA
ATOM     21  H   UNL     1      37.336 -92.885  33.496  1.00  0.00     0.293 HD
ENDBRANCH  17  20
BRANCH  15  22
ATOM     22  O   UNL     1      40.780 -94.618  30.111  1.00  0.00    -0.508 OA
ATOM     23  H   UNL     1      40.270 -95.239  29.493  1.00  0.00     0.293 HD
ENDBRANCH  15  22
TORSDOF 3
ENDMDL
MODEL 8
REMARK VINA RESULT:    -4.772      4.363      8.304
REMARK INTER + INTRA:          -5.190
REMARK INTER:                  -5.190
REMARK INTRA:                   0.000
REMARK UNBOUND:                 0.000
REMARK SMILES Cc1cc(O)c2c(c1)C(=O)c1cc(O)cc(O)c1C2=O
REMARK SMILES IDX 1 1 2 2 8 3 7 4 6 5 4 6 3 7 19 8 20 9 18 10 11 11 9 12 10 13
REMARK SMILES IDX 12 14 13 15 15 16 16 17 5 18 17 20 14 22
REMARK H PARENT 5 19 17 21 14 23
REMARK Flexibility Score: inf
ROOT
ATOM      1  C   UNL     1      44.125 -94.977  34.205  1.00  0.00     0.044 C 
ATOM      2  C   UNL     1      42.702 -94.896  33.734  1.00  0.00    -0.047 A 
ATOM      3  C   UNL     1      42.350 -95.383  32.472  1.00  0.00     0.016 A 
ATOM      4  C   UNL     1      41.013 -95.354  32.039  1.00  0.00     0.038 A 
ATOM      5  C   UNL     1      40.004 -94.855  32.896  1.00  0.00     0.076 A 
ATOM      6  C   UNL     1      40.379 -94.306  34.152  1.00  0.00     0.127 A 
ATOM      7  C   UNL     1      41.713 -94.370  34.570  1.00  0.00     0.050 A 
ATOM      8  C   UNL     1      38.582 -94.985  32.468  1.00  0.00     0.201 C 
ATOM      9  O   UNL     1      37.658 -94.952  33.323  1.00  0.00    -0.288 OA
ATOM     10  C   UNL     1      38.254 -95.271  31.047  1.00  0.00     0.076 A 
ATOM     11  C   UNL     1      39.277 -95.709  30.180  1.00  0.00     0.041 A 
ATOM     12  C   UNL     1      40.663 -95.842  30.683  1.00  0.00     0.194 C 
ATOM     13  O   UNL     1      41.552 -96.353  29.948  1.00  0.00    -0.289 OA
ATOM     14  C   UNL     1      38.974 -96.022  28.843  1.00  0.00     0.059 A 
ATOM     15  C   UNL     1      37.668 -95.893  28.362  1.00  0.00     0.120 A 
ATOM     16  C   UNL     1      36.656 -95.452  29.215  1.00  0.00     0.093 A 
ATOM     17  C   UNL     1      36.936 -95.138  30.550  1.00  0.00     0.131 A 
ENDROOT
BRANCH   6  18
ATOM     18  O   UNL     1      39.477 -93.661  35.001  1.00  0.00    -0.507 OA
ATOM     19  H   UNL     1      38.482 -93.619  34.835  1.00  0.00     0.293 HD
ENDBRANCH   6  18
BRANCH  17  20
ATOM     20  O   UNL     1      35.907 -94.687  31.377  1.00  0.00    -0.507 OA
ATOM     21  H   UNL     1      35.886 -93.738  31.731  1.00  0.00     0.293 HD
ENDBRANCH  17  20
BRANCH  15  22
ATOM     22  O   UNL     1      37.365 -96.201  27.038  1.00  0.00    -0.508 OA
ATOM     23  H   UNL     1      37.308 -97.159  26.715  1.00  0.00     0.293 HD
ENDBRANCH  15  22
TORSDOF 3
ENDMDL
MODEL 9
REMARK VINA RESULT:    -4.734      3.009      6.801
REMARK INTER + INTRA:          -5.149
REMARK INTER:                  -5.149
REMARK INTRA:                   0.000
REMARK UNBOUND:                 0.000
REMARK SMILES Cc1cc(O)c2c(c1)C(=O)c1cc(O)cc(O)c1C2=O
REMARK SMILES IDX 1 1 2 2 8 3 7 4 6 5 4 6 3 7 19 8 20 9 18 10 11 11 9 12 10 13
REMARK SMILES IDX 12 14 13 15 15 16 16 17 5 18 17 20 14 22
REMARK H PARENT 5 19 17 21 14 23
REMARK Flexibility Score: inf
ROOT
ATOM      1  C   UNL     1      40.219 -94.012  38.547  1.00  0.00     0.044 C 
ATOM      2  C   UNL     1      40.868 -94.323  37.230  1.00  0.00    -0.047 A 
ATOM      3  C   UNL     1      40.156 -94.158  36.038  1.00  0.00     0.016 A 
ATOM      4  C   UNL     1      40.769 -94.402  34.796  1.00  0.00     0.038 A 
ATOM      5  C   UNL     1      42.128 -94.792  34.744  1.00  0.00     0.076 A 
ATOM      6  C   UNL     1      42.825 -95.017  35.962  1.00  0.00     0.127 A 
ATOM      7  C   UNL     1      42.201 -94.742  37.183  1.00  0.00     0.050 A 
ATOM      8  C   UNL     1      42.786 -94.890  33.411  1.00  0.00     0.201 C 
ATOM      9  O   UNL     1      44.041 -94.820  33.317  1.00  0.00    -0.288 OA
ATOM     10  C   UNL     1      41.963 -94.952  32.174  1.00  0.00     0.076 A 
ATOM     11  C   UNL     1      40.594 -94.622  32.243  1.00  0.00     0.041 A 
ATOM     12  C   UNL     1      39.988 -94.257  33.544  1.00  0.00     0.194 C 
ATOM     13  O   UNL     1      38.798 -93.839  33.588  1.00  0.00    -0.289 OA
ATOM     14  C   UNL     1      39.811 -94.638  31.075  1.00  0.00     0.059 A 
ATOM     15  C   UNL     1      40.378 -94.987  29.846  1.00  0.00     0.120 A 
ATOM     16  C   UNL     1      41.730 -95.322  29.776  1.00  0.00     0.093 A 
ATOM     17  C   UNL     1      42.527 -95.310  30.927  1.00  0.00     0.131 A 
ENDROOT
BRANCH   6  18
ATOM     18  O   UNL     1      44.119 -95.541  36.013  1.00  0.00    -0.507 OA
ATOM     19  H   UNL     1      44.350 -96.424  36.447  1.00  0.00     0.293 HD
ENDBRANCH   6  18
BRANCH  17  20
ATOM     20  O   UNL     1      43.874 -95.662  30.831  1.00  0.00    -0.507 OA
ATOM     21  H   UNL     1      44.303 -96.309  31.481  1.00  0.00     0.293 HD
ENDBRANCH  17  20
BRANCH  15  22
ATOM     22  O   UNL     1      39.605 -95.006  28.688  1.00  0.00    -0.508 OA
ATOM     23  H   UNL     1      38.850 -95.670  28.563  1.00  0.00     0.293 HD
ENDBRANCH  15  22
TORSDOF 3
ENDMDL
