MODEL 1
REMARK VINA RESULT:    -6.976      0.000      0.000
REMARK INTER + INTRA:         -12.648
REMARK INTER:                 -11.054
REMARK INTRA:                  -1.594
REMARK UNBOUND:                -1.594
REMARK SMILES C[C@H]1O[C@@H](O[C@@H]2[C@@H](Oc3cc(O)c4c(c3)O[C@H](c3ccc(O)cc3)CC4=O)O[C@H](CO)[C@@H](O)[C@@H]2O)[C@@H](O)[C@H](O)[C@@H]1O
REMARK SMILES IDX 6 1 34 2 32 3 29 4 28 5 7 6 5 7 4 8 1 9 2 10 40 11 3 12
REMARK SMILES IDX 38 13 36 14 41 15 39 17 37 19 35 21 8 23 9 24 10 25 15 26
REMARK SMILES IDX 11 27 14 28 13 29 16 30 26 31 17 32 27 33 25 34 12 35 18 37
REMARK SMILES IDX 19 38 24 39 20 40 23 41 21 42 22 43 33 45 30 47 31 48
REMARK H PARENT 41 16 39 18 37 20 35 22 12 36 22 44 33 46 31 49
REMARK Flexibility Score: inf
ROOT
ATOM      1  C   UNL     1      14.075  55.163  29.173  1.00  0.00     0.221 C 
ATOM      2  C   UNL     1      13.797  55.387  27.674  1.00  0.00     0.181 C 
ATOM      3  C   UNL     1      15.119  55.408  26.875  1.00  0.00     0.177 C 
ATOM      4  C   UNL     1      15.972  54.157  27.222  1.00  0.00     0.179 C 
ATOM      5  O   UNL     1      16.189  54.069  28.622  1.00  0.00    -0.332 OA
ATOM      6  C   UNL     1      14.970  53.920  29.339  1.00  0.00     0.339 C 
ENDROOT
BRANCH   1   7
ATOM      7  O   UNL     1      14.767  56.279  29.711  1.00  0.00    -0.337 OA
BRANCH   7   8
ATOM      8  C   UNL     1      15.154  56.101  31.068  1.00  0.00     0.282 C 
ATOM      9  C   UNL     1      13.594  58.737  30.532  1.00  0.00     0.041 C 
ATOM     10  C   UNL     1      14.338  58.236  31.782  1.00  0.00     0.150 C 
ATOM     11  C   UNL     1      15.776  58.809  31.906  1.00  0.00     0.174 C 
ATOM     12  O   UNL     1      14.277  56.819  31.927  1.00  0.00    -0.344 OA
ATOM     13  C   UNL     1      16.783  58.026  31.045  1.00  0.00     0.179 C 
ATOM     14  C   UNL     1      16.625  56.518  31.277  1.00  0.00     0.202 C 
BRANCH  11  15
ATOM     15  O   UNL     1      16.188  58.848  33.253  1.00  0.00    -0.388 OA
ATOM     16  H   UNL     1      15.377  58.924  33.822  1.00  0.00     0.211 HD
ENDBRANCH  11  15
BRANCH  13  17
ATOM     17  O   UNL     1      18.090  58.431  31.367  1.00  0.00    -0.387 OA
ATOM     18  H   UNL     1      18.496  58.788  30.533  1.00  0.00     0.211 HD
ENDBRANCH  13  17
BRANCH  14  19
ATOM     19  O   UNL     1      17.461  55.818  30.393  1.00  0.00    -0.385 OA
ATOM     20  H   UNL     1      16.891  55.159  29.919  1.00  0.00     0.211 HD
ENDBRANCH  14  19
ENDBRANCH   7   8
ENDBRANCH   1   7
BRANCH   2  21
ATOM     21  O   UNL     1      13.045  56.557  27.463  1.00  0.00    -0.387 OA
ATOM     22  H   UNL     1      13.642  57.239  27.060  1.00  0.00     0.211 HD
ENDBRANCH   2  21
BRANCH   6  23
ATOM     23  O   UNL     1      14.265  52.741  28.939  1.00  0.00    -0.462 OA
BRANCH  23  24
ATOM     24  C   UNL     1      14.609  51.430  29.302  1.00  0.00     0.130 A 
ATOM     25  C   UNL     1      15.785  50.887  28.775  1.00  0.00     0.093 A 
ATOM     26  C   UNL     1      13.824  50.653  30.171  1.00  0.00     0.094 A 
ATOM     27  C   UNL     1      16.206  49.598  29.127  1.00  0.00     0.133 A 
ATOM     28  C   UNL     1      14.215  49.353  30.503  1.00  0.00     0.138 A 
ATOM     29  C   UNL     1      15.424  48.826  30.009  1.00  0.00     0.102 A 
ATOM     30  O   UNL     1      13.398  48.577  31.335  1.00  0.00    -0.484 OA
ATOM     31  C   UNL     1      15.835  47.480  30.478  1.00  0.00     0.174 C 
ATOM     32  C   UNL     1      13.562  47.159  31.439  1.00  0.00     0.211 C 
ATOM     33  O   UNL     1      16.870  46.920  30.028  1.00  0.00    -0.294 OA
ATOM     34  C   UNL     1      15.049  46.801  31.565  1.00  0.00     0.131 C 
BRANCH  27  35
ATOM     35  O   UNL     1      17.399  49.096  28.607  1.00  0.00    -0.507 OA
ATOM     36  H   UNL     1      17.410  48.463  27.815  1.00  0.00     0.293 HD
ENDBRANCH  27  35
BRANCH  32  37
ATOM     37  C   UNL     1      12.784  46.621  32.615  1.00  0.00    -0.007 A 
ATOM     38  C   UNL     1      11.396  46.823  32.689  1.00  0.00     0.011 A 
ATOM     39  C   UNL     1      13.420  45.850  33.605  1.00  0.00     0.011 A 
ATOM     40  C   UNL     1      10.661  46.283  33.748  1.00  0.00     0.046 A 
ATOM     41  C   UNL     1      12.682  45.315  34.665  1.00  0.00     0.046 A 
ATOM     42  C   UNL     1      11.300  45.530  34.740  1.00  0.00     0.115 A 
BRANCH  42  43
ATOM     43  O   UNL     1      10.553  44.999  35.789  1.00  0.00    -0.508 OA
ATOM     44  H   UNL     1      10.669  45.325  36.740  1.00  0.00     0.293 HD
ENDBRANCH  42  43
ENDBRANCH  32  37
ENDBRANCH  23  24
ENDBRANCH   6  23
BRANCH   3  45
ATOM     45  O   UNL     1      14.853  55.489  25.495  1.00  0.00    -0.387 OA
ATOM     46  H   UNL     1      15.688  55.790  25.048  1.00  0.00     0.211 HD
ENDBRANCH   3  45
BRANCH   4  47
ATOM     47  C   UNL     1      17.346  54.213  26.540  1.00  0.00     0.191 C 
BRANCH  47  48
ATOM     48  O   UNL     1      18.362  53.913  27.459  1.00  0.00    -0.394 OA
ATOM     49  H   UNL     1      18.852  54.764  27.614  1.00  0.00     0.210 HD
ENDBRANCH  47  48
ENDBRANCH   4  47
TORSDOF 14
ENDMDL
MODEL 2
REMARK VINA RESULT:    -6.437      1.409      2.250
REMARK INTER + INTRA:         -11.794
REMARK INTER:                  -9.829
REMARK INTRA:                  -1.965
REMARK UNBOUND:                -1.594
REMARK SMILES C[C@H]1O[C@@H](O[C@@H]2[C@@H](Oc3cc(O)c4c(c3)O[C@H](c3ccc(O)cc3)CC4=O)O[C@H](CO)[C@@H](O)[C@@H]2O)[C@@H](O)[C@H](O)[C@@H]1O
REMARK SMILES IDX 6 1 34 2 32 3 29 4 28 5 7 6 5 7 4 8 1 9 2 10 40 11 3 12
REMARK SMILES IDX 38 13 36 14 41 15 39 17 37 19 35 21 8 23 9 24 10 25 15 26
REMARK SMILES IDX 11 27 14 28 13 29 16 30 26 31 17 32 27 33 25 34 12 35 18 37
REMARK SMILES IDX 19 38 24 39 20 40 23 41 21 42 22 43 33 45 30 47 31 48
REMARK H PARENT 41 16 39 18 37 20 35 22 12 36 22 44 33 46 31 49
REMARK Flexibility Score: inf
ROOT
ATOM      1  C   UNL     1      13.631  55.218  30.361  1.00  0.00     0.221 C 
ATOM      2  C   UNL     1      12.137  55.586  30.266  1.00  0.00     0.181 C 
ATOM      3  C   UNL     1      11.875  56.477  29.031  1.00  0.00     0.177 C 
ATOM      4  C   UNL     1      12.490  55.824  27.763  1.00  0.00     0.179 C 
ATOM      5  O   UNL     1      13.872  55.558  27.954  1.00  0.00    -0.332 OA
ATOM      6  C   UNL     1      14.092  54.635  29.013  1.00  0.00     0.339 C 
ENDROOT
BRANCH   1   7
ATOM      7  O   UNL     1      14.401  56.381  30.624  1.00  0.00    -0.337 OA
BRANCH   7   8
ATOM      8  C   UNL     1      15.046  56.354  31.891  1.00  0.00     0.282 C 
ATOM      9  C   UNL     1      13.574  59.024  31.279  1.00  0.00     0.041 C 
ATOM     10  C   UNL     1      14.526  58.630  32.422  1.00  0.00     0.150 C 
ATOM     11  C   UNL     1      15.991  59.082  32.177  1.00  0.00     0.174 C 
ATOM     12  O   UNL     1      14.409  57.258  32.787  1.00  0.00    -0.344 OA
ATOM     13  C   UNL     1      16.751  58.103  31.265  1.00  0.00     0.179 C 
ATOM     14  C   UNL     1      16.551  56.660  31.747  1.00  0.00     0.202 C 
BRANCH  11  15
ATOM     15  O   UNL     1      16.672  59.266  33.397  1.00  0.00    -0.388 OA
ATOM     16  H   UNL     1      16.007  59.211  34.133  1.00  0.00     0.211 HD
ENDBRANCH  11  15
BRANCH  13  17
ATOM     17  O   UNL     1      18.118  58.427  31.262  1.00  0.00    -0.387 OA
ATOM     18  H   UNL     1      18.264  59.062  30.512  1.00  0.00     0.211 HD
ENDBRANCH  13  17
BRANCH  14  19
ATOM     19  O   UNL     1      17.144  55.774  30.833  1.00  0.00    -0.385 OA
ATOM     20  H   UNL     1      17.678  56.326  30.204  1.00  0.00     0.211 HD
ENDBRANCH  14  19
ENDBRANCH   7   8
ENDBRANCH   1   7
BRANCH   2  21
ATOM     21  O   UNL     1      11.684  56.196  31.450  1.00  0.00    -0.387 OA
ATOM     22  H   UNL     1      12.196  55.813  32.209  1.00  0.00     0.211 HD
ENDBRANCH   2  21
BRANCH   6  23
ATOM     23  O   UNL     1      13.444  53.383  28.763  1.00  0.00    -0.462 OA
BRANCH  23  24
ATOM     24  C   UNL     1      13.977  52.121  29.066  1.00  0.00     0.130 A 
ATOM     25  C   UNL     1      15.199  51.766  28.487  1.00  0.00     0.093 A 
ATOM     26  C   UNL     1      13.334  51.212  29.924  1.00  0.00     0.094 A 
ATOM     27  C   UNL     1      15.806  50.536  28.778  1.00  0.00     0.133 A 
ATOM     28  C   UNL     1      13.911  49.969  30.195  1.00  0.00     0.138 A 
ATOM     29  C   UNL     1      15.165  49.633  29.650  1.00  0.00     0.102 A 
ATOM     30  O   UNL     1      13.235  49.058  31.017  1.00  0.00    -0.484 OA
ATOM     31  C   UNL     1      15.773  48.342  30.055  1.00  0.00     0.174 C 
ATOM     32  C   UNL     1      13.596  47.675  31.061  1.00  0.00     0.211 C 
ATOM     33  O   UNL     1      16.861  47.947  29.557  1.00  0.00    -0.294 OA
ATOM     34  C   UNL     1      15.122  47.523  31.134  1.00  0.00     0.131 C 
BRANCH  27  35
ATOM     35  O   UNL     1      17.040  50.224  28.208  1.00  0.00    -0.507 OA
ATOM     36  H   UNL     1      17.846  50.828  28.320  1.00  0.00     0.293 HD
ENDBRANCH  27  35
BRANCH  32  37
ATOM     37  C   UNL     1      12.937  46.993  32.236  1.00  0.00    -0.007 A 
ATOM     38  C   UNL     1      11.539  47.021  32.369  1.00  0.00     0.011 A 
ATOM     39  C   UNL     1      13.700  46.260  33.162  1.00  0.00     0.011 A 
ATOM     40  C   UNL     1      10.918  46.348  33.424  1.00  0.00     0.046 A 
ATOM     41  C   UNL     1      13.076  45.590  34.219  1.00  0.00     0.046 A 
ATOM     42  C   UNL     1      11.682  45.634  34.353  1.00  0.00     0.115 A 
BRANCH  42  43
ATOM     43  O   UNL     1      11.048  44.968  35.400  1.00  0.00    -0.508 OA
ATOM     44  H   UNL     1      11.544  44.312  35.989  1.00  0.00     0.293 HD
ENDBRANCH  42  43
ENDBRANCH  32  37
ENDBRANCH  23  24
ENDBRANCH   6  23
BRANCH   3  45
ATOM     45  O   UNL     1      10.495  56.707  28.880  1.00  0.00    -0.387 OA
ATOM     46  H   UNL     1      10.041  56.341  29.684  1.00  0.00     0.211 HD
ENDBRANCH   3  45
BRANCH   4  47
ATOM     47  C   UNL     1      12.358  56.745  26.542  1.00  0.00     0.191 C 
BRANCH  47  48
ATOM     48  O   UNL     1      12.216  58.080  26.947  1.00  0.00    -0.394 OA
ATOM     49  H   UNL     1      12.248  58.624  26.116  1.00  0.00     0.210 HD
ENDBRANCH  47  48
ENDBRANCH   4  47
TORSDOF 14
ENDMDL
MODEL 3
REMARK VINA RESULT:    -6.298      2.898      9.904
REMARK INTER + INTRA:         -11.574
REMARK INTER:                  -9.637
REMARK INTRA:                  -1.937
REMARK UNBOUND:                -1.594
REMARK SMILES C[C@H]1O[C@@H](O[C@@H]2[C@@H](Oc3cc(O)c4c(c3)O[C@H](c3ccc(O)cc3)CC4=O)O[C@H](CO)[C@@H](O)[C@@H]2O)[C@@H](O)[C@H](O)[C@@H]1O
REMARK SMILES IDX 6 1 34 2 32 3 29 4 28 5 7 6 5 7 4 8 1 9 2 10 40 11 3 12
REMARK SMILES IDX 38 13 36 14 41 15 39 17 37 19 35 21 8 23 9 24 10 25 15 26
REMARK SMILES IDX 11 27 14 28 13 29 16 30 26 31 17 32 27 33 25 34 12 35 18 37
REMARK SMILES IDX 19 38 24 39 20 40 23 41 21 42 22 43 33 45 30 47 31 48
REMARK H PARENT 41 16 39 18 37 20 35 22 12 36 22 44 33 46 31 49
REMARK Flexibility Score: inf
ROOT
ATOM      1  C   UNL     1      15.720  49.812  29.003  1.00  0.00     0.221 C 
ATOM      2  C   UNL     1      16.586  50.125  27.767  1.00  0.00     0.181 C 
ATOM      3  C   UNL     1      15.822  49.779  26.469  1.00  0.00     0.177 C 
ATOM      4  C   UNL     1      14.414  50.434  26.488  1.00  0.00     0.179 C 
ATOM      5  O   UNL     1      13.698  50.054  27.654  1.00  0.00    -0.332 OA
ATOM      6  C   UNL     1      14.347  50.491  28.841  1.00  0.00     0.339 C 
ENDROOT
BRANCH   1   7
ATOM      7  O   UNL     1      15.511  48.412  29.107  1.00  0.00    -0.337 OA
BRANCH   7   8
ATOM      8  C   UNL     1      14.502  48.063  30.047  1.00  0.00     0.282 C 
ATOM      9  C   UNL     1      17.262  46.741  30.601  1.00  0.00     0.041 C 
ATOM     10  C   UNL     1      15.881  46.511  31.240  1.00  0.00     0.150 C 
ATOM     11  C   UNL     1      15.127  45.293  30.642  1.00  0.00     0.174 C 
ATOM     12  O   UNL     1      15.093  47.698  31.288  1.00  0.00    -0.344 OA
ATOM     13  C   UNL     1      14.412  45.648  29.326  1.00  0.00     0.179 C 
ATOM     14  C   UNL     1      13.601  46.940  29.492  1.00  0.00     0.202 C 
BRANCH  11  15
ATOM     15  O   UNL     1      14.223  44.751  31.577  1.00  0.00    -0.388 OA
ATOM     16  H   UNL     1      13.321  44.739  31.162  1.00  0.00     0.211 HD
ENDBRANCH  11  15
BRANCH  13  17
ATOM     17  O   UNL     1      13.566  44.591  28.951  1.00  0.00    -0.387 OA
ATOM     18  H   UNL     1      13.369  44.706  27.983  1.00  0.00     0.211 HD
ENDBRANCH  13  17
BRANCH  14  19
ATOM     19  O   UNL     1      13.060  47.316  28.252  1.00  0.00    -0.385 OA
ATOM     20  H   UNL     1      12.078  47.385  28.377  1.00  0.00     0.211 HD
ENDBRANCH  14  19
ENDBRANCH   7   8
ENDBRANCH   1   7
BRANCH   2  21
ATOM     21  O   UNL     1      17.826  49.464  27.830  1.00  0.00    -0.387 OA
ATOM     22  H   UNL     1      17.671  48.500  27.652  1.00  0.00     0.211 HD
ENDBRANCH   2  21
BRANCH   6  23
ATOM     23  O   UNL     1      14.488  51.915  28.869  1.00  0.00    -0.462 OA
BRANCH  23  24
ATOM     24  C   UNL     1      14.587  52.695  30.031  1.00  0.00     0.130 A 
ATOM     25  C   UNL     1      14.415  52.063  31.266  1.00  0.00     0.093 A 
ATOM     26  C   UNL     1      14.854  54.075  29.997  1.00  0.00     0.094 A 
ATOM     27  C   UNL     1      14.540  52.776  32.466  1.00  0.00     0.133 A 
ATOM     28  C   UNL     1      14.946  54.805  31.186  1.00  0.00     0.138 A 
ATOM     29  C   UNL     1      14.821  54.157  32.430  1.00  0.00     0.102 A 
ATOM     30  O   UNL     1      15.168  56.187  31.132  1.00  0.00    -0.484 OA
ATOM     31  C   UNL     1      15.029  54.965  33.656  1.00  0.00     0.174 C 
ATOM     32  C   UNL     1      14.941  57.028  32.267  1.00  0.00     0.211 C 
ATOM     33  O   UNL     1      14.868  54.467  34.802  1.00  0.00    -0.294 OA
ATOM     34  C   UNL     1      15.515  56.382  33.535  1.00  0.00     0.131 C 
BRANCH  27  35
ATOM     35  O   UNL     1      14.392  52.110  33.683  1.00  0.00    -0.507 OA
ATOM     36  H   UNL     1      13.477  51.903  34.068  1.00  0.00     0.293 HD
ENDBRANCH  27  35
BRANCH  32  37
ATOM     37  C   UNL     1      15.547  58.392  32.044  1.00  0.00    -0.007 A 
ATOM     38  C   UNL     1      16.299  59.001  33.062  1.00  0.00     0.011 A 
ATOM     39  C   UNL     1      15.435  59.034  30.797  1.00  0.00     0.011 A 
ATOM     40  C   UNL     1      16.907  60.240  32.845  1.00  0.00     0.046 A 
ATOM     41  C   UNL     1      16.042  60.275  30.584  1.00  0.00     0.046 A 
ATOM     42  C   UNL     1      16.779  60.882  31.608  1.00  0.00     0.115 A 
BRANCH  42  43
ATOM     43  O   UNL     1      17.391  62.117  31.408  1.00  0.00    -0.508 OA
ATOM     44  H   UNL     1      18.391  62.236  31.510  1.00  0.00     0.293 HD
ENDBRANCH  42  43
ENDBRANCH  32  37
ENDBRANCH  23  24
ENDBRANCH   6  23
BRANCH   3  45
ATOM     45  O   UNL     1      16.566  50.180  25.344  1.00  0.00    -0.387 OA
ATOM     46  H   UNL     1      15.953  50.679  24.742  1.00  0.00     0.211 HD
ENDBRANCH   3  45
BRANCH   4  47
ATOM     47  C   UNL     1      13.583  50.006  25.271  1.00  0.00     0.191 C 
BRANCH  47  48
ATOM     48  O   UNL     1      12.811  48.875  25.576  1.00  0.00    -0.394 OA
ATOM     49  H   UNL     1      13.194  48.500  26.413  1.00  0.00     0.210 HD
ENDBRANCH  47  48
ENDBRANCH   4  47
TORSDOF 14
ENDMDL
MODEL 4
REMARK VINA RESULT:    -6.281      3.642      5.684
REMARK INTER + INTRA:         -11.546
REMARK INTER:                  -9.695
REMARK INTRA:                  -1.852
REMARK UNBOUND:                -1.594
REMARK SMILES C[C@H]1O[C@@H](O[C@@H]2[C@@H](Oc3cc(O)c4c(c3)O[C@H](c3ccc(O)cc3)CC4=O)O[C@H](CO)[C@@H](O)[C@@H]2O)[C@@H](O)[C@H](O)[C@@H]1O
REMARK SMILES IDX 6 1 34 2 32 3 29 4 28 5 7 6 5 7 4 8 1 9 2 10 40 11 3 12
REMARK SMILES IDX 38 13 36 14 41 15 39 17 37 19 35 21 8 23 9 24 10 25 15 26
REMARK SMILES IDX 11 27 14 28 13 29 16 30 26 31 17 32 27 33 25 34 12 35 18 37
REMARK SMILES IDX 19 38 24 39 20 40 23 41 21 42 22 43 33 45 30 47 31 48
REMARK H PARENT 41 16 39 18 37 20 35 22 12 36 22 44 33 46 31 49
REMARK Flexibility Score: inf
ROOT
ATOM      1  C   UNL     1      13.466  55.562  30.701  1.00  0.00     0.221 C 
ATOM      2  C   UNL     1      13.559  57.048  30.303  1.00  0.00     0.181 C 
ATOM      3  C   UNL     1      14.814  57.698  30.928  1.00  0.00     0.177 C 
ATOM      4  C   UNL     1      16.070  56.838  30.622  1.00  0.00     0.179 C 
ATOM      5  O   UNL     1      15.881  55.500  31.057  1.00  0.00    -0.332 OA
ATOM      6  C   UNL     1      14.802  54.869  30.380  1.00  0.00     0.339 C 
ENDROOT
BRANCH   1   7
ATOM      7  O   UNL     1      13.235  55.447  32.097  1.00  0.00    -0.337 OA
BRANCH   7   8
ATOM      8  C   UNL     1      13.158  54.100  32.546  1.00  0.00     0.282 C 
ATOM      9  C   UNL     1      10.818  55.896  33.530  1.00  0.00     0.041 C 
ATOM     10  C   UNL     1      11.222  54.461  33.908  1.00  0.00     0.150 C 
ATOM     11  C   UNL     1      12.056  54.386  35.215  1.00  0.00     0.174 C 
ATOM     12  O   UNL     1      11.807  53.749  32.820  1.00  0.00    -0.344 OA
ATOM     13  C   UNL     1      13.544  54.693  34.966  1.00  0.00     0.179 C 
ATOM     14  C   UNL     1      14.065  53.879  33.775  1.00  0.00     0.202 C 
BRANCH  11  15
ATOM     15  O   UNL     1      11.898  53.135  35.843  1.00  0.00    -0.388 OA
ATOM     16  H   UNL     1      12.780  52.859  36.208  1.00  0.00     0.211 HD
ENDBRANCH  11  15
BRANCH  13  17
ATOM     17  O   UNL     1      14.286  54.390  36.121  1.00  0.00    -0.387 OA
ATOM     18  H   UNL     1      15.238  54.586  35.913  1.00  0.00     0.211 HD
ENDBRANCH  13  17
BRANCH  14  19
ATOM     19  O   UNL     1      15.383  54.265  33.484  1.00  0.00    -0.385 OA
ATOM     20  H   UNL     1      15.368  54.685  32.585  1.00  0.00     0.211 HD
ENDBRANCH  14  19
ENDBRANCH   7   8
ENDBRANCH   1   7
BRANCH   2  21
ATOM     21  O   UNL     1      12.387  57.745  30.648  1.00  0.00    -0.387 OA
ATOM     22  H   UNL     1      12.375  58.598  30.142  1.00  0.00     0.211 HD
ENDBRANCH   2  21
BRANCH   6  23
ATOM     23  O   UNL     1      15.019  54.834  28.965  1.00  0.00    -0.462 OA
BRANCH  23  24
ATOM     24  C   UNL     1      15.897  53.963  28.302  1.00  0.00     0.130 A 
ATOM     25  C   UNL     1      16.924  54.521  27.535  1.00  0.00     0.093 A 
ATOM     26  C   UNL     1      15.783  52.564  28.384  1.00  0.00     0.094 A 
ATOM     27  C   UNL     1      17.858  53.708  26.879  1.00  0.00     0.133 A 
ATOM     28  C   UNL     1      16.688  51.742  27.706  1.00  0.00     0.138 A 
ATOM     29  C   UNL     1      17.750  52.306  26.973  1.00  0.00     0.102 A 
ATOM     30  O   UNL     1      16.532  50.351  27.762  1.00  0.00    -0.484 OA
ATOM     31  C   UNL     1      18.735  51.382  26.361  1.00  0.00     0.174 C 
ATOM     32  C   UNL     1      17.199  49.483  26.841  1.00  0.00     0.211 C 
ATOM     33  O   UNL     1      19.673  51.813  25.638  1.00  0.00    -0.294 OA
ATOM     34  C   UNL     1      18.663  49.912  26.666  1.00  0.00     0.131 C 
BRANCH  27  35
ATOM     35  O   UNL     1      18.889  54.295  26.145  1.00  0.00    -0.507 OA
ATOM     36  H   UNL     1      18.803  55.229  25.761  1.00  0.00     0.293 HD
ENDBRANCH  27  35
BRANCH  32  37
ATOM     37  C   UNL     1      17.118  48.051  27.310  1.00  0.00    -0.007 A 
ATOM     38  C   UNL     1      17.175  47.003  26.375  1.00  0.00     0.011 A 
ATOM     39  C   UNL     1      17.062  47.745  28.682  1.00  0.00     0.011 A 
ATOM     40  C   UNL     1      17.152  45.674  26.806  1.00  0.00     0.046 A 
ATOM     41  C   UNL     1      17.036  46.414  29.108  1.00  0.00     0.046 A 
ATOM     42  C   UNL     1      17.080  45.374  28.171  1.00  0.00     0.115 A 
BRANCH  42  43
ATOM     43  O   UNL     1      17.059  44.044  28.583  1.00  0.00    -0.508 OA
ATOM     44  H   UNL     1      16.435  43.368  28.160  1.00  0.00     0.293 HD
ENDBRANCH  42  43
ENDBRANCH  32  37
ENDBRANCH  23  24
ENDBRANCH   6  23
BRANCH   3  45
ATOM     45  O   UNL     1      14.961  59.018  30.463  1.00  0.00    -0.387 OA
ATOM     46  H   UNL     1      15.913  59.140  30.208  1.00  0.00     0.211 HD
ENDBRANCH   3  45
BRANCH   4  47
ATOM     47  C   UNL     1      17.311  57.390  31.336  1.00  0.00     0.191 C 
BRANCH  47  48
ATOM     48  O   UNL     1      17.655  58.649  30.823  1.00  0.00    -0.394 OA
ATOM     49  H   UNL     1      16.822  59.190  30.844  1.00  0.00     0.210 HD
ENDBRANCH  47  48
ENDBRANCH   4  47
TORSDOF 14
ENDMDL
MODEL 5
REMARK VINA RESULT:    -6.187      3.419      6.072
REMARK INTER + INTRA:         -11.398
REMARK INTER:                  -9.357
REMARK INTRA:                  -2.041
REMARK UNBOUND:                -1.594
REMARK SMILES C[C@H]1O[C@@H](O[C@@H]2[C@@H](Oc3cc(O)c4c(c3)O[C@H](c3ccc(O)cc3)CC4=O)O[C@H](CO)[C@@H](O)[C@@H]2O)[C@@H](O)[C@H](O)[C@@H]1O
REMARK SMILES IDX 6 1 34 2 32 3 29 4 28 5 7 6 5 7 4 8 1 9 2 10 40 11 3 12
REMARK SMILES IDX 38 13 36 14 41 15 39 17 37 19 35 21 8 23 9 24 10 25 15 26
REMARK SMILES IDX 11 27 14 28 13 29 16 30 26 31 17 32 27 33 25 34 12 35 18 37
REMARK SMILES IDX 19 38 24 39 20 40 23 41 21 42 22 43 33 45 30 47 31 48
REMARK H PARENT 41 16 39 18 37 20 35 22 12 36 22 44 33 46 31 49
REMARK Flexibility Score: inf
ROOT
ATOM      1  C   UNL     1      14.581  56.689  31.761  1.00  0.00     0.221 C 
ATOM      2  C   UNL     1      14.216  55.733  32.913  1.00  0.00     0.181 C 
ATOM      3  C   UNL     1      12.900  56.179  33.590  1.00  0.00     0.177 C 
ATOM      4  C   UNL     1      11.796  56.397  32.520  1.00  0.00     0.179 C 
ATOM      5  O   UNL     1      12.232  57.316  31.528  1.00  0.00    -0.332 OA
ATOM      6  C   UNL     1      13.369  56.835  30.823  1.00  0.00     0.339 C 
ENDROOT
BRANCH   1   7
ATOM      7  O   UNL     1      14.896  57.974  32.277  1.00  0.00    -0.337 OA
BRANCH   7   8
ATOM      8  C   UNL     1      14.903  58.992  31.285  1.00  0.00     0.282 C 
ATOM      9  C   UNL     1      17.656  58.546  32.660  1.00  0.00     0.041 C 
ATOM     10  C   UNL     1      17.175  59.635  31.685  1.00  0.00     0.150 C 
ATOM     11  C   UNL     1      16.740  60.944  32.398  1.00  0.00     0.174 C 
ATOM     12  O   UNL     1      16.213  59.150  30.752  1.00  0.00    -0.344 OA
ATOM     13  C   UNL     1      15.302  60.853  32.939  1.00  0.00     0.179 C 
ATOM     14  C   UNL     1      14.357  60.317  31.855  1.00  0.00     0.202 C 
BRANCH  11  15
ATOM     15  O   UNL     1      16.889  62.055  31.545  1.00  0.00    -0.388 OA
ATOM     16  H   UNL     1      16.793  61.740  30.608  1.00  0.00     0.211 HD
ENDBRANCH  11  15
BRANCH  13  17
ATOM     17  O   UNL     1      14.879  62.124  33.364  1.00  0.00    -0.387 OA
ATOM     18  H   UNL     1      14.983  62.149  34.352  1.00  0.00     0.211 HD
ENDBRANCH  13  17
BRANCH  14  19
ATOM     19  O   UNL     1      13.079  60.123  32.403  1.00  0.00    -0.385 OA
ATOM     20  H   UNL     1      12.553  60.941  32.204  1.00  0.00     0.211 HD
ENDBRANCH  14  19
ENDBRANCH   7   8
ENDBRANCH   1   7
BRANCH   2  21
ATOM     21  O   UNL     1      15.267  55.626  33.842  1.00  0.00    -0.387 OA
ATOM     22  H   UNL     1      15.636  56.534  33.996  1.00  0.00     0.211 HD
ENDBRANCH   2  21
BRANCH   6  23
ATOM     23  O   UNL     1      13.094  55.592  30.166  1.00  0.00    -0.462 OA
BRANCH  23  24
ATOM     24  C   UNL     1      13.992  54.896  29.343  1.00  0.00     0.130 A 
ATOM     25  C   UNL     1      14.662  55.611  28.346  1.00  0.00     0.093 A 
ATOM     26  C   UNL     1      14.240  53.520  29.486  1.00  0.00     0.094 A 
ATOM     27  C   UNL     1      15.600  54.985  27.515  1.00  0.00     0.133 A 
ATOM     28  C   UNL     1      15.148  52.876  28.640  1.00  0.00     0.138 A 
ATOM     29  C   UNL     1      15.858  53.608  27.669  1.00  0.00     0.102 A 
ATOM     30  O   UNL     1      15.351  51.496  28.768  1.00  0.00    -0.484 OA
ATOM     31  C   UNL     1      16.881  52.889  26.871  1.00  0.00     0.174 C 
ATOM     32  C   UNL     1      15.992  50.733  27.741  1.00  0.00     0.211 C 
ATOM     33  O   UNL     1      17.507  53.464  25.941  1.00  0.00    -0.294 OA
ATOM     34  C   UNL     1      17.235  51.472  27.224  1.00  0.00     0.131 C 
BRANCH  27  35
ATOM     35  O   UNL     1      16.274  55.732  26.549  1.00  0.00    -0.507 OA
ATOM     36  H   UNL     1      16.188  56.741  26.501  1.00  0.00     0.293 HD
ENDBRANCH  27  35
BRANCH  32  37
ATOM     37  C   UNL     1      16.363  49.363  28.254  1.00  0.00    -0.007 A 
ATOM     38  C   UNL     1      16.653  48.330  27.347  1.00  0.00     0.011 A 
ATOM     39  C   UNL     1      16.499  49.124  29.633  1.00  0.00     0.011 A 
ATOM     40  C   UNL     1      17.048  47.073  27.814  1.00  0.00     0.046 A 
ATOM     41  C   UNL     1      16.891  47.864  30.097  1.00  0.00     0.046 A 
ATOM     42  C   UNL     1      17.166  46.835  29.187  1.00  0.00     0.115 A 
BRANCH  42  43
ATOM     43  O   UNL     1      17.560  45.577  29.636  1.00  0.00    -0.508 OA
ATOM     44  H   UNL     1      18.292  45.465  30.327  1.00  0.00     0.293 HD
ENDBRANCH  42  43
ENDBRANCH  32  37
ENDBRANCH  23  24
ENDBRANCH   6  23
BRANCH   3  45
ATOM     45  O   UNL     1      12.507  55.237  34.558  1.00  0.00    -0.387 OA
ATOM     46  H   UNL     1      13.320  54.742  34.841  1.00  0.00     0.211 HD
ENDBRANCH   3  45
BRANCH   4  47
ATOM     47  C   UNL     1      10.515  56.963  33.147  1.00  0.00     0.191 C 
BRANCH  47  48
ATOM     48  O   UNL     1      10.803  57.600  34.362  1.00  0.00    -0.394 OA
ATOM     49  H   UNL     1      11.203  58.478  34.123  1.00  0.00     0.210 HD
ENDBRANCH  47  48
ENDBRANCH   4  47
TORSDOF 14
ENDMDL
MODEL 6
REMARK VINA RESULT:    -6.154      2.602     10.103
REMARK INTER + INTRA:         -11.345
REMARK INTER:                  -9.805
REMARK INTRA:                  -1.540
REMARK UNBOUND:                -1.594
REMARK SMILES C[C@H]1O[C@@H](O[C@@H]2[C@@H](Oc3cc(O)c4c(c3)O[C@H](c3ccc(O)cc3)CC4=O)O[C@H](CO)[C@@H](O)[C@@H]2O)[C@@H](O)[C@H](O)[C@@H]1O
REMARK SMILES IDX 6 1 34 2 32 3 29 4 28 5 7 6 5 7 4 8 1 9 2 10 40 11 3 12
REMARK SMILES IDX 38 13 36 14 41 15 39 17 37 19 35 21 8 23 9 24 10 25 15 26
REMARK SMILES IDX 11 27 14 28 13 29 16 30 26 31 17 32 27 33 25 34 12 35 18 37
REMARK SMILES IDX 19 38 24 39 20 40 23 41 21 42 22 43 33 45 30 47 31 48
REMARK H PARENT 41 16 39 18 37 20 35 22 12 36 22 44 33 46 31 49
REMARK Flexibility Score: inf
ROOT
ATOM      1  C   UNL     1      15.159  49.250  30.200  1.00  0.00     0.221 C 
ATOM      2  C   UNL     1      16.543  49.147  29.531  1.00  0.00     0.181 C 
ATOM      3  C   UNL     1      16.400  48.711  28.055  1.00  0.00     0.177 C 
ATOM      4  C   UNL     1      15.366  49.614  27.329  1.00  0.00     0.179 C 
ATOM      5  O   UNL     1      14.124  49.609  28.017  1.00  0.00    -0.332 OA
ATOM      6  C   UNL     1      14.244  50.134  29.333  1.00  0.00     0.339 C 
ENDROOT
BRANCH   1   7
ATOM      7  O   UNL     1      14.568  47.963  30.293  1.00  0.00    -0.337 OA
BRANCH   7   8
ATOM      8  C   UNL     1      14.421  47.507  31.632  1.00  0.00     0.282 C 
ATOM      9  C   UNL     1      15.661  45.402  29.708  1.00  0.00     0.041 C 
ATOM     10  C   UNL     1      15.171  45.282  31.162  1.00  0.00     0.150 C 
ATOM     11  C   UNL     1      13.732  44.711  31.275  1.00  0.00     0.174 C 
ATOM     12  O   UNL     1      15.366  46.480  31.908  1.00  0.00    -0.344 OA
ATOM     13  C   UNL     1      12.663  45.796  31.050  1.00  0.00     0.179 C 
ATOM     14  C   UNL     1      12.976  47.037  31.896  1.00  0.00     0.202 C 
BRANCH  11  15
ATOM     15  O   UNL     1      13.542  44.066  32.513  1.00  0.00    -0.388 OA
ATOM     16  H   UNL     1      13.999  44.601  33.213  1.00  0.00     0.211 HD
ENDBRANCH  11  15
BRANCH  13  17
ATOM     17  O   UNL     1      11.398  45.286  31.387  1.00  0.00    -0.387 OA
ATOM     18  H   UNL     1      10.744  46.023  31.254  1.00  0.00     0.211 HD
ENDBRANCH  13  17
BRANCH  14  19
ATOM     19  O   UNL     1      12.065  48.059  31.583  1.00  0.00    -0.385 OA
ATOM     20  H   UNL     1      11.161  47.648  31.584  1.00  0.00     0.211 HD
ENDBRANCH  14  19
ENDBRANCH   7   8
ENDBRANCH   1   7
BRANCH   2  21
ATOM     21  O   UNL     1      17.395  48.286  30.246  1.00  0.00    -0.387 OA
ATOM     22  H   UNL     1      18.068  47.923  29.614  1.00  0.00     0.211 HD
ENDBRANCH   2  21
BRANCH   6  23
ATOM     23  O   UNL     1      14.722  51.484  29.318  1.00  0.00    -0.462 OA
BRANCH  23  24
ATOM     24  C   UNL     1      14.749  52.344  30.426  1.00  0.00     0.130 A 
ATOM     25  C   UNL     1      14.525  51.795  31.692  1.00  0.00     0.093 A 
ATOM     26  C   UNL     1      14.994  53.724  30.309  1.00  0.00     0.094 A 
ATOM     27  C   UNL     1      14.576  52.592  32.844  1.00  0.00     0.133 A 
ATOM     28  C   UNL     1      15.014  54.535  31.448  1.00  0.00     0.138 A 
ATOM     29  C   UNL     1      14.835  53.972  32.725  1.00  0.00     0.102 A 
ATOM     30  O   UNL     1      15.215  55.914  31.308  1.00  0.00    -0.484 OA
ATOM     31  C   UNL     1      14.968  54.868  33.901  1.00  0.00     0.174 C 
ATOM     32  C   UNL     1      14.916  56.828  32.368  1.00  0.00     0.211 C 
ATOM     33  O   UNL     1      14.757  54.447  35.069  1.00  0.00    -0.294 OA
ATOM     34  C   UNL     1      15.436  56.282  33.706  1.00  0.00     0.131 C 
BRANCH  27  35
ATOM     35  O   UNL     1      14.377  52.009  34.096  1.00  0.00    -0.507 OA
ATOM     36  H   UNL     1      13.455  51.948  34.513  1.00  0.00     0.293 HD
ENDBRANCH  27  35
BRANCH  32  37
ATOM     37  C   UNL     1      15.511  58.185  32.080  1.00  0.00    -0.007 A 
ATOM     38  C   UNL     1      16.289  58.830  33.056  1.00  0.00     0.011 A 
ATOM     39  C   UNL     1      15.361  58.782  30.816  1.00  0.00     0.011 A 
ATOM     40  C   UNL     1      16.886  60.063  32.778  1.00  0.00     0.046 A 
ATOM     41  C   UNL     1      15.957  60.017  30.542  1.00  0.00     0.046 A 
ATOM     42  C   UNL     1      16.721  60.662  31.524  1.00  0.00     0.115 A 
BRANCH  42  43
ATOM     43  O   UNL     1      17.322  61.890  31.263  1.00  0.00    -0.508 OA
ATOM     44  H   UNL     1      16.884  62.579  30.664  1.00  0.00     0.293 HD
ENDBRANCH  42  43
ENDBRANCH  32  37
ENDBRANCH  23  24
ENDBRANCH   6  23
BRANCH   3  45
ATOM     45  O   UNL     1      17.653  48.737  27.415  1.00  0.00    -0.387 OA
ATOM     46  H   UNL     1      17.521  48.412  26.486  1.00  0.00     0.211 HD
ENDBRANCH   3  45
BRANCH   4  47
ATOM     47  C   UNL     1      15.108  49.126  25.897  1.00  0.00     0.191 C 
BRANCH  47  48
ATOM     48  O   UNL     1      15.503  47.788  25.755  1.00  0.00    -0.394 OA
ATOM     49  H   UNL     1      15.482  47.598  24.780  1.00  0.00     0.210 HD
ENDBRANCH  47  48
ENDBRANCH   4  47
TORSDOF 14
ENDMDL
MODEL 7
REMARK VINA RESULT:    -6.130      1.877      2.746
REMARK INTER + INTRA:         -11.308
REMARK INTER:                  -9.510
REMARK INTRA:                  -1.798
REMARK UNBOUND:                -1.594
REMARK SMILES C[C@H]1O[C@@H](O[C@@H]2[C@@H](Oc3cc(O)c4c(c3)O[C@H](c3ccc(O)cc3)CC4=O)O[C@H](CO)[C@@H](O)[C@@H]2O)[C@@H](O)[C@H](O)[C@@H]1O
REMARK SMILES IDX 6 1 34 2 32 3 29 4 28 5 7 6 5 7 4 8 1 9 2 10 40 11 3 12
REMARK SMILES IDX 38 13 36 14 41 15 39 17 37 19 35 21 8 23 9 24 10 25 15 26
REMARK SMILES IDX 11 27 14 28 13 29 16 30 26 31 17 32 27 33 25 34 12 35 18 37
REMARK SMILES IDX 19 38 24 39 20 40 23 41 21 42 22 43 33 45 30 47 31 48
REMARK H PARENT 41 16 39 18 37 20 35 22 12 36 22 44 33 46 31 49
REMARK Flexibility Score: inf
ROOT
ATOM      1  C   UNL     1      14.444  56.363  29.295  1.00  0.00     0.221 C 
ATOM      2  C   UNL     1      13.272  56.905  28.453  1.00  0.00     0.181 C 
ATOM      3  C   UNL     1      13.800  57.654  27.209  1.00  0.00     0.177 C 
ATOM      4  C   UNL     1      14.824  56.768  26.447  1.00  0.00     0.179 C 
ATOM      5  O   UNL     1      15.871  56.353  27.313  1.00  0.00    -0.332 OA
ATOM      6  C   UNL     1      15.387  55.555  28.385  1.00  0.00     0.339 C 
ENDROOT
BRANCH   1   7
ATOM      7  O   UNL     1      15.183  57.441  29.849  1.00  0.00    -0.337 OA
BRANCH   7   8
ATOM      8  C   UNL     1      15.104  57.508  31.267  1.00  0.00     0.282 C 
ATOM      9  C   UNL     1      15.144  60.286  29.871  1.00  0.00     0.041 C 
ATOM     10  C   UNL     1      15.243  59.897  31.356  1.00  0.00     0.150 C 
ATOM     11  C   UNL     1      16.704  59.850  31.879  1.00  0.00     0.174 C 
ATOM     12  O   UNL     1      14.491  58.727  31.669  1.00  0.00    -0.344 OA
ATOM     13  C   UNL     1      17.398  58.521  31.528  1.00  0.00     0.179 C 
ATOM     14  C   UNL     1      16.499  57.335  31.902  1.00  0.00     0.202 C 
BRANCH  11  15
ATOM     15  O   UNL     1      16.751  60.093  33.265  1.00  0.00    -0.388 OA
ATOM     16  H   UNL     1      17.491  59.552  33.649  1.00  0.00     0.211 HD
ENDBRANCH  11  15
BRANCH  13  17
ATOM     17  O   UNL     1      18.622  58.436  32.214  1.00  0.00    -0.387 OA
ATOM     18  H   UNL     1      19.169  57.750  31.746  1.00  0.00     0.211 HD
ENDBRANCH  13  17
BRANCH  14  19
ATOM     19  O   UNL     1      17.092  56.142  31.461  1.00  0.00    -0.385 OA
ATOM     20  H   UNL     1      17.834  55.940  32.090  1.00  0.00     0.211 HD
ENDBRANCH  14  19
ENDBRANCH   7   8
ENDBRANCH   1   7
BRANCH   2  21
ATOM     21  O   UNL     1      12.421  57.717  29.224  1.00  0.00    -0.387 OA
ATOM     22  H   UNL     1      12.557  57.488  30.179  1.00  0.00     0.211 HD
ENDBRANCH   2  21
BRANCH   6  23
ATOM     23  O   UNL     1      14.730  54.375  27.908  1.00  0.00    -0.462 OA
BRANCH  23  24
ATOM     24  C   UNL     1      15.272  53.081  27.935  1.00  0.00     0.130 A 
ATOM     25  C   UNL     1      16.274  52.768  27.012  1.00  0.00     0.093 A 
ATOM     26  C   UNL     1      14.848  52.100  28.848  1.00  0.00     0.094 A 
ATOM     27  C   UNL     1      16.884  51.506  27.010  1.00  0.00     0.133 A 
ATOM     28  C   UNL     1      15.424  50.827  28.833  1.00  0.00     0.138 A 
ATOM     29  C   UNL     1      16.467  50.529  27.936  1.00  0.00     0.102 A 
ATOM     30  O   UNL     1      14.958  49.849  29.721  1.00  0.00    -0.484 OA
ATOM     31  C   UNL     1      17.106  49.194  28.037  1.00  0.00     0.174 C 
ATOM     32  C   UNL     1      15.259  48.462  29.536  1.00  0.00     0.211 C 
ATOM     33  O   UNL     1      18.000  48.835  27.225  1.00  0.00    -0.294 OA
ATOM     34  C   UNL     1      16.740  48.280  29.172  1.00  0.00     0.131 C 
BRANCH  27  35
ATOM     35  O   UNL     1      17.902  51.233  26.096  1.00  0.00    -0.507 OA
ATOM     36  H   UNL     1      18.695  50.651  26.341  1.00  0.00     0.293 HD
ENDBRANCH  27  35
BRANCH  32  37
ATOM     37  C   UNL     1      14.916  47.675  30.777  1.00  0.00    -0.007 A 
ATOM     38  C   UNL     1      13.968  48.176  31.685  1.00  0.00     0.011 A 
ATOM     39  C   UNL     1      15.477  46.405  31.001  1.00  0.00     0.011 A 
ATOM     40  C   UNL     1      13.606  47.430  32.810  1.00  0.00     0.046 A 
ATOM     41  C   UNL     1      15.115  45.662  32.129  1.00  0.00     0.046 A 
ATOM     42  C   UNL     1      14.179  46.174  33.037  1.00  0.00     0.115 A 
BRANCH  42  43
ATOM     43  O   UNL     1      13.808  45.442  34.163  1.00  0.00    -0.508 OA
ATOM     44  H   UNL     1      13.945  45.803  35.099  1.00  0.00     0.293 HD
ENDBRANCH  42  43
ENDBRANCH  32  37
ENDBRANCH  23  24
ENDBRANCH   6  23
BRANCH   3  45
ATOM     45  O   UNL     1      12.730  58.039  26.381  1.00  0.00    -0.387 OA
ATOM     46  H   UNL     1      12.841  59.006  26.179  1.00  0.00     0.211 HD
ENDBRANCH   3  45
BRANCH   4  47
ATOM     47  C   UNL     1      15.462  57.532  25.279  1.00  0.00     0.191 C 
BRANCH  47  48
ATOM     48  O   UNL     1      15.315  58.915  25.457  1.00  0.00    -0.394 OA
ATOM     49  H   UNL     1      16.232  59.273  25.590  1.00  0.00     0.210 HD
ENDBRANCH  47  48
ENDBRANCH   4  47
TORSDOF 14
ENDMDL
MODEL 8
REMARK VINA RESULT:    -6.120      3.654      5.194
REMARK INTER + INTRA:         -11.292
REMARK INTER:                  -9.505
REMARK INTRA:                  -1.787
REMARK UNBOUND:                -1.594
REMARK SMILES C[C@H]1O[C@@H](O[C@@H]2[C@@H](Oc3cc(O)c4c(c3)O[C@H](c3ccc(O)cc3)CC4=O)O[C@H](CO)[C@@H](O)[C@@H]2O)[C@@H](O)[C@H](O)[C@@H]1O
REMARK SMILES IDX 6 1 34 2 32 3 29 4 28 5 7 6 5 7 4 8 1 9 2 10 40 11 3 12
REMARK SMILES IDX 38 13 36 14 41 15 39 17 37 19 35 21 8 23 9 24 10 25 15 26
REMARK SMILES IDX 11 27 14 28 13 29 16 30 26 31 17 32 27 33 25 34 12 35 18 37
REMARK SMILES IDX 19 38 24 39 20 40 23 41 21 42 22 43 33 45 30 47 31 48
REMARK H PARENT 41 16 39 18 37 20 35 22 12 36 22 44 33 46 31 49
REMARK Flexibility Score: inf
ROOT
ATOM      1  C   UNL     1      14.571  56.461  30.305  1.00  0.00     0.221 C 
ATOM      2  C   UNL     1      13.047  56.265  30.431  1.00  0.00     0.181 C 
ATOM      3  C   UNL     1      12.307  57.058  29.331  1.00  0.00     0.177 C 
ATOM      4  C   UNL     1      12.914  56.735  27.938  1.00  0.00     0.179 C 
ATOM      5  O   UNL     1      14.313  56.979  27.932  1.00  0.00    -0.332 OA
ATOM      6  C   UNL     1      15.001  56.149  28.859  1.00  0.00     0.339 C 
ENDROOT
BRANCH   1   7
ATOM      7  O   UNL     1      14.912  57.810  30.585  1.00  0.00    -0.337 OA
BRANCH   7   8
ATOM      8  C   UNL     1      15.467  57.992  31.881  1.00  0.00     0.282 C 
ATOM      9  C   UNL     1      13.111  59.914  31.234  1.00  0.00     0.041 C 
ATOM     10  C   UNL     1      14.095  59.879  32.416  1.00  0.00     0.150 C 
ATOM     11  C   UNL     1      15.284  60.864  32.249  1.00  0.00     0.174 C 
ATOM     12  O   UNL     1      14.498  58.556  32.757  1.00  0.00    -0.344 OA
ATOM     13  C   UNL     1      16.396  60.277  31.361  1.00  0.00     0.179 C 
ATOM     14  C   UNL     1      16.745  58.853  31.814  1.00  0.00     0.202 C 
BRANCH  11  15
ATOM     15  O   UNL     1      15.793  61.256  33.503  1.00  0.00    -0.388 OA
ATOM     16  H   UNL     1      15.380  62.125  33.746  1.00  0.00     0.211 HD
ENDBRANCH  11  15
BRANCH  13  17
ATOM     17  O   UNL     1      17.534  61.099  31.429  1.00  0.00    -0.387 OA
ATOM     18  H   UNL     1      18.015  61.001  30.565  1.00  0.00     0.211 HD
ENDBRANCH  13  17
BRANCH  14  19
ATOM     19  O   UNL     1      17.667  58.290  30.918  1.00  0.00    -0.385 OA
ATOM     20  H   UNL     1      17.167  58.076  30.088  1.00  0.00     0.211 HD
ENDBRANCH  14  19
ENDBRANCH   7   8
ENDBRANCH   1   7
BRANCH   2  21
ATOM     21  O   UNL     1      12.591  56.612  31.715  1.00  0.00    -0.387 OA
ATOM     22  H   UNL     1      12.669  55.812  32.297  1.00  0.00     0.211 HD
ENDBRANCH   2  21
BRANCH   6  23
ATOM     23  O   UNL     1      14.805  54.761  28.568  1.00  0.00    -0.462 OA
BRANCH  23  24
ATOM     24  C   UNL     1      15.769  53.908  28.009  1.00  0.00     0.130 A 
ATOM     25  C   UNL     1      16.841  54.486  27.323  1.00  0.00     0.093 A 
ATOM     26  C   UNL     1      15.696  52.509  28.116  1.00  0.00     0.094 A 
ATOM     27  C   UNL     1      17.859  53.694  26.774  1.00  0.00     0.133 A 
ATOM     28  C   UNL     1      16.686  51.705  27.543  1.00  0.00     0.138 A 
ATOM     29  C   UNL     1      17.790  52.291  26.894  1.00  0.00     0.102 A 
ATOM     30  O   UNL     1      16.574  50.311  27.620  1.00  0.00    -0.484 OA
ATOM     31  C   UNL     1      18.858  51.390  26.396  1.00  0.00     0.174 C 
ATOM     32  C   UNL     1      17.351  49.448  26.785  1.00  0.00     0.211 C 
ATOM     33  O   UNL     1      19.842  51.839  25.749  1.00  0.00    -0.294 OA
ATOM     34  C   UNL     1      18.809  49.926  26.731  1.00  0.00     0.131 C 
BRANCH  27  35
ATOM     35  O   UNL     1      18.931  54.302  26.121  1.00  0.00    -0.507 OA
ATOM     36  H   UNL     1      19.588  54.895  26.616  1.00  0.00     0.293 HD
ENDBRANCH  27  35
BRANCH  32  37
ATOM     37  C   UNL     1      17.277  48.024  27.280  1.00  0.00    -0.007 A 
ATOM     38  C   UNL     1      17.091  47.767  28.649  1.00  0.00     0.011 A 
ATOM     39  C   UNL     1      17.313  46.946  26.378  1.00  0.00     0.011 A 
ATOM     40  C   UNL     1      16.968  46.452  29.108  1.00  0.00     0.046 A 
ATOM     41  C   UNL     1      17.193  45.632  26.841  1.00  0.00     0.046 A 
ATOM     42  C   UNL     1      17.021  45.382  28.209  1.00  0.00     0.115 A 
BRANCH  42  43
ATOM     43  O   UNL     1      16.897  44.078  28.683  1.00  0.00    -0.508 OA
ATOM     44  H   UNL     1      16.523  43.337  28.104  1.00  0.00     0.293 HD
ENDBRANCH  42  43
ENDBRANCH  32  37
ENDBRANCH  23  24
ENDBRANCH   6  23
BRANCH   3  45
ATOM     45  O   UNL     1      10.928  56.780  29.373  1.00  0.00    -0.387 OA
ATOM     46  H   UNL     1      10.672  56.399  28.492  1.00  0.00     0.211 HD
ENDBRANCH   3  45
BRANCH   4  47
ATOM     47  C   UNL     1      12.285  57.602  26.840  1.00  0.00     0.191 C 
BRANCH  47  48
ATOM     48  O   UNL     1      11.744  58.774  27.389  1.00  0.00    -0.394 OA
ATOM     49  H   UNL     1      12.518  59.321  27.685  1.00  0.00     0.210 HD
ENDBRANCH  47  48
ENDBRANCH   4  47
TORSDOF 14
ENDMDL
MODEL 9
REMARK VINA RESULT:    -6.117      2.802     10.405
REMARK INTER + INTRA:         -11.288
REMARK INTER:                  -9.339
REMARK INTRA:                  -1.948
REMARK UNBOUND:                -1.594
REMARK SMILES C[C@H]1O[C@@H](O[C@@H]2[C@@H](Oc3cc(O)c4c(c3)O[C@H](c3ccc(O)cc3)CC4=O)O[C@H](CO)[C@@H](O)[C@@H]2O)[C@@H](O)[C@H](O)[C@@H]1O
REMARK SMILES IDX 6 1 34 2 32 3 29 4 28 5 7 6 5 7 4 8 1 9 2 10 40 11 3 12
REMARK SMILES IDX 38 13 36 14 41 15 39 17 37 19 35 21 8 23 9 24 10 25 15 26
REMARK SMILES IDX 11 27 14 28 13 29 16 30 26 31 17 32 27 33 25 34 12 35 18 37
REMARK SMILES IDX 19 38 24 39 20 40 23 41 21 42 22 43 33 45 30 47 31 48
REMARK H PARENT 41 16 39 18 37 20 35 22 12 36 22 44 33 46 31 49
REMARK Flexibility Score: inf
ROOT
ATOM      1  C   UNL     1      15.320  48.889  30.965  1.00  0.00     0.221 C 
ATOM      2  C   UNL     1      16.669  49.010  30.231  1.00  0.00     0.181 C 
ATOM      3  C   UNL     1      16.444  49.222  28.717  1.00  0.00     0.177 C 
ATOM      4  C   UNL     1      15.444  50.387  28.484  1.00  0.00     0.179 C 
ATOM      5  O   UNL     1      14.230  50.154  29.183  1.00  0.00    -0.332 OA
ATOM      6  C   UNL     1      14.431  50.089  30.589  1.00  0.00     0.339 C 
ENDROOT
BRANCH   1   7
ATOM      7  O   UNL     1      14.652  47.703  30.562  1.00  0.00    -0.337 OA
BRANCH   7   8
ATOM      8  C   UNL     1      14.606  46.710  31.579  1.00  0.00     0.282 C 
ATOM      9  C   UNL     1      15.464  45.629  28.792  1.00  0.00     0.041 C 
ATOM     10  C   UNL     1      15.117  44.897  30.101  1.00  0.00     0.150 C 
ATOM     11  C   UNL     1      13.654  44.377  30.139  1.00  0.00     0.174 C 
ATOM     12  O   UNL     1      15.486  45.639  31.260  1.00  0.00    -0.344 OA
ATOM     13  C   UNL     1      12.662  45.482  30.545  1.00  0.00     0.179 C 
ATOM     14  C   UNL     1      13.161  46.215  31.797  1.00  0.00     0.202 C 
BRANCH  11  15
ATOM     15  O   UNL     1      13.539  43.260  30.990  1.00  0.00    -0.388 OA
ATOM     16  H   UNL     1      13.821  42.454  30.480  1.00  0.00     0.211 HD
ENDBRANCH  11  15
BRANCH  13  17
ATOM     17  O   UNL     1      11.400  44.913  30.788  1.00  0.00    -0.387 OA
ATOM     18  H   UNL     1      10.802  45.209  30.051  1.00  0.00     0.211 HD
ENDBRANCH  13  17
BRANCH  14  19
ATOM     19  O   UNL     1      12.311  47.296  32.076  1.00  0.00    -0.385 OA
ATOM     20  H   UNL     1      11.408  47.042  31.752  1.00  0.00     0.211 HD
ENDBRANCH  14  19
ENDBRANCH   7   8
ENDBRANCH   1   7
BRANCH   2  21
ATOM     21  O   UNL     1      17.490  47.895  30.482  1.00  0.00    -0.387 OA
ATOM     22  H   UNL     1      18.412  48.121  30.194  1.00  0.00     0.211 HD
ENDBRANCH   2  21
BRANCH   6  23
ATOM     23  O   UNL     1      14.993  51.304  31.096  1.00  0.00    -0.462 OA
BRANCH  23  24
ATOM     24  C   UNL     1      14.263  52.456  31.429  1.00  0.00     0.130 A 
ATOM     25  C   UNL     1      12.905  52.311  31.727  1.00  0.00     0.093 A 
ATOM     26  C   UNL     1      14.844  53.735  31.476  1.00  0.00     0.094 A 
ATOM     27  C   UNL     1      12.128  53.415  32.105  1.00  0.00     0.133 A 
ATOM     28  C   UNL     1      14.072  54.848  31.817  1.00  0.00     0.138 A 
ATOM     29  C   UNL     1      12.716  54.694  32.164  1.00  0.00     0.102 A 
ATOM     30  O   UNL     1      14.657  56.121  31.816  1.00  0.00    -0.484 OA
ATOM     31  C   UNL     1      11.976  55.897  32.616  1.00  0.00     0.174 C 
ATOM     32  C   UNL     1      13.864  57.312  31.824  1.00  0.00     0.211 C 
ATOM     33  O   UNL     1      10.745  55.846  32.879  1.00  0.00    -0.294 OA
ATOM     34  C   UNL     1      12.718  57.185  32.838  1.00  0.00     0.131 C 
BRANCH  27  35
ATOM     35  O   UNL     1      10.782  53.233  32.426  1.00  0.00    -0.507 OA
ATOM     36  H   UNL     1      10.279  52.397  32.154  1.00  0.00     0.293 HD
ENDBRANCH  27  35
BRANCH  32  37
ATOM     37  C   UNL     1      14.719  58.515  32.136  1.00  0.00    -0.007 A 
ATOM     38  C   UNL     1      16.063  58.343  32.507  1.00  0.00     0.011 A 
ATOM     39  C   UNL     1      14.211  59.818  31.985  1.00  0.00     0.011 A 
ATOM     40  C   UNL     1      16.876  59.454  32.747  1.00  0.00     0.046 A 
ATOM     41  C   UNL     1      15.026  60.928  32.229  1.00  0.00     0.046 A 
ATOM     42  C   UNL     1      16.361  60.748  32.612  1.00  0.00     0.115 A 
BRANCH  42  43
ATOM     43  O   UNL     1      17.185  61.845  32.855  1.00  0.00    -0.508 OA
ATOM     44  H   UNL     1      17.107  62.389  33.705  1.00  0.00     0.293 HD
ENDBRANCH  42  43
ENDBRANCH  32  37
ENDBRANCH  23  24
ENDBRANCH   6  23
BRANCH   3  45
ATOM     45  O   UNL     1      17.672  49.454  28.070  1.00  0.00    -0.387 OA
ATOM     46  H   UNL     1      18.097  48.571  27.909  1.00  0.00     0.211 HD
ENDBRANCH   3  45
BRANCH   4  47
ATOM     47  C   UNL     1      15.102  50.539  26.995  1.00  0.00     0.191 C 
BRANCH  47  48
ATOM     48  O   UNL     1      15.333  49.336  26.313  1.00  0.00    -0.394 OA
ATOM     49  H   UNL     1      15.362  49.570  25.347  1.00  0.00     0.210 HD
ENDBRANCH  47  48
ENDBRANCH   4  47
TORSDOF 14
ENDMDL
