MODEL 1
REMARK VINA RESULT:    -3.701      0.000      0.000
REMARK INTER + INTRA:          -8.718
REMARK INTER:                  -6.731
REMARK INTRA:                  -1.987
REMARK UNBOUND:                -1.987
REMARK SMILES CCCCCCCCCCCCCCCC(=O)[O-]
REMARK SMILES IDX 9 1 10 2 11 3 12 4 13 5 14 6 15 7 16 8 17 9 18 10 8 11 7 12
REMARK SMILES IDX 6 13 5 14 4 15 3 16 2 17 1 18
REMARK H PARENT
REMARK Flexibility Score: inf
ROOT
ATOM      1  C   UNL     1      -5.947   2.164  -0.924  1.00  0.00     0.000 C 
ENDROOT
BRANCH   1   2
ATOM      2  C   UNL     1      -4.961   3.341  -0.895  1.00  0.00     0.000 C 
BRANCH   2   3
ATOM      3  C   UNL     1      -3.531   2.851  -0.623  1.00  0.00     0.000 C 
BRANCH   3   4
ATOM      4  C   UNL     1      -3.140   2.951   0.860  1.00  0.00     0.000 C 
BRANCH   4   5
ATOM      5  C   UNL     1      -3.870   4.095   1.587  1.00  0.00     0.000 C 
BRANCH   5   6
ATOM      6  C   UNL     1      -4.342   3.696   2.999  1.00  0.00     0.006 C 
BRANCH   6   7
ATOM      7  C   UNL     1      -5.450   4.593   3.575  1.00  0.00     0.053 C 
BRANCH   7   8
ATOM      8  C   UNL     1      -4.974   5.391   4.749  1.00  0.00     0.041 C 
ATOM      9  O   UNL     1      -3.995   6.173   4.628  1.00  0.00    -0.550 OA
ATOM     10  O   UNL     1      -5.593   5.248   5.985  1.00  0.00    -0.550 OA
ENDBRANCH   7   8
ENDBRANCH   6   7
ENDBRANCH   5   6
ENDBRANCH   4   5
ENDBRANCH   3   4
ENDBRANCH   2   3
ENDBRANCH   1   2
BRANCH   1  11
ATOM     11  C   UNL     1      -6.717   1.990   0.398  1.00  0.00     0.000 C 
BRANCH  11  12
ATOM     12  C   UNL     1      -6.265   0.801   1.267  1.00  0.00    -0.000 C 
BRANCH  12  13
ATOM     13  C   UNL     1      -5.152  -0.032   0.609  1.00  0.00    -0.000 C 
BRANCH  13  14
ATOM     14  C   UNL     1      -5.356  -1.545   0.801  1.00  0.00    -0.000 C 
BRANCH  14  15
ATOM     15  C   UNL     1      -6.807  -1.900   1.168  1.00  0.00    -0.000 C 
BRANCH  15  16
ATOM     16  C   UNL     1      -7.637  -2.331  -0.053  1.00  0.00    -0.000 C 
BRANCH  16  17
ATOM     17  C   UNL     1      -8.999  -1.626  -0.123  1.00  0.00    -0.003 C 
ATOM     18  C   UNL     1      -8.995  -0.528  -1.183  1.00  0.00     0.004 C 
ENDBRANCH  16  17
ENDBRANCH  15  16
ENDBRANCH  14  15
ENDBRANCH  13  14
ENDBRANCH  12  13
ENDBRANCH  11  12
ENDBRANCH   1  11
TORSDOF 14
ENDMDL
MODEL 2
REMARK VINA RESULT:    -3.701      1.198      2.525
REMARK INTER + INTRA:          -8.717
REMARK INTER:                  -6.568
REMARK INTRA:                  -2.149
REMARK UNBOUND:                -1.987
REMARK SMILES CCCCCCCCCCCCCCCC(=O)[O-]
REMARK SMILES IDX 9 1 10 2 11 3 12 4 13 5 14 6 15 7 16 8 17 9 18 10 8 11 7 12
REMARK SMILES IDX 6 13 5 14 4 15 3 16 2 17 1 18
REMARK H PARENT
REMARK Flexibility Score: inf
ROOT
ATOM      1  C   UNL     1      -4.218   4.218  -1.269  1.00  0.00     0.000 C 
ENDROOT
BRANCH   1   2
ATOM      2  C   UNL     1      -3.228   3.051  -1.140  1.00  0.00     0.000 C 
BRANCH   2   3
ATOM      3  C   UNL     1      -3.198   2.514   0.299  1.00  0.00     0.000 C 
BRANCH   3   4
ATOM      4  C   UNL     1      -3.544   3.589   1.342  1.00  0.00     0.000 C 
BRANCH   4   5
ATOM      5  C   UNL     1      -4.600   3.109   2.355  1.00  0.00     0.000 C 
BRANCH   5   6
ATOM      6  C   UNL     1      -5.572   4.229   2.775  1.00  0.00     0.006 C 
BRANCH   6   7
ATOM      7  C   UNL     1      -6.000   4.178   4.250  1.00  0.00     0.053 C 
BRANCH   7   8
ATOM      8  C   UNL     1      -5.376   5.275   5.056  1.00  0.00     0.041 C 
ATOM      9  O   UNL     1      -6.017   5.816   5.994  1.00  0.00    -0.550 OA
ATOM     10  O   UNL     1      -4.096   5.723   4.749  1.00  0.00    -0.550 OA
ENDBRANCH   7   8
ENDBRANCH   6   7
ENDBRANCH   5   6
ENDBRANCH   4   5
ENDBRANCH   3   4
ENDBRANCH   2   3
ENDBRANCH   1   2
BRANCH   1  11
ATOM     11  C   UNL     1      -5.621   3.771  -1.717  1.00  0.00     0.000 C 
BRANCH  11  12
ATOM     12  C   UNL     1      -6.751   4.053  -0.708  1.00  0.00    -0.000 C 
BRANCH  12  13
ATOM     13  C   UNL     1      -7.492   2.779  -0.268  1.00  0.00    -0.000 C 
BRANCH  13  14
ATOM     14  C   UNL     1      -6.671   1.503  -0.520  1.00  0.00    -0.000 C 
BRANCH  14  15
ATOM     15  C   UNL     1      -6.478   0.666   0.756  1.00  0.00    -0.000 C 
BRANCH  15  16
ATOM     16  C   UNL     1      -5.411  -0.428   0.588  1.00  0.00    -0.000 C 
BRANCH  16  17
ATOM     17  C   UNL     1      -5.912  -1.816   1.014  1.00  0.00    -0.003 C 
ATOM     18  C   UNL     1      -6.743  -2.463  -0.090  1.00  0.00     0.004 C 
ENDBRANCH  16  17
ENDBRANCH  15  16
ENDBRANCH  14  15
ENDBRANCH  13  14
ENDBRANCH  12  13
ENDBRANCH  11  12
ENDBRANCH   1  11
TORSDOF 14
ENDMDL
MODEL 3
REMARK VINA RESULT:    -3.692      1.497      3.401
REMARK INTER + INTRA:          -8.702
REMARK INTER:                  -6.818
REMARK INTRA:                  -1.884
REMARK UNBOUND:                -1.987
REMARK SMILES CCCCCCCCCCCCCCCC(=O)[O-]
REMARK SMILES IDX 9 1 10 2 11 3 12 4 13 5 14 6 15 7 16 8 17 9 18 10 8 11 7 12
REMARK SMILES IDX 6 13 5 14 4 15 3 16 2 17 1 18
REMARK H PARENT
REMARK Flexibility Score: inf
ROOT
ATOM      1  C   UNL     1      -3.264   3.102   0.872  1.00  0.00     0.000 C 
ENDROOT
BRANCH   1   2
ATOM      2  C   UNL     1      -3.459   4.605   1.122  1.00  0.00     0.000 C 
BRANCH   2   3
ATOM      3  C   UNL     1      -4.562   4.849   2.163  1.00  0.00     0.000 C 
BRANCH   3   4
ATOM      4  C   UNL     1      -4.758   3.655   3.112  1.00  0.00     0.000 C 
BRANCH   4   5
ATOM      5  C   UNL     1      -6.055   3.763   3.935  1.00  0.00     0.000 C 
BRANCH   5   6
ATOM      6  C   UNL     1      -6.062   4.983   4.876  1.00  0.00     0.006 C 
BRANCH   6   7
ATOM      7  C   UNL     1      -4.733   5.227   5.609  1.00  0.00     0.053 C 
BRANCH   7   8
ATOM      8  C   UNL     1      -4.334   6.670   5.585  1.00  0.00     0.041 C 
ATOM      9  O   UNL     1      -4.813   7.475   6.426  1.00  0.00    -0.550 OA
ATOM     10  O   UNL     1      -3.456   7.133   4.612  1.00  0.00    -0.550 OA
ENDBRANCH   7   8
ENDBRANCH   6   7
ENDBRANCH   5   6
ENDBRANCH   4   5
ENDBRANCH   3   4
ENDBRANCH   2   3
ENDBRANCH   1   2
BRANCH   1  11
ATOM     11  C   UNL     1      -3.463   2.706  -0.603  1.00  0.00     0.000 C 
BRANCH  11  12
ATOM     12  C   UNL     1      -4.264   3.714  -1.449  1.00  0.00    -0.000 C 
BRANCH  12  13
ATOM     13  C   UNL     1      -5.781   3.464  -1.403  1.00  0.00    -0.000 C 
BRANCH  13  14
ATOM     14  C   UNL     1      -6.128   2.024  -0.988  1.00  0.00    -0.000 C 
BRANCH  14  15
ATOM     15  C   UNL     1      -6.994   1.971   0.283  1.00  0.00    -0.000 C 
BRANCH  15  16
ATOM     16  C   UNL     1      -6.451   0.980   1.326  1.00  0.00    -0.000 C 
BRANCH  16  17
ATOM     17  C   UNL     1      -5.363   0.057   0.758  1.00  0.00    -0.003 C 
ATOM     18  C   UNL     1      -5.861  -1.382   0.658  1.00  0.00     0.004 C 
ENDBRANCH  16  17
ENDBRANCH  15  16
ENDBRANCH  14  15
ENDBRANCH  13  14
ENDBRANCH  12  13
ENDBRANCH  11  12
ENDBRANCH   1  11
TORSDOF 14
ENDMDL
MODEL 4
REMARK VINA RESULT:    -3.592      4.233      6.434
REMARK INTER + INTRA:          -8.519
REMARK INTER:                  -5.952
REMARK INTRA:                  -2.567
REMARK UNBOUND:                -1.987
REMARK SMILES CCCCCCCCCCCCCCCC(=O)[O-]
REMARK SMILES IDX 9 1 10 2 11 3 12 4 13 5 14 6 15 7 16 8 17 9 18 10 8 11 7 12
REMARK SMILES IDX 6 13 5 14 4 15 3 16 2 17 1 18
REMARK H PARENT
REMARK Flexibility Score: inf
ROOT
ATOM      1  C   UNL     1      -6.353   2.182  -1.065  1.00  0.00     0.000 C 
ENDROOT
BRANCH   1   2
ATOM      2  C   UNL     1      -7.183   3.401  -0.633  1.00  0.00     0.000 C 
BRANCH   2   3
ATOM      3  C   UNL     1      -6.504   4.708  -1.069  1.00  0.00     0.000 C 
BRANCH   3   4
ATOM      4  C   UNL     1      -5.625   4.534  -2.318  1.00  0.00     0.000 C 
BRANCH   4   5
ATOM      5  C   UNL     1      -4.211   5.113  -2.130  1.00  0.00     0.000 C 
BRANCH   5   6
ATOM      6  C   UNL     1      -3.121   4.246  -2.788  1.00  0.00     0.006 C 
BRANCH   6   7
ATOM      7  C   UNL     1      -2.294   4.971  -3.863  1.00  0.00     0.053 C 
BRANCH   7   8
ATOM      8  C   UNL     1      -2.656   4.526  -5.246  1.00  0.00     0.041 C 
ATOM      9  O   UNL     1      -1.754   4.231  -6.073  1.00  0.00    -0.550 OA
ATOM     10  O   UNL     1      -3.990   4.470  -5.632  1.00  0.00    -0.550 OA
ENDBRANCH   7   8
ENDBRANCH   6   7
ENDBRANCH   5   6
ENDBRANCH   4   5
ENDBRANCH   3   4
ENDBRANCH   2   3
ENDBRANCH   1   2
BRANCH   1  11
ATOM     11  C   UNL     1      -6.160   1.154   0.065  1.00  0.00     0.000 C 
BRANCH  11  12
ATOM     12  C   UNL     1      -4.712   1.002   0.569  1.00  0.00    -0.000 C 
BRANCH  12  13
ATOM     13  C   UNL     1      -3.752   2.034  -0.046  1.00  0.00    -0.000 C 
BRANCH  13  14
ATOM     14  C   UNL     1      -3.042   2.887   1.019  1.00  0.00    -0.000 C 
BRANCH  14  15
ATOM     15  C   UNL     1      -3.873   4.110   1.443  1.00  0.00    -0.000 C 
BRANCH  15  16
ATOM     16  C   UNL     1      -4.484   3.952   2.845  1.00  0.00    -0.000 C 
BRANCH  16  17
ATOM     17  C   UNL     1      -6.014   4.086   2.843  1.00  0.00    -0.003 C 
ATOM     18  C   UNL     1      -6.677   2.802   3.335  1.00  0.00     0.004 C 
ENDBRANCH  16  17
ENDBRANCH  15  16
ENDBRANCH  14  15
ENDBRANCH  13  14
ENDBRANCH  12  13
ENDBRANCH  11  12
ENDBRANCH   1  11
TORSDOF 14
ENDMDL
MODEL 5
REMARK VINA RESULT:    -3.567      3.338      5.553
REMARK INTER + INTRA:          -8.474
REMARK INTER:                  -5.757
REMARK INTRA:                  -2.717
REMARK UNBOUND:                -1.987
REMARK SMILES CCCCCCCCCCCCCCCC(=O)[O-]
REMARK SMILES IDX 9 1 10 2 11 3 12 4 13 5 14 6 15 7 16 8 17 9 18 10 8 11 7 12
REMARK SMILES IDX 6 13 5 14 4 15 3 16 2 17 1 18
REMARK H PARENT
REMARK Flexibility Score: inf
ROOT
ATOM      1  C   UNL     1      -3.568   4.405   1.462  1.00  0.00     0.000 C 
ENDROOT
BRANCH   1   2
ATOM      2  C   UNL     1      -4.776   4.403   2.411  1.00  0.00     0.000 C 
BRANCH   2   3
ATOM      3  C   UNL     1      -5.267   2.971   2.669  1.00  0.00     0.000 C 
BRANCH   3   4
ATOM      4  C   UNL     1      -6.801   2.857   2.656  1.00  0.00     0.000 C 
BRANCH   4   5
ATOM      5  C   UNL     1      -7.293   1.609   1.902  1.00  0.00     0.000 C 
BRANCH   5   6
ATOM      6  C   UNL     1      -6.160   0.883   1.152  1.00  0.00     0.006 C 
BRANCH   6   7
ATOM      7  C   UNL     1      -6.629  -0.286   0.270  1.00  0.00     0.053 C 
BRANCH   7   8
ATOM      8  C   UNL     1      -6.002  -1.584   0.676  1.00  0.00     0.041 C 
ATOM      9  O   UNL     1      -6.569  -2.324   1.523  1.00  0.00    -0.550 OA
ATOM     10  O   UNL     1      -4.775  -1.962   0.144  1.00  0.00    -0.550 OA
ENDBRANCH   7   8
ENDBRANCH   6   7
ENDBRANCH   5   6
ENDBRANCH   4   5
ENDBRANCH   3   4
ENDBRANCH   2   3
ENDBRANCH   1   2
BRANCH   1  11
ATOM     11  C   UNL     1      -3.058   2.990   1.133  1.00  0.00     0.000 C 
BRANCH  11  12
ATOM     12  C   UNL     1      -3.242   2.553  -0.333  1.00  0.00    -0.000 C 
BRANCH  12  13
ATOM     13  C   UNL     1      -3.907   3.635  -1.201  1.00  0.00    -0.000 C 
BRANCH  13  14
ATOM     14  C   UNL     1      -5.374   3.310  -1.527  1.00  0.00    -0.000 C 
BRANCH  14  15
ATOM     15  C   UNL     1      -6.351   4.337  -0.927  1.00  0.00    -0.000 C 
BRANCH  15  16
ATOM     16  C   UNL     1      -7.809   3.850  -0.956  1.00  0.00    -0.000 C 
BRANCH  16  17
ATOM     17  C   UNL     1      -7.970   2.497  -1.663  1.00  0.00    -0.003 C 
ATOM     18  C   UNL     1      -9.330   1.876  -1.358  1.00  0.00     0.004 C 
ENDBRANCH  16  17
ENDBRANCH  15  16
ENDBRANCH  14  15
ENDBRANCH  13  14
ENDBRANCH  12  13
ENDBRANCH  11  12
ENDBRANCH   1  11
TORSDOF 14
ENDMDL
MODEL 6
REMARK VINA RESULT:    -3.532      2.180      3.273
REMARK INTER + INTRA:          -8.410
REMARK INTER:                  -7.313
REMARK INTRA:                  -1.097
REMARK UNBOUND:                -1.987
REMARK SMILES CCCCCCCCCCCCCCCC(=O)[O-]
REMARK SMILES IDX 9 1 10 2 11 3 12 4 13 5 14 6 15 7 16 8 17 9 18 10 8 11 7 12
REMARK SMILES IDX 6 13 5 14 4 15 3 16 2 17 1 18
REMARK H PARENT
REMARK Flexibility Score: inf
ROOT
ATOM      1  C   UNL     1      -5.149   0.317   0.801  1.00  0.00     0.000 C 
ENDROOT
BRANCH   1   2
ATOM      2  C   UNL     1      -6.194   1.141   0.035  1.00  0.00     0.000 C 
BRANCH   2   3
ATOM      3  C   UNL     1      -5.534   2.314  -0.704  1.00  0.00     0.000 C 
BRANCH   3   4
ATOM      4  C   UNL     1      -4.025   2.418  -0.426  1.00  0.00     0.000 C 
BRANCH   4   5
ATOM      5  C   UNL     1      -3.649   3.715   0.315  1.00  0.00     0.000 C 
BRANCH   5   6
ATOM      6  C   UNL     1      -3.259   3.467   1.785  1.00  0.00     0.006 C 
BRANCH   6   7
ATOM      7  C   UNL     1      -4.371   3.781   2.799  1.00  0.00     0.053 C 
BRANCH   7   8
ATOM      8  C   UNL     1      -4.734   5.234   2.803  1.00  0.00     0.041 C 
ATOM      9  O   UNL     1      -3.952   6.082   3.307  1.00  0.00    -0.550 OA
ATOM     10  O   UNL     1      -5.954   5.648   2.280  1.00  0.00    -0.550 OA
ENDBRANCH   7   8
ENDBRANCH   6   7
ENDBRANCH   5   6
ENDBRANCH   4   5
ENDBRANCH   3   4
ENDBRANCH   2   3
ENDBRANCH   1   2
BRANCH   1  11
ATOM     11  C   UNL     1      -5.276  -1.198   0.553  1.00  0.00     0.000 C 
BRANCH  11  12
ATOM     12  C   UNL     1      -6.528  -1.857   1.163  1.00  0.00    -0.000 C 
BRANCH  12  13
ATOM     13  C   UNL     1      -7.553  -2.291   0.100  1.00  0.00    -0.000 C 
BRANCH  13  14
ATOM     14  C   UNL     1      -7.014  -3.398  -0.822  1.00  0.00    -0.000 C 
BRANCH  14  15
ATOM     15  C   UNL     1      -7.811  -3.511  -2.133  1.00  0.00    -0.000 C 
BRANCH  15  16
ATOM     16  C   UNL     1      -7.072  -4.331  -3.203  1.00  0.00    -0.000 C 
BRANCH  16  17
ATOM     17  C   UNL     1      -5.699  -4.827  -2.729  1.00  0.00    -0.003 C 
ATOM     18  C   UNL     1      -5.523  -6.315  -3.015  1.00  0.00     0.004 C 
ENDBRANCH  16  17
ENDBRANCH  15  16
ENDBRANCH  14  15
ENDBRANCH  13  14
ENDBRANCH  12  13
ENDBRANCH  11  12
ENDBRANCH   1  11
TORSDOF 14
ENDMDL
MODEL 7
REMARK VINA RESULT:    -3.523      3.905      6.412
REMARK INTER + INTRA:          -8.394
REMARK INTER:                  -6.553
REMARK INTRA:                  -1.840
REMARK UNBOUND:                -1.987
REMARK SMILES CCCCCCCCCCCCCCCC(=O)[O-]
REMARK SMILES IDX 9 1 10 2 11 3 12 4 13 5 14 6 15 7 16 8 17 9 18 10 8 11 7 12
REMARK SMILES IDX 6 13 5 14 4 15 3 16 2 17 1 18
REMARK H PARENT
REMARK Flexibility Score: inf
ROOT
ATOM      1  C   UNL     1      -6.109   2.265  -1.136  1.00  0.00     0.000 C 
ENDROOT
BRANCH   1   2
ATOM      2  C   UNL     1      -7.531   2.783  -1.401  1.00  0.00     0.000 C 
BRANCH   2   3
ATOM      3  C   UNL     1      -7.502   4.023  -2.307  1.00  0.00     0.000 C 
BRANCH   3   4
ATOM      4  C   UNL     1      -6.313   4.951  -2.007  1.00  0.00     0.000 C 
BRANCH   4   5
ATOM      5  C   UNL     1      -5.302   5.007  -3.166  1.00  0.00     0.000 C 
BRANCH   5   6
ATOM      6  C   UNL     1      -3.865   4.679  -2.717  1.00  0.00     0.006 C 
BRANCH   6   7
ATOM      7  C   UNL     1      -2.770   5.185  -3.670  1.00  0.00     0.053 C 
BRANCH   7   8
ATOM      8  C   UNL     1      -1.992   4.061  -4.281  1.00  0.00     0.041 C 
ATOM      9  O   UNL     1      -1.897   3.963  -5.532  1.00  0.00    -0.550 OA
ATOM     10  O   UNL     1      -1.399   3.103  -3.468  1.00  0.00    -0.550 OA
ENDBRANCH   7   8
ENDBRANCH   6   7
ENDBRANCH   5   6
ENDBRANCH   4   5
ENDBRANCH   3   4
ENDBRANCH   2   3
ENDBRANCH   1   2
BRANCH   1  11
ATOM     11  C   UNL     1      -6.020   1.361   0.107  1.00  0.00     0.000 C 
BRANCH  11  12
ATOM     12  C   UNL     1      -4.589   1.044   0.584  1.00  0.00    -0.000 C 
BRANCH  12  13
ATOM     13  C   UNL     1      -3.549   2.052   0.065  1.00  0.00    -0.000 C 
BRANCH  13  14
ATOM     14  C   UNL     1      -3.160   3.096   1.126  1.00  0.00    -0.000 C 
BRANCH  14  15
ATOM     15  C   UNL     1      -3.955   4.406   0.979  1.00  0.00    -0.000 C 
BRANCH  15  16
ATOM     16  C   UNL     1      -4.434   4.960   2.331  1.00  0.00    -0.000 C 
BRANCH  16  17
ATOM     17  C   UNL     1      -4.862   3.855   3.307  1.00  0.00    -0.003 C 
ATOM     18  C   UNL     1      -6.306   3.430   3.056  1.00  0.00     0.004 C 
ENDBRANCH  16  17
ENDBRANCH  15  16
ENDBRANCH  14  15
ENDBRANCH  13  14
ENDBRANCH  12  13
ENDBRANCH  11  12
ENDBRANCH   1  11
TORSDOF 14
ENDMDL
MODEL 8
REMARK VINA RESULT:    -3.512      3.580      5.416
REMARK INTER + INTRA:          -8.373
REMARK INTER:                  -6.407
REMARK INTRA:                  -1.966
REMARK UNBOUND:                -1.987
REMARK SMILES CCCCCCCCCCCCCCCC(=O)[O-]
REMARK SMILES IDX 9 1 10 2 11 3 12 4 13 5 14 6 15 7 16 8 17 9 18 10 8 11 7 12
REMARK SMILES IDX 6 13 5 14 4 15 3 16 2 17 1 18
REMARK H PARENT
REMARK Flexibility Score: inf
ROOT
ATOM      1  C   UNL     1      -5.501   2.930   2.545  1.00  0.00     0.000 C 
ENDROOT
BRANCH   1   2
ATOM      2  C   UNL     1      -4.410   4.010   2.593  1.00  0.00     0.000 C 
BRANCH   2   3
ATOM      3  C   UNL     1      -3.160   3.562   1.821  1.00  0.00     0.000 C 
BRANCH   3   4
ATOM      4  C   UNL     1      -3.485   3.056   0.406  1.00  0.00     0.000 C 
BRANCH   4   5
ATOM      5  C   UNL     1      -3.834   4.199  -0.563  1.00  0.00     0.000 C 
BRANCH   5   6
ATOM      6  C   UNL     1      -3.817   3.753  -2.038  1.00  0.00     0.006 C 
BRANCH   6   7
ATOM      7  C   UNL     1      -2.948   4.629  -2.956  1.00  0.00     0.053 C 
BRANCH   7   8
ATOM      8  C   UNL     1      -1.946   3.820  -3.721  1.00  0.00     0.041 C 
ATOM      9  O   UNL     1      -1.722   4.071  -4.934  1.00  0.00    -0.550 OA
ATOM     10  O   UNL     1      -1.283   2.767  -3.102  1.00  0.00    -0.550 OA
ENDBRANCH   7   8
ENDBRANCH   6   7
ENDBRANCH   5   6
ENDBRANCH   4   5
ENDBRANCH   3   4
ENDBRANCH   2   3
ENDBRANCH   1   2
BRANCH   1  11
ATOM     11  C   UNL     1      -6.873   3.437   3.027  1.00  0.00     0.000 C 
BRANCH  11  12
ATOM     12  C   UNL     1      -7.965   3.502   1.942  1.00  0.00    -0.000 C 
BRANCH  12  13
ATOM     13  C   UNL     1      -7.396   3.753   0.535  1.00  0.00    -0.000 C 
BRANCH  13  14
ATOM     14  C   UNL     1      -7.785   2.650  -0.464  1.00  0.00    -0.000 C 
BRANCH  14  15
ATOM     15  C   UNL     1      -6.630   1.671  -0.738  1.00  0.00    -0.000 C 
BRANCH  15  16
ATOM     16  C   UNL     1      -6.684   0.427   0.164  1.00  0.00    -0.000 C 
BRANCH  16  17
ATOM     17  C   UNL     1      -5.290  -0.075   0.568  1.00  0.00    -0.003 C 
ATOM     18  C   UNL     1      -5.292  -1.585   0.786  1.00  0.00     0.004 C 
ENDBRANCH  16  17
ENDBRANCH  15  16
ENDBRANCH  14  15
ENDBRANCH  13  14
ENDBRANCH  12  13
ENDBRANCH  11  12
ENDBRANCH   1  11
TORSDOF 14
ENDMDL
MODEL 9
REMARK VINA RESULT:    -3.428      2.949      4.129
REMARK INTER + INTRA:          -8.220
REMARK INTER:                  -6.254
REMARK INTRA:                  -1.966
REMARK UNBOUND:                -1.987
REMARK SMILES CCCCCCCCCCCCCCCC(=O)[O-]
REMARK SMILES IDX 9 1 10 2 11 3 12 4 13 5 14 6 15 7 16 8 17 9 18 10 8 11 7 12
REMARK SMILES IDX 6 13 5 14 4 15 3 16 2 17 1 18
REMARK H PARENT
REMARK Flexibility Score: inf
ROOT
ATOM      1  C   UNL     1      -6.816   3.219   2.791  1.00  0.00     0.000 C 
ENDROOT
BRANCH   1   2
ATOM      2  C   UNL     1      -5.773   4.191   2.218  1.00  0.00     0.000 C 
BRANCH   2   3
ATOM      3  C   UNL     1      -4.355   3.792   2.653  1.00  0.00     0.000 C 
BRANCH   3   4
ATOM      4  C   UNL     1      -3.324   3.935   1.522  1.00  0.00     0.000 C 
BRANCH   4   5
ATOM      5  C   UNL     1      -3.218   2.667   0.656  1.00  0.00     0.000 C 
BRANCH   5   6
ATOM      6  C   UNL     1      -3.258   2.974  -0.854  1.00  0.00     0.006 C 
BRANCH   6   7
ATOM      7  C   UNL     1      -4.568   3.618  -1.336  1.00  0.00     0.053 C 
BRANCH   7   8
ATOM      8  C   UNL     1      -4.340   4.588  -2.454  1.00  0.00     0.041 C 
ATOM      9  O   UNL     1      -3.365   4.435  -3.236  1.00  0.00    -0.550 OA
ATOM     10  O   UNL     1      -5.186   5.679  -2.613  1.00  0.00    -0.550 OA
ENDBRANCH   7   8
ENDBRANCH   6   7
ENDBRANCH   5   6
ENDBRANCH   4   5
ENDBRANCH   3   4
ENDBRANCH   2   3
ENDBRANCH   1   2
BRANCH   1  11
ATOM     11  C   UNL     1      -6.714   1.804   2.191  1.00  0.00     0.000 C 
BRANCH  11  12
ATOM     12  C   UNL     1      -7.227   1.669   0.745  1.00  0.00    -0.000 C 
BRANCH  12  13
ATOM     13  C   UNL     1      -6.342   0.757  -0.122  1.00  0.00    -0.000 C 
BRANCH  13  14
ATOM     14  C   UNL     1      -5.278   0.012   0.703  1.00  0.00    -0.000 C 
BRANCH  14  15
ATOM     15  C   UNL     1      -5.346  -1.513   0.510  1.00  0.00    -0.000 C 
BRANCH  15  16
ATOM     16  C   UNL     1      -6.340  -2.186   1.471  1.00  0.00    -0.000 C 
BRANCH  16  17
ATOM     17  C   UNL     1      -7.676  -2.531   0.797  1.00  0.00    -0.003 C 
ATOM     18  C   UNL     1      -7.481  -2.832  -0.686  1.00  0.00     0.004 C 
ENDBRANCH  16  17
ENDBRANCH  15  16
ENDBRANCH  14  15
ENDBRANCH  13  14
ENDBRANCH  12  13
ENDBRANCH  11  12
ENDBRANCH   1  11
TORSDOF 14
ENDMDL
