MODEL 1
REMARK VINA RESULT:    -4.272      0.000      0.000
REMARK INTER + INTRA:          -6.543
REMARK INTER:                  -6.271
REMARK INTRA:                  -0.273
REMARK UNBOUND:                -0.273
REMARK SMILES O=C([O-])CCCCCCCC(=O)[O-]
REMARK SMILES IDX 7 1 6 2 5 3 4 4 2 5 1 6 3 7 8 8 9 9 10 10 11 11 12 12 13 13
REMARK H PARENT
REMARK Flexibility Score: inf
ROOT
ATOM      1  C   UNL     1      58.267  32.365  77.757  1.00  0.00     0.000 C 
ENDROOT
BRANCH   1   2
ATOM      2  C   UNL     1      57.932  33.163  76.487  1.00  0.00     0.000 C 
BRANCH   2   3
ATOM      3  C   UNL     1      57.830  32.273  75.237  1.00  0.00     0.006 C 
BRANCH   3   4
ATOM      4  C   UNL     1      57.852  30.776  75.574  1.00  0.00     0.053 C 
BRANCH   4   5
ATOM      5  C   UNL     1      56.922  30.026  74.675  1.00  0.00     0.041 C 
ATOM      6  O   UNL     1      56.876  28.767  74.718  1.00  0.00    -0.550 OA
ATOM      7  O   UNL     1      56.142  30.712  73.753  1.00  0.00    -0.550 OA
ENDBRANCH   4   5
ENDBRANCH   3   4
ENDBRANCH   2   3
ENDBRANCH   1   2
BRANCH   1   8
ATOM      8  C   UNL     1      57.910  33.168  79.017  1.00  0.00     0.000 C 
BRANCH   8   9
ATOM      9  C   UNL     1      59.136  33.838  79.658  1.00  0.00     0.006 C 
BRANCH   9  10
ATOM     10  C   UNL     1      58.767  34.733  80.847  1.00  0.00     0.053 C 
BRANCH  10  11
ATOM     11  C   UNL     1      58.743  36.171  80.431  1.00  0.00     0.041 C 
ATOM     12  O   UNL     1      59.262  36.522  79.338  1.00  0.00    -0.550 OA
ATOM     13  O   UNL     1      58.104  37.114  81.224  1.00  0.00    -0.550 OA
ENDBRANCH  10  11
ENDBRANCH   9  10
ENDBRANCH   8   9
ENDBRANCH   1   8
TORSDOF 8
ENDMDL
MODEL 2
REMARK VINA RESULT:    -4.215      0.675      7.178
REMARK INTER + INTRA:          -6.458
REMARK INTER:                  -6.174
REMARK INTRA:                  -0.284
REMARK UNBOUND:                -0.273
REMARK SMILES O=C([O-])CCCCCCCC(=O)[O-]
REMARK SMILES IDX 7 1 6 2 5 3 4 4 2 5 1 6 3 7 8 8 9 9 10 10 11 11 12 12 13 13
REMARK H PARENT
REMARK Flexibility Score: inf
ROOT
ATOM      1  C   UNL     1      57.941  33.648  77.699  1.00  0.00     0.000 C 
ENDROOT
BRANCH   1   2
ATOM      2  C   UNL     1      57.887  33.491  79.227  1.00  0.00     0.000 C 
BRANCH   2   3
ATOM      3  C   UNL     1      59.186  33.938  79.916  1.00  0.00     0.006 C 
BRANCH   3   4
ATOM      4  C   UNL     1      58.945  34.986  81.010  1.00  0.00     0.053 C 
BRANCH   4   5
ATOM      5  C   UNL     1      58.706  36.331  80.401  1.00  0.00     0.041 C 
ATOM      6  O   UNL     1      57.912  37.143  80.946  1.00  0.00    -0.550 OA
ATOM      7  O   UNL     1      59.322  36.671  79.203  1.00  0.00    -0.550 OA
ENDBRANCH   4   5
ENDBRANCH   3   4
ENDBRANCH   2   3
ENDBRANCH   1   2
BRANCH   1   8
ATOM      8  C   UNL     1      58.116  32.284  77.015  1.00  0.00     0.000 C 
BRANCH   8   9
ATOM      9  C   UNL     1      57.626  32.287  75.558  1.00  0.00     0.006 C 
BRANCH   9  10
ATOM     10  C   UNL     1      57.953  30.981  74.821  1.00  0.00     0.053 C 
BRANCH  10  11
ATOM     11  C   UNL     1      56.818  30.013  74.946  1.00  0.00     0.041 C 
ATOM     12  O   UNL     1      55.872  30.036  74.115  1.00  0.00    -0.550 OA
ATOM     13  O   UNL     1      56.830  29.053  75.949  1.00  0.00    -0.550 OA
ENDBRANCH  10  11
ENDBRANCH   9  10
ENDBRANCH   8   9
ENDBRANCH   1   8
TORSDOF 8
ENDMDL
MODEL 3
REMARK VINA RESULT:    -4.150      2.573      3.997
REMARK INTER + INTRA:          -6.363
REMARK INTER:                  -5.837
REMARK INTRA:                  -0.526
REMARK UNBOUND:                -0.273
REMARK SMILES O=C([O-])CCCCCCCC(=O)[O-]
REMARK SMILES IDX 7 1 6 2 5 3 4 4 2 5 1 6 3 7 8 8 9 9 10 10 11 11 12 12 13 13
REMARK H PARENT
REMARK Flexibility Score: inf
ROOT
ATOM      1  C   UNL     1      59.073  35.402  81.146  1.00  0.00     0.000 C 
ENDROOT
BRANCH   1   2
ATOM      2  C   UNL     1      58.271  34.249  80.521  1.00  0.00     0.000 C 
BRANCH   2   3
ATOM      3  C   UNL     1      58.959  33.650  79.284  1.00  0.00     0.006 C 
BRANCH   3   4
ATOM      4  C   UNL     1      57.994  32.847  78.402  1.00  0.00     0.053 C 
BRANCH   4   5
ATOM      5  C   UNL     1      57.862  33.487  77.056  1.00  0.00     0.041 C 
ATOM      6  O   UNL     1      58.402  32.960  76.047  1.00  0.00    -0.550 OA
ATOM      7  O   UNL     1      57.186  34.694  76.924  1.00  0.00    -0.550 OA
ENDBRANCH   4   5
ENDBRANCH   3   4
ENDBRANCH   2   3
ENDBRANCH   1   2
BRANCH   1   8
ATOM      8  C   UNL     1      58.322  36.733  80.998  1.00  0.00     0.000 C 
BRANCH   8   9
ATOM      9  C   UNL     1      57.200  36.666  79.949  1.00  0.00     0.006 C 
BRANCH   9  10
ATOM     10  C   UNL     1      57.369  37.705  78.834  1.00  0.00     0.053 C 
BRANCH  10  11
ATOM     11  C   UNL     1      58.820  37.910  78.528  1.00  0.00     0.041 C 
ATOM     12  O   UNL     1      59.410  38.950  78.924  1.00  0.00    -0.550 OA
ATOM     13  O   UNL     1      59.533  36.932  77.849  1.00  0.00    -0.550 OA
ENDBRANCH  10  11
ENDBRANCH   9  10
ENDBRANCH   8   9
ENDBRANCH   1   8
TORSDOF 8
ENDMDL
MODEL 4
REMARK VINA RESULT:    -4.148      0.900      6.917
REMARK INTER + INTRA:          -6.360
REMARK INTER:                  -6.009
REMARK INTRA:                  -0.351
REMARK UNBOUND:                -0.273
REMARK SMILES O=C([O-])CCCCCCCC(=O)[O-]
REMARK SMILES IDX 7 1 6 2 5 3 4 4 2 5 1 6 3 7 8 8 9 9 10 10 11 11 12 12 13 13
REMARK H PARENT
REMARK Flexibility Score: inf
ROOT
ATOM      1  C   UNL     1      57.660  34.013  77.807  1.00  0.00     0.000 C 
ENDROOT
BRANCH   1   2
ATOM      2  C   UNL     1      57.920  33.482  79.225  1.00  0.00     0.000 C 
BRANCH   2   3
ATOM      3  C   UNL     1      59.180  34.088  79.864  1.00  0.00     0.006 C 
BRANCH   3   4
ATOM      4  C   UNL     1      58.854  35.161  80.911  1.00  0.00     0.053 C 
BRANCH   4   5
ATOM      5  C   UNL     1      58.506  36.453  80.242  1.00  0.00     0.041 C 
ATOM      6  O   UNL     1      59.335  37.017  79.481  1.00  0.00    -0.550 OA
ATOM      7  O   UNL     1      57.283  37.060  80.500  1.00  0.00    -0.550 OA
ENDBRANCH   4   5
ENDBRANCH   3   4
ENDBRANCH   2   3
ENDBRANCH   1   2
BRANCH   1   8
ATOM      8  C   UNL     1      58.132  33.004  76.749  1.00  0.00     0.000 C 
BRANCH   8   9
ATOM      9  C   UNL     1      58.290  31.584  77.315  1.00  0.00     0.006 C 
BRANCH   9  10
ATOM     10  C   UNL     1      58.594  30.544  76.229  1.00  0.00     0.053 C 
BRANCH  10  11
ATOM     11  C   UNL     1      57.338  30.149  75.519  1.00  0.00     0.041 C 
ATOM     12  O   UNL     1      56.585  29.265  76.007  1.00  0.00    -0.550 OA
ATOM     13  O   UNL     1      56.971  30.792  74.344  1.00  0.00    -0.550 OA
ENDBRANCH  10  11
ENDBRANCH   9  10
ENDBRANCH   8   9
ENDBRANCH   1   8
TORSDOF 8
ENDMDL
MODEL 5
REMARK VINA RESULT:    -4.141      1.378      2.087
REMARK INTER + INTRA:          -6.350
REMARK INTER:                  -5.988
REMARK INTRA:                  -0.362
REMARK UNBOUND:                -0.273
REMARK SMILES O=C([O-])CCCCCCCC(=O)[O-]
REMARK SMILES IDX 7 1 6 2 5 3 4 4 2 5 1 6 3 7 8 8 9 9 10 10 11 11 12 12 13 13
REMARK H PARENT
REMARK Flexibility Score: inf
ROOT
ATOM      1  C   UNL     1      59.082  33.828  79.361  1.00  0.00     0.000 C 
ENDROOT
BRANCH   1   2
ATOM      2  C   UNL     1      57.885  33.075  78.760  1.00  0.00     0.000 C 
BRANCH   2   3
ATOM      3  C   UNL     1      58.091  32.719  77.279  1.00  0.00     0.006 C 
BRANCH   3   4
ATOM      4  C   UNL     1      58.436  31.239  77.068  1.00  0.00     0.053 C 
BRANCH   4   5
ATOM      5  C   UNL     1      57.631  30.671  75.943  1.00  0.00     0.041 C 
ATOM      6  O   UNL     1      57.311  29.453  75.944  1.00  0.00    -0.550 OA
ATOM      7  O   UNL     1      57.277  31.475  74.866  1.00  0.00    -0.550 OA
ENDBRANCH   4   5
ENDBRANCH   3   4
ENDBRANCH   2   3
ENDBRANCH   1   2
BRANCH   1   8
ATOM      8  C   UNL     1      58.784  34.268  80.802  1.00  0.00     0.000 C 
BRANCH   8   9
ATOM      9  C   UNL     1      58.792  35.796  80.967  1.00  0.00     0.006 C 
BRANCH   9  10
ATOM     10  C   UNL     1      58.651  36.536  79.631  1.00  0.00     0.053 C 
BRANCH  10  11
ATOM     11  C   UNL     1      57.213  36.839  79.350  1.00  0.00     0.041 C 
ATOM     12  O   UNL     1      56.699  36.506  78.249  1.00  0.00    -0.550 OA
ATOM     13  O   UNL     1      56.426  37.442  80.321  1.00  0.00    -0.550 OA
ENDBRANCH  10  11
ENDBRANCH   9  10
ENDBRANCH   8   9
ENDBRANCH   1   8
TORSDOF 8
ENDMDL
MODEL 6
REMARK VINA RESULT:    -4.035      3.523      5.980
REMARK INTER + INTRA:          -6.194
REMARK INTER:                  -5.511
REMARK INTRA:                  -0.683
REMARK UNBOUND:                -0.273
REMARK SMILES O=C([O-])CCCCCCCC(=O)[O-]
REMARK SMILES IDX 7 1 6 2 5 3 4 4 2 5 1 6 3 7 8 8 9 9 10 10 11 11 12 12 13 13
REMARK H PARENT
REMARK Flexibility Score: inf
ROOT
ATOM      1  C   UNL     1      57.998  32.852  78.412  1.00  0.00     0.000 C 
ENDROOT
BRANCH   1   2
ATOM      2  C   UNL     1      57.778  33.782  79.615  1.00  0.00     0.000 C 
BRANCH   2   3
ATOM      3  C   UNL     1      59.092  34.181  80.305  1.00  0.00     0.006 C 
BRANCH   3   4
ATOM      4  C   UNL     1      58.941  35.423  81.192  1.00  0.00     0.053 C 
BRANCH   4   5
ATOM      5  C   UNL     1      58.514  36.600  80.374  1.00  0.00     0.041 C 
ATOM      6  O   UNL     1      59.253  37.030  79.448  1.00  0.00    -0.550 OA
ATOM      7  O   UNL     1      57.324  37.254  80.665  1.00  0.00    -0.550 OA
ENDBRANCH   4   5
ENDBRANCH   3   4
ENDBRANCH   2   3
ENDBRANCH   1   2
BRANCH   1   8
ATOM      8  C   UNL     1      57.950  33.641  77.094  1.00  0.00     0.000 C 
BRANCH   8   9
ATOM      9  C   UNL     1      57.235  34.994  77.240  1.00  0.00     0.006 C 
BRANCH   9  10
ATOM     10  C   UNL     1      57.908  36.109  76.430  1.00  0.00     0.053 C 
BRANCH  10  11
ATOM     11  C   UNL     1      57.009  37.301  76.336  1.00  0.00     0.041 C 
ATOM     12  O   UNL     1      56.061  37.315  75.507  1.00  0.00    -0.550 OA
ATOM     13  O   UNL     1      57.186  38.376  77.197  1.00  0.00    -0.550 OA
ENDBRANCH  10  11
ENDBRANCH   9  10
ENDBRANCH   8   9
ENDBRANCH   1   8
TORSDOF 8
ENDMDL
MODEL 7
REMARK VINA RESULT:    -3.997      3.203      4.994
REMARK INTER + INTRA:          -6.140
REMARK INTER:                  -5.508
REMARK INTRA:                  -0.631
REMARK UNBOUND:                -0.273
REMARK SMILES O=C([O-])CCCCCCCC(=O)[O-]
REMARK SMILES IDX 7 1 6 2 5 3 4 4 2 5 1 6 3 7 8 8 9 9 10 10 11 11 12 12 13 13
REMARK H PARENT
REMARK Flexibility Score: inf
ROOT
ATOM      1  C   UNL     1      58.421  36.828  80.294  1.00  0.00     0.000 C 
ENDROOT
BRANCH   1   2
ATOM      2  C   UNL     1      58.785  35.571  81.100  1.00  0.00     0.000 C 
BRANCH   2   3
ATOM      3  C   UNL     1      59.168  34.382  80.204  1.00  0.00     0.006 C 
BRANCH   3   4
ATOM      4  C   UNL     1      57.962  33.508  79.834  1.00  0.00     0.053 C 
BRANCH   4   5
ATOM      5  C   UNL     1      57.868  33.350  78.349  1.00  0.00     0.041 C 
ATOM      6  O   UNL     1      57.968  32.209  77.826  1.00  0.00    -0.550 OA
ATOM      7  O   UNL     1      57.721  34.469  77.539  1.00  0.00    -0.550 OA
ENDBRANCH   4   5
ENDBRANCH   3   4
ENDBRANCH   2   3
ENDBRANCH   1   2
BRANCH   1   8
ATOM      8  C   UNL     1      56.898  36.970  80.159  1.00  0.00     0.000 C 
BRANCH   8   9
ATOM      9  C   UNL     1      56.486  37.757  78.904  1.00  0.00     0.006 C 
BRANCH   9  10
ATOM     10  C   UNL     1      57.681  38.116  78.013  1.00  0.00     0.053 C 
BRANCH  10  11
ATOM     11  C   UNL     1      57.268  38.147  76.574  1.00  0.00     0.041 C 
ATOM     12  O   UNL     1      56.463  37.287  76.128  1.00  0.00    -0.550 OA
ATOM     13  O   UNL     1      57.733  39.153  75.738  1.00  0.00    -0.550 OA
ENDBRANCH  10  11
ENDBRANCH   9  10
ENDBRANCH   8   9
ENDBRANCH   1   8
TORSDOF 8
ENDMDL
MODEL 8
REMARK VINA RESULT:    -3.993      1.745      6.323
REMARK INTER + INTRA:          -6.133
REMARK INTER:                  -5.695
REMARK INTRA:                  -0.438
REMARK UNBOUND:                -0.273
REMARK SMILES O=C([O-])CCCCCCCC(=O)[O-]
REMARK SMILES IDX 7 1 6 2 5 3 4 4 2 5 1 6 3 7 8 8 9 9 10 10 11 11 12 12 13 13
REMARK H PARENT
REMARK Flexibility Score: inf
ROOT
ATOM      1  C   UNL     1      58.022  33.918  80.165  1.00  0.00     0.000 C 
ENDROOT
BRANCH   1   2
ATOM      2  C   UNL     1      58.773  35.014  80.937  1.00  0.00     0.000 C 
BRANCH   2   3
ATOM      3  C   UNL     1      58.638  36.399  80.284  1.00  0.00     0.006 C 
BRANCH   3   4
ATOM      4  C   UNL     1      57.214  36.681  79.788  1.00  0.00     0.053 C 
BRANCH   4   5
ATOM      5  C   UNL     1      57.210  36.891  78.307  1.00  0.00     0.041 C 
ATOM      6  O   UNL     1      56.310  36.370  77.595  1.00  0.00    -0.550 OA
ATOM      7  O   UNL     1      58.227  37.620  77.705  1.00  0.00    -0.550 OA
ENDBRANCH   4   5
ENDBRANCH   3   4
ENDBRANCH   2   3
ENDBRANCH   1   2
BRANCH   1   8
ATOM      8  C   UNL     1      58.853  33.420  78.974  1.00  0.00     0.000 C 
BRANCH   8   9
ATOM      9  C   UNL     1      57.981  32.924  77.809  1.00  0.00     0.006 C 
BRANCH   9  10
ATOM     10  C   UNL     1      58.396  31.535  77.308  1.00  0.00     0.053 C 
BRANCH  10  11
ATOM     11  C   UNL     1      57.679  31.203  76.037  1.00  0.00     0.041 C 
ATOM     12  O   UNL     1      57.521  32.084  75.151  1.00  0.00    -0.550 OA
ATOM     13  O   UNL     1      57.230  29.909  75.810  1.00  0.00    -0.550 OA
ENDBRANCH  10  11
ENDBRANCH   9  10
ENDBRANCH   8   9
ENDBRANCH   1   8
TORSDOF 8
ENDMDL
MODEL 9
REMARK VINA RESULT:    -3.934      2.610      3.344
REMARK INTER + INTRA:          -6.046
REMARK INTER:                  -5.520
REMARK INTRA:                  -0.526
REMARK UNBOUND:                -0.273
REMARK SMILES O=C([O-])CCCCCCCC(=O)[O-]
REMARK SMILES IDX 7 1 6 2 5 3 4 4 2 5 1 6 3 7 8 8 9 9 10 10 11 11 12 12 13 13
REMARK H PARENT
REMARK Flexibility Score: inf
ROOT
ATOM      1  C   UNL     1      57.797  33.546  79.952  1.00  0.00     0.000 C 
ENDROOT
BRANCH   1   2
ATOM      2  C   UNL     1      57.895  33.091  78.488  1.00  0.00     0.000 C 
BRANCH   2   3
ATOM      3  C   UNL     1      57.661  34.238  77.492  1.00  0.00     0.006 C 
BRANCH   3   4
ATOM      4  C   UNL     1      57.560  33.751  76.041  1.00  0.00     0.053 C 
BRANCH   4   5
ATOM      5  C   UNL     1      56.829  34.752  75.204  1.00  0.00     0.041 C 
ATOM      6  O   UNL     1      56.347  34.416  74.090  1.00  0.00    -0.550 OA
ATOM      7  O   UNL     1      56.724  36.070  75.631  1.00  0.00    -0.550 OA
ENDBRANCH   4   5
ENDBRANCH   3   4
ENDBRANCH   2   3
ENDBRANCH   1   2
BRANCH   1   8
ATOM      8  C   UNL     1      59.058  34.316  80.372  1.00  0.00     0.000 C 
BRANCH   8   9
ATOM      9  C   UNL     1      58.743  35.730  80.887  1.00  0.00     0.006 C 
BRANCH   9  10
ATOM     10  C   UNL     1      58.852  36.797  79.790  1.00  0.00     0.053 C 
BRANCH  10  11
ATOM     11  C   UNL     1      57.506  37.381  79.495  1.00  0.00     0.041 C 
ATOM     12  O   UNL     1      57.277  37.911  78.375  1.00  0.00    -0.550 OA
ATOM     13  O   UNL     1      56.489  37.298  80.437  1.00  0.00    -0.550 OA
ENDBRANCH  10  11
ENDBRANCH   9  10
ENDBRANCH   8   9
ENDBRANCH   1   8
TORSDOF 8
ENDMDL
