MODEL 1
REMARK VINA RESULT:    -5.964      0.000      0.000
REMARK INTER + INTRA:          -6.805
REMARK INTER:                  -7.185
REMARK INTRA:                   0.380
REMARK UNBOUND:                 0.380
REMARK SMILES Oc1cc(O)c2c(c1)O[C@@H](c1ccc(O)c(O)c1)[C@H](O)C2
REMARK SMILES IDX 21 1 19 2 10 3 9 4 7 5 8 6 2 7 3 8 4 9 6 10 20 11 11 13
REMARK SMILES IDX 18 14 12 15 16 16 13 17 14 18 17 19 15 21 5 23 1 25
REMARK H PARENT 20 12 17 20 15 22 5 24 1 26
REMARK Flexibility Score: inf
ROOT
ATOM      1  C   UNL     1      31.053  10.708  30.036  1.00  0.00     0.079 C 
ATOM      2  C   UNL     1      29.661  10.979  29.431  1.00  0.00     0.164 C 
ATOM      3  C   UNL     1      29.761  11.112  27.899  1.00  0.00     0.232 C 
ATOM      4  O   UNL     1      30.358   9.935  27.353  1.00  0.00    -0.482 OA
ATOM      5  C   UNL     1      31.410   9.266  27.988  1.00  0.00     0.131 A 
ATOM      6  C   UNL     1      32.067   8.238  27.307  1.00  0.00     0.093 A 
ATOM      7  C   UNL     1      33.132   7.560  27.910  1.00  0.00     0.122 A 
ATOM      8  C   UNL     1      33.545   7.920  29.194  1.00  0.00     0.092 A 
ATOM      9  C   UNL     1      32.899   8.947  29.892  1.00  0.00     0.126 A 
ATOM     10  C   UNL     1      31.793   9.607  29.305  1.00  0.00     0.039 A 
ENDROOT
BRANCH   2  11
ATOM     11  O   UNL     1      29.086  12.125  30.010  1.00  0.00    -0.389 OA
ATOM     12  H   UNL     1      29.240  12.078  30.989  1.00  0.00     0.211 HD
ENDBRANCH   2  11
BRANCH   3  13
ATOM     13  C   UNL     1      28.401  11.327  27.279  1.00  0.00    -0.001 A 
ATOM     14  C   UNL     1      27.295  11.631  28.089  1.00  0.00     0.057 A 
ATOM     15  C   UNL     1      28.214  11.175  25.894  1.00  0.00     0.012 A 
ATOM     16  C   UNL     1      26.025  11.803  27.527  1.00  0.00     0.157 A 
ATOM     17  C   UNL     1      26.948  11.347  25.330  1.00  0.00     0.050 A 
ATOM     18  C   UNL     1      25.849  11.662  26.140  1.00  0.00     0.157 A 
BRANCH  16  19
ATOM     19  O   UNL     1      24.951  12.111  28.361  1.00  0.00    -0.504 OA
ATOM     20  H   UNL     1      24.903  11.789  29.320  1.00  0.00     0.293 HD
ENDBRANCH  16  19
BRANCH  18  21
ATOM     21  O   UNL     1      24.587  11.834  25.574  1.00  0.00    -0.504 OA
ATOM     22  H   UNL     1      24.444  11.783  24.572  1.00  0.00     0.293 HD
ENDBRANCH  18  21
ENDBRANCH   3  13
BRANCH   9  23
ATOM     23  O   UNL     1      33.387   9.291  31.155  1.00  0.00    -0.507 OA
ATOM     24  H   UNL     1      33.032   8.895  32.014  1.00  0.00     0.293 HD
ENDBRANCH   9  23
BRANCH   7  25
ATOM     25  O   UNL     1      33.791   6.533  27.237  1.00  0.00    -0.508 OA
ATOM     26  H   UNL     1      34.703   6.673  26.820  1.00  0.00     0.293 HD
ENDBRANCH   7  25
TORSDOF 6
ENDMDL
MODEL 2
REMARK VINA RESULT:    -5.841     19.594     22.109
REMARK INTER + INTRA:          -6.656
REMARK INTER:                  -6.295
REMARK INTRA:                  -0.361
REMARK UNBOUND:                 0.380
REMARK SMILES Oc1cc(O)c2c(c1)O[C@@H](c1ccc(O)c(O)c1)[C@H](O)C2
REMARK SMILES IDX 21 1 19 2 10 3 9 4 7 5 8 6 2 7 3 8 4 9 6 10 20 11 11 13
REMARK SMILES IDX 18 14 12 15 16 16 13 17 14 18 17 19 15 21 5 23 1 25
REMARK H PARENT 20 12 17 20 15 22 5 24 1 26
REMARK Flexibility Score: inf
ROOT
ATOM      1  C   UNL     1      16.578  -2.189  14.375  1.00  0.00     0.079 C 
ATOM      2  C   UNL     1      16.416  -0.696  14.721  1.00  0.00     0.164 C 
ATOM      3  C   UNL     1      14.977  -0.410  15.195  1.00  0.00     0.232 C 
ATOM      4  O   UNL     1      14.663  -1.251  16.306  1.00  0.00    -0.482 OA
ATOM      5  C   UNL     1      15.090  -2.581  16.383  1.00  0.00     0.131 A 
ATOM      6  C   UNL     1      14.588  -3.395  17.402  1.00  0.00     0.093 A 
ATOM      7  C   UNL     1      14.984  -4.732  17.496  1.00  0.00     0.122 A 
ATOM      8  C   UNL     1      15.878  -5.259  16.561  1.00  0.00     0.092 A 
ATOM      9  C   UNL     1      16.391  -4.459  15.533  1.00  0.00     0.126 A 
ATOM     10  C   UNL     1      16.028  -3.094  15.458  1.00  0.00     0.039 A 
ENDROOT
BRANCH   2  11
ATOM     11  O   UNL     1      16.762   0.106  13.619  1.00  0.00    -0.389 OA
ATOM     12  H   UNL     1      17.571  -0.289  13.200  1.00  0.00     0.211 HD
ENDBRANCH   2  11
BRANCH   3  13
ATOM     13  C   UNL     1      14.810   1.038  15.588  1.00  0.00    -0.001 A 
ATOM     14  C   UNL     1      15.369   1.515  16.785  1.00  0.00     0.057 A 
ATOM     15  C   UNL     1      14.051   1.912  14.790  1.00  0.00     0.012 A 
ATOM     16  C   UNL     1      15.194   2.849  17.171  1.00  0.00     0.157 A 
ATOM     17  C   UNL     1      13.875   3.244  15.173  1.00  0.00     0.050 A 
ATOM     18  C   UNL     1      14.445   3.719  16.362  1.00  0.00     0.157 A 
BRANCH  16  19
ATOM     19  O   UNL     1      15.769   3.290  18.363  1.00  0.00    -0.504 OA
ATOM     20  H   UNL     1      15.225   3.421  19.207  1.00  0.00     0.293 HD
ENDBRANCH  16  19
BRANCH  18  21
ATOM     21  O   UNL     1      14.269   5.050  16.740  1.00  0.00    -0.504 OA
ATOM     22  H   UNL     1      13.355   5.486  16.733  1.00  0.00     0.293 HD
ENDBRANCH  18  21
ENDBRANCH   3  13
BRANCH   9  23
ATOM     23  O   UNL     1      17.245  -5.055  14.602  1.00  0.00    -0.507 OA
ATOM     24  H   UNL     1      17.050  -5.942  14.157  1.00  0.00     0.293 HD
ENDBRANCH   9  23
BRANCH   7  25
ATOM     25  O   UNL     1      14.489  -5.549  18.511  1.00  0.00    -0.508 OA
ATOM     26  H   UNL     1      14.157  -5.163  19.386  1.00  0.00     0.293 HD
ENDBRANCH   7  25
TORSDOF 6
ENDMDL
MODEL 3
REMARK VINA RESULT:    -5.435     20.814     22.325
REMARK INTER + INTRA:          -6.167
REMARK INTER:                  -5.906
REMARK INTRA:                  -0.262
REMARK UNBOUND:                 0.380
REMARK SMILES Oc1cc(O)c2c(c1)O[C@@H](c1ccc(O)c(O)c1)[C@H](O)C2
REMARK SMILES IDX 21 1 19 2 10 3 9 4 7 5 8 6 2 7 3 8 4 9 6 10 20 11 11 13
REMARK SMILES IDX 18 14 12 15 16 16 13 17 14 18 17 19 15 21 5 23 1 25
REMARK H PARENT 20 12 17 20 15 22 5 24 1 26
REMARK Flexibility Score: inf
ROOT
ATOM      1  C   UNL     1      18.386  -4.246  14.729  1.00  0.00     0.079 C 
ATOM      2  C   UNL     1      17.806  -2.821  14.838  1.00  0.00     0.164 C 
ATOM      3  C   UNL     1      16.318  -2.880  15.236  1.00  0.00     0.232 C 
ATOM      4  O   UNL     1      16.176  -3.607  16.456  1.00  0.00    -0.482 OA
ATOM      5  C   UNL     1      16.941  -4.742  16.745  1.00  0.00     0.131 A 
ATOM      6  C   UNL     1      16.618  -5.509  17.868  1.00  0.00     0.093 A 
ATOM      7  C   UNL     1      17.354  -6.657  18.174  1.00  0.00     0.122 A 
ATOM      8  C   UNL     1      18.411  -7.044  17.348  1.00  0.00     0.092 A 
ATOM      9  C   UNL     1      18.749  -6.290  16.219  1.00  0.00     0.126 A 
ATOM     10  C   UNL     1      18.037  -5.103  15.928  1.00  0.00     0.039 A 
ENDROOT
BRANCH   2  11
ATOM     11  O   UNL     1      17.989  -2.121  13.632  1.00  0.00    -0.389 OA
ATOM     12  H   UNL     1      17.293  -2.431  12.995  1.00  0.00     0.211 HD
ENDBRANCH   2  11
BRANCH   3  13
ATOM     13  C   UNL     1      15.742  -1.494  15.398  1.00  0.00    -0.001 A 
ATOM     14  C   UNL     1      15.817  -0.837  16.637  1.00  0.00     0.057 A 
ATOM     15  C   UNL     1      15.080  -0.865  14.330  1.00  0.00     0.012 A 
ATOM     16  C   UNL     1      15.261   0.436  16.805  1.00  0.00     0.157 A 
ATOM     17  C   UNL     1      14.524   0.406  14.494  1.00  0.00     0.050 A 
ATOM     18  C   UNL     1      14.612   1.063  15.728  1.00  0.00     0.157 A 
BRANCH  16  19
ATOM     19  O   UNL     1      15.360   1.061  18.048  1.00  0.00    -0.504 OA
ATOM     20  H   UNL     1      14.860   1.914  18.263  1.00  0.00     0.293 HD
ENDBRANCH  16  19
BRANCH  18  21
ATOM     21  O   UNL     1      14.057   2.332  15.888  1.00  0.00    -0.504 OA
ATOM     22  H   UNL     1      13.257   2.489  16.490  1.00  0.00     0.293 HD
ENDBRANCH  18  21
ENDBRANCH   3  13
BRANCH   9  23
ATOM     23  O   UNL     1      19.788  -6.753  15.407  1.00  0.00    -0.507 OA
ATOM     24  H   UNL     1      20.739  -6.416  15.475  1.00  0.00     0.293 HD
ENDBRANCH   9  23
BRANCH   7  25
ATOM     25  O   UNL     1      17.037  -7.425  19.293  1.00  0.00    -0.508 OA
ATOM     26  H   UNL     1      17.517  -8.295  19.491  1.00  0.00     0.293 HD
ENDBRANCH   7  25
TORSDOF 6
ENDMDL
MODEL 4
REMARK VINA RESULT:    -5.347     20.569     23.164
REMARK INTER + INTRA:          -6.062
REMARK INTER:                  -5.731
REMARK INTRA:                  -0.331
REMARK UNBOUND:                 0.380
REMARK SMILES Oc1cc(O)c2c(c1)O[C@@H](c1ccc(O)c(O)c1)[C@H](O)C2
REMARK SMILES IDX 21 1 19 2 10 3 9 4 7 5 8 6 2 7 3 8 4 9 6 10 20 11 11 13
REMARK SMILES IDX 18 14 12 15 16 16 13 17 14 18 17 19 15 21 5 23 1 25
REMARK H PARENT 20 12 17 20 15 22 5 24 1 26
REMARK Flexibility Score: inf
ROOT
ATOM      1  C   UNL     1      15.182  -1.974  13.940  1.00  0.00     0.079 C 
ATOM      2  C   UNL     1      15.521  -3.227  14.772  1.00  0.00     0.164 C 
ATOM      3  C   UNL     1      16.730  -2.949  15.688  1.00  0.00     0.232 C 
ATOM      4  O   UNL     1      16.455  -1.819  16.516  1.00  0.00    -0.482 OA
ATOM      5  C   UNL     1      15.760  -0.699  16.047  1.00  0.00     0.131 A 
ATOM      6  C   UNL     1      15.693   0.442  16.852  1.00  0.00     0.093 A 
ATOM      7  C   UNL     1      15.019   1.583  16.405  1.00  0.00     0.122 A 
ATOM      8  C   UNL     1      14.419   1.584  15.144  1.00  0.00     0.092 A 
ATOM      9  C   UNL     1      14.476   0.452  14.324  1.00  0.00     0.126 A 
ATOM     10  C   UNL     1      15.118  -0.720  14.788  1.00  0.00     0.039 A 
ENDROOT
BRANCH   2  11
ATOM     11  O   UNL     1      15.757  -4.329  13.931  1.00  0.00    -0.389 OA
ATOM     12  H   UNL     1      16.704  -4.602  14.049  1.00  0.00     0.211 HD
ENDBRANCH   2  11
BRANCH   3  13
ATOM     13  C   UNL     1      17.048  -4.147  16.550  1.00  0.00    -0.001 A 
ATOM     14  C   UNL     1      18.349  -4.675  16.575  1.00  0.00     0.057 A 
ATOM     15  C   UNL     1      16.038  -4.779  17.297  1.00  0.00     0.012 A 
ATOM     16  C   UNL     1      18.646  -5.803  17.349  1.00  0.00     0.157 A 
ATOM     17  C   UNL     1      16.332  -5.903  18.071  1.00  0.00     0.050 A 
ATOM     18  C   UNL     1      17.634  -6.420  18.103  1.00  0.00     0.157 A 
BRANCH  16  19
ATOM     19  O   UNL     1      19.951  -6.296  17.355  1.00  0.00    -0.504 OA
ATOM     20  H   UNL     1      20.312  -6.873  16.606  1.00  0.00     0.293 HD
ENDBRANCH  16  19
BRANCH  18  21
ATOM     21  O   UNL     1      17.924  -7.542  18.878  1.00  0.00    -0.504 OA
ATOM     22  H   UNL     1      18.835  -7.674  19.300  1.00  0.00     0.293 HD
ENDBRANCH  18  21
ENDBRANCH   3  13
BRANCH   9  23
ATOM     23  O   UNL     1      13.895   0.530  13.056  1.00  0.00    -0.507 OA
ATOM     24  H   UNL     1      13.454  -0.255  12.597  1.00  0.00     0.293 HD
ENDBRANCH   9  23
BRANCH   7  25
ATOM     25  O   UNL     1      14.947   2.723  17.203  1.00  0.00    -0.508 OA
ATOM     26  H   UNL     1      15.702   2.980  17.828  1.00  0.00     0.293 HD
ENDBRANCH   7  25
TORSDOF 6
ENDMDL
MODEL 5
REMARK VINA RESULT:    -5.260     20.705     22.934
REMARK INTER + INTRA:          -5.957
REMARK INTER:                  -5.658
REMARK INTRA:                  -0.299
REMARK UNBOUND:                 0.380
REMARK SMILES Oc1cc(O)c2c(c1)O[C@@H](c1ccc(O)c(O)c1)[C@H](O)C2
REMARK SMILES IDX 21 1 19 2 10 3 9 4 7 5 8 6 2 7 3 8 4 9 6 10 20 11 11 13
REMARK SMILES IDX 18 14 12 15 16 16 13 17 14 18 17 19 15 21 5 23 1 25
REMARK H PARENT 20 12 17 20 15 22 5 24 1 26
REMARK Flexibility Score: inf
ROOT
ATOM      1  C   UNL     1      16.231  -5.346  16.554  1.00  0.00     0.079 C 
ATOM      2  C   UNL     1      16.804  -5.604  17.962  1.00  0.00     0.164 C 
ATOM      3  C   UNL     1      18.053  -6.503  17.874  1.00  0.00     0.232 C 
ATOM      4  O   UNL     1      19.017  -5.901  17.010  1.00  0.00    -0.482 OA
ATOM      5  C   UNL     1      18.655  -5.224  15.841  1.00  0.00     0.131 A 
ATOM      6  C   UNL     1      19.657  -4.827  14.951  1.00  0.00     0.093 A 
ATOM      7  C   UNL     1      19.325  -4.163  13.766  1.00  0.00     0.122 A 
ATOM      8  C   UNL     1      17.986  -3.904  13.467  1.00  0.00     0.092 A 
ATOM      9  C   UNL     1      16.969  -4.295  14.345  1.00  0.00     0.126 A 
ATOM     10  C   UNL     1      17.300  -4.928  15.566  1.00  0.00     0.039 A 
ENDROOT
BRANCH   2  11
ATOM     11  O   UNL     1      15.823  -6.169  18.798  1.00  0.00    -0.389 OA
ATOM     12  H   UNL     1      15.980  -7.148  18.829  1.00  0.00     0.211 HD
ENDBRANCH   2  11
BRANCH   3  13
ATOM     13  C   UNL     1      18.661  -6.728  19.238  1.00  0.00    -0.001 A 
ATOM     14  C   UNL     1      19.544  -5.782  19.783  1.00  0.00     0.057 A 
ATOM     15  C   UNL     1      18.392  -7.906  19.956  1.00  0.00     0.012 A 
ATOM     16  C   UNL     1      20.135  -5.996  21.034  1.00  0.00     0.157 A 
ATOM     17  C   UNL     1      18.979  -8.122  21.204  1.00  0.00     0.050 A 
ATOM     18  C   UNL     1      19.850  -7.170  21.750  1.00  0.00     0.157 A 
BRANCH  16  19
ATOM     19  O   UNL     1      21.002  -5.032  21.547  1.00  0.00    -0.504 OA
ATOM     20  H   UNL     1      21.603  -5.216  22.341  1.00  0.00     0.293 HD
ENDBRANCH  16  19
BRANCH  18  21
ATOM     21  O   UNL     1      20.434  -7.388  22.998  1.00  0.00    -0.504 OA
ATOM     22  H   UNL     1      20.828  -6.628  23.539  1.00  0.00     0.293 HD
ENDBRANCH  18  21
ENDBRANCH   3  13
BRANCH   9  23
ATOM     23  O   UNL     1      15.647  -4.048  13.969  1.00  0.00    -0.507 OA
ATOM     24  H   UNL     1      14.931  -3.747  14.617  1.00  0.00     0.293 HD
ENDBRANCH   9  23
BRANCH   7  25
ATOM     25  O   UNL     1      20.319  -3.762  12.875  1.00  0.00    -0.508 OA
ATOM     26  H   UNL     1      20.978  -4.424  12.483  1.00  0.00     0.293 HD
ENDBRANCH   7  25
TORSDOF 6
ENDMDL
MODEL 6
REMARK VINA RESULT:    -5.138      1.383      2.875
REMARK INTER + INTRA:          -5.810
REMARK INTER:                  -6.170
REMARK INTRA:                   0.360
REMARK UNBOUND:                 0.380
REMARK SMILES Oc1cc(O)c2c(c1)O[C@@H](c1ccc(O)c(O)c1)[C@H](O)C2
REMARK SMILES IDX 21 1 19 2 10 3 9 4 7 5 8 6 2 7 3 8 4 9 6 10 20 11 11 13
REMARK SMILES IDX 18 14 12 15 16 16 13 17 14 18 17 19 15 21 5 23 1 25
REMARK H PARENT 20 12 17 20 15 22 5 24 1 26
REMARK Flexibility Score: inf
ROOT
ATOM      1  C   UNL     1      31.394   8.871  27.528  1.00  0.00     0.079 C 
ATOM      2  C   UNL     1      30.153   9.465  26.832  1.00  0.00     0.164 C 
ATOM      3  C   UNL     1      29.072   9.816  27.875  1.00  0.00     0.232 C 
ATOM      4  O   UNL     1      29.616  10.710  28.846  1.00  0.00    -0.482 OA
ATOM      5  C   UNL     1      30.925  10.590  29.325  1.00  0.00     0.131 A 
ATOM      6  C   UNL     1      31.325  11.378  30.408  1.00  0.00     0.093 A 
ATOM      7  C   UNL     1      32.622  11.269  30.919  1.00  0.00     0.122 A 
ATOM      8  C   UNL     1      33.518  10.362  30.350  1.00  0.00     0.092 A 
ATOM      9  C   UNL     1      33.135   9.564  29.265  1.00  0.00     0.126 A 
ATOM     10  C   UNL     1      31.839   9.700  28.716  1.00  0.00     0.039 A 
ENDROOT
BRANCH   2  11
ATOM     11  O   UNL     1      29.659   8.576  25.861  1.00  0.00    -0.389 OA
ATOM     12  H   UNL     1      28.728   8.846  25.650  1.00  0.00     0.211 HD
ENDBRANCH   2  11
BRANCH   3  13
ATOM     13  C   UNL     1      27.867  10.447  27.220  1.00  0.00    -0.001 A 
ATOM     14  C   UNL     1      26.848  11.008  28.006  1.00  0.00     0.057 A 
ATOM     15  C   UNL     1      27.725  10.435  25.821  1.00  0.00     0.012 A 
ATOM     16  C   UNL     1      25.714  11.570  27.408  1.00  0.00     0.157 A 
ATOM     17  C   UNL     1      26.594  10.994  25.222  1.00  0.00     0.050 A 
ATOM     18  C   UNL     1      25.586  11.565  26.009  1.00  0.00     0.157 A 
BRANCH  16  19
ATOM     19  O   UNL     1      24.725  12.125  28.220  1.00  0.00    -0.504 OA
ATOM     20  H   UNL     1      23.888  11.615  28.474  1.00  0.00     0.293 HD
ENDBRANCH  16  19
BRANCH  18  21
ATOM     21  O   UNL     1      24.459  12.124  25.408  1.00  0.00    -0.504 OA
ATOM     22  H   UNL     1      24.445  12.358  24.422  1.00  0.00     0.293 HD
ENDBRANCH  18  21
ENDBRANCH   3  13
BRANCH   9  23
ATOM     23  O   UNL     1      34.062   8.643  28.769  1.00  0.00    -0.507 OA
ATOM     24  H   UNL     1      33.803   7.735  28.407  1.00  0.00     0.293 HD
ENDBRANCH   9  23
BRANCH   7  25
ATOM     25  O   UNL     1      33.028  12.053  31.997  1.00  0.00    -0.508 OA
ATOM     26  H   UNL     1      33.723  12.781  31.890  1.00  0.00     0.293 HD
ENDBRANCH   7  25
TORSDOF 6
ENDMDL
MODEL 7
REMARK VINA RESULT:    -4.632     19.397     22.750
REMARK INTER + INTRA:          -5.200
REMARK INTER:                  -4.914
REMARK INTRA:                  -0.286
REMARK UNBOUND:                 0.380
REMARK SMILES Oc1cc(O)c2c(c1)O[C@@H](c1ccc(O)c(O)c1)[C@H](O)C2
REMARK SMILES IDX 21 1 19 2 10 3 9 4 7 5 8 6 2 7 3 8 4 9 6 10 20 11 11 13
REMARK SMILES IDX 18 14 12 15 16 16 13 17 14 18 17 19 15 21 5 23 1 25
REMARK H PARENT 20 12 17 20 15 22 5 24 1 26
REMARK Flexibility Score: inf
ROOT
ATOM      1  C   UNL     1      14.202   0.352  14.376  1.00  0.00     0.079 C 
ATOM      2  C   UNL     1      14.091  -1.086  14.919  1.00  0.00     0.164 C 
ATOM      3  C   UNL     1      15.351  -1.451  15.729  1.00  0.00     0.232 C 
ATOM      4  O   UNL     1      15.538  -0.500  16.777  1.00  0.00    -0.482 OA
ATOM      5  C   UNL     1      15.285   0.865  16.605  1.00  0.00     0.131 A 
ATOM      6  C   UNL     1      15.669   1.758  17.609  1.00  0.00     0.093 A 
ATOM      7  C   UNL     1      15.443   3.130  17.458  1.00  0.00     0.122 A 
ATOM      8  C   UNL     1      14.838   3.609  16.295  1.00  0.00     0.092 A 
ATOM      9  C   UNL     1      14.446   2.731  15.278  1.00  0.00     0.126 A 
ATOM     10  C   UNL     1      14.633   1.338  15.442  1.00  0.00     0.039 A 
ENDROOT
BRANCH   2  11
ATOM     11  O   UNL     1      13.875  -1.995  13.867  1.00  0.00    -0.389 OA
ATOM     12  H   UNL     1      13.419  -2.791  14.245  1.00  0.00     0.211 HD
ENDBRANCH   2  11
BRANCH   3  13
ATOM     13  C   UNL     1      15.241  -2.838  16.314  1.00  0.00    -0.001 A 
ATOM     14  C   UNL     1      14.603  -3.037  17.549  1.00  0.00     0.057 A 
ATOM     15  C   UNL     1      15.819  -3.939  15.657  1.00  0.00     0.012 A 
ATOM     16  C   UNL     1      14.522  -4.316  18.112  1.00  0.00     0.157 A 
ATOM     17  C   UNL     1      15.740  -5.216  16.216  1.00  0.00     0.050 A 
ATOM     18  C   UNL     1      15.091  -5.412  17.442  1.00  0.00     0.157 A 
BRANCH  16  19
ATOM     19  O   UNL     1      13.875  -4.477  19.337  1.00  0.00    -0.504 OA
ATOM     20  H   UNL     1      12.883  -4.309  19.448  1.00  0.00     0.293 HD
ENDBRANCH  16  19
BRANCH  18  21
ATOM     21  O   UNL     1      15.012  -6.689  17.997  1.00  0.00    -0.504 OA
ATOM     22  H   UNL     1      15.534  -7.467  17.612  1.00  0.00     0.293 HD
ENDBRANCH  18  21
ENDBRANCH   3  13
BRANCH   9  23
ATOM     23  O   UNL     1      13.888   3.276  14.119  1.00  0.00    -0.507 OA
ATOM     24  H   UNL     1      12.974   3.019  13.769  1.00  0.00     0.293 HD
ENDBRANCH   9  23
BRANCH   7  25
ATOM     25  O   UNL     1      15.822   4.025  18.456  1.00  0.00    -0.508 OA
ATOM     26  H   UNL     1      15.713   3.801  19.438  1.00  0.00     0.293 HD
ENDBRANCH   7  25
TORSDOF 6
ENDMDL
