MODEL 1
REMARK VINA RESULT:    -5.170      0.000      0.000
REMARK INTER + INTRA:          -5.982
REMARK INTER:                  -5.925
REMARK INTRA:                  -0.056
REMARK UNBOUND:                -0.056
REMARK SMILES COc1cc(C=O)ccc1O
REMARK SMILES IDX 3 1 10 2 9 3 8 4 5 5 4 6 2 7 1 8 11 9 6 11 7 12
REMARK H PARENT 11 10
REMARK Flexibility Score: inf
ROOT
ATOM      1  C   UNL     1      -7.502  37.445  59.162  1.00  0.00     0.161 A 
ATOM      2  C   UNL     1      -6.597  38.454  59.519  1.00  0.00     0.157 A 
ATOM      3  C   UNL     1      -5.260  38.136  59.793  1.00  0.00     0.051 A 
ATOM      4  C   UNL     1      -4.822  36.812  59.713  1.00  0.00     0.015 A 
ATOM      5  C   UNL     1      -5.715  35.790  59.357  1.00  0.00     0.018 A 
ATOM      6  C   UNL     1      -7.054  36.111  59.083  1.00  0.00     0.062 A 
ENDROOT
BRANCH   1   7
ATOM      7  O   UNL     1      -8.833  37.805  58.895  1.00  0.00    -0.493 OA
ATOM      8  C   UNL     1      -9.873  37.822  59.867  1.00  0.00     0.278 C 
ENDBRANCH   1   7
BRANCH   2   9
ATOM      9  O   UNL     1      -7.034  39.776  59.599  1.00  0.00    -0.504 OA
ATOM     10  H   UNL     1      -6.490  40.486  60.073  1.00  0.00     0.293 HD
ENDBRANCH   2   9
BRANCH   5  11
ATOM     11  C   UNL     1      -5.269  34.387  59.268  1.00  0.00     0.260 C 
ATOM     12  O   UNL     1      -4.181  34.084  58.711  1.00  0.00    -0.298 OA
ENDBRANCH   5  11
TORSDOF 3
ENDMDL
MODEL 2
REMARK VINA RESULT:    -5.107      1.215      2.683
REMARK INTER + INTRA:          -5.910
REMARK INTER:                  -5.845
REMARK INTRA:                  -0.064
REMARK UNBOUND:                -0.056
REMARK SMILES COc1cc(C=O)ccc1O
REMARK SMILES IDX 3 1 10 2 9 3 8 4 5 5 4 6 2 7 1 8 11 9 6 11 7 12
REMARK H PARENT 11 10
REMARK Flexibility Score: inf
ROOT
ATOM      1  C   UNL     1      -6.231  38.846  59.891  1.00  0.00     0.161 A 
ATOM      2  C   UNL     1      -7.546  38.674  59.435  1.00  0.00     0.157 A 
ATOM      3  C   UNL     1      -7.994  37.407  59.040  1.00  0.00     0.051 A 
ATOM      4  C   UNL     1      -7.135  36.308  59.098  1.00  0.00     0.015 A 
ATOM      5  C   UNL     1      -5.816  36.462  59.551  1.00  0.00     0.018 A 
ATOM      6  C   UNL     1      -5.369  37.733  59.946  1.00  0.00     0.062 A 
ENDROOT
BRANCH   1   7
ATOM      7  O   UNL     1      -5.820  40.132  60.277  1.00  0.00    -0.493 OA
ATOM      8  C   UNL     1      -5.052  40.417  61.441  1.00  0.00     0.278 C 
ENDBRANCH   1   7
BRANCH   2   9
ATOM      9  O   UNL     1      -8.404  39.771  59.378  1.00  0.00    -0.504 OA
ATOM     10  H   UNL     1      -8.284  40.503  58.688  1.00  0.00     0.293 HD
ENDBRANCH   2   9
BRANCH   5  11
ATOM     11  C   UNL     1      -4.895  35.312  59.618  1.00  0.00     0.260 C 
ATOM     12  O   UNL     1      -5.104  34.271  58.941  1.00  0.00    -0.298 OA
ENDBRANCH   5  11
TORSDOF 3
ENDMDL
MODEL 3
REMARK VINA RESULT:    -4.901      1.462      3.294
REMARK INTER + INTRA:          -5.674
REMARK INTER:                  -5.600
REMARK INTRA:                  -0.073
REMARK UNBOUND:                -0.056
REMARK SMILES COc1cc(C=O)ccc1O
REMARK SMILES IDX 3 1 10 2 9 3 8 4 5 5 4 6 2 7 1 8 11 9 6 11 7 12
REMARK H PARENT 11 10
REMARK Flexibility Score: inf
ROOT
ATOM      1  C   UNL     1      -7.470  37.508  59.265  1.00  0.00     0.161 A 
ATOM      2  C   UNL     1      -6.897  36.244  59.068  1.00  0.00     0.157 A 
ATOM      3  C   UNL     1      -5.554  36.020  59.401  1.00  0.00     0.051 A 
ATOM      4  C   UNL     1      -4.779  37.055  59.930  1.00  0.00     0.015 A 
ATOM      5  C   UNL     1      -5.338  38.326  60.133  1.00  0.00     0.018 A 
ATOM      6  C   UNL     1      -6.684  38.547  59.799  1.00  0.00     0.062 A 
ENDROOT
BRANCH   1   7
ATOM      7  O   UNL     1      -8.819  37.691  58.919  1.00  0.00    -0.493 OA
ATOM      8  C   UNL     1      -9.868  37.913  59.855  1.00  0.00     0.278 C 
ENDBRANCH   1   7
BRANCH   2   9
ATOM      9  O   UNL     1      -7.670  35.210  58.540  1.00  0.00    -0.504 OA
ATOM     10  H   UNL     1      -7.325  34.259  58.497  1.00  0.00     0.293 HD
ENDBRANCH   2   9
BRANCH   5  11
ATOM     11  C   UNL     1      -4.534  39.430  60.691  1.00  0.00     0.260 C 
ATOM     12  O   UNL     1      -4.666  40.609  60.268  1.00  0.00    -0.298 OA
ENDBRANCH   5  11
TORSDOF 3
ENDMDL
MODEL 4
REMARK VINA RESULT:    -4.810      1.588      4.388
REMARK INTER + INTRA:          -5.569
REMARK INTER:                  -5.498
REMARK INTRA:                  -0.071
REMARK UNBOUND:                -0.056
REMARK SMILES COc1cc(C=O)ccc1O
REMARK SMILES IDX 3 1 10 2 9 3 8 4 5 5 4 6 2 7 1 8 11 9 6 11 7 12
REMARK H PARENT 11 10
REMARK Flexibility Score: inf
ROOT
ATOM      1  C   UNL     1      -5.389  35.593  59.115  1.00  0.00     0.161 A 
ATOM      2  C   UNL     1      -6.768  35.694  58.882  1.00  0.00     0.157 A 
ATOM      3  C   UNL     1      -7.445  36.885  59.175  1.00  0.00     0.051 A 
ATOM      4  C   UNL     1      -6.753  37.977  59.702  1.00  0.00     0.015 A 
ATOM      5  C   UNL     1      -5.373  37.892  59.942  1.00  0.00     0.018 A 
ATOM      6  C   UNL     1      -4.696  36.698  59.647  1.00  0.00     0.062 A 
ENDROOT
BRANCH   1   7
ATOM      7  O   UNL     1      -4.747  34.383  58.808  1.00  0.00    -0.493 OA
ATOM      8  C   UNL     1      -4.044  33.582  59.752  1.00  0.00     0.278 C 
ENDBRANCH   1   7
BRANCH   2   9
ATOM      9  O   UNL     1      -7.460  34.605  58.356  1.00  0.00    -0.504 OA
ATOM     10  H   UNL     1      -8.455  34.487  58.503  1.00  0.00     0.293 HD
ENDBRANCH   2   9
BRANCH   5  11
ATOM     11  C   UNL     1      -4.626  39.036  60.499  1.00  0.00     0.260 C 
ATOM     12  O   UNL     1      -4.948  40.221  60.221  1.00  0.00    -0.298 OA
ENDBRANCH   5  11
TORSDOF 3
ENDMDL
MODEL 5
REMARK VINA RESULT:    -4.705     14.374     14.941
REMARK INTER + INTRA:          -5.448
REMARK INTER:                  -5.383
REMARK INTRA:                  -0.065
REMARK UNBOUND:                -0.056
REMARK SMILES COc1cc(C=O)ccc1O
REMARK SMILES IDX 3 1 10 2 9 3 8 4 5 5 4 6 2 7 1 8 11 9 6 11 7 12
REMARK H PARENT 11 10
REMARK Flexibility Score: inf
ROOT
ATOM      1  C   UNL     1     -16.054  26.826  55.719  1.00  0.00     0.161 A 
ATOM      2  C   UNL     1     -15.504  25.543  55.597  1.00  0.00     0.157 A 
ATOM      3  C   UNL     1     -15.044  25.089  54.354  1.00  0.00     0.051 A 
ATOM      4  C   UNL     1     -15.132  25.911  53.229  1.00  0.00     0.015 A 
ATOM      5  C   UNL     1     -15.681  27.199  53.333  1.00  0.00     0.018 A 
ATOM      6  C   UNL     1     -16.141  27.651  54.580  1.00  0.00     0.062 A 
ENDROOT
BRANCH   1   7
ATOM      7  O   UNL     1     -16.504  27.243  56.982  1.00  0.00    -0.493 OA
ATOM      8  C   UNL     1     -17.785  27.811  57.234  1.00  0.00     0.278 C 
ENDBRANCH   1   7
BRANCH   2   9
ATOM      9  O   UNL     1     -15.415  24.721  56.720  1.00  0.00    -0.504 OA
ATOM     10  H   UNL     1     -14.642  24.795  57.371  1.00  0.00     0.293 HD
ENDBRANCH   2   9
BRANCH   5  11
ATOM     11  C   UNL     1     -15.782  28.081  52.155  1.00  0.00     0.260 C 
ATOM     12  O   UNL     1     -14.795  28.266  51.394  1.00  0.00    -0.298 OA
ENDBRANCH   5  11
TORSDOF 3
ENDMDL
MODEL 6
REMARK VINA RESULT:    -4.671      1.938      4.573
REMARK INTER + INTRA:          -5.410
REMARK INTER:                  -5.335
REMARK INTRA:                  -0.075
REMARK UNBOUND:                -0.056
REMARK SMILES COc1cc(C=O)ccc1O
REMARK SMILES IDX 3 1 10 2 9 3 8 4 5 5 4 6 2 7 1 8 11 9 6 11 7 12
REMARK H PARENT 11 10
REMARK Flexibility Score: inf
ROOT
ATOM      1  C   UNL     1      -4.567  36.578  60.806  1.00  0.00     0.161 A 
ATOM      2  C   UNL     1      -4.393  35.279  60.309  1.00  0.00     0.157 A 
ATOM      3  C   UNL     1      -5.310  34.748  59.392  1.00  0.00     0.051 A 
ATOM      4  C   UNL     1      -6.403  35.508  58.970  1.00  0.00     0.015 A 
ATOM      5  C   UNL     1      -6.591  36.810  59.459  1.00  0.00     0.018 A 
ATOM      6  C   UNL     1      -5.671  37.340  60.377  1.00  0.00     0.062 A 
ENDROOT
BRANCH   1   7
ATOM      7  O   UNL     1      -3.625  37.074  61.723  1.00  0.00    -0.493 OA
ATOM      8  C   UNL     1      -2.630  38.043  61.410  1.00  0.00     0.278 C 
ENDBRANCH   1   7
BRANCH   2   9
ATOM      9  O   UNL     1      -3.302  34.520  60.729  1.00  0.00    -0.504 OA
ATOM     10  H   UNL     1      -3.205  33.544  60.475  1.00  0.00     0.293 HD
ENDBRANCH   2   9
BRANCH   5  11
ATOM     11  C   UNL     1      -7.741  37.626  59.024  1.00  0.00     0.260 C 
ATOM     12  O   UNL     1      -8.020  37.758  57.803  1.00  0.00    -0.298 OA
ENDBRANCH   5  11
TORSDOF 3
ENDMDL
MODEL 7
REMARK VINA RESULT:    -4.404      1.268      4.215
REMARK INTER + INTRA:          -5.103
REMARK INTER:                  -5.036
REMARK INTRA:                  -0.067
REMARK UNBOUND:                -0.056
REMARK SMILES COc1cc(C=O)ccc1O
REMARK SMILES IDX 3 1 10 2 9 3 8 4 5 5 4 6 2 7 1 8 11 9 6 11 7 12
REMARK H PARENT 11 10
REMARK Flexibility Score: inf
ROOT
ATOM      1  C   UNL     1      -5.005  36.026  59.194  1.00  0.00     0.161 A 
ATOM      2  C   UNL     1      -4.125  37.004  59.676  1.00  0.00     0.157 A 
ATOM      3  C   UNL     1      -4.617  38.246  60.099  1.00  0.00     0.051 A 
ATOM      4  C   UNL     1      -5.985  38.517  60.041  1.00  0.00     0.015 A 
ATOM      5  C   UNL     1      -6.880  37.548  59.561  1.00  0.00     0.018 A 
ATOM      6  C   UNL     1      -6.385  36.304  59.138  1.00  0.00     0.062 A 
ENDROOT
BRANCH   1   7
ATOM      7  O   UNL     1      -4.472  34.794  58.780  1.00  0.00    -0.493 OA
ATOM      8  C   UNL     1      -4.393  33.634  59.601  1.00  0.00     0.278 C 
ENDBRANCH   1   7
BRANCH   2   9
ATOM      9  O   UNL     1      -2.758  36.734  59.734  1.00  0.00    -0.504 OA
ATOM     10  H   UNL     1      -2.150  37.214  60.387  1.00  0.00     0.293 HD
ENDBRANCH   2   9
BRANCH   5  11
ATOM     11  C   UNL     1      -8.329  37.818  59.493  1.00  0.00     0.260 C 
ATOM     12  O   UNL     1      -8.766  38.922  59.075  1.00  0.00    -0.298 OA
ENDBRANCH   5  11
TORSDOF 3
ENDMDL
MODEL 8
REMARK VINA RESULT:    -4.330     14.747     15.543
REMARK INTER + INTRA:          -5.019
REMARK INTER:                  -4.953
REMARK INTRA:                  -0.066
REMARK UNBOUND:                -0.056
REMARK SMILES COc1cc(C=O)ccc1O
REMARK SMILES IDX 3 1 10 2 9 3 8 4 5 5 4 6 2 7 1 8 11 9 6 11 7 12
REMARK H PARENT 11 10
REMARK Flexibility Score: inf
ROOT
ATOM      1  C   UNL     1     -16.641  26.235  55.260  1.00  0.00     0.161 A 
ATOM      2  C   UNL     1     -16.320  25.847  56.569  1.00  0.00     0.157 A 
ATOM      3  C   UNL     1     -16.903  26.504  57.661  1.00  0.00     0.051 A 
ATOM      4  C   UNL     1     -17.805  27.550  57.452  1.00  0.00     0.015 A 
ATOM      5  C   UNL     1     -18.136  27.950  56.149  1.00  0.00     0.018 A 
ATOM      6  C   UNL     1     -17.552  27.290  55.057  1.00  0.00     0.062 A 
ENDROOT
BRANCH   1   7
ATOM      7  O   UNL     1     -16.035  25.551  54.194  1.00  0.00    -0.493 OA
ATOM      8  C   UNL     1     -15.338  26.182  53.125  1.00  0.00     0.278 C 
ENDBRANCH   1   7
BRANCH   2   9
ATOM      9  O   UNL     1     -15.419  24.803  56.778  1.00  0.00    -0.504 OA
ATOM     10  H   UNL     1     -14.691  24.589  56.107  1.00  0.00     0.293 HD
ENDBRANCH   2   9
BRANCH   5  11
ATOM     11  C   UNL     1     -19.087  29.052  55.911  1.00  0.00     0.260 C 
ATOM     12  O   UNL     1     -18.916  30.184  56.436  1.00  0.00    -0.298 OA
ENDBRANCH   5  11
TORSDOF 3
ENDMDL
MODEL 9
REMARK VINA RESULT:    -4.228      2.250      4.120
REMARK INTER + INTRA:          -4.902
REMARK INTER:                  -4.840
REMARK INTRA:                  -0.062
REMARK UNBOUND:                -0.056
REMARK SMILES COc1cc(C=O)ccc1O
REMARK SMILES IDX 3 1 10 2 9 3 8 4 5 5 4 6 2 7 1 8 11 9 6 11 7 12
REMARK H PARENT 11 10
REMARK Flexibility Score: inf
ROOT
ATOM      1  C   UNL     1      -4.789  38.727  60.902  1.00  0.00     0.161 A 
ATOM      2  C   UNL     1      -4.041  37.547  61.017  1.00  0.00     0.157 A 
ATOM      3  C   UNL     1      -4.513  36.356  60.449  1.00  0.00     0.051 A 
ATOM      4  C   UNL     1      -5.731  36.337  59.766  1.00  0.00     0.015 A 
ATOM      5  C   UNL     1      -6.492  37.510  59.642  1.00  0.00     0.018 A 
ATOM      6  C   UNL     1      -6.017  38.702  60.212  1.00  0.00     0.062 A 
ENDROOT
BRANCH   1   7
ATOM      7  O   UNL     1      -4.282  39.899  61.486  1.00  0.00    -0.493 OA
ATOM      8  C   UNL     1      -4.185  41.154  60.820  1.00  0.00     0.278 C 
ENDBRANCH   1   7
BRANCH   2   9
ATOM      9  O   UNL     1      -2.825  37.565  61.699  1.00  0.00    -0.504 OA
ATOM     10  H   UNL     1      -2.769  37.361  62.690  1.00  0.00     0.293 HD
ENDBRANCH   2   9
BRANCH   5  11
ATOM     11  C   UNL     1      -7.780  37.507  58.924  1.00  0.00     0.260 C 
ATOM     12  O   UNL     1      -7.838  37.751  57.690  1.00  0.00    -0.298 OA
ENDBRANCH   5  11
TORSDOF 3
ENDMDL
