MODEL 1
REMARK VINA RESULT:    -4.872      0.000      0.000
REMARK INTER + INTRA:          -5.714
REMARK INTER:                  -5.441
REMARK INTRA:                  -0.273
REMARK UNBOUND:                -0.273
REMARK SMILES CC1(C)CC[C@]2(C(=O)[O-])[C@H](C1)C1=CC[C@@H]3[C@]4(C)CC[C@H](O)C(C)(C)[C@@H]4CC[C@@]3(C)[C@]1(C)C[C@@H]2O
REMARK SMILES IDX 6 1 5 2 10 3 33 4 4 5 11 6 12 7 32 8 2 9 13 10 30 11 1 12
REMARK SMILES IDX 3 13 14 14 28 15 31 16 15 17 27 18 29 19 16 20 26 21 18 22
REMARK SMILES IDX 17 23 25 24 19 25 22 26 20 27 23 28 24 29 7 30 8 31 9 32
REMARK SMILES IDX 34 33 21 35
REMARK H PARENT 34 34 21 36
REMARK Flexibility Score: inf
ROOT
ATOM      1  C   UNL     1      -3.637  52.098  19.920  1.00  0.00     0.042 C 
ATOM      2  C   UNL     1      -4.164  52.747  18.555  1.00  0.00     0.017 C 
ATOM      3  C   UNL     1      -3.635  53.092  21.221  1.00  0.00     0.030 C 
ATOM      4  C   UNL     1      -2.229  51.481  19.602  1.00  0.00     0.127 C 
ATOM      5  C   UNL     1      -4.930  54.034  18.752  1.00  0.00     0.007 C 
ATOM      6  C   UNL     1      -3.968  54.646  20.946  1.00  0.00     0.015 C 
ATOM      7  C   UNL     1      -2.478  52.873  22.271  1.00  0.00    -0.063 C 
ATOM      8  C   UNL     1      -1.508  50.919  20.830  1.00  0.00     0.044 C 
ATOM      9  C   UNL     1      -4.062  55.109  19.466  1.00  0.00    -0.035 C 
ATOM     10  C   UNL     1      -2.407  53.720  23.360  1.00  0.00    -0.027 C 
ATOM     11  C   UNL     1      -1.370  51.812  22.117  1.00  0.00    -0.003 C 
ATOM     12  C   UNL     1      -4.686  56.560  19.331  1.00  0.00     0.011 C 
ATOM     13  C   UNL     1      -2.621  55.225  18.885  1.00  0.00     0.011 C 
ATOM     14  C   UNL     1      -1.103  54.213  23.953  1.00  0.00     0.032 C 
ATOM     15  C   UNL     1       0.017  52.638  22.237  1.00  0.00    -0.020 C 
ATOM     16  C   UNL     1      -1.530  50.800  23.303  1.00  0.00     0.017 C 
ATOM     17  C   UNL     1       0.136  53.314  23.678  1.00  0.00     0.006 C 
ATOM     18  C   UNL     1       1.324  51.814  22.017  1.00  0.00     0.008 C 
ATOM     19  C   UNL     1      -0.009  53.705  21.126  1.00  0.00     0.012 C 
ATOM     20  C   UNL     1       1.632  53.775  24.162  1.00  0.00    -0.025 C 
ATOM     21  C   UNL     1       2.616  52.711  21.979  1.00  0.00     0.005 C 
ATOM     22  C   UNL     1       1.785  55.085  25.061  1.00  0.00     0.010 C 
ATOM     23  C   UNL     1       2.202  52.625  25.125  1.00  0.00     0.012 C 
ATOM     24  C   UNL     1       2.624  53.966  22.942  1.00  0.00     0.003 C 
ATOM     25  C   UNL     1       1.359  56.413  24.433  1.00  0.00     0.033 C 
ATOM     26  C   UNL     1       2.776  55.490  22.362  1.00  0.00    -0.006 C 
ATOM     27  C   UNL     1       1.658  56.526  22.918  1.00  0.00     0.120 C 
ATOM     28  C   UNL     1       4.160  56.047  22.827  1.00  0.00     0.014 C 
ATOM     29  C   UNL     1       2.824  55.628  20.801  1.00  0.00     0.014 C 
ENDROOT
BRANCH   1  30
ATOM     30  C   UNL     1      -4.639  50.981  20.211  1.00  0.00     0.051 C 
ATOM     31  O   UNL     1      -5.124  50.816  21.353  1.00  0.00    -0.549 OA
ATOM     32  O   UNL     1      -5.042  50.117  19.177  1.00  0.00    -0.549 OA
ENDBRANCH   1  30
BRANCH   4  33
ATOM     33  O   UNL     1      -1.383  52.364  18.916  1.00  0.00    -0.392 OA
ATOM     34  H   UNL     1      -0.978  51.898  18.119  1.00  0.00     0.210 HD
ENDBRANCH   4  33
BRANCH  27  35
ATOM     35  O   UNL     1       0.430  56.463  22.234  1.00  0.00    -0.393 OA
ATOM     36  H   UNL     1      -0.130  55.799  22.707  1.00  0.00     0.210 HD
ENDBRANCH  27  35
TORSDOF 3
ENDMDL
MODEL 2
REMARK VINA RESULT:    -3.926      1.890      6.875
REMARK INTER + INTRA:          -4.658
REMARK INTER:                  -4.417
REMARK INTRA:                  -0.241
REMARK UNBOUND:                -0.273
REMARK SMILES CC1(C)CC[C@]2(C(=O)[O-])[C@H](C1)C1=CC[C@@H]3[C@]4(C)CC[C@H](O)C(C)(C)[C@@H]4CC[C@@]3(C)[C@]1(C)C[C@@H]2O
REMARK SMILES IDX 6 1 5 2 10 3 33 4 4 5 11 6 12 7 32 8 2 9 13 10 30 11 1 12
REMARK SMILES IDX 3 13 14 14 28 15 31 16 15 17 27 18 29 19 16 20 26 21 18 22
REMARK SMILES IDX 17 23 25 24 19 25 22 26 20 27 23 28 24 29 7 30 8 31 9 32
REMARK SMILES IDX 34 33 21 35
REMARK H PARENT 34 34 21 36
REMARK Flexibility Score: inf
ROOT
ATOM      1  C   UNL     1       0.968  55.241  23.494  1.00  0.00     0.042 C 
ATOM      2  C   UNL     1       0.717  55.729  24.997  1.00  0.00     0.017 C 
ATOM      3  C   UNL     1      -0.220  55.599  22.426  1.00  0.00     0.030 C 
ATOM      4  C   UNL     1       1.294  53.708  23.574  1.00  0.00     0.127 C 
ATOM      5  C   UNL     1      -0.375  56.765  25.124  1.00  0.00     0.007 C 
ATOM      6  C   UNL     1      -1.580  56.215  23.036  1.00  0.00     0.015 C 
ATOM      7  C   UNL     1      -0.467  54.553  21.271  1.00  0.00    -0.063 C 
ATOM      8  C   UNL     1       1.444  53.033  22.208  1.00  0.00     0.044 C 
ATOM      9  C   UNL     1      -1.732  56.231  24.582  1.00  0.00    -0.035 C 
ATOM     10  C   UNL     1      -1.493  54.789  20.376  1.00  0.00    -0.027 C 
ATOM     11  C   UNL     1       0.323  53.237  21.123  1.00  0.00    -0.003 C 
ATOM     12  C   UNL     1      -2.952  57.125  25.056  1.00  0.00     0.011 C 
ATOM     13  C   UNL     1      -2.066  54.788  25.067  1.00  0.00     0.011 C 
ATOM     14  C   UNL     1      -2.370  53.695  19.801  1.00  0.00     0.032 C 
ATOM     15  C   UNL     1      -0.805  52.078  21.073  1.00  0.00    -0.020 C 
ATOM     16  C   UNL     1       1.111  53.319  19.771  1.00  0.00     0.017 C 
ATOM     17  C   UNL     1      -1.742  52.272  19.795  1.00  0.00     0.006 C 
ATOM     18  C   UNL     1      -0.275  50.610  21.024  1.00  0.00     0.008 C 
ATOM     19  C   UNL     1      -1.616  52.196  22.377  1.00  0.00     0.012 C 
ATOM     20  C   UNL     1      -2.613  50.973  19.307  1.00  0.00    -0.025 C 
ATOM     21  C   UNL     1      -1.421  49.539  21.149  1.00  0.00     0.005 C 
ATOM     22  C   UNL     1      -4.065  51.204  18.686  1.00  0.00     0.010 C 
ATOM     23  C   UNL     1      -1.819  50.291  18.091  1.00  0.00     0.012 C 
ATOM     24  C   UNL     1      -2.800  49.907  20.464  1.00  0.00     0.003 C 
ATOM     25  C   UNL     1      -5.123  51.822  19.601  1.00  0.00     0.033 C 
ATOM     26  C   UNL     1      -4.186  50.010  21.330  1.00  0.00    -0.006 C 
ATOM     27  C   UNL     1      -5.022  51.378  21.080  1.00  0.00     0.120 C 
ATOM     28  C   UNL     1      -5.119  48.838  20.888  1.00  0.00     0.014 C 
ATOM     29  C   UNL     1      -4.043  49.810  22.878  1.00  0.00     0.014 C 
ENDROOT
BRANCH   1  30
ATOM     30  C   UNL     1       2.212  56.014  23.055  1.00  0.00     0.051 C 
ATOM     31  O   UNL     1       2.405  56.321  21.857  1.00  0.00    -0.549 OA
ATOM     32  O   UNL     1       3.164  56.405  24.012  1.00  0.00    -0.549 OA
ENDBRANCH   1  30
BRANCH   4  33
ATOM     33  O   UNL     1       0.383  52.991  24.362  1.00  0.00    -0.392 OA
ATOM     34  H   UNL     1       0.280  52.056  23.999  1.00  0.00     0.210 HD
ENDBRANCH   4  33
BRANCH  27  35
ATOM     35  O   UNL     1      -4.557  52.477  21.826  1.00  0.00    -0.393 OA
ATOM     36  H   UNL     1      -5.123  53.251  21.583  1.00  0.00     0.210 HD
ENDBRANCH  27  35
TORSDOF 3
ENDMDL
MODEL 3
REMARK VINA RESULT:    -3.531      1.950      4.157
REMARK INTER + INTRA:          -4.217
REMARK INTER:                  -3.962
REMARK INTRA:                  -0.255
REMARK UNBOUND:                -0.273
REMARK SMILES CC1(C)CC[C@]2(C(=O)[O-])[C@H](C1)C1=CC[C@@H]3[C@]4(C)CC[C@H](O)C(C)(C)[C@@H]4CC[C@@]3(C)[C@]1(C)C[C@@H]2O
REMARK SMILES IDX 6 1 5 2 10 3 33 4 4 5 11 6 12 7 32 8 2 9 13 10 30 11 1 12
REMARK SMILES IDX 3 13 14 14 28 15 31 16 15 17 27 18 29 19 16 20 26 21 18 22
REMARK SMILES IDX 17 23 25 24 19 25 22 26 20 27 23 28 24 29 7 30 8 31 9 32
REMARK SMILES IDX 34 33 21 35
REMARK H PARENT 34 34 21 36
REMARK Flexibility Score: inf
ROOT
ATOM      1  C   UNL     1      -3.884  50.543  20.919  1.00  0.00     0.042 C 
ATOM      2  C   UNL     1      -5.125  50.119  21.836  1.00  0.00     0.017 C 
ATOM      3  C   UNL     1      -2.409  50.107  21.479  1.00  0.00     0.030 C 
ATOM      4  C   UNL     1      -4.025  52.086  20.670  1.00  0.00     0.127 C 
ATOM      5  C   UNL     1      -4.788  49.062  22.861  1.00  0.00     0.007 C 
ATOM      6  C   UNL     1      -2.354  49.485  22.966  1.00  0.00     0.015 C 
ATOM      7  C   UNL     1      -1.217  51.092  21.166  1.00  0.00    -0.063 C 
ATOM      8  C   UNL     1      -2.849  52.702  19.907  1.00  0.00     0.044 C 
ATOM      9  C   UNL     1      -3.654  49.536  23.815  1.00  0.00    -0.035 C 
ATOM     10  C   UNL     1       0.037  50.790  21.661  1.00  0.00    -0.027 C 
ATOM     11  C   UNL     1      -1.382  52.420  20.400  1.00  0.00    -0.003 C 
ATOM     12  C   UNL     1      -3.558  48.633  25.115  1.00  0.00     0.011 C 
ATOM     13  C   UNL     1      -3.854  50.990  24.338  1.00  0.00     0.011 C 
ATOM     14  C   UNL     1       1.008  51.833  22.175  1.00  0.00     0.032 C 
ATOM     15  C   UNL     1      -0.756  53.546  21.378  1.00  0.00    -0.020 C 
ATOM     16  C   UNL     1      -0.552  52.296  19.076  1.00  0.00     0.017 C 
ATOM     17  C   UNL     1       0.798  53.270  21.618  1.00  0.00     0.006 C 
ATOM     18  C   UNL     1      -0.880  55.023  20.888  1.00  0.00     0.008 C 
ATOM     19  C   UNL     1      -1.543  53.467  22.701  1.00  0.00     0.012 C 
ATOM     20  C   UNL     1       1.700  54.523  22.167  1.00  0.00    -0.025 C 
ATOM     21  C   UNL     1      -0.406  56.069  21.964  1.00  0.00     0.005 C 
ATOM     22  C   UNL     1       2.908  54.226  23.167  1.00  0.00     0.010 C 
ATOM     23  C   UNL     1       2.447  55.168  20.902  1.00  0.00     0.012 C 
ATOM     24  C   UNL     1       0.818  55.635  22.869  1.00  0.00     0.003 C 
ATOM     25  C   UNL     1       2.554  53.624  24.528  1.00  0.00     0.033 C 
ATOM     26  C   UNL     1       0.685  55.536  24.499  1.00  0.00    -0.006 C 
ATOM     27  C   UNL     1       1.220  54.137  25.123  1.00  0.00     0.120 C 
ATOM     28  C   UNL     1       1.568  56.663  25.124  1.00  0.00     0.014 C 
ATOM     29  C   UNL     1      -0.742  55.810  25.088  1.00  0.00     0.014 C 
ENDROOT
BRANCH   1  30
ATOM     30  C   UNL     1      -4.110  49.784  19.613  1.00  0.00     0.051 C 
ATOM     31  O   UNL     1      -3.458  48.753  19.332  1.00  0.00    -0.549 OA
ATOM     32  O   UNL     1      -5.078  50.237  18.700  1.00  0.00    -0.549 OA
ENDBRANCH   1  30
BRANCH   4  33
ATOM     33  O   UNL     1      -4.265  52.815  21.843  1.00  0.00    -0.392 OA
ATOM     34  H   UNL     1      -5.224  53.125  21.863  1.00  0.00     0.210 HD
ENDBRANCH   4  33
BRANCH  27  35
ATOM     35  O   UNL     1       0.287  53.085  25.053  1.00  0.00    -0.393 OA
ATOM     36  H   UNL     1      -0.366  53.326  24.350  1.00  0.00     0.210 HD
ENDBRANCH  27  35
TORSDOF 3
ENDMDL
MODEL 4
REMARK VINA RESULT:    -3.461      2.058      4.111
REMARK INTER + INTRA:          -4.138
REMARK INTER:                  -4.129
REMARK INTRA:                  -0.009
REMARK UNBOUND:                -0.273
REMARK SMILES CC1(C)CC[C@]2(C(=O)[O-])[C@H](C1)C1=CC[C@@H]3[C@]4(C)CC[C@H](O)C(C)(C)[C@@H]4CC[C@@]3(C)[C@]1(C)C[C@@H]2O
REMARK SMILES IDX 6 1 5 2 10 3 33 4 4 5 11 6 12 7 32 8 2 9 13 10 30 11 1 12
REMARK SMILES IDX 3 13 14 14 28 15 31 16 15 17 27 18 29 19 16 20 26 21 18 22
REMARK SMILES IDX 17 23 25 24 19 25 22 26 20 27 23 28 24 29 7 30 8 31 9 32
REMARK SMILES IDX 34 33 21 35
REMARK H PARENT 34 34 21 36
REMARK Flexibility Score: inf
ROOT
ATOM      1  C   UNL     1      -3.651  49.904  20.432  1.00  0.00     0.042 C 
ATOM      2  C   UNL     1      -5.119  49.596  20.990  1.00  0.00     0.017 C 
ATOM      3  C   UNL     1      -2.429  49.691  21.501  1.00  0.00     0.030 C 
ATOM      4  C   UNL     1      -3.702  51.350  19.823  1.00  0.00     0.127 C 
ATOM      5  C   UNL     1      -5.125  48.798  22.272  1.00  0.00     0.007 C 
ATOM      6  C   UNL     1      -2.848  49.394  23.030  1.00  0.00     0.015 C 
ATOM      7  C   UNL     1      -1.197  50.667  21.365  1.00  0.00    -0.063 C 
ATOM      8  C   UNL     1      -2.343  51.872  19.347  1.00  0.00     0.044 C 
ATOM      9  C   UNL     1      -4.349  49.532  23.403  1.00  0.00    -0.035 C 
ATOM     10  C   UNL     1      -0.165  50.557  22.277  1.00  0.00    -0.027 C 
ATOM     11  C   UNL     1      -1.108  51.795  20.318  1.00  0.00    -0.003 C 
ATOM     12  C   UNL     1      -4.671  48.925  24.832  1.00  0.00     0.011 C 
ATOM     13  C   UNL     1      -4.701  51.046  23.510  1.00  0.00     0.011 C 
ATOM     14  C   UNL     1       0.596  51.746  22.827  1.00  0.00     0.032 C 
ATOM     15  C   UNL     1      -0.821  53.138  21.174  1.00  0.00    -0.020 C 
ATOM     16  C   UNL     1       0.097  51.456  19.375  1.00  0.00     0.017 C 
ATOM     17  C   UNL     1       0.577  53.021  21.936  1.00  0.00     0.006 C 
ATOM     18  C   UNL     1      -0.781  54.470  20.362  1.00  0.00     0.008 C 
ATOM     19  C   UNL     1      -1.986  53.280  22.172  1.00  0.00     0.012 C 
ATOM     20  C   UNL     1       1.262  54.416  22.452  1.00  0.00    -0.025 C 
ATOM     21  C   UNL     1      -0.668  55.745  21.278  1.00  0.00     0.005 C 
ATOM     22  C   UNL     1       2.092  54.413  23.815  1.00  0.00     0.010 C 
ATOM     23  C   UNL     1       2.372  54.835  21.371  1.00  0.00     0.012 C 
ATOM     24  C   UNL     1       0.206  55.588  22.589  1.00  0.00     0.003 C 
ATOM     25  C   UNL     1       1.324  54.082  25.096  1.00  0.00     0.033 C 
ATOM     26  C   UNL     1      -0.435  55.818  24.078  1.00  0.00    -0.006 C 
ATOM     27  C   UNL     1      -0.128  54.617  25.124  1.00  0.00     0.120 C 
ATOM     28  C   UNL     1       0.207  57.106  24.686  1.00  0.00     0.014 C 
ATOM     29  C   UNL     1      -1.975  56.113  24.124  1.00  0.00     0.014 C 
ENDROOT
BRANCH   1  30
ATOM     30  C   UNL     1      -3.454  48.879  19.316  1.00  0.00     0.051 C 
ATOM     31  O   UNL     1      -3.420  49.217  18.112  1.00  0.00    -0.549 OA
ATOM     32  O   UNL     1      -3.293  47.519  19.638  1.00  0.00    -0.549 OA
ENDBRANCH   1  30
BRANCH   4  33
ATOM     33  O   UNL     1      -4.299  52.287  20.678  1.00  0.00    -0.392 OA
ATOM     34  H   UNL     1      -4.171  53.216  20.309  1.00  0.00     0.210 HD
ENDBRANCH   4  33
BRANCH  27  35
ATOM     35  O   UNL     1      -0.993  53.514  24.998  1.00  0.00    -0.393 OA
ATOM     36  H   UNL     1      -1.278  53.477  24.052  1.00  0.00     0.210 HD
ENDBRANCH  27  35
TORSDOF 3
ENDMDL
MODEL 5
REMARK VINA RESULT:    -2.961      2.383      3.967
REMARK INTER + INTRA:          -3.580
REMARK INTER:                  -3.734
REMARK INTRA:                   0.154
REMARK UNBOUND:                -0.273
REMARK SMILES CC1(C)CC[C@]2(C(=O)[O-])[C@H](C1)C1=CC[C@@H]3[C@]4(C)CC[C@H](O)C(C)(C)[C@@H]4CC[C@@]3(C)[C@]1(C)C[C@@H]2O
REMARK SMILES IDX 6 1 5 2 10 3 33 4 4 5 11 6 12 7 32 8 2 9 13 10 30 11 1 12
REMARK SMILES IDX 3 13 14 14 28 15 31 16 15 17 27 18 29 19 16 20 26 21 18 22
REMARK SMILES IDX 17 23 25 24 19 25 22 26 20 27 23 28 24 29 7 30 8 31 9 32
REMARK SMILES IDX 34 33 21 35
REMARK H PARENT 34 34 21 36
REMARK Flexibility Score: inf
ROOT
ATOM      1  C   UNL     1      -3.684  48.980  20.297  1.00  0.00     0.042 C 
ATOM      2  C   UNL     1      -3.078  48.389  18.938  1.00  0.00     0.017 C 
ATOM      3  C   UNL     1      -4.536  50.369  20.146  1.00  0.00     0.030 C 
ATOM      4  C   UNL     1      -2.485  49.089  21.305  1.00  0.00     0.127 C 
ATOM      5  C   UNL     1      -3.699  48.976  17.692  1.00  0.00     0.007 C 
ATOM      6  C   UNL     1      -4.504  51.085  18.701  1.00  0.00     0.015 C 
ATOM      7  C   UNL     1      -4.449  51.383  21.351  1.00  0.00    -0.063 C 
ATOM      8  C   UNL     1      -2.851  49.758  22.633  1.00  0.00     0.044 C 
ATOM      9  C   UNL     1      -3.519  50.521  17.641  1.00  0.00    -0.035 C 
ATOM     10  C   UNL     1      -5.113  52.590  21.247  1.00  0.00    -0.027 C 
ATOM     11  C   UNL     1      -3.602  51.139  22.617  1.00  0.00    -0.003 C 
ATOM     12  C   UNL     1      -3.798  51.101  16.193  1.00  0.00     0.011 C 
ATOM     13  C   UNL     1      -2.076  50.986  18.000  1.00  0.00     0.011 C 
ATOM     14  C   UNL     1      -4.566  53.895  21.790  1.00  0.00     0.032 C 
ATOM     15  C   UNL     1      -2.650  52.442  22.737  1.00  0.00    -0.020 C 
ATOM     16  C   UNL     1      -4.594  51.049  23.827  1.00  0.00     0.017 C 
ATOM     17  C   UNL     1      -3.532  53.756  22.944  1.00  0.00     0.006 C 
ATOM     18  C   UNL     1      -1.602  52.418  23.894  1.00  0.00     0.008 C 
ATOM     19  C   UNL     1      -1.841  52.519  21.428  1.00  0.00     0.012 C 
ATOM     20  C   UNL     1      -2.773  55.074  23.554  1.00  0.00    -0.025 C 
ATOM     21  C   UNL     1      -0.603  53.633  23.844  1.00  0.00     0.005 C 
ATOM     22  C   UNL     1      -3.222  56.523  23.059  1.00  0.00     0.010 C 
ATOM     23  C   UNL     1      -3.094  55.128  25.125  1.00  0.00     0.012 C 
ATOM     24  C   UNL     1      -1.204  55.011  23.348  1.00  0.00     0.003 C 
ATOM     25  C   UNL     1      -3.023  56.846  21.578  1.00  0.00     0.033 C 
ATOM     26  C   UNL     1      -0.614  55.777  22.026  1.00  0.00    -0.006 C 
ATOM     27  C   UNL     1      -1.750  56.223  20.956  1.00  0.00     0.120 C 
ATOM     28  C   UNL     1       0.083  57.091  22.501  1.00  0.00     0.014 C 
ATOM     29  C   UNL     1       0.513  55.020  21.242  1.00  0.00     0.014 C 
ENDROOT
BRANCH   1  30
ATOM     30  C   UNL     1      -4.661  47.904  20.768  1.00  0.00     0.051 C 
ATOM     31  O   UNL     1      -5.095  47.025  19.989  1.00  0.00    -0.549 OA
ATOM     32  O   UNL     1      -5.081  47.881  22.109  1.00  0.00    -0.549 OA
ENDBRANCH   1  30
BRANCH   4  33
ATOM     33  O   UNL     1      -1.357  49.712  20.754  1.00  0.00    -0.392 OA
ATOM     34  H   UNL     1      -1.108  49.262  19.887  1.00  0.00     0.210 HD
ENDBRANCH   4  33
BRANCH  27  35
ATOM     35  O   UNL     1      -2.157  55.190  20.091  1.00  0.00    -0.393 OA
ATOM     36  H   UNL     1      -1.713  55.351  19.222  1.00  0.00     0.210 HD
ENDBRANCH  27  35
TORSDOF 3
ENDMDL
MODEL 6
REMARK VINA RESULT:    -2.401      2.259      4.773
REMARK INTER + INTRA:          -2.955
REMARK INTER:                  -2.884
REMARK INTRA:                  -0.070
REMARK UNBOUND:                -0.273
REMARK SMILES CC1(C)CC[C@]2(C(=O)[O-])[C@H](C1)C1=CC[C@@H]3[C@]4(C)CC[C@H](O)C(C)(C)[C@@H]4CC[C@@]3(C)[C@]1(C)C[C@@H]2O
REMARK SMILES IDX 6 1 5 2 10 3 33 4 4 5 11 6 12 7 32 8 2 9 13 10 30 11 1 12
REMARK SMILES IDX 3 13 14 14 28 15 31 16 15 17 27 18 29 19 16 20 26 21 18 22
REMARK SMILES IDX 17 23 25 24 19 25 22 26 20 27 23 28 24 29 7 30 8 31 9 32
REMARK SMILES IDX 34 33 21 35
REMARK H PARENT 34 34 21 36
REMARK Flexibility Score: inf
ROOT
ATOM      1  C   UNL     1      -3.794  49.621  19.435  1.00  0.00     0.042 C 
ATOM      2  C   UNL     1      -5.119  48.824  19.849  1.00  0.00     0.017 C 
ATOM      3  C   UNL     1      -2.563  49.553  20.512  1.00  0.00     0.030 C 
ATOM      4  C   UNL     1      -4.246  51.085  19.097  1.00  0.00     0.127 C 
ATOM      5  C   UNL     1      -4.904  47.826  20.963  1.00  0.00     0.007 C 
ATOM      6  C   UNL     1      -2.884  48.868  21.937  1.00  0.00     0.015 C 
ATOM      7  C   UNL     1      -1.652  50.835  20.622  1.00  0.00    -0.063 C 
ATOM      8  C   UNL     1      -3.086  52.039  18.797  1.00  0.00     0.044 C 
ATOM      9  C   UNL     1      -4.364  48.518  22.248  1.00  0.00    -0.035 C 
ATOM     10  C   UNL     1      -0.630  50.842  21.553  1.00  0.00    -0.027 C 
ATOM     11  C   UNL     1      -1.880  52.122  19.802  1.00  0.00    -0.003 C 
ATOM     12  C   UNL     1      -4.506  47.587  23.524  1.00  0.00     0.011 C 
ATOM     13  C   UNL     1      -5.125  49.829  22.609  1.00  0.00     0.011 C 
ATOM     14  C   UNL     1      -0.231  52.067  22.349  1.00  0.00     0.032 C 
ATOM     15  C   UNL     1      -1.979  53.304  20.902  1.00  0.00    -0.020 C 
ATOM     16  C   UNL     1      -0.627  52.310  18.880  1.00  0.00     0.017 C 
ATOM     17  C   UNL     1      -0.604  53.432  21.704  1.00  0.00     0.006 C 
ATOM     18  C   UNL     1      -2.310  54.726  20.348  1.00  0.00     0.008 C 
ATOM     19  C   UNL     1      -3.138  52.932  21.846  1.00  0.00     0.012 C 
ATOM     20  C   UNL     1      -0.336  54.839  22.500  1.00  0.00    -0.025 C 
ATOM     21  C   UNL     1      -2.559  55.785  21.485  1.00  0.00     0.005 C 
ATOM     22  C   UNL     1       0.460  54.805  23.883  1.00  0.00     0.010 C 
ATOM     23  C   UNL     1       0.614  55.741  21.575  1.00  0.00     0.012 C 
ATOM     24  C   UNL     1      -1.677  55.629  22.790  1.00  0.00     0.003 C 
ATOM     25  C   UNL     1      -0.185  54.040  25.039  1.00  0.00     0.033 C 
ATOM     26  C   UNL     1      -2.358  55.389  24.260  1.00  0.00    -0.006 C 
ATOM     27  C   UNL     1      -1.730  54.142  25.086  1.00  0.00     0.120 C 
ATOM     28  C   UNL     1      -2.101  56.664  25.125  1.00  0.00     0.014 C 
ATOM     29  C   UNL     1      -3.919  55.238  24.276  1.00  0.00     0.014 C 
ENDROOT
BRANCH   1  30
ATOM     30  C   UNL     1      -3.318  48.919  18.165  1.00  0.00     0.051 C 
ATOM     31  O   UNL     1      -2.248  49.238  17.600  1.00  0.00    -0.549 OA
ATOM     32  O   UNL     1      -4.086  47.879  17.612  1.00  0.00    -0.549 OA
ENDBRANCH   1  30
BRANCH   4  33
ATOM     33  O   UNL     1      -5.081  51.645  20.075  1.00  0.00    -0.392 OA
ATOM     34  H   UNL     1      -4.982  52.648  20.075  1.00  0.00     0.210 HD
ENDBRANCH   4  33
BRANCH  27  35
ATOM     35  O   UNL     1      -2.253  52.889  24.716  1.00  0.00    -0.393 OA
ATOM     36  H   UNL     1      -2.127  52.801  23.739  1.00  0.00     0.210 HD
ENDBRANCH  27  35
TORSDOF 3
ENDMDL
MODEL 7
REMARK VINA RESULT:    -2.101      2.417      6.700
REMARK INTER + INTRA:          -2.619
REMARK INTER:                  -2.483
REMARK INTRA:                  -0.136
REMARK UNBOUND:                -0.273
REMARK SMILES CC1(C)CC[C@]2(C(=O)[O-])[C@H](C1)C1=CC[C@@H]3[C@]4(C)CC[C@H](O)C(C)(C)[C@@H]4CC[C@@]3(C)[C@]1(C)C[C@@H]2O
REMARK SMILES IDX 6 1 5 2 10 3 33 4 4 5 11 6 12 7 32 8 2 9 13 10 30 11 1 12
REMARK SMILES IDX 3 13 14 14 28 15 31 16 15 17 27 18 29 19 16 20 26 21 18 22
REMARK SMILES IDX 17 23 25 24 19 25 22 26 20 27 23 28 24 29 7 30 8 31 9 32
REMARK SMILES IDX 34 33 21 35
REMARK H PARENT 34 34 21 36
REMARK Flexibility Score: inf
ROOT
ATOM      1  C   UNL     1       2.404  52.767  23.974  1.00  0.00     0.042 C 
ATOM      2  C   UNL     1       3.202  53.639  25.053  1.00  0.00     0.017 C 
ATOM      3  C   UNL     1       2.350  53.389  22.461  1.00  0.00     0.030 C 
ATOM      4  C   UNL     1       0.986  52.494  24.588  1.00  0.00     0.127 C 
ATOM      5  C   UNL     1       4.099  54.689  24.440  1.00  0.00     0.007 C 
ATOM      6  C   UNL     1       2.925  54.885  22.272  1.00  0.00     0.015 C 
ATOM      7  C   UNL     1       1.037  53.111  21.632  1.00  0.00    -0.063 C 
ATOM      8  C   UNL     1       0.027  51.770  23.637  1.00  0.00     0.044 C 
ATOM      9  C   UNL     1       3.290  55.681  23.554  1.00  0.00    -0.035 C 
ATOM     10  C   UNL     1       0.926  53.659  20.369  1.00  0.00    -0.027 C 
ATOM     11  C   UNL     1      -0.171  52.324  22.178  1.00  0.00    -0.003 C 
ATOM     12  C   UNL     1       4.117  56.994  23.230  1.00  0.00     0.011 C 
ATOM     13  C   UNL     1       1.975  56.178  24.228  1.00  0.00     0.011 C 
ATOM     14  C   UNL     1      -0.371  54.198  19.801  1.00  0.00     0.032 C 
ATOM     15  C   UNL     1      -1.436  53.313  21.983  1.00  0.00    -0.020 C 
ATOM     16  C   UNL     1      -0.319  51.035  21.299  1.00  0.00     0.017 C 
ATOM     17  C   UNL     1      -1.668  53.617  20.433  1.00  0.00     0.006 C 
ATOM     18  C   UNL     1      -2.798  52.800  22.549  1.00  0.00     0.008 C 
ATOM     19  C   UNL     1      -1.109  54.604  22.757  1.00  0.00     0.012 C 
ATOM     20  C   UNL     1      -3.142  54.186  19.998  1.00  0.00    -0.025 C 
ATOM     21  C   UNL     1      -3.939  53.882  22.476  1.00  0.00     0.005 C 
ATOM     22  C   UNL     1      -3.243  55.236  18.801  1.00  0.00     0.010 C 
ATOM     23  C   UNL     1      -3.992  52.943  19.444  1.00  0.00     0.012 C 
ATOM     24  C   UNL     1      -3.915  54.839  21.216  1.00  0.00     0.003 C 
ATOM     25  C   UNL     1      -2.557  56.588  19.001  1.00  0.00     0.033 C 
ATOM     26  C   UNL     1      -3.777  56.463  21.377  1.00  0.00    -0.006 C 
ATOM     27  C   UNL     1      -2.619  57.125  20.451  1.00  0.00     0.120 C 
ATOM     28  C   UNL     1      -5.125  57.109  20.924  1.00  0.00     0.014 C 
ATOM     29  C   UNL     1      -3.583  56.993  22.840  1.00  0.00     0.014 C 
ENDROOT
BRANCH   1  30
ATOM     30  C   UNL     1       3.194  51.462  23.894  1.00  0.00     0.051 C 
ATOM     31  O   UNL     1       4.081  51.178  24.730  1.00  0.00    -0.549 OA
ATOM     32  O   UNL     1       2.921  50.542  22.866  1.00  0.00    -0.549 OA
ENDBRANCH   1  30
BRANCH   4  33
ATOM     33  O   UNL     1       0.372  53.648  25.094  1.00  0.00    -0.392 OA
ATOM     34  H   UNL     1       0.038  54.219  24.333  1.00  0.00     0.210 HD
ENDBRANCH   4  33
BRANCH  27  35
ATOM     35  O   UNL     1      -1.326  57.030  20.999  1.00  0.00    -0.393 OA
ATOM     36  H   UNL     1      -0.701  56.906  20.242  1.00  0.00     0.210 HD
ENDBRANCH  27  35
TORSDOF 3
ENDMDL
