MODEL 1
REMARK VINA RESULT:    -2.696      0.000      0.000
REMARK INTER + INTRA:          -3.197
REMARK INTER:                  -3.169
REMARK INTRA:                  -0.029
REMARK UNBOUND:                -0.029
REMARK SMILES CCCCC(=O)[O-]
REMARK SMILES IDX 4 1 5 2 6 3 7 4 3 5 2 6 1 7
REMARK H PARENT
REMARK Flexibility Score: inf
ROOT
ATOM      1  C   UNL     1      53.887  18.125  85.830  1.00  0.00     0.053 C 
ENDROOT
BRANCH   1   2
ATOM      2  C   UNL     1      52.649  18.763  85.278  1.00  0.00     0.041 C 
ATOM      3  O   UNL     1      51.522  18.238  85.477  1.00  0.00    -0.550 OA
ATOM      4  O   UNL     1      52.744  19.921  84.516  1.00  0.00    -0.550 OA
ENDBRANCH   1   2
BRANCH   1   5
ATOM      5  C   UNL     1      55.104  18.354  84.922  1.00  0.00     0.006 C 
BRANCH   5   6
ATOM      6  C   UNL     1      55.958  17.095  84.685  1.00  0.00    -0.003 C 
ATOM      7  C   UNL     1      56.068  16.210  85.926  1.00  0.00     0.004 C 
ENDBRANCH   5   6
ENDBRANCH   1   5
TORSDOF 3
ENDMDL
MODEL 2
REMARK VINA RESULT:    -2.651     14.452     15.751
REMARK INTER + INTRA:          -3.144
REMARK INTER:                  -3.119
REMARK INTRA:                  -0.025
REMARK UNBOUND:                -0.029
REMARK SMILES CCCCC(=O)[O-]
REMARK SMILES IDX 4 1 5 2 6 3 7 4 3 5 2 6 1 7
REMARK H PARENT
REMARK Flexibility Score: inf
ROOT
ATOM      1  C   UNL     1      38.685  20.279  80.285  1.00  0.00     0.053 C 
ENDROOT
BRANCH   1   2
ATOM      2  C   UNL     1      37.758  19.277  80.901  1.00  0.00     0.041 C 
ATOM      3  O   UNL     1      37.321  19.451  82.068  1.00  0.00    -0.550 OA
ATOM      4  O   UNL     1      37.403  18.133  80.196  1.00  0.00    -0.550 OA
ENDBRANCH   1   2
BRANCH   1   5
ATOM      5  C   UNL     1      39.866  19.606  79.570  1.00  0.00     0.006 C 
BRANCH   5   6
ATOM      6  C   UNL     1      41.235  19.882  80.218  1.00  0.00    -0.003 C 
ATOM      7  C   UNL     1      42.324  20.198  79.194  1.00  0.00     0.004 C 
ENDBRANCH   5   6
ENDBRANCH   1   5
TORSDOF 3
ENDMDL
MODEL 3
REMARK VINA RESULT:    -2.576     16.255     17.134
REMARK INTER + INTRA:          -3.056
REMARK INTER:                  -3.020
REMARK INTRA:                  -0.036
REMARK UNBOUND:                -0.029
REMARK SMILES CCCCC(=O)[O-]
REMARK SMILES IDX 4 1 5 2 6 3 7 4 3 5 2 6 1 7
REMARK H PARENT
REMARK Flexibility Score: inf
ROOT
ATOM      1  C   UNL     1      44.879  30.266  91.844  1.00  0.00     0.053 C 
ENDROOT
BRANCH   1   2
ATOM      2  C   UNL     1      43.719  30.505  92.760  1.00  0.00     0.041 C 
ATOM      3  O   UNL     1      42.669  29.820  92.644  1.00  0.00    -0.550 OA
ATOM      4  O   UNL     1      43.786  31.505  93.722  1.00  0.00    -0.550 OA
ENDBRANCH   1   2
BRANCH   1   5
ATOM      5  C   UNL     1      44.848  31.198  90.623  1.00  0.00     0.006 C 
BRANCH   5   6
ATOM      6  C   UNL     1      46.239  31.558  90.069  1.00  0.00    -0.003 C 
ATOM      7  C   UNL     1      47.378  30.977  90.906  1.00  0.00     0.004 C 
ENDBRANCH   5   6
ENDBRANCH   1   5
TORSDOF 3
ENDMDL
MODEL 4
REMARK VINA RESULT:    -2.521     14.510     15.941
REMARK INTER + INTRA:          -2.992
REMARK INTER:                  -2.952
REMARK INTRA:                  -0.040
REMARK UNBOUND:                -0.029
REMARK SMILES CCCCC(=O)[O-]
REMARK SMILES IDX 4 1 5 2 6 3 7 4 3 5 2 6 1 7
REMARK H PARENT
REMARK Flexibility Score: inf
ROOT
ATOM      1  C   UNL     1      39.898  19.477  79.844  1.00  0.00     0.053 C 
ENDROOT
BRANCH   1   2
ATOM      2  C   UNL     1      40.875  20.217  78.984  1.00  0.00     0.041 C 
ATOM      3  O   UNL     1      40.471  20.898  78.006  1.00  0.00    -0.550 OA
ATOM      4  O   UNL     1      42.237  20.129  79.246  1.00  0.00    -0.550 OA
ENDBRANCH   1   2
BRANCH   1   5
ATOM      5  C   UNL     1      38.689  20.347  80.219  1.00  0.00     0.006 C 
BRANCH   5   6
ATOM      6  C   UNL     1      37.427  19.546  80.588  1.00  0.00    -0.003 C 
ATOM      7  C   UNL     1      37.525  18.071  80.199  1.00  0.00     0.004 C 
ENDBRANCH   5   6
ENDBRANCH   1   5
TORSDOF 3
ENDMDL
MODEL 5
REMARK VINA RESULT:    -2.495     16.060     16.823
REMARK INTER + INTRA:          -2.961
REMARK INTER:                  -2.849
REMARK INTRA:                  -0.112
REMARK UNBOUND:                -0.029
REMARK SMILES CCCCC(=O)[O-]
REMARK SMILES IDX 4 1 5 2 6 3 7 4 3 5 2 6 1 7
REMARK H PARENT
REMARK Flexibility Score: inf
ROOT
ATOM      1  C   UNL     1      39.199  19.306  79.902  1.00  0.00     0.053 C 
ENDROOT
BRANCH   1   2
ATOM      2  C   UNL     1      37.975  18.740  80.553  1.00  0.00     0.041 C 
ATOM      3  O   UNL     1      37.479  17.659  80.141  1.00  0.00    -0.550 OA
ATOM      4  O   UNL     1      37.363  19.424  81.597  1.00  0.00    -0.550 OA
ENDBRANCH   1   2
BRANCH   1   5
ATOM      5  C   UNL     1      39.496  20.735  80.381  1.00  0.00     0.006 C 
BRANCH   5   6
ATOM      6  C   UNL     1      39.069  21.833  79.390  1.00  0.00    -0.003 C 
ATOM      7  C   UNL     1      37.717  22.454  79.739  1.00  0.00     0.004 C 
ENDBRANCH   5   6
ENDBRANCH   1   5
TORSDOF 3
ENDMDL
MODEL 6
REMARK VINA RESULT:    -2.478      2.682      3.723
REMARK INTER + INTRA:          -2.942
REMARK INTER:                  -2.816
REMARK INTRA:                  -0.126
REMARK UNBOUND:                -0.029
REMARK SMILES CCCCC(=O)[O-]
REMARK SMILES IDX 4 1 5 2 6 3 7 4 3 5 2 6 1 7
REMARK H PARENT
REMARK Flexibility Score: inf
ROOT
ATOM      1  C   UNL     1      55.615  17.513  84.915  1.00  0.00     0.053 C 
ENDROOT
BRANCH   1   2
ATOM      2  C   UNL     1      55.807  17.092  86.340  1.00  0.00     0.041 C 
ATOM      3  O   UNL     1      55.753  15.875  86.654  1.00  0.00    -0.550 OA
ATOM      4  O   UNL     1      56.014  18.050  87.326  1.00  0.00    -0.550 OA
ENDBRANCH   1   2
BRANCH   1   5
ATOM      5  C   UNL     1      54.723  18.758  84.799  1.00  0.00     0.006 C 
BRANCH   5   6
ATOM      6  C   UNL     1      53.238  18.499  85.113  1.00  0.00    -0.003 C 
ATOM      7  C   UNL     1      52.677  19.459  86.161  1.00  0.00     0.004 C 
ENDBRANCH   5   6
ENDBRANCH   1   5
TORSDOF 3
ENDMDL
MODEL 7
REMARK VINA RESULT:    -2.381      2.217      2.990
REMARK INTER + INTRA:          -2.827
REMARK INTER:                  -2.801
REMARK INTRA:                  -0.026
REMARK UNBOUND:                -0.029
REMARK SMILES CCCCC(=O)[O-]
REMARK SMILES IDX 4 1 5 2 6 3 7 4 3 5 2 6 1 7
REMARK H PARENT
REMARK Flexibility Score: inf
ROOT
ATOM      1  C   UNL     1      51.474  19.410  86.182  1.00  0.00     0.053 C 
ENDROOT
BRANCH   1   2
ATOM      2  C   UNL     1      50.031  19.022  86.289  1.00  0.00     0.041 C 
ATOM      3  O   UNL     1      49.473  18.391  85.354  1.00  0.00    -0.550 OA
ATOM      4  O   UNL     1      49.295  19.385  87.410  1.00  0.00    -0.550 OA
ENDBRANCH   1   2
BRANCH   1   5
ATOM      5  C   UNL     1      52.230  18.537  85.168  1.00  0.00     0.006 C 
BRANCH   5   6
ATOM      6  C   UNL     1      53.760  18.552  85.344  1.00  0.00    -0.003 C 
ATOM      7  C   UNL     1      54.219  17.824  86.607  1.00  0.00     0.004 C 
ENDBRANCH   5   6
ENDBRANCH   1   5
TORSDOF 3
ENDMDL
MODEL 8
REMARK VINA RESULT:    -2.316      2.320      4.116
REMARK INTER + INTRA:          -2.751
REMARK INTER:                  -2.731
REMARK INTRA:                  -0.021
REMARK UNBOUND:                -0.029
REMARK SMILES CCCCC(=O)[O-]
REMARK SMILES IDX 4 1 5 2 6 3 7 4 3 5 2 6 1 7
REMARK H PARENT
REMARK Flexibility Score: inf
ROOT
ATOM      1  C   UNL     1      53.368  19.116  85.243  1.00  0.00     0.053 C 
ENDROOT
BRANCH   1   2
ATOM      2  C   UNL     1      54.520  18.179  85.443  1.00  0.00     0.041 C 
ATOM      3  O   UNL     1      54.586  17.470  86.481  1.00  0.00    -0.550 OA
ATOM      4  O   UNL     1      55.536  18.114  84.498  1.00  0.00    -0.550 OA
ENDBRANCH   1   2
BRANCH   1   5
ATOM      5  C   UNL     1      52.017  18.389  85.314  1.00  0.00     0.006 C 
BRANCH   5   6
ATOM      6  C   UNL     1      50.822  19.309  85.623  1.00  0.00    -0.003 C 
ATOM      7  C   UNL     1      49.477  18.590  85.521  1.00  0.00     0.004 C 
ENDBRANCH   5   6
ENDBRANCH   1   5
TORSDOF 3
ENDMDL
MODEL 9
REMARK VINA RESULT:    -2.302     16.012     16.802
REMARK INTER + INTRA:          -2.735
REMARK INTER:                  -2.694
REMARK INTRA:                  -0.041
REMARK UNBOUND:                -0.029
REMARK SMILES CCCCC(=O)[O-]
REMARK SMILES IDX 4 1 5 2 6 3 7 4 3 5 2 6 1 7
REMARK H PARENT
REMARK Flexibility Score: inf
ROOT
ATOM      1  C   UNL     1      45.186  31.251  90.332  1.00  0.00     0.053 C 
ENDROOT
BRANCH   1   2
ATOM      2  C   UNL     1      46.666  31.415  90.169  1.00  0.00     0.041 C 
ATOM      3  O   UNL     1      47.130  32.006  89.159  1.00  0.00    -0.550 OA
ATOM      4  O   UNL     1      47.533  30.888  91.118  1.00  0.00    -0.550 OA
ENDBRANCH   1   2
BRANCH   1   5
ATOM      5  C   UNL     1      44.768  31.250  91.811  1.00  0.00     0.006 C 
BRANCH   5   6
ATOM      6  C   UNL     1      44.419  29.856  92.365  1.00  0.00    -0.003 C 
ATOM      7  C   UNL     1      42.924  29.679  92.625  1.00  0.00     0.004 C 
ENDBRANCH   5   6
ENDBRANCH   1   5
TORSDOF 3
ENDMDL
