MODEL 1
REMARK VINA RESULT:    -4.353      0.000      0.000
REMARK INTER + INTRA:         -12.739
REMARK INTER:                  -9.443
REMARK INTRA:                  -3.296
REMARK UNBOUND:                -3.296
REMARK SMILES CCCCCCCCCCCCCCCCCCCCCC(=O)[O-]
REMARK SMILES IDX 12 1 11 2 10 3 9 4 8 5 7 6 6 7 5 8 4 9 3 10 2 11 1 12 13 13
REMARK SMILES IDX 14 14 15 15 16 16 17 17 18 18 19 19 20 20 21 21 22 22 23 23
REMARK SMILES IDX 24 24
REMARK H PARENT
REMARK Flexibility Score: inf
ROOT
ATOM      1  C   UNL     1      -0.566   3.308  -5.298  1.00  0.00     0.000 C 
ENDROOT
BRANCH   1   2
ATOM      2  C   UNL     1      -0.604   3.698  -6.783  1.00  0.00     0.000 C 
BRANCH   2   3
ATOM      3  C   UNL     1      -1.891   3.234  -7.488  1.00  0.00     0.000 C 
BRANCH   3   4
ATOM      4  C   UNL     1      -2.815   2.428  -6.560  1.00  0.00    -0.000 C 
BRANCH   4   5
ATOM      5  C   UNL     1      -4.276   2.897  -6.626  1.00  0.00    -0.000 C 
BRANCH   5   6
ATOM      6  C   UNL     1      -4.425   4.306  -6.035  1.00  0.00    -0.000 C 
BRANCH   6   7
ATOM      7  C   UNL     1      -4.058   4.370  -4.542  1.00  0.00    -0.000 C 
BRANCH   7   8
ATOM      8  C   UNL     1      -5.137   3.829  -3.585  1.00  0.00    -0.000 C 
BRANCH   8   9
ATOM      9  C   UNL     1      -4.664   2.722  -2.622  1.00  0.00    -0.000 C 
BRANCH   9  10
ATOM     10  C   UNL     1      -3.137   2.555  -2.523  1.00  0.00    -0.000 C 
BRANCH  10  11
ATOM     11  C   UNL     1      -2.640   1.243  -3.146  1.00  0.00    -0.003 C 
ATOM     12  C   UNL     1      -3.798   0.278  -3.389  1.00  0.00     0.004 C 
ENDBRANCH  10  11
ENDBRANCH   9  10
ENDBRANCH   8   9
ENDBRANCH   7   8
ENDBRANCH   6   7
ENDBRANCH   5   6
ENDBRANCH   4   5
ENDBRANCH   3   4
ENDBRANCH   2   3
ENDBRANCH   1   2
BRANCH   1  13
ATOM     13  C   UNL     1      -0.249   4.501  -4.381  1.00  0.00     0.000 C 
BRANCH  13  14
ATOM     14  C   UNL     1       0.578   4.093  -3.150  1.00  0.00     0.000 C 
BRANCH  14  15
ATOM     15  C   UNL     1       0.737   2.570  -3.023  1.00  0.00     0.000 C 
BRANCH  15  16
ATOM     16  C   UNL     1       2.222   2.174  -3.018  1.00  0.00     0.000 C 
BRANCH  16  17
ATOM     17  C   UNL     1       3.104   3.139  -3.832  1.00  0.00     0.000 C 
BRANCH  17  18
ATOM     18  C   UNL     1       3.679   2.548  -5.132  1.00  0.00     0.000 C 
BRANCH  18  19
ATOM     19  C   UNL     1       3.105   3.211  -6.393  1.00  0.00     0.000 C 
BRANCH  19  20
ATOM     20  C   UNL     1       4.002   2.953  -7.609  1.00  0.00     0.006 C 
BRANCH  20  21
ATOM     21  C   UNL     1       4.382   1.473  -7.708  1.00  0.00     0.053 C 
BRANCH  21  22
ATOM     22  C   UNL     1       4.690   1.102  -9.124  1.00  0.00     0.041 C 
ATOM     23  O   UNL     1       4.687   1.981 -10.026  1.00  0.00    -0.550 OA
ATOM     24  O   UNL     1       4.959  -0.221  -9.455  1.00  0.00    -0.550 OA
ENDBRANCH  21  22
ENDBRANCH  20  21
ENDBRANCH  19  20
ENDBRANCH  18  19
ENDBRANCH  17  18
ENDBRANCH  16  17
ENDBRANCH  15  16
ENDBRANCH  14  15
ENDBRANCH  13  14
ENDBRANCH   1  13
TORSDOF 20
ENDMDL
MODEL 2
REMARK VINA RESULT:    -4.273      3.231      7.774
REMARK INTER + INTRA:         -12.564
REMARK INTER:                  -9.853
REMARK INTRA:                  -2.712
REMARK UNBOUND:                -3.296
REMARK SMILES CCCCCCCCCCCCCCCCCCCCCC(=O)[O-]
REMARK SMILES IDX 12 1 11 2 10 3 9 4 8 5 7 6 6 7 5 8 4 9 3 10 2 11 1 12 13 13
REMARK SMILES IDX 14 14 15 15 16 16 17 17 18 18 19 19 20 20 21 21 22 22 23 23
REMARK SMILES IDX 24 24
REMARK H PARENT
REMARK Flexibility Score: inf
ROOT
ATOM      1  C   UNL     1       0.621   4.864  -5.131  1.00  0.00     0.000 C 
ENDROOT
BRANCH   1   2
ATOM      2  C   UNL     1       0.640   5.049  -3.607  1.00  0.00     0.000 C 
BRANCH   2   3
ATOM      3  C   UNL     1       0.658   3.713  -2.845  1.00  0.00     0.000 C 
BRANCH   3   4
ATOM      4  C   UNL     1       1.248   2.564  -3.679  1.00  0.00    -0.000 C 
BRANCH   4   5
ATOM      5  C   UNL     1       2.557   2.016  -3.091  1.00  0.00    -0.000 C 
BRANCH   5   6
ATOM      6  C   UNL     1       3.662   1.978  -4.156  1.00  0.00    -0.000 C 
BRANCH   6   7
ATOM      7  C   UNL     1       4.261   3.366  -4.444  1.00  0.00    -0.000 C 
BRANCH   7   8
ATOM      8  C   UNL     1       4.469   3.686  -5.937  1.00  0.00    -0.000 C 
BRANCH   8   9
ATOM      9  C   UNL     1       3.309   3.270  -6.865  1.00  0.00    -0.000 C 
BRANCH   9  10
ATOM     10  C   UNL     1       3.738   2.561  -8.162  1.00  0.00    -0.000 C 
BRANCH  10  11
ATOM     11  C   UNL     1       4.556   1.289  -7.902  1.00  0.00    -0.003 C 
ATOM     12  C   UNL     1       4.371   0.278  -9.031  1.00  0.00     0.004 C 
ENDBRANCH  10  11
ENDBRANCH   9  10
ENDBRANCH   8   9
ENDBRANCH   7   8
ENDBRANCH   6   7
ENDBRANCH   5   6
ENDBRANCH   4   5
ENDBRANCH   3   4
ENDBRANCH   2   3
ENDBRANCH   1   2
BRANCH   1  13
ATOM     13  C   UNL     1      -0.804   4.749  -5.696  1.00  0.00     0.000 C 
BRANCH  13  14
ATOM     14  C   UNL     1      -1.068   3.386  -6.357  1.00  0.00     0.000 C 
BRANCH  14  15
ATOM     15  C   UNL     1      -2.201   2.606  -5.673  1.00  0.00     0.000 C 
BRANCH  15  16
ATOM     16  C   UNL     1      -2.828   3.433  -4.540  1.00  0.00     0.000 C 
BRANCH  16  17
ATOM     17  C   UNL     1      -2.813   2.704  -3.184  1.00  0.00     0.000 C 
BRANCH  17  18
ATOM     18  C   UNL     1      -2.885   1.169  -3.275  1.00  0.00     0.000 C 
BRANCH  18  19
ATOM     19  C   UNL     1      -4.325   0.646  -3.397  1.00  0.00     0.000 C 
BRANCH  19  20
ATOM     20  C   UNL     1      -4.352  -0.751  -4.028  1.00  0.00     0.006 C 
BRANCH  20  21
ATOM     21  C   UNL     1      -3.308  -1.667  -3.382  1.00  0.00     0.053 C 
BRANCH  21  22
ATOM     22  C   UNL     1      -3.337  -3.024  -4.011  1.00  0.00     0.041 C 
ATOM     23  O   UNL     1      -4.436  -3.585  -4.263  1.00  0.00    -0.550 OA
ATOM     24  O   UNL     1      -2.147  -3.682  -4.300  1.00  0.00    -0.550 OA
ENDBRANCH  21  22
ENDBRANCH  20  21
ENDBRANCH  19  20
ENDBRANCH  18  19
ENDBRANCH  17  18
ENDBRANCH  16  17
ENDBRANCH  15  16
ENDBRANCH  14  15
ENDBRANCH  13  14
ENDBRANCH   1  13
TORSDOF 20
ENDMDL
MODEL 3
REMARK VINA RESULT:    -4.139      1.431      2.059
REMARK INTER + INTRA:         -12.275
REMARK INTER:                  -9.130
REMARK INTRA:                  -3.145
REMARK UNBOUND:                -3.296
REMARK SMILES CCCCCCCCCCCCCCCCCCCCCC(=O)[O-]
REMARK SMILES IDX 12 1 11 2 10 3 9 4 8 5 7 6 6 7 5 8 4 9 3 10 2 11 1 12 13 13
REMARK SMILES IDX 14 14 15 15 16 16 17 17 18 18 19 19 20 20 21 21 22 22 23 23
REMARK SMILES IDX 24 24
REMARK H PARENT
REMARK Flexibility Score: inf
ROOT
ATOM      1  C   UNL     1       1.176   5.012  -6.279  1.00  0.00     0.000 C 
ENDROOT
BRANCH   1   2
ATOM      2  C   UNL     1       0.392   3.762  -6.705  1.00  0.00     0.000 C 
BRANCH   2   3
ATOM      3  C   UNL     1      -1.113   3.870  -6.402  1.00  0.00     0.000 C 
BRANCH   3   4
ATOM      4  C   UNL     1      -1.597   2.792  -5.419  1.00  0.00    -0.000 C 
BRANCH   4   5
ATOM      5  C   UNL     1      -2.139   3.385  -4.110  1.00  0.00    -0.000 C 
BRANCH   5   6
ATOM      6  C   UNL     1      -2.199   2.316  -3.009  1.00  0.00    -0.000 C 
BRANCH   6   7
ATOM      7  C   UNL     1      -3.420   2.476  -2.087  1.00  0.00    -0.000 C 
BRANCH   7   8
ATOM      8  C   UNL     1      -4.689   3.010  -2.778  1.00  0.00    -0.000 C 
BRANCH   8   9
ATOM      9  C   UNL     1      -5.375   2.022  -3.744  1.00  0.00    -0.000 C 
BRANCH   9  10
ATOM     10  C   UNL     1      -5.190   0.535  -3.393  1.00  0.00    -0.000 C 
BRANCH  10  11
ATOM     11  C   UNL     1      -4.353  -0.222  -4.433  1.00  0.00    -0.003 C 
ATOM     12  C   UNL     1      -4.355   0.506  -5.774  1.00  0.00     0.004 C 
ENDBRANCH  10  11
ENDBRANCH   9  10
ENDBRANCH   8   9
ENDBRANCH   7   8
ENDBRANCH   6   7
ENDBRANCH   5   6
ENDBRANCH   4   5
ENDBRANCH   3   4
ENDBRANCH   2   3
ENDBRANCH   1   2
BRANCH   1  13
ATOM     13  C   UNL     1       0.729   5.553  -4.911  1.00  0.00     0.000 C 
BRANCH  13  14
ATOM     14  C   UNL     1       1.659   5.106  -3.770  1.00  0.00     0.000 C 
BRANCH  14  15
ATOM     15  C   UNL     1       1.078   3.941  -2.955  1.00  0.00     0.000 C 
BRANCH  15  16
ATOM     16  C   UNL     1       1.604   2.594  -3.474  1.00  0.00     0.000 C 
BRANCH  16  17
ATOM     17  C   UNL     1       3.097   2.375  -3.169  1.00  0.00     0.000 C 
BRANCH  17  18
ATOM     18  C   UNL     1       3.972   2.078  -4.400  1.00  0.00     0.000 C 
BRANCH  18  19
ATOM     19  C   UNL     1       4.694   3.325  -4.932  1.00  0.00     0.000 C 
BRANCH  19  20
ATOM     20  C   UNL     1       4.778   3.302  -6.463  1.00  0.00     0.006 C 
BRANCH  20  21
ATOM     21  C   UNL     1       3.950   2.151  -7.042  1.00  0.00     0.053 C 
BRANCH  21  22
ATOM     22  C   UNL     1       4.770   1.340  -7.995  1.00  0.00     0.041 C 
ATOM     23  O   UNL     1       5.797   1.836  -8.531  1.00  0.00    -0.550 OA
ATOM     24  O   UNL     1       4.388   0.042  -8.312  1.00  0.00    -0.550 OA
ENDBRANCH  21  22
ENDBRANCH  20  21
ENDBRANCH  19  20
ENDBRANCH  18  19
ENDBRANCH  17  18
ENDBRANCH  16  17
ENDBRANCH  15  16
ENDBRANCH  14  15
ENDBRANCH  13  14
ENDBRANCH   1  13
TORSDOF 20
ENDMDL
MODEL 4
REMARK VINA RESULT:    -4.130      2.765      4.308
REMARK INTER + INTRA:         -12.254
REMARK INTER:                  -9.566
REMARK INTRA:                  -2.688
REMARK UNBOUND:                -3.296
REMARK SMILES CCCCCCCCCCCCCCCCCCCCCC(=O)[O-]
REMARK SMILES IDX 12 1 11 2 10 3 9 4 8 5 7 6 6 7 5 8 4 9 3 10 2 11 1 12 13 13
REMARK SMILES IDX 14 14 15 15 16 16 17 17 18 18 19 19 20 20 21 21 22 22 23 23
REMARK SMILES IDX 24 24
REMARK H PARENT
REMARK Flexibility Score: inf
ROOT
ATOM      1  C   UNL     1      -0.212   3.108  -2.892  1.00  0.00     0.000 C 
ENDROOT
BRANCH   1   2
ATOM      2  C   UNL     1      -1.432   2.183  -3.025  1.00  0.00     0.000 C 
BRANCH   2   3
ATOM      3  C   UNL     1      -2.538   2.507  -2.006  1.00  0.00     0.000 C 
BRANCH   3   4
ATOM      4  C   UNL     1      -3.870   2.881  -2.677  1.00  0.00    -0.000 C 
BRANCH   4   5
ATOM      5  C   UNL     1      -3.675   3.629  -4.004  1.00  0.00    -0.000 C 
BRANCH   5   6
ATOM      6  C   UNL     1      -4.428   2.927  -5.144  1.00  0.00    -0.000 C 
BRANCH   6   7
ATOM      7  C   UNL     1      -3.808   1.572  -5.524  1.00  0.00    -0.000 C 
BRANCH   7   8
ATOM      8  C   UNL     1      -4.671   0.343  -5.181  1.00  0.00    -0.000 C 
BRANCH   8   9
ATOM      9  C   UNL     1      -4.187  -0.481  -3.970  1.00  0.00    -0.000 C 
BRANCH   9  10
ATOM     10  C   UNL     1      -4.249  -2.008  -4.155  1.00  0.00    -0.000 C 
BRANCH  10  11
ATOM     11  C   UNL     1      -2.997  -2.722  -3.628  1.00  0.00    -0.003 C 
ATOM     12  C   UNL     1      -2.539  -3.811  -4.595  1.00  0.00     0.004 C 
ENDBRANCH  10  11
ENDBRANCH   9  10
ENDBRANCH   8   9
ENDBRANCH   7   8
ENDBRANCH   6   7
ENDBRANCH   5   6
ENDBRANCH   4   5
ENDBRANCH   3   4
ENDBRANCH   2   3
ENDBRANCH   1   2
BRANCH   1  13
ATOM     13  C   UNL     1       0.056   3.919  -4.170  1.00  0.00     0.000 C 
BRANCH  13  14
ATOM     14  C   UNL     1      -0.337   3.155  -5.445  1.00  0.00     0.000 C 
BRANCH  14  15
ATOM     15  C   UNL     1       0.170   3.839  -6.724  1.00  0.00     0.000 C 
BRANCH  15  16
ATOM     16  C   UNL     1       1.528   4.516  -6.481  1.00  0.00     0.000 C 
BRANCH  16  17
ATOM     17  C   UNL     1       2.721   3.637  -6.898  1.00  0.00     0.000 C 
BRANCH  17  18
ATOM     18  C   UNL     1       3.749   3.372  -5.783  1.00  0.00     0.000 C 
BRANCH  18  19
ATOM     19  C   UNL     1       3.710   1.926  -5.267  1.00  0.00     0.000 C 
BRANCH  19  20
ATOM     20  C   UNL     1       3.264   1.876  -3.801  1.00  0.00     0.006 C 
BRANCH  20  21
ATOM     21  C   UNL     1       3.765   3.102  -3.032  1.00  0.00     0.053 C 
BRANCH  21  22
ATOM     22  C   UNL     1       5.197   2.926  -2.635  1.00  0.00     0.041 C 
ATOM     23  O   UNL     1       5.546   1.937  -1.938  1.00  0.00    -0.550 OA
ATOM     24  O   UNL     1       6.145   3.868  -3.015  1.00  0.00    -0.550 OA
ENDBRANCH  21  22
ENDBRANCH  20  21
ENDBRANCH  19  20
ENDBRANCH  18  19
ENDBRANCH  17  18
ENDBRANCH  16  17
ENDBRANCH  15  16
ENDBRANCH  14  15
ENDBRANCH  13  14
ENDBRANCH   1  13
TORSDOF 20
ENDMDL
MODEL 5
REMARK VINA RESULT:    -4.064      1.657      3.498
REMARK INTER + INTRA:         -12.111
REMARK INTER:                  -8.516
REMARK INTRA:                  -3.595
REMARK UNBOUND:                -3.296
REMARK SMILES CCCCCCCCCCCCCCCCCCCCCC(=O)[O-]
REMARK SMILES IDX 12 1 11 2 10 3 9 4 8 5 7 6 6 7 5 8 4 9 3 10 2 11 1 12 13 13
REMARK SMILES IDX 14 14 15 15 16 16 17 17 18 18 19 19 20 20 21 21 22 22 23 23
REMARK SMILES IDX 24 24
REMARK H PARENT
REMARK Flexibility Score: inf
ROOT
ATOM      1  C   UNL     1       2.154   2.177  -3.013  1.00  0.00     0.000 C 
ENDROOT
BRANCH   1   2
ATOM      2  C   UNL     1       1.356   3.169  -3.871  1.00  0.00     0.000 C 
BRANCH   2   3
ATOM      3  C   UNL     1       1.014   4.467  -3.118  1.00  0.00     0.000 C 
BRANCH   3   4
ATOM      4  C   UNL     1       0.768   5.653  -4.065  1.00  0.00    -0.000 C 
BRANCH   4   5
ATOM      5  C   UNL     1      -0.664   5.681  -4.620  1.00  0.00    -0.000 C 
BRANCH   5   6
ATOM      6  C   UNL     1      -0.686   5.265  -6.097  1.00  0.00    -0.000 C 
BRANCH   6   7
ATOM      7  C   UNL     1      -1.949   4.471  -6.476  1.00  0.00    -0.000 C 
BRANCH   7   8
ATOM      8  C   UNL     1      -1.789   2.939  -6.435  1.00  0.00    -0.000 C 
BRANCH   8   9
ATOM      9  C   UNL     1      -2.260   2.264  -5.131  1.00  0.00    -0.000 C 
BRANCH   9  10
ATOM     10  C   UNL     1      -3.361   3.022  -4.368  1.00  0.00    -0.000 C 
BRANCH  10  11
ATOM     11  C   UNL     1      -3.407   2.663  -2.876  1.00  0.00    -0.003 C 
ATOM     12  C   UNL     1      -2.001   2.570  -2.291  1.00  0.00     0.004 C 
ENDBRANCH  10  11
ENDBRANCH   9  10
ENDBRANCH   8   9
ENDBRANCH   7   8
ENDBRANCH   6   7
ENDBRANCH   5   6
ENDBRANCH   4   5
ENDBRANCH   3   4
ENDBRANCH   2   3
ENDBRANCH   1   2
BRANCH   1  13
ATOM     13  C   UNL     1       3.379   1.610  -3.749  1.00  0.00     0.000 C 
BRANCH  13  14
ATOM     14  C   UNL     1       4.703   1.980  -3.059  1.00  0.00     0.000 C 
BRANCH  14  15
ATOM     15  C   UNL     1       4.576   3.223  -2.165  1.00  0.00     0.000 C 
BRANCH  15  16
ATOM     16  C   UNL     1       5.521   4.338  -2.640  1.00  0.00     0.000 C 
BRANCH  16  17
ATOM     17  C   UNL     1       5.572   4.469  -4.174  1.00  0.00     0.000 C 
BRANCH  17  18
ATOM     18  C   UNL     1       4.444   5.319  -4.787  1.00  0.00     0.000 C 
BRANCH  18  19
ATOM     19  C   UNL     1       3.891   4.725  -6.090  1.00  0.00     0.000 C 
BRANCH  19  20
ATOM     20  C   UNL     1       4.711   3.506  -6.532  1.00  0.00     0.006 C 
BRANCH  20  21
ATOM     21  C   UNL     1       3.820   2.458  -7.206  1.00  0.00     0.053 C 
BRANCH  21  22
ATOM     22  C   UNL     1       4.647   1.491  -7.992  1.00  0.00     0.041 C 
ATOM     23  O   UNL     1       4.315   0.278  -8.058  1.00  0.00    -0.550 OA
ATOM     24  O   UNL     1       5.800   1.923  -8.635  1.00  0.00    -0.550 OA
ENDBRANCH  21  22
ENDBRANCH  20  21
ENDBRANCH  19  20
ENDBRANCH  18  19
ENDBRANCH  17  18
ENDBRANCH  16  17
ENDBRANCH  15  16
ENDBRANCH  14  15
ENDBRANCH  13  14
ENDBRANCH   1  13
TORSDOF 20
ENDMDL
MODEL 6
REMARK VINA RESULT:    -4.030      3.256      7.659
REMARK INTER + INTRA:         -12.038
REMARK INTER:                  -9.129
REMARK INTRA:                  -2.909
REMARK UNBOUND:                -3.296
REMARK SMILES CCCCCCCCCCCCCCCCCCCCCC(=O)[O-]
REMARK SMILES IDX 12 1 11 2 10 3 9 4 8 5 7 6 6 7 5 8 4 9 3 10 2 11 1 12 13 13
REMARK SMILES IDX 14 14 15 15 16 16 17 17 18 18 19 19 20 20 21 21 22 22 23 23
REMARK SMILES IDX 24 24
REMARK H PARENT
REMARK Flexibility Score: inf
ROOT
ATOM      1  C   UNL     1      -2.474   2.707  -6.299  1.00  0.00     0.000 C 
ENDROOT
BRANCH   1   2
ATOM      2  C   UNL     1      -1.120   2.985  -5.628  1.00  0.00     0.000 C 
BRANCH   2   3
ATOM      3  C   UNL     1      -1.085   4.337  -4.896  1.00  0.00     0.000 C 
BRANCH   3   4
ATOM      4  C   UNL     1       0.006   4.396  -3.814  1.00  0.00    -0.000 C 
BRANCH   4   5
ATOM      5  C   UNL     1       0.157   3.071  -3.052  1.00  0.00    -0.000 C 
BRANCH   5   6
ATOM      6  C   UNL     1       1.578   2.511  -3.206  1.00  0.00    -0.000 C 
BRANCH   6   7
ATOM      7  C   UNL     1       2.541   3.501  -3.885  1.00  0.00    -0.000 C 
BRANCH   7   8
ATOM      8  C   UNL     1       3.283   2.945  -5.116  1.00  0.00    -0.000 C 
BRANCH   8   9
ATOM      9  C   UNL     1       2.714   3.387  -6.480  1.00  0.00    -0.000 C 
BRANCH   9  10
ATOM     10  C   UNL     1       3.751   3.491  -7.613  1.00  0.00    -0.000 C 
BRANCH  10  11
ATOM     11  C   UNL     1       4.836   2.408  -7.528  1.00  0.00    -0.003 C 
ATOM     12  C   UNL     1       4.400   1.137  -8.251  1.00  0.00     0.004 C 
ENDBRANCH  10  11
ENDBRANCH   9  10
ENDBRANCH   8   9
ENDBRANCH   7   8
ENDBRANCH   6   7
ENDBRANCH   5   6
ENDBRANCH   4   5
ENDBRANCH   3   4
ENDBRANCH   2   3
ENDBRANCH   1   2
BRANCH   1  13
ATOM     13  C   UNL     1      -3.460   3.876  -6.146  1.00  0.00     0.000 C 
BRANCH  13  14
ATOM     14  C   UNL     1      -4.738   3.473  -5.392  1.00  0.00     0.000 C 
BRANCH  14  15
ATOM     15  C   UNL     1      -4.846   4.141  -4.013  1.00  0.00     0.000 C 
BRANCH  15  16
ATOM     16  C   UNL     1      -4.805   3.092  -2.891  1.00  0.00     0.000 C 
BRANCH  16  17
ATOM     17  C   UNL     1      -3.386   2.558  -2.621  1.00  0.00     0.000 C 
BRANCH  17  18
ATOM     18  C   UNL     1      -3.145   1.106  -3.071  1.00  0.00     0.000 C 
BRANCH  18  19
ATOM     19  C   UNL     1      -4.446   0.365  -3.413  1.00  0.00     0.000 C 
BRANCH  19  20
ATOM     20  C   UNL     1      -4.207  -0.702  -4.488  1.00  0.00     0.006 C 
BRANCH  20  21
ATOM     21  C   UNL     1      -4.803  -2.049  -4.068  1.00  0.00     0.053 C 
BRANCH  21  22
ATOM     22  C   UNL     1      -3.723  -3.070  -3.887  1.00  0.00     0.041 C 
ATOM     23  O   UNL     1      -2.543  -2.708  -3.636  1.00  0.00    -0.550 OA
ATOM     24  O   UNL     1      -4.014  -4.422  -4.020  1.00  0.00    -0.550 OA
ENDBRANCH  21  22
ENDBRANCH  20  21
ENDBRANCH  19  20
ENDBRANCH  18  19
ENDBRANCH  17  18
ENDBRANCH  16  17
ENDBRANCH  15  16
ENDBRANCH  14  15
ENDBRANCH  13  14
ENDBRANCH   1  13
TORSDOF 20
ENDMDL
MODEL 7
REMARK VINA RESULT:    -4.028      3.828      5.470
REMARK INTER + INTRA:         -12.034
REMARK INTER:                 -10.014
REMARK INTRA:                  -2.020
REMARK UNBOUND:                -3.296
REMARK SMILES CCCCCCCCCCCCCCCCCCCCCC(=O)[O-]
REMARK SMILES IDX 12 1 11 2 10 3 9 4 8 5 7 6 6 7 5 8 4 9 3 10 2 11 1 12 13 13
REMARK SMILES IDX 14 14 15 15 16 16 17 17 18 18 19 19 20 20 21 21 22 22 23 23
REMARK SMILES IDX 24 24
REMARK H PARENT
REMARK Flexibility Score: inf
ROOT
ATOM      1  C   UNL     1      -1.139   2.703  -3.528  1.00  0.00     0.000 C 
ENDROOT
BRANCH   1   2
ATOM      2  C   UNL     1      -2.209   2.636  -2.428  1.00  0.00     0.000 C 
BRANCH   2   3
ATOM      3  C   UNL     1      -3.536   2.038  -2.924  1.00  0.00     0.000 C 
BRANCH   3   4
ATOM      4  C   UNL     1      -3.430   1.460  -4.345  1.00  0.00    -0.000 C 
BRANCH   4   5
ATOM      5  C   UNL     1      -4.091   0.080  -4.474  1.00  0.00    -0.000 C 
BRANCH   5   6
ATOM      6  C   UNL     1      -3.847  -0.763  -3.214  1.00  0.00    -0.000 C 
BRANCH   6   7
ATOM      7  C   UNL     1      -3.627  -2.254  -3.525  1.00  0.00    -0.000 C 
BRANCH   7   8
ATOM      8  C   UNL     1      -4.268  -2.745  -4.837  1.00  0.00    -0.000 C 
BRANCH   8   9
ATOM      9  C   UNL     1      -3.406  -3.721  -5.663  1.00  0.00    -0.000 C 
BRANCH   9  10
ATOM     10  C   UNL     1      -2.213  -4.334  -4.908  1.00  0.00    -0.000 C 
BRANCH  10  11
ATOM     11  C   UNL     1      -1.131  -4.882  -5.849  1.00  0.00    -0.003 C 
ATOM     12  C   UNL     1      -1.415  -4.493  -7.297  1.00  0.00     0.004 C 
ENDBRANCH  10  11
ENDBRANCH   9  10
ENDBRANCH   8   9
ENDBRANCH   7   8
ENDBRANCH   6   7
ENDBRANCH   5   6
ENDBRANCH   4   5
ENDBRANCH   3   4
ENDBRANCH   2   3
ENDBRANCH   1   2
BRANCH   1  13
ATOM     13  C   UNL     1       0.265   2.992  -2.971  1.00  0.00     0.000 C 
BRANCH  13  14
ATOM     14  C   UNL     1       0.841   4.321  -3.487  1.00  0.00     0.000 C 
BRANCH  14  15
ATOM     15  C   UNL     1       0.774   4.439  -5.018  1.00  0.00     0.000 C 
BRANCH  15  16
ATOM     16  C   UNL     1       2.180   4.602  -5.616  1.00  0.00     0.000 C 
BRANCH  16  17
ATOM     17  C   UNL     1       2.842   3.258  -5.971  1.00  0.00     0.000 C 
BRANCH  17  18
ATOM     18  C   UNL     1       4.019   2.857  -5.063  1.00  0.00     0.000 C 
BRANCH  18  19
ATOM     19  C   UNL     1       3.698   1.649  -4.170  1.00  0.00     0.000 C 
BRANCH  19  20
ATOM     20  C   UNL     1       3.780   2.023  -2.685  1.00  0.00     0.006 C 
BRANCH  20  21
ATOM     21  C   UNL     1       4.339   3.438  -2.505  1.00  0.00     0.053 C 
BRANCH  21  22
ATOM     22  C   UNL     1       5.461   3.438  -1.515  1.00  0.00     0.041 C 
ATOM     23  O   UNL     1       6.546   4.019  -1.785  1.00  0.00    -0.550 OA
ATOM     24  O   UNL     1       5.319   2.777  -0.301  1.00  0.00    -0.550 OA
ENDBRANCH  21  22
ENDBRANCH  20  21
ENDBRANCH  19  20
ENDBRANCH  18  19
ENDBRANCH  17  18
ENDBRANCH  16  17
ENDBRANCH  15  16
ENDBRANCH  14  15
ENDBRANCH  13  14
ENDBRANCH   1  13
TORSDOF 20
ENDMDL
MODEL 8
REMARK VINA RESULT:    -4.006      3.251      7.577
REMARK INTER + INTRA:         -11.986
REMARK INTER:                  -8.149
REMARK INTRA:                  -3.836
REMARK UNBOUND:                -3.296
REMARK SMILES CCCCCCCCCCCCCCCCCCCCCC(=O)[O-]
REMARK SMILES IDX 12 1 11 2 10 3 9 4 8 5 7 6 6 7 5 8 4 9 3 10 2 11 1 12 13 13
REMARK SMILES IDX 14 14 15 15 16 16 17 17 18 18 19 19 20 20 21 21 22 22 23 23
REMARK SMILES IDX 24 24
REMARK H PARENT
REMARK Flexibility Score: inf
ROOT
ATOM      1  C   UNL     1      -1.131   3.910  -6.824  1.00  0.00     0.000 C 
ENDROOT
BRANCH   1   2
ATOM      2  C   UNL     1      -0.704   3.368  -5.451  1.00  0.00     0.000 C 
BRANCH   2   3
ATOM      3  C   UNL     1      -0.393   4.486  -4.440  1.00  0.00     0.000 C 
BRANCH   3   4
ATOM      4  C   UNL     1       0.519   4.012  -3.297  1.00  0.00    -0.000 C 
BRANCH   4   5
ATOM      5  C   UNL     1       0.838   2.512  -3.376  1.00  0.00    -0.000 C 
BRANCH   5   6
ATOM      6  C   UNL     1       2.245   2.223  -2.834  1.00  0.00    -0.000 C 
BRANCH   6   7
ATOM      7  C   UNL     1       3.255   1.883  -3.943  1.00  0.00    -0.000 C 
BRANCH   7   8
ATOM      8  C   UNL     1       4.443   2.857  -4.061  1.00  0.00    -0.000 C 
BRANCH   8   9
ATOM      9  C   UNL     1       4.459   3.722  -5.338  1.00  0.00    -0.000 C 
BRANCH   9  10
ATOM     10  C   UNL     1       3.487   4.915  -5.327  1.00  0.00    -0.000 C 
BRANCH  10  11
ATOM     11  C   UNL     1       2.572   4.948  -6.559  1.00  0.00    -0.003 C 
ATOM     12  C   UNL     1       2.570   3.601  -7.278  1.00  0.00     0.004 C 
ENDBRANCH  10  11
ENDBRANCH   9  10
ENDBRANCH   8   9
ENDBRANCH   7   8
ENDBRANCH   6   7
ENDBRANCH   5   6
ENDBRANCH   4   5
ENDBRANCH   3   4
ENDBRANCH   2   3
ENDBRANCH   1   2
BRANCH   1  13
ATOM     13  C   UNL     1      -2.150   3.000  -7.528  1.00  0.00     0.000 C 
BRANCH  13  14
ATOM     14  C   UNL     1      -3.206   2.441  -6.560  1.00  0.00     0.000 C 
BRANCH  14  15
ATOM     15  C   UNL     1      -4.522   3.233  -6.599  1.00  0.00     0.000 C 
BRANCH  15  16
ATOM     16  C   UNL     1      -5.147   3.326  -5.198  1.00  0.00     0.000 C 
BRANCH  16  17
ATOM     17  C   UNL     1      -4.154   3.820  -4.129  1.00  0.00     0.000 C 
BRANCH  17  18
ATOM     18  C   UNL     1      -4.148   3.001  -2.826  1.00  0.00     0.000 C 
BRANCH  18  19
ATOM     19  C   UNL     1      -2.819   2.268  -2.590  1.00  0.00     0.000 C 
BRANCH  19  20
ATOM     20  C   UNL     1      -2.785   0.932  -3.342  1.00  0.00     0.006 C 
BRANCH  20  21
ATOM     21  C   UNL     1      -4.150   0.239  -3.295  1.00  0.00     0.053 C 
BRANCH  21  22
ATOM     22  C   UNL     1      -4.188  -0.914  -4.247  1.00  0.00     0.041 C 
ATOM     23  O   UNL     1      -3.851  -2.066  -3.863  1.00  0.00    -0.550 OA
ATOM     24  O   UNL     1      -4.575  -0.715  -5.567  1.00  0.00    -0.550 OA
ENDBRANCH  21  22
ENDBRANCH  20  21
ENDBRANCH  19  20
ENDBRANCH  18  19
ENDBRANCH  17  18
ENDBRANCH  16  17
ENDBRANCH  15  16
ENDBRANCH  14  15
ENDBRANCH  13  14
ENDBRANCH   1  13
TORSDOF 20
ENDMDL
MODEL 9
REMARK VINA RESULT:    -3.989      3.383      5.091
REMARK INTER + INTRA:         -11.948
REMARK INTER:                  -9.918
REMARK INTRA:                  -2.030
REMARK UNBOUND:                -3.296
REMARK SMILES CCCCCCCCCCCCCCCCCCCCCC(=O)[O-]
REMARK SMILES IDX 12 1 11 2 10 3 9 4 8 5 7 6 6 7 5 8 4 9 3 10 2 11 1 12 13 13
REMARK SMILES IDX 14 14 15 15 16 16 17 17 18 18 19 19 20 20 21 21 22 22 23 23
REMARK SMILES IDX 24 24
REMARK H PARENT
REMARK Flexibility Score: inf
ROOT
ATOM      1  C   UNL     1      -2.750   3.002  -2.734  1.00  0.00     0.000 C 
ENDROOT
BRANCH   1   2
ATOM      2  C   UNL     1      -4.175   2.509  -2.440  1.00  0.00     0.000 C 
BRANCH   2   3
ATOM      3  C   UNL     1      -4.976   2.208  -3.718  1.00  0.00     0.000 C 
BRANCH   3   4
ATOM      4  C   UNL     1      -5.546   0.780  -3.737  1.00  0.00    -0.000 C 
BRANCH   4   5
ATOM      5  C   UNL     1      -4.610  -0.222  -4.426  1.00  0.00    -0.000 C 
BRANCH   5   6
ATOM      6  C   UNL     1      -3.698  -0.913  -3.402  1.00  0.00    -0.000 C 
BRANCH   6   7
ATOM      7  C   UNL     1      -3.922  -2.434  -3.334  1.00  0.00    -0.000 C 
BRANCH   7   8
ATOM      8  C   UNL     1      -4.507  -3.063  -4.612  1.00  0.00    -0.000 C 
BRANCH   8   9
ATOM      9  C   UNL     1      -3.496  -3.832  -5.487  1.00  0.00    -0.000 C 
BRANCH   9  10
ATOM     10  C   UNL     1      -2.157  -4.156  -4.801  1.00  0.00    -0.000 C 
BRANCH  10  11
ATOM     11  C   UNL     1      -1.094  -4.669  -5.782  1.00  0.00    -0.003 C 
ATOM     12  C   UNL     1      -1.530  -4.448  -7.228  1.00  0.00     0.004 C 
ENDBRANCH  10  11
ENDBRANCH   9  10
ENDBRANCH   8   9
ENDBRANCH   7   8
ENDBRANCH   6   7
ENDBRANCH   5   6
ENDBRANCH   4   5
ENDBRANCH   3   4
ENDBRANCH   2   3
ENDBRANCH   1   2
BRANCH   1  13
ATOM     13  C   UNL     1      -2.262   2.598  -4.135  1.00  0.00     0.000 C 
BRANCH  13  14
ATOM     14  C   UNL     1      -0.752   2.824  -4.320  1.00  0.00     0.000 C 
BRANCH  14  15
ATOM     15  C   UNL     1      -0.052   3.236  -3.016  1.00  0.00     0.000 C 
BRANCH  15  16
ATOM     16  C   UNL     1       0.850   4.459  -3.241  1.00  0.00     0.000 C 
BRANCH  16  17
ATOM     17  C   UNL     1       1.054   4.789  -4.732  1.00  0.00     0.000 C 
BRANCH  17  18
ATOM     18  C   UNL     1       2.501   4.641  -5.234  1.00  0.00     0.000 C 
BRANCH  18  19
ATOM     19  C   UNL     1       2.708   3.386  -6.095  1.00  0.00     0.000 C 
BRANCH  19  20
ATOM     20  C   UNL     1       3.885   2.551  -5.578  1.00  0.00     0.006 C 
BRANCH  20  21
ATOM     21  C   UNL     1       4.422   3.114  -4.259  1.00  0.00     0.053 C 
BRANCH  21  22
ATOM     22  C   UNL     1       4.199   2.143  -3.142  1.00  0.00     0.041 C 
ATOM     23  O   UNL     1       5.124   1.891  -2.325  1.00  0.00    -0.550 OA
ATOM     24  O   UNL     1       2.975   1.497  -3.015  1.00  0.00    -0.550 OA
ENDBRANCH  21  22
ENDBRANCH  20  21
ENDBRANCH  19  20
ENDBRANCH  18  19
ENDBRANCH  17  18
ENDBRANCH  16  17
ENDBRANCH  15  16
ENDBRANCH  14  15
ENDBRANCH  13  14
ENDBRANCH   1  13
TORSDOF 20
ENDMDL
