MODEL 1
REMARK VINA RESULT:    25.166      0.000      0.000
REMARK INTER + INTRA:          29.785
REMARK INTER:                  29.580
REMARK INTRA:                   0.205
REMARK UNBOUND:                 0.205
REMARK SMILES O=c1c(O)c(-c2ccc(O)c(O)c2)oc2cc(O)ccc12
REMARK SMILES IDX 5 1 3 2 2 3 1 4 21 5 15 6 14 7 16 8 17 9 19 10 20 11 6 12
REMARK SMILES IDX 7 13 8 14 9 15 13 16 11 17 10 18 12 20 4 22 18 24
REMARK H PARENT 10 19 12 21 4 23 18 25
REMARK Flexibility Score: inf
ROOT
ATOM      1  C   UNL     1      47.496  79.601   5.843  1.00  0.00     0.180 A 
ATOM      2  C   UNL     1      46.300  80.253   5.476  1.00  0.00     0.208 A 
ATOM      3  C   UNL     1      45.076  79.625   5.751  1.00  0.00     0.235 A 
ATOM      4  O   UNL     1      43.993  80.183   5.423  1.00  0.00    -0.285 OA
ATOM      5  C   UNL     1      45.068  78.380   6.399  1.00  0.00     0.069 A 
ATOM      6  C   UNL     1      46.307  77.804   6.756  1.00  0.00     0.142 A 
ATOM      7  O   UNL     1      47.445  78.428   6.469  1.00  0.00    -0.452 OA
ATOM      8  C   UNL     1      46.341  76.569   7.413  1.00  0.00     0.094 A 
ATOM      9  C   UNL     1      45.149  75.898   7.716  1.00  0.00     0.119 A 
ATOM     10  C   UNL     1      43.920  76.466   7.363  1.00  0.00     0.047 A 
ATOM     11  C   UNL     1      43.875  77.701   6.708  1.00  0.00     0.020 A 
ENDROOT
BRANCH   1  12
ATOM     12  C   UNL     1      48.827  80.189   5.571  1.00  0.00     0.025 A 
ATOM     13  C   UNL     1      49.920  79.388   5.203  1.00  0.00     0.016 A 
ATOM     14  C   UNL     1      51.171  79.964   4.975  1.00  0.00     0.051 A 
ATOM     15  C   UNL     1      51.361  81.342   5.123  1.00  0.00     0.157 A 
ATOM     16  C   UNL     1      49.021  81.569   5.741  1.00  0.00     0.062 A 
ATOM     17  C   UNL     1      50.272  82.155   5.515  1.00  0.00     0.158 A 
BRANCH  15  18
ATOM     18  O   UNL     1      52.636  81.855   4.876  1.00  0.00    -0.504 OA
ATOM     19  H   UNL     1      53.088  82.549   5.455  1.00  0.00     0.293 HD
ENDBRANCH  15  18
BRANCH  17  20
ATOM     20  O   UNL     1      50.387  83.536   5.692  1.00  0.00    -0.504 OA
ATOM     21  H   UNL     1      51.076  83.973   6.285  1.00  0.00     0.293 HD
ENDBRANCH  17  20
ENDBRANCH   1  12
BRANCH   2  22
ATOM     22  O   UNL     1      46.337  81.514   4.875  1.00  0.00    -0.502 OA
ATOM     23  H   UNL     1      45.875  81.709   3.995  1.00  0.00     0.293 HD
ENDBRANCH   2  22
BRANCH   9  24
ATOM     24  O   UNL     1      45.174  74.668   8.369  1.00  0.00    -0.508 OA
ATOM     25  H   UNL     1      44.974  74.588   9.359  1.00  0.00     0.293 HD
ENDBRANCH   9  24
TORSDOF 5
ENDMDL
