MODEL 1
REMARK VINA RESULT:    -4.253      0.000      0.000
REMARK INTER + INTRA:          -6.359
REMARK INTER:                  -5.994
REMARK INTRA:                  -0.366
REMARK UNBOUND:                -0.366
REMARK SMILES CCCCCCCCC(=O)[O-]
REMARK SMILES IDX 6 1 7 2 8 3 9 4 10 5 11 6 5 7 4 8 3 9 2 10 1 11
REMARK H PARENT
REMARK Flexibility Score: inf
ROOT
ATOM      1  C   UNL     1      16.923 -36.139  -2.154  1.00  0.00     0.000 C 
ENDROOT
BRANCH   1   2
ATOM      2  C   UNL     1      17.899 -37.316  -2.007  1.00  0.00     0.006 C 
BRANCH   2   3
ATOM      3  C   UNL     1      17.701 -38.076  -0.689  1.00  0.00     0.053 C 
BRANCH   3   4
ATOM      4  C   UNL     1      18.477 -37.456   0.432  1.00  0.00     0.041 C 
ATOM      5  O   UNL     1      18.034 -36.434   1.020  1.00  0.00    -0.550 OA
ATOM      6  O   UNL     1      19.672 -38.025   0.850  1.00  0.00    -0.550 OA
ENDBRANCH   3   4
ENDBRANCH   2   3
ENDBRANCH   1   2
BRANCH   1   7
ATOM      7  C   UNL     1      17.663 -34.799  -2.079  1.00  0.00     0.000 C 
BRANCH   7   8
ATOM      8  C   UNL     1      16.847 -33.761  -1.298  1.00  0.00    -0.000 C 
BRANCH   8   9
ATOM      9  C   UNL     1      15.810 -33.082  -2.206  1.00  0.00    -0.000 C 
BRANCH   9  10
ATOM     10  C   UNL     1      14.364 -33.414  -1.802  1.00  0.00    -0.003 C 
ATOM     11  C   UNL     1      13.439 -33.586  -3.005  1.00  0.00     0.004 C 
ENDBRANCH   9  10
ENDBRANCH   8   9
ENDBRANCH   7   8
ENDBRANCH   1   7
TORSDOF 7
ENDMDL
MODEL 2
REMARK VINA RESULT:    -4.237      0.792      1.231
REMARK INTER + INTRA:          -6.336
REMARK INTER:                  -5.894
REMARK INTRA:                  -0.443
REMARK UNBOUND:                -0.366
REMARK SMILES CCCCCCCCC(=O)[O-]
REMARK SMILES IDX 6 1 7 2 8 3 9 4 10 5 11 6 5 7 4 8 3 9 2 10 1 11
REMARK H PARENT
REMARK Flexibility Score: inf
ROOT
ATOM      1  C   UNL     1      16.411 -36.525  -2.116  1.00  0.00     0.000 C 
ENDROOT
BRANCH   1   2
ATOM      2  C   UNL     1      16.829 -37.856  -1.470  1.00  0.00     0.006 C 
BRANCH   2   3
ATOM      3  C   UNL     1      18.319 -37.883  -1.107  1.00  0.00     0.053 C 
BRANCH   3   4
ATOM      4  C   UNL     1      18.532 -37.790   0.373  1.00  0.00     0.041 C 
ATOM      5  O   UNL     1      19.675 -37.990   0.862  1.00  0.00    -0.550 OA
ATOM      6  O   UNL     1      17.476 -37.451   1.209  1.00  0.00    -0.550 OA
ENDBRANCH   3   4
ENDBRANCH   2   3
ENDBRANCH   1   2
BRANCH   1   7
ATOM      7  C   UNL     1      17.593 -35.551  -2.180  1.00  0.00     0.000 C 
BRANCH   7   8
ATOM      8  C   UNL     1      17.312 -34.289  -1.356  1.00  0.00    -0.000 C 
BRANCH   8   9
ATOM      9  C   UNL     1      16.595 -33.228  -2.204  1.00  0.00    -0.000 C 
BRANCH   9  10
ATOM     10  C   UNL     1      15.195 -32.889  -1.667  1.00  0.00    -0.003 C 
ATOM     11  C   UNL     1      14.076 -33.540  -2.478  1.00  0.00     0.004 C 
ENDBRANCH   9  10
ENDBRANCH   8   9
ENDBRANCH   7   8
ENDBRANCH   1   7
TORSDOF 7
ENDMDL
MODEL 3
REMARK VINA RESULT:    -4.207      2.016      3.037
REMARK INTER + INTRA:          -6.294
REMARK INTER:                  -5.501
REMARK INTRA:                  -0.792
REMARK UNBOUND:                -0.366
REMARK SMILES CCCCCCCCC(=O)[O-]
REMARK SMILES IDX 6 1 7 2 8 3 9 4 10 5 11 6 5 7 4 8 3 9 2 10 1 11
REMARK H PARENT
REMARK Flexibility Score: inf
ROOT
ATOM      1  C   UNL     1      16.825 -35.008   0.381  1.00  0.00     0.000 C 
ENDROOT
BRANCH   1   2
ATOM      2  C   UNL     1      17.841 -35.830   1.189  1.00  0.00     0.006 C 
BRANCH   2   3
ATOM      3  C   UNL     1      17.338 -37.249   1.483  1.00  0.00     0.053 C 
BRANCH   3   4
ATOM      4  C   UNL     1      18.299 -38.291   0.998  1.00  0.00     0.041 C 
ATOM      5  O   UNL     1      17.894 -39.457   0.746  1.00  0.00    -0.550 OA
ATOM      6  O   UNL     1      19.634 -37.967   0.794  1.00  0.00    -0.550 OA
ENDBRANCH   3   4
ENDBRANCH   2   3
ENDBRANCH   1   2
BRANCH   1   7
ATOM      7  C   UNL     1      17.470 -34.422  -0.881  1.00  0.00     0.000 C 
BRANCH   7   8
ATOM      8  C   UNL     1      17.007 -35.173  -2.135  1.00  0.00    -0.000 C 
BRANCH   8   9
ATOM      9  C   UNL     1      17.846 -36.440  -2.359  1.00  0.00    -0.000 C 
BRANCH   9  10
ATOM     10  C   UNL     1      17.000 -37.723  -2.325  1.00  0.00    -0.003 C 
ATOM     11  C   UNL     1      15.510 -37.443  -2.130  1.00  0.00     0.004 C 
ENDBRANCH   9  10
ENDBRANCH   8   9
ENDBRANCH   7   8
ENDBRANCH   1   7
TORSDOF 7
ENDMDL
MODEL 4
REMARK VINA RESULT:    -4.115      1.935      3.153
REMARK INTER + INTRA:          -6.164
REMARK INTER:                  -5.398
REMARK INTRA:                  -0.766
REMARK UNBOUND:                -0.366
REMARK SMILES CCCCCCCCC(=O)[O-]
REMARK SMILES IDX 6 1 7 2 8 3 9 4 10 5 11 6 5 7 4 8 3 9 2 10 1 11
REMARK H PARENT
REMARK Flexibility Score: inf
ROOT
ATOM      1  C   UNL     1      16.705 -35.576   1.232  1.00  0.00     0.000 C 
ENDROOT
BRANCH   1   2
ATOM      2  C   UNL     1      17.258 -36.796   1.984  1.00  0.00     0.006 C 
BRANCH   2   3
ATOM      3  C   UNL     1      17.126 -38.090   1.170  1.00  0.00     0.053 C 
BRANCH   3   4
ATOM      4  C   UNL     1      18.461 -38.697   0.869  1.00  0.00     0.041 C 
ATOM      5  O   UNL     1      18.556 -39.928   0.619  1.00  0.00    -0.550 OA
ATOM      6  O   UNL     1      19.597 -37.899   0.832  1.00  0.00    -0.550 OA
ENDBRANCH   3   4
ENDBRANCH   2   3
ENDBRANCH   1   2
BRANCH   1   7
ATOM      7  C   UNL     1      17.760 -34.989   0.286  1.00  0.00     0.000 C 
BRANCH   7   8
ATOM      8  C   UNL     1      17.100 -34.248  -0.883  1.00  0.00    -0.000 C 
BRANCH   8   9
ATOM      9  C   UNL     1      16.730 -35.221  -2.012  1.00  0.00    -0.000 C 
BRANCH   9  10
ATOM     10  C   UNL     1      17.774 -36.333  -2.198  1.00  0.00    -0.003 C 
ATOM     11  C   UNL     1      17.144 -37.694  -2.489  1.00  0.00     0.004 C 
ENDBRANCH   9  10
ENDBRANCH   8   9
ENDBRANCH   7   8
ENDBRANCH   1   7
TORSDOF 7
ENDMDL
MODEL 5
REMARK VINA RESULT:    -4.104      2.035      2.807
REMARK INTER + INTRA:          -6.149
REMARK INTER:                  -5.383
REMARK INTRA:                  -0.765
REMARK UNBOUND:                -0.366
REMARK SMILES CCCCCCCCC(=O)[O-]
REMARK SMILES IDX 6 1 7 2 8 3 9 4 10 5 11 6 5 7 4 8 3 9 2 10 1 11
REMARK H PARENT
REMARK Flexibility Score: inf
ROOT
ATOM      1  C   UNL     1      16.521 -36.950  -2.058  1.00  0.00     0.000 C 
ENDROOT
BRANCH   1   2
ATOM      2  C   UNL     1      16.919 -38.373  -1.633  1.00  0.00     0.006 C 
BRANCH   2   3
ATOM      3  C   UNL     1      16.960 -38.534  -0.108  1.00  0.00     0.053 C 
BRANCH   3   4
ATOM      4  C   UNL     1      18.315 -38.958   0.371  1.00  0.00     0.041 C 
ATOM      5  O   UNL     1      19.331 -38.271   0.084  1.00  0.00    -0.550 OA
ATOM      6  O   UNL     1      18.451 -40.092   1.160  1.00  0.00    -0.550 OA
ENDBRANCH   3   4
ENDBRANCH   2   3
ENDBRANCH   1   2
BRANCH   1   7
ATOM      7  C   UNL     1      17.761 -36.077  -2.281  1.00  0.00     0.000 C 
BRANCH   7   8
ATOM      8  C   UNL     1      17.457 -34.603  -1.981  1.00  0.00    -0.000 C 
BRANCH   8   9
ATOM      9  C   UNL     1      16.851 -34.441  -0.580  1.00  0.00    -0.000 C 
BRANCH   9  10
ATOM     10  C   UNL     1      17.858 -34.751   0.539  1.00  0.00    -0.003 C 
ATOM     11  C   UNL     1      17.205 -35.395   1.761  1.00  0.00     0.004 C 
ENDBRANCH   9  10
ENDBRANCH   8   9
ENDBRANCH   7   8
ENDBRANCH   1   7
TORSDOF 7
ENDMDL
MODEL 6
REMARK VINA RESULT:    -3.922      1.738      2.869
REMARK INTER + INTRA:          -5.892
REMARK INTER:                  -5.422
REMARK INTRA:                  -0.470
REMARK UNBOUND:                -0.366
REMARK SMILES CCCCCCCCC(=O)[O-]
REMARK SMILES IDX 6 1 7 2 8 3 9 4 10 5 11 6 5 7 4 8 3 9 2 10 1 11
REMARK H PARENT
REMARK Flexibility Score: inf
ROOT
ATOM      1  C   UNL     1      17.114 -35.735   1.696  1.00  0.00     0.000 C 
ENDROOT
BRANCH   1   2
ATOM      2  C   UNL     1      16.680 -37.198   1.514  1.00  0.00     0.006 C 
BRANCH   2   3
ATOM      3  C   UNL     1      17.548 -38.167   2.327  1.00  0.00     0.053 C 
BRANCH   3   4
ATOM      4  C   UNL     1      18.577 -38.843   1.473  1.00  0.00     0.041 C 
ATOM      5  O   UNL     1      18.526 -40.087   1.284  1.00  0.00    -0.550 OA
ATOM      6  O   UNL     1      19.574 -38.095   0.860  1.00  0.00    -0.550 OA
ENDBRANCH   3   4
ENDBRANCH   2   3
ENDBRANCH   1   2
BRANCH   1   7
ATOM      7  C   UNL     1      17.689 -35.167   0.394  1.00  0.00     0.000 C 
BRANCH   7   8
ATOM      8  C   UNL     1      17.379 -36.086  -0.793  1.00  0.00    -0.000 C 
BRANCH   8   9
ATOM      9  C   UNL     1      17.290 -35.285  -2.100  1.00  0.00    -0.000 C 
BRANCH   9  10
ATOM     10  C   UNL     1      17.343 -33.766  -1.867  1.00  0.00    -0.003 C 
ATOM     11  C   UNL     1      16.010 -33.076  -2.156  1.00  0.00     0.004 C 
ENDBRANCH   9  10
ENDBRANCH   8   9
ENDBRANCH   7   8
ENDBRANCH   1   7
TORSDOF 7
ENDMDL
MODEL 7
REMARK VINA RESULT:    -3.900      2.588      4.848
REMARK INTER + INTRA:          -5.862
REMARK INTER:                  -5.168
REMARK INTRA:                  -0.694
REMARK UNBOUND:                -0.366
REMARK SMILES CCCCCCCCC(=O)[O-]
REMARK SMILES IDX 6 1 7 2 8 3 9 4 10 5 11 6 5 7 4 8 3 9 2 10 1 11
REMARK H PARENT
REMARK Flexibility Score: inf
ROOT
ATOM      1  C   UNL     1      17.792 -36.611  -2.160  1.00  0.00     0.000 C 
ENDROOT
BRANCH   1   2
ATOM      2  C   UNL     1      16.566 -35.685  -2.147  1.00  0.00     0.006 C 
BRANCH   2   3
ATOM      3  C   UNL     1      16.953 -34.211  -1.968  1.00  0.00     0.053 C 
BRANCH   3   4
ATOM      4  C   UNL     1      15.794 -33.384  -1.504  1.00  0.00     0.041 C 
ATOM      5  O   UNL     1      15.570 -32.259  -2.023  1.00  0.00    -0.550 OA
ATOM      6  O   UNL     1      14.942 -33.869  -0.520  1.00  0.00    -0.550 OA
ENDBRANCH   3   4
ENDBRANCH   2   3
ENDBRANCH   1   2
BRANCH   1   7
ATOM      7  C   UNL     1      17.592 -37.800  -1.213  1.00  0.00     0.000 C 
BRANCH   7   8
ATOM      8  C   UNL     1      18.575 -37.740  -0.037  1.00  0.00    -0.000 C 
BRANCH   8   9
ATOM      9  C   UNL     1      17.826 -37.629   1.299  1.00  0.00    -0.000 C 
BRANCH   9  10
ATOM     10  C   UNL     1      17.001 -36.336   1.408  1.00  0.00    -0.003 C 
ATOM     11  C   UNL     1      17.867 -35.078   1.394  1.00  0.00     0.004 C 
ENDBRANCH   9  10
ENDBRANCH   8   9
ENDBRANCH   7   8
ENDBRANCH   1   7
TORSDOF 7
ENDMDL
MODEL 8
REMARK VINA RESULT:    -3.864      3.373      5.318
REMARK INTER + INTRA:          -5.811
REMARK INTER:                  -5.328
REMARK INTRA:                  -0.483
REMARK UNBOUND:                -0.366
REMARK SMILES CCCCCCCCC(=O)[O-]
REMARK SMILES IDX 6 1 7 2 8 3 9 4 10 5 11 6 5 7 4 8 3 9 2 10 1 11
REMARK H PARENT
REMARK Flexibility Score: inf
ROOT
ATOM      1  C   UNL     1      17.247 -33.884  -2.025  1.00  0.00     0.000 C 
ENDROOT
BRANCH   1   2
ATOM      2  C   UNL     1      16.039 -32.937  -2.093  1.00  0.00     0.006 C 
BRANCH   2   3
ATOM      3  C   UNL     1      14.833 -33.478  -1.314  1.00  0.00     0.053 C 
BRANCH   3   4
ATOM      4  C   UNL     1      13.987 -32.372  -0.760  1.00  0.00     0.041 C 
ATOM      5  O   UNL     1      13.234 -32.584   0.227  1.00  0.00    -0.550 OA
ATOM      6  O   UNL     1      14.054 -31.100  -1.313  1.00  0.00    -0.550 OA
ENDBRANCH   3   4
ENDBRANCH   2   3
ENDBRANCH   1   2
BRANCH   1   7
ATOM      7  C   UNL     1      17.410 -34.468  -0.617  1.00  0.00     0.000 C 
BRANCH   7   8
ATOM      8  C   UNL     1      17.479 -35.999  -0.660  1.00  0.00    -0.000 C 
BRANCH   8   9
ATOM      9  C   UNL     1      17.679 -36.500  -2.098  1.00  0.00    -0.000 C 
BRANCH   9  10
ATOM     10  C   UNL     1      16.874 -37.775  -2.398  1.00  0.00    -0.003 C 
ATOM     11  C   UNL     1      16.244 -38.384  -1.146  1.00  0.00     0.004 C 
ENDBRANCH   9  10
ENDBRANCH   8   9
ENDBRANCH   7   8
ENDBRANCH   1   7
TORSDOF 7
ENDMDL
MODEL 9
REMARK VINA RESULT:    -3.708      3.559      3.935
REMARK INTER + INTRA:          -5.591
REMARK INTER:                  -5.136
REMARK INTRA:                  -0.455
REMARK UNBOUND:                -0.366
REMARK SMILES CCCCCCCCC(=O)[O-]
REMARK SMILES IDX 6 1 7 2 8 3 9 4 10 5 11 6 5 7 4 8 3 9 2 10 1 11
REMARK H PARENT
REMARK Flexibility Score: inf
ROOT
ATOM      1  C   UNL     1      17.101 -37.650  -2.119  1.00  0.00     0.000 C 
ENDROOT
BRANCH   1   2
ATOM      2  C   UNL     1      15.570 -37.546  -2.198  1.00  0.00     0.006 C 
BRANCH   2   3
ATOM      3  C   UNL     1      14.893 -38.922  -2.188  1.00  0.00     0.053 C 
BRANCH   3   4
ATOM      4  C   UNL     1      14.517 -39.368  -3.568  1.00  0.00     0.041 C 
ATOM      5  O   UNL     1      13.450 -38.960  -4.097  1.00  0.00    -0.550 OA
ATOM      6  O   UNL     1      15.362 -40.208  -4.282  1.00  0.00    -0.550 OA
ENDBRANCH   3   4
ENDBRANCH   2   3
ENDBRANCH   1   2
BRANCH   1   7
ATOM      7  C   UNL     1      17.755 -36.275  -2.297  1.00  0.00     0.000 C 
BRANCH   7   8
ATOM      8  C   UNL     1      17.064 -35.219  -1.426  1.00  0.00    -0.000 C 
BRANCH   8   9
ATOM      9  C   UNL     1      17.295 -33.808  -1.986  1.00  0.00    -0.000 C 
BRANCH   9  10
ATOM     10  C   UNL     1      15.991 -33.007  -2.126  1.00  0.00    -0.003 C 
ATOM     11  C   UNL     1      14.744 -33.867  -1.927  1.00  0.00     0.004 C 
ENDBRANCH   9  10
ENDBRANCH   8   9
ENDBRANCH   7   8
ENDBRANCH   1   7
TORSDOF 7
ENDMDL
