MODEL 1
REMARK VINA RESULT:    -3.832      0.000      0.000
REMARK INTER + INTRA:          -5.012
REMARK INTER:                  -4.729
REMARK INTRA:                  -0.283
REMARK UNBOUND:                -0.283
REMARK SMILES CCCCC=CC(C)=O
REMARK SMILES IDX 4 1 3 2 2 3 1 4 5 5 6 6 7 7 9 8 8 9
REMARK H PARENT
REMARK Flexibility Score: inf
ROOT
ATOM      1  C   UNL     1      -7.760 -28.767 -19.068  1.00  0.00     0.027 C 
ENDROOT
BRANCH   1   2
ATOM      2  C   UNL     1      -8.955 -29.693 -18.808  1.00  0.00     0.004 C 
BRANCH   2   3
ATOM      3  C   UNL     1      -9.471 -30.304 -20.117  1.00  0.00    -0.003 C 
ATOM      4  C   UNL     1     -10.667 -29.523 -20.654  1.00  0.00     0.004 C 
ENDBRANCH   2   3
ENDBRANCH   1   2
BRANCH   1   5
ATOM      5  C   UNL     1      -7.978 -27.413 -18.457  1.00  0.00    -0.023 C 
ATOM      6  C   UNL     1      -9.208 -26.947 -18.213  1.00  0.00     0.042 C 
BRANCH   6   7
ATOM      7  C   UNL     1      -9.445 -25.616 -17.625  1.00  0.00     0.152 C 
ATOM      8  O   UNL     1     -10.225 -25.472 -16.645  1.00  0.00    -0.295 OA
ATOM      9  C   UNL     1      -8.753 -24.421 -18.198  1.00  0.00     0.093 C 
ENDBRANCH   6   7
ENDBRANCH   1   5
TORSDOF 4
ENDMDL
MODEL 2
REMARK VINA RESULT:    -3.684      1.336      1.673
REMARK INTER + INTRA:          -4.828
REMARK INTER:                  -4.579
REMARK INTRA:                  -0.249
REMARK UNBOUND:                -0.283
REMARK SMILES CCCCC=CC(C)=O
REMARK SMILES IDX 4 1 3 2 2 3 1 4 5 5 6 6 7 7 9 8 8 9
REMARK H PARENT
REMARK Flexibility Score: inf
ROOT
ATOM      1  C   UNL     1     -10.342 -28.119 -18.514  1.00  0.00     0.027 C 
ENDROOT
BRANCH   1   2
ATOM      2  C   UNL     1      -9.050 -28.900 -18.788  1.00  0.00     0.004 C 
BRANCH   2   3
ATOM      3  C   UNL     1      -9.144 -29.669 -20.112  1.00  0.00    -0.003 C 
ATOM      4  C   UNL     1     -10.568 -29.645 -20.661  1.00  0.00     0.004 C 
ENDBRANCH   2   3
ENDBRANCH   1   2
BRANCH   1   5
ATOM      5  C   UNL     1     -10.045 -26.718 -18.063  1.00  0.00    -0.023 C 
ATOM      6  C   UNL     1      -8.793 -26.249 -18.016  1.00  0.00     0.042 C 
BRANCH   6   7
ATOM      7  C   UNL     1      -8.479 -24.882 -17.565  1.00  0.00     0.152 C 
ATOM      8  O   UNL     1      -7.431 -24.644 -16.904  1.00  0.00    -0.295 OA
ATOM      9  C   UNL     1      -9.414 -23.762 -17.891  1.00  0.00     0.093 C 
ENDBRANCH   6   7
ENDBRANCH   1   5
TORSDOF 4
ENDMDL
MODEL 3
REMARK VINA RESULT:    -3.639      2.068      4.737
REMARK INTER + INTRA:          -4.773
REMARK INTER:                  -4.527
REMARK INTRA:                  -0.246
REMARK UNBOUND:                -0.283
REMARK SMILES CCCCC=CC(C)=O
REMARK SMILES IDX 4 1 3 2 2 3 1 4 5 5 6 6 7 7 9 8 8 9
REMARK H PARENT
REMARK Flexibility Score: inf
ROOT
ATOM      1  C   UNL     1      -7.989 -26.038 -18.094  1.00  0.00     0.027 C 
ENDROOT
BRANCH   1   2
ATOM      2  C   UNL     1      -9.372 -25.385 -18.210  1.00  0.00     0.004 C 
BRANCH   2   3
ATOM      3  C   UNL     1      -9.570 -24.323 -17.122  1.00  0.00    -0.003 C 
ATOM      4  C   UNL     1      -9.748 -24.966 -15.750  1.00  0.00     0.004 C 
ENDBRANCH   2   3
ENDBRANCH   1   2
BRANCH   1   5
ATOM      5  C   UNL     1      -8.053 -27.508 -18.397  1.00  0.00    -0.023 C 
ATOM      6  C   UNL     1      -9.209 -28.108 -18.705  1.00  0.00     0.042 C 
BRANCH   6   7
ATOM      7  C   UNL     1      -9.296 -29.550 -18.992  1.00  0.00     0.152 C 
ATOM      8  O   UNL     1      -8.941 -30.403 -18.133  1.00  0.00    -0.295 OA
ATOM      9  C   UNL     1      -9.809 -30.010 -20.319  1.00  0.00     0.093 C 
ENDBRANCH   6   7
ENDBRANCH   1   5
TORSDOF 4
ENDMDL
MODEL 4
REMARK VINA RESULT:    -3.596     14.304     14.925
REMARK INTER + INTRA:          -4.720
REMARK INTER:                  -4.460
REMARK INTRA:                  -0.260
REMARK UNBOUND:                -0.283
REMARK SMILES CCCCC=CC(C)=O
REMARK SMILES IDX 4 1 3 2 2 3 1 4 5 5 6 6 7 7 9 8 8 9
REMARK H PARENT
REMARK Flexibility Score: inf
ROOT
ATOM      1  C   UNL     1      -8.971 -34.765  -6.579  1.00  0.00     0.027 C 
ENDROOT
BRANCH   1   2
ATOM      2  C   UNL     1     -10.059 -35.717  -7.092  1.00  0.00     0.004 C 
BRANCH   2   3
ATOM      3  C   UNL     1     -10.298 -36.862  -6.101  1.00  0.00    -0.003 C 
ATOM      4  C   UNL     1     -11.761 -36.922  -5.671  1.00  0.00     0.004 C 
ENDBRANCH   2   3
ENDBRANCH   1   2
BRANCH   1   5
ATOM      5  C   UNL     1      -9.495 -33.877  -5.487  1.00  0.00    -0.023 C 
ATOM      6  C   UNL     1     -10.709 -33.321  -5.561  1.00  0.00     0.042 C 
BRANCH   6   7
ATOM      7  C   UNL     1     -11.237 -32.437  -4.506  1.00  0.00     0.152 C 
ATOM      8  O   UNL     1     -12.193 -31.649  -4.743  1.00  0.00    -0.295 OA
ATOM      9  C   UNL     1     -10.632 -32.473  -3.140  1.00  0.00     0.093 C 
ENDBRANCH   6   7
ENDBRANCH   1   5
TORSDOF 4
ENDMDL
MODEL 5
REMARK VINA RESULT:    -3.565      2.188      5.195
REMARK INTER + INTRA:          -4.682
REMARK INTER:                  -4.584
REMARK INTRA:                  -0.098
REMARK UNBOUND:                -0.283
REMARK SMILES CCCCC=CC(C)=O
REMARK SMILES IDX 4 1 3 2 2 3 1 4 5 5 6 6 7 7 9 8 8 9
REMARK H PARENT
REMARK Flexibility Score: inf
ROOT
ATOM      1  C   UNL     1      -9.606 -25.968 -18.001  1.00  0.00     0.027 C 
ENDROOT
BRANCH   1   2
ATOM      2  C   UNL     1      -8.474 -25.058 -17.506  1.00  0.00     0.004 C 
BRANCH   2   3
ATOM      3  C   UNL     1      -8.784 -24.506 -16.110  1.00  0.00    -0.003 C 
ATOM      4  C   UNL     1      -8.663 -22.985 -16.080  1.00  0.00     0.004 C 
ENDBRANCH   2   3
ENDBRANCH   1   2
BRANCH   1   5
ATOM      5  C   UNL     1      -9.096 -27.341 -18.333  1.00  0.00    -0.023 C 
ATOM      6  C   UNL     1      -9.932 -28.356 -18.580  1.00  0.00     0.042 C 
BRANCH   6   7
ATOM      7  C   UNL     1      -9.453 -29.713 -18.895  1.00  0.00     0.152 C 
ATOM      8  O   UNL     1      -8.956 -30.447 -17.997  1.00  0.00    -0.295 OA
ATOM      9  C   UNL     1      -9.554 -30.227 -20.295  1.00  0.00     0.093 C 
ENDBRANCH   6   7
ENDBRANCH   1   5
TORSDOF 4
ENDMDL
MODEL 6
REMARK VINA RESULT:    -3.513      2.415      5.809
REMARK INTER + INTRA:          -4.617
REMARK INTER:                  -4.345
REMARK INTRA:                  -0.272
REMARK UNBOUND:                -0.283
REMARK SMILES CCCCC=CC(C)=O
REMARK SMILES IDX 4 1 3 2 2 3 1 4 5 5 6 6 7 7 9 8 8 9
REMARK H PARENT
REMARK Flexibility Score: inf
ROOT
ATOM      1  C   UNL     1      -8.872 -23.145 -16.091  1.00  0.00     0.027 C 
ENDROOT
BRANCH   1   2
ATOM      2  C   UNL     1      -7.585 -22.629 -16.749  1.00  0.00     0.004 C 
BRANCH   2   3
ATOM      3  C   UNL     1      -6.463 -22.477 -15.716  1.00  0.00    -0.003 C 
ATOM      4  C   UNL     1      -5.545 -23.696 -15.717  1.00  0.00     0.004 C 
ENDBRANCH   2   3
ENDBRANCH   1   2
BRANCH   1   5
ATOM      5  C   UNL     1      -9.120 -24.585 -16.435  1.00  0.00    -0.023 C 
ATOM      6  C   UNL     1      -8.860 -25.066 -17.656  1.00  0.00     0.042 C 
BRANCH   6   7
ATOM      7  C   UNL     1      -9.108 -26.473 -18.019  1.00  0.00     0.152 C 
ATOM      8  O   UNL     1     -10.279 -26.943 -18.021  1.00  0.00    -0.295 OA
ATOM      9  C   UNL     1      -7.959 -27.356 -18.386  1.00  0.00     0.093 C 
ENDBRANCH   6   7
ENDBRANCH   1   5
TORSDOF 4
ENDMDL
MODEL 7
REMARK VINA RESULT:    -3.506      2.333      3.799
REMARK INTER + INTRA:          -4.609
REMARK INTER:                  -4.304
REMARK INTRA:                  -0.305
REMARK UNBOUND:                -0.283
REMARK SMILES CCCCC=CC(C)=O
REMARK SMILES IDX 4 1 3 2 2 3 1 4 5 5 6 6 7 7 9 8 8 9
REMARK H PARENT
REMARK Flexibility Score: inf
ROOT
ATOM      1  C   UNL     1      -6.140 -28.093 -18.567  1.00  0.00     0.027 C 
ENDROOT
BRANCH   1   2
ATOM      2  C   UNL     1      -5.426 -28.892 -19.665  1.00  0.00     0.004 C 
BRANCH   2   3
ATOM      3  C   UNL     1      -5.632 -28.241 -21.038  1.00  0.00    -0.003 C 
ATOM      4  C   UNL     1      -6.306 -29.206 -22.008  1.00  0.00     0.004 C 
ENDBRANCH   2   3
ENDBRANCH   1   2
BRANCH   1   5
ATOM      5  C   UNL     1      -7.630 -28.123 -18.753  1.00  0.00    -0.023 C 
ATOM      6  C   UNL     1      -8.312 -29.275 -18.744  1.00  0.00     0.042 C 
BRANCH   6   7
ATOM      7  C   UNL     1      -9.772 -29.328 -18.937  1.00  0.00     0.152 C 
ATOM      8  O   UNL     1     -10.558 -29.145 -17.968  1.00  0.00    -0.295 OA
ATOM      9  C   UNL     1     -10.328 -29.602 -20.297  1.00  0.00     0.093 C 
ENDBRANCH   6   7
ENDBRANCH   1   5
TORSDOF 4
ENDMDL
MODEL 8
REMARK VINA RESULT:    -3.482      2.036      5.218
REMARK INTER + INTRA:          -4.579
REMARK INTER:                  -4.478
REMARK INTRA:                  -0.101
REMARK UNBOUND:                -0.283
REMARK SMILES CCCCC=CC(C)=O
REMARK SMILES IDX 4 1 3 2 2 3 1 4 5 5 6 6 7 7 9 8 8 9
REMARK H PARENT
REMARK Flexibility Score: inf
ROOT
ATOM      1  C   UNL     1      -8.605 -25.313 -17.945  1.00  0.00     0.027 C 
ENDROOT
BRANCH   1   2
ATOM      2  C   UNL     1      -8.667 -24.863 -16.480  1.00  0.00     0.004 C 
BRANCH   2   3
ATOM      3  C   UNL     1      -9.022 -23.376 -16.377  1.00  0.00    -0.003 C 
ATOM      4  C   UNL     1      -7.786 -22.534 -16.073  1.00  0.00     0.004 C 
ENDBRANCH   2   3
ENDBRANCH   1   2
BRANCH   1   5
ATOM      5  C   UNL     1      -9.567 -26.435 -18.211  1.00  0.00    -0.023 C 
ATOM      6  C   UNL     1      -9.138 -27.672 -18.489  1.00  0.00     0.042 C 
BRANCH   6   7
ATOM      7  C   UNL     1     -10.065 -28.784 -18.765  1.00  0.00     0.152 C 
ATOM      8  O   UNL     1     -10.639 -29.396 -17.823  1.00  0.00    -0.295 OA
ATOM      9  C   UNL     1     -10.328 -29.194 -20.179  1.00  0.00     0.093 C 
ENDBRANCH   6   7
ENDBRANCH   1   5
TORSDOF 4
ENDMDL
MODEL 9
REMARK VINA RESULT:    -3.429      1.328      2.224
REMARK INTER + INTRA:          -4.514
REMARK INTER:                  -4.264
REMARK INTRA:                  -0.250
REMARK UNBOUND:                -0.283
REMARK SMILES CCCCC=CC(C)=O
REMARK SMILES IDX 4 1 3 2 2 3 1 4 5 5 6 6 7 7 9 8 8 9
REMARK H PARENT
REMARK Flexibility Score: inf
ROOT
ATOM      1  C   UNL     1     -10.215 -28.101 -19.129  1.00  0.00     0.027 C 
ENDROOT
BRANCH   1   2
ATOM      2  C   UNL     1      -9.183 -29.158 -18.716  1.00  0.00     0.004 C 
BRANCH   2   3
ATOM      3  C   UNL     1      -7.852 -28.940 -19.446  1.00  0.00    -0.003 C 
ATOM      4  C   UNL     1      -6.739 -28.579 -18.465  1.00  0.00     0.004 C 
ENDBRANCH   2   3
ENDBRANCH   1   2
BRANCH   1   5
ATOM      5  C   UNL     1     -10.428 -27.093 -18.036  1.00  0.00    -0.023 C 
ATOM      6  C   UNL     1      -9.578 -26.076 -17.849  1.00  0.00     0.042 C 
BRANCH   6   7
ATOM      7  C   UNL     1      -9.762 -25.082 -16.776  1.00  0.00     0.152 C 
ATOM      8  O   UNL     1     -10.334 -25.397 -15.697  1.00  0.00    -0.295 OA
ATOM      9  C   UNL     1      -9.265 -23.686 -16.967  1.00  0.00     0.093 C 
ENDBRANCH   6   7
ENDBRANCH   1   5
TORSDOF 4
ENDMDL
