MODEL 1
REMARK VINA RESULT:    -5.717      0.000      0.000
REMARK INTER + INTRA:          -6.144
REMARK INTER:                  -6.051
REMARK INTRA:                  -0.093
REMARK UNBOUND:                -0.093
REMARK SMILES C=C(C)[C@H]1CC=C(C)C(=O)C1
REMARK SMILES IDX 8 1 7 2 6 3 5 4 4 5 11 6 9 7 10 8 2 9 1 10 3 11
REMARK H PARENT
REMARK Flexibility Score: inf
ROOT
ATOM      1  C   UNL     1     -12.506 -20.379  31.633  1.00  0.00     0.048 C 
ATOM      2  C   UNL     1     -12.492 -19.641  30.323  1.00  0.00    -0.012 C 
ATOM      3  C   UNL     1     -13.569 -19.684  29.519  1.00  0.00    -0.019 C 
ATOM      4  C   UNL     1     -13.602 -18.979  28.189  1.00  0.00     0.036 C 
ATOM      5  C   UNL     1     -12.762 -17.688  28.225  1.00  0.00     0.025 C 
ATOM      6  C   UNL     1     -11.326 -17.995  28.687  1.00  0.00     0.089 C 
ATOM      7  C   UNL     1     -11.341 -18.771  29.976  1.00  0.00     0.158 C 
ATOM      8  O   UNL     1     -10.345 -18.702  30.746  1.00  0.00    -0.295 OA
ENDROOT
BRANCH   5   9
ATOM      9  C   UNL     1     -12.780 -16.966  26.887  1.00  0.00    -0.077 C 
ATOM     10  C   UNL     1     -13.815 -16.187  26.522  1.00  0.00     0.008 C 
ATOM     11  C   UNL     1     -11.604 -17.136  25.961  1.00  0.00     0.039 C 
ENDBRANCH   5   9
TORSDOF 1
ENDMDL
MODEL 2
REMARK VINA RESULT:    -5.633      2.662      4.283
REMARK INTER + INTRA:          -6.055
REMARK INTER:                  -5.958
REMARK INTRA:                  -0.098
REMARK UNBOUND:                -0.093
REMARK SMILES C=C(C)[C@H]1CC=C(C)C(=O)C1
REMARK SMILES IDX 8 1 7 2 6 3 5 4 4 5 11 6 9 7 10 8 2 9 1 10 3 11
REMARK H PARENT
REMARK Flexibility Score: inf
ROOT
ATOM      1  C   UNL     1     -11.379 -17.361  26.188  1.00  0.00     0.048 C 
ATOM      2  C   UNL     1     -11.848 -16.753  27.482  1.00  0.00    -0.012 C 
ATOM      3  C   UNL     1     -12.982 -16.031  27.508  1.00  0.00    -0.019 C 
ATOM      4  C   UNL     1     -13.488 -15.386  28.771  1.00  0.00     0.036 C 
ATOM      5  C   UNL     1     -13.123 -16.228  30.009  1.00  0.00     0.025 C 
ATOM      6  C   UNL     1     -11.606 -16.484  30.053  1.00  0.00     0.089 C 
ATOM      7  C   UNL     1     -11.128 -17.052  28.744  1.00  0.00     0.158 C 
ATOM      8  O   UNL     1     -10.084 -17.759  28.726  1.00  0.00    -0.295 OA
ENDROOT
BRANCH   5   9
ATOM      9  C   UNL     1     -13.622 -15.586  31.294  1.00  0.00    -0.077 C 
ATOM     10  C   UNL     1     -14.677 -14.752  31.299  1.00  0.00     0.008 C 
ATOM     11  C   UNL     1     -12.909 -15.904  32.582  1.00  0.00     0.039 C 
ENDBRANCH   5   9
TORSDOF 1
ENDMDL
MODEL 3
REMARK VINA RESULT:    -5.590      2.350      3.082
REMARK INTER + INTRA:          -6.011
REMARK INTER:                  -5.913
REMARK INTRA:                  -0.097
REMARK UNBOUND:                -0.093
REMARK SMILES C=C(C)[C@H]1CC=C(C)C(=O)C1
REMARK SMILES IDX 8 1 7 2 6 3 5 4 4 5 11 6 9 7 10 8 2 9 1 10 3 11
REMARK H PARENT
REMARK Flexibility Score: inf
ROOT
ATOM      1  C   UNL     1     -10.972 -16.241  32.740  1.00  0.00     0.048 C 
ATOM      2  C   UNL     1     -11.412 -16.239  31.302  1.00  0.00    -0.012 C 
ATOM      3  C   UNL     1     -10.547 -15.875  30.339  1.00  0.00    -0.019 C 
ATOM      4  C   UNL     1     -10.939 -15.838  28.886  1.00  0.00     0.036 C 
ATOM      5  C   UNL     1     -11.982 -16.926  28.565  1.00  0.00     0.025 C 
ATOM      6  C   UNL     1     -13.197 -16.795  29.501  1.00  0.00     0.089 C 
ATOM      7  C   UNL     1     -12.755 -16.754  30.938  1.00  0.00     0.158 C 
ATOM      8  O   UNL     1     -13.555 -17.129  31.837  1.00  0.00    -0.295 OA
ENDROOT
BRANCH   5   9
ATOM      9  C   UNL     1     -12.393 -16.898  27.101  1.00  0.00    -0.077 C 
ATOM     10  C   UNL     1     -13.620 -16.496  26.724  1.00  0.00     0.008 C 
ATOM     11  C   UNL     1     -11.391 -17.332  26.063  1.00  0.00     0.039 C 
ENDBRANCH   5   9
TORSDOF 1
ENDMDL
MODEL 4
REMARK VINA RESULT:    -5.541      1.764      2.249
REMARK INTER + INTRA:          -5.959
REMARK INTER:                  -5.861
REMARK INTRA:                  -0.098
REMARK UNBOUND:                -0.093
REMARK SMILES C=C(C)[C@H]1CC=C(C)C(=O)C1
REMARK SMILES IDX 8 1 7 2 6 3 5 4 4 5 11 6 9 7 10 8 2 9 1 10 3 11
REMARK H PARENT
REMARK Flexibility Score: inf
ROOT
ATOM      1  C   UNL     1     -12.521 -20.408  31.599  1.00  0.00     0.048 C 
ATOM      2  C   UNL     1     -12.909 -19.281  30.681  1.00  0.00    -0.012 C 
ATOM      3  C   UNL     1     -12.822 -18.010  31.109  1.00  0.00    -0.019 C 
ATOM      4  C   UNL     1     -13.215 -16.845  30.239  1.00  0.00     0.036 C 
ATOM      5  C   UNL     1     -12.930 -17.143  28.754  1.00  0.00     0.025 C 
ATOM      6  C   UNL     1     -13.623 -18.449  28.328  1.00  0.00     0.089 C 
ATOM      7  C   UNL     1     -13.269 -19.567  29.270  1.00  0.00     0.158 C 
ATOM      8  O   UNL     1     -13.317 -20.757  28.857  1.00  0.00    -0.295 OA
ENDROOT
BRANCH   5   9
ATOM      9  C   UNL     1     -13.327 -15.978  27.860  1.00  0.00    -0.077 C 
ATOM     10  C   UNL     1     -13.450 -14.730  28.346  1.00  0.00     0.008 C 
ATOM     11  C   UNL     1     -13.581 -16.245  26.400  1.00  0.00     0.039 C 
ENDBRANCH   5   9
TORSDOF 1
ENDMDL
MODEL 5
REMARK VINA RESULT:    -5.440      2.831      4.666
REMARK INTER + INTRA:          -5.851
REMARK INTER:                  -5.756
REMARK INTRA:                  -0.095
REMARK UNBOUND:                -0.093
REMARK SMILES C=C(C)[C@H]1CC=C(C)C(=O)C1
REMARK SMILES IDX 8 1 7 2 6 3 5 4 4 5 11 6 9 7 10 8 2 9 1 10 3 11
REMARK H PARENT
REMARK Flexibility Score: inf
ROOT
ATOM      1  C   UNL     1     -11.431 -17.382  26.321  1.00  0.00     0.048 C 
ATOM      2  C   UNL     1     -11.659 -17.162  27.792  1.00  0.00    -0.012 C 
ATOM      3  C   UNL     1     -11.021 -16.163  28.426  1.00  0.00    -0.019 C 
ATOM      4  C   UNL     1     -11.198 -15.910  29.899  1.00  0.00     0.036 C 
ATOM      5  C   UNL     1     -12.622 -16.282  30.358  1.00  0.00     0.025 C 
ATOM      6  C   UNL     1     -12.946 -17.736  29.973  1.00  0.00     0.089 C 
ATOM      7  C   UNL     1     -12.678 -17.968  28.511  1.00  0.00     0.158 C 
ATOM      8  O   UNL     1     -13.303 -18.882  27.908  1.00  0.00    -0.295 OA
ENDROOT
BRANCH   5   9
ATOM      9  C   UNL     1     -12.816 -16.037  31.846  1.00  0.00    -0.077 C 
ATOM     10  C   UNL     1     -11.785 -16.096  32.708  1.00  0.00     0.008 C 
ATOM     11  C   UNL     1     -14.200 -15.721  32.350  1.00  0.00     0.039 C 
ENDBRANCH   5   9
TORSDOF 1
ENDMDL
MODEL 6
REMARK VINA RESULT:    -5.396      2.851      4.233
REMARK INTER + INTRA:          -5.805
REMARK INTER:                  -5.713
REMARK INTRA:                  -0.092
REMARK UNBOUND:                -0.093
REMARK SMILES C=C(C)[C@H]1CC=C(C)C(=O)C1
REMARK SMILES IDX 8 1 7 2 6 3 5 4 4 5 11 6 9 7 10 8 2 9 1 10 3 11
REMARK H PARENT
REMARK Flexibility Score: inf
ROOT
ATOM      1  C   UNL     1     -13.414 -20.527  28.521  1.00  0.00     0.048 C 
ATOM      2  C   UNL     1     -13.348 -19.393  29.507  1.00  0.00    -0.012 C 
ATOM      3  C   UNL     1     -13.278 -19.655  30.824  1.00  0.00    -0.019 C 
ATOM      4  C   UNL     1     -13.228 -18.559  31.855  1.00  0.00     0.036 C 
ATOM      5  C   UNL     1     -12.490 -17.320  31.311  1.00  0.00     0.025 C 
ATOM      6  C   UNL     1     -13.131 -16.851  29.992  1.00  0.00     0.089 C 
ATOM      7  C   UNL     1     -13.237 -17.995  29.021  1.00  0.00     0.158 C 
ATOM      8  O   UNL     1     -13.267 -17.751  27.784  1.00  0.00    -0.295 OA
ENDROOT
BRANCH   5   9
ATOM      9  C   UNL     1     -12.436 -16.200  32.338  1.00  0.00    -0.077 C 
ATOM     10  C   UNL     1     -11.305 -15.916  33.009  1.00  0.00     0.008 C 
ATOM     11  C   UNL     1     -13.685 -15.398  32.596  1.00  0.00     0.039 C 
ENDBRANCH   5   9
TORSDOF 1
ENDMDL
MODEL 7
REMARK VINA RESULT:    -5.386      3.161      4.729
REMARK INTER + INTRA:          -5.794
REMARK INTER:                  -5.701
REMARK INTRA:                  -0.093
REMARK UNBOUND:                -0.093
REMARK SMILES C=C(C)[C@H]1CC=C(C)C(=O)C1
REMARK SMILES IDX 8 1 7 2 6 3 5 4 4 5 11 6 9 7 10 8 2 9 1 10 3 11
REMARK H PARENT
REMARK Flexibility Score: inf
ROOT
ATOM      1  C   UNL     1     -14.995 -14.219  31.204  1.00  0.00     0.048 C 
ATOM      2  C   UNL     1     -14.091 -15.421  31.187  1.00  0.00    -0.012 C 
ATOM      3  C   UNL     1     -14.033 -16.229  32.260  1.00  0.00    -0.019 C 
ATOM      4  C   UNL     1     -13.132 -17.435  32.304  1.00  0.00     0.036 C 
ATOM      5  C   UNL     1     -12.972 -18.059  30.904  1.00  0.00     0.025 C 
ATOM      6  C   UNL     1     -12.482 -17.001  29.899  1.00  0.00     0.089 C 
ATOM      7  C   UNL     1     -13.361 -15.781  29.946  1.00  0.00     0.158 C 
ATOM      8  O   UNL     1     -13.443 -15.043  28.927  1.00  0.00    -0.295 OA
ENDROOT
BRANCH   5   9
ATOM      9  C   UNL     1     -12.060 -19.275  30.930  1.00  0.00    -0.077 C 
ATOM     10  C   UNL     1     -12.510 -20.483  31.315  1.00  0.00     0.008 C 
ATOM     11  C   UNL     1     -10.624 -19.107  30.509  1.00  0.00     0.039 C 
ENDBRANCH   5   9
TORSDOF 1
ENDMDL
MODEL 8
REMARK VINA RESULT:    -5.367      2.893      4.151
REMARK INTER + INTRA:          -5.775
REMARK INTER:                  -5.680
REMARK INTRA:                  -0.095
REMARK UNBOUND:                -0.093
REMARK SMILES C=C(C)[C@H]1CC=C(C)C(=O)C1
REMARK SMILES IDX 8 1 7 2 6 3 5 4 4 5 11 6 9 7 10 8 2 9 1 10 3 11
REMARK H PARENT
REMARK Flexibility Score: inf
ROOT
ATOM      1  C   UNL     1     -13.368 -20.455  28.603  1.00  0.00     0.048 C 
ATOM      2  C   UNL     1     -13.106 -19.298  29.528  1.00  0.00    -0.012 C 
ATOM      3  C   UNL     1     -13.294 -18.039  29.094  1.00  0.00    -0.019 C 
ATOM      4  C   UNL     1     -13.029 -16.844  29.971  1.00  0.00     0.036 C 
ATOM      5  C   UNL     1     -13.325 -17.166  31.450  1.00  0.00     0.025 C 
ATOM      6  C   UNL     1     -12.531 -18.405  31.898  1.00  0.00     0.089 C 
ATOM      7  C   UNL     1     -12.759 -19.550  30.949  1.00  0.00     0.158 C 
ATOM      8  O   UNL     1     -12.617 -20.731  31.366  1.00  0.00    -0.295 OA
ENDROOT
BRANCH   5   9
ATOM      9  C   UNL     1     -13.057 -15.970  32.351  1.00  0.00    -0.077 C 
ATOM     10  C   UNL     1     -11.833 -15.728  32.852  1.00  0.00     0.008 C 
ATOM     11  C   UNL     1     -14.200 -15.044  32.676  1.00  0.00     0.039 C 
ENDBRANCH   5   9
TORSDOF 1
ENDMDL
MODEL 9
REMARK VINA RESULT:    -5.335      1.934      2.369
REMARK INTER + INTRA:          -5.740
REMARK INTER:                  -5.643
REMARK INTRA:                  -0.098
REMARK UNBOUND:                -0.093
REMARK SMILES C=C(C)[C@H]1CC=C(C)C(=O)C1
REMARK SMILES IDX 8 1 7 2 6 3 5 4 4 5 11 6 9 7 10 8 2 9 1 10 3 11
REMARK H PARENT
REMARK Flexibility Score: inf
ROOT
ATOM      1  C   UNL     1     -11.375 -16.277  32.718  1.00  0.00     0.048 C 
ATOM      2  C   UNL     1     -11.749 -16.553  31.287  1.00  0.00    -0.012 C 
ATOM      3  C   UNL     1     -12.758 -15.872  30.716  1.00  0.00    -0.019 C 
ATOM      4  C   UNL     1     -13.187 -16.121  29.294  1.00  0.00     0.036 C 
ATOM      5  C   UNL     1     -11.986 -16.529  28.418  1.00  0.00     0.025 C 
ATOM      6  C   UNL     1     -11.264 -17.743  29.030  1.00  0.00     0.089 C 
ATOM      7  C   UNL     1     -10.928 -17.484  30.473  1.00  0.00     0.158 C 
ATOM      8  O   UNL     1      -9.959 -18.097  30.998  1.00  0.00    -0.295 OA
ENDROOT
BRANCH   5   9
ATOM      9  C   UNL     1     -12.403 -16.790  26.979  1.00  0.00    -0.077 C 
ATOM     10  C   UNL     1     -13.653 -16.538  26.553  1.00  0.00     0.008 C 
ATOM     11  C   UNL     1     -11.378 -17.339  26.021  1.00  0.00     0.039 C 
ENDBRANCH   5   9
TORSDOF 1
ENDMDL
