MODEL 1
REMARK VINA RESULT:    -4.885      0.000      0.000
REMARK INTER + INTRA:         -11.257
REMARK INTER:                  -8.883
REMARK INTRA:                  -2.374
REMARK UNBOUND:                -2.374
REMARK SMILES CCCCCCCCCCCCCC[C@@H](C)C(=O)[O-]
REMARK SMILES IDX 9 1 10 2 11 3 12 4 13 5 14 6 15 7 16 8 17 9 18 10 19 11 8 12
REMARK SMILES IDX 7 13 6 14 5 15 4 16 3 17 2 18 1 19
REMARK H PARENT
REMARK Flexibility Score: inf
ROOT
ATOM      1  C   UNL     1       7.780  10.211  31.641  1.00  0.00     0.000 C 
ENDROOT
BRANCH   1   2
ATOM      2  C   UNL     1       8.630   9.967  30.378  1.00  0.00     0.000 C 
BRANCH   2   3
ATOM      3  C   UNL     1       8.644  11.125  29.361  1.00  0.00     0.000 C 
BRANCH   3   4
ATOM      4  C   UNL     1       9.467  10.868  28.085  1.00  0.00     0.000 C 
BRANCH   4   5
ATOM      5  C   UNL     1       9.802   9.380  27.879  1.00  0.00     0.001 C 
BRANCH   5   6
ATOM      6  C   UNL     1       9.718   8.942  26.404  1.00  0.00     0.009 C 
BRANCH   6   7
ATOM      7  C   UNL     1      10.253   7.522  26.107  1.00  0.00     0.032 C 
ATOM      8  C   UNL     1      10.740   6.802  27.370  1.00  0.00     0.014 C 
BRANCH   7   9
ATOM      9  C   UNL     1       9.170   6.710  25.449  1.00  0.00     0.044 C 
ATOM     10  O   UNL     1       8.430   7.234  24.574  1.00  0.00    -0.550 OA
ATOM     11  O   UNL     1       8.968   5.383  25.810  1.00  0.00    -0.550 OA
ENDBRANCH   7   9
ENDBRANCH   6   7
ENDBRANCH   5   6
ENDBRANCH   4   5
ENDBRANCH   3   4
ENDBRANCH   2   3
ENDBRANCH   1   2
BRANCH   1  12
ATOM     12  C   UNL     1       6.511  11.052  31.416  1.00  0.00     0.000 C 
BRANCH  12  13
ATOM     13  C   UNL     1       5.278  10.475  32.127  1.00  0.00    -0.000 C 
BRANCH  13  14
ATOM     14  C   UNL     1       4.198  10.071  31.111  1.00  0.00    -0.000 C 
BRANCH  14  15
ATOM     15  C   UNL     1       4.601   8.851  30.269  1.00  0.00    -0.000 C 
BRANCH  15  16
ATOM     16  C   UNL     1       4.497   9.115  28.758  1.00  0.00    -0.000 C 
BRANCH  16  17
ATOM     17  C   UNL     1       5.865   9.091  28.050  1.00  0.00    -0.000 C 
BRANCH  17  18
ATOM     18  C   UNL     1       6.327   7.700  27.579  1.00  0.00    -0.003 C 
ATOM     19  C   UNL     1       7.167   6.964  28.622  1.00  0.00     0.004 C 
ENDBRANCH  17  18
ENDBRANCH  16  17
ENDBRANCH  15  16
ENDBRANCH  14  15
ENDBRANCH  13  14
ENDBRANCH  12  13
ENDBRANCH   1  12
TORSDOF 14
ENDMDL
MODEL 2
REMARK VINA RESULT:    -4.868      1.167      1.647
REMARK INTER + INTRA:         -11.225
REMARK INTER:                  -9.498
REMARK INTRA:                  -1.727
REMARK UNBOUND:                -2.374
REMARK SMILES CCCCCCCCCCCCCC[C@@H](C)C(=O)[O-]
REMARK SMILES IDX 9 1 10 2 11 3 12 4 13 5 14 6 15 7 16 8 17 9 18 10 19 11 8 12
REMARK SMILES IDX 7 13 6 14 5 15 4 16 3 17 2 18 1 19
REMARK H PARENT
REMARK Flexibility Score: inf
ROOT
ATOM      1  C   UNL     1       7.310  10.255  32.076  1.00  0.00     0.000 C 
ENDROOT
BRANCH   1   2
ATOM      2  C   UNL     1       8.510  10.169  31.113  1.00  0.00     0.000 C 
BRANCH   2   3
ATOM      3  C   UNL     1       9.328   8.865  31.195  1.00  0.00     0.000 C 
BRANCH   3   4
ATOM      4  C   UNL     1       9.530   8.131  29.856  1.00  0.00     0.000 C 
BRANCH   4   5
ATOM      5  C   UNL     1      10.340   8.955  28.840  1.00  0.00     0.001 C 
BRANCH   5   6
ATOM      6  C   UNL     1      10.930   8.098  27.704  1.00  0.00     0.009 C 
BRANCH   6   7
ATOM      7  C   UNL     1       9.911   7.610  26.647  1.00  0.00     0.032 C 
ATOM      8  C   UNL     1      10.085   8.313  25.295  1.00  0.00     0.014 C 
BRANCH   7   9
ATOM      9  C   UNL     1      10.055   6.123  26.465  1.00  0.00     0.044 C 
ATOM     10  O   UNL     1       9.149   5.466  25.888  1.00  0.00    -0.550 OA
ATOM     11  O   UNL     1      11.180   5.462  26.945  1.00  0.00    -0.550 OA
ENDBRANCH   7   9
ENDBRANCH   6   7
ENDBRANCH   5   6
ENDBRANCH   4   5
ENDBRANCH   3   4
ENDBRANCH   2   3
ENDBRANCH   1   2
BRANCH   1  12
ATOM     12  C   UNL     1       6.141  11.125  31.581  1.00  0.00     0.000 C 
BRANCH  12  13
ATOM     13  C   UNL     1       4.792  10.714  32.189  1.00  0.00    -0.000 C 
BRANCH  13  14
ATOM     14  C   UNL     1       3.887  10.067  31.129  1.00  0.00    -0.000 C 
BRANCH  14  15
ATOM     15  C   UNL     1       4.590   8.937  30.359  1.00  0.00    -0.000 C 
BRANCH  15  16
ATOM     16  C   UNL     1       4.529   9.134  28.835  1.00  0.00    -0.000 C 
BRANCH  16  17
ATOM     17  C   UNL     1       5.786   9.822  28.269  1.00  0.00    -0.000 C 
BRANCH  17  18
ATOM     18  C   UNL     1       6.686   8.919  27.406  1.00  0.00    -0.003 C 
ATOM     19  C   UNL     1       6.434   7.429  27.632  1.00  0.00     0.004 C 
ENDBRANCH  17  18
ENDBRANCH  16  17
ENDBRANCH  15  16
ENDBRANCH  14  15
ENDBRANCH  13  14
ENDBRANCH  12  13
ENDBRANCH   1  12
TORSDOF 14
ENDMDL
MODEL 3
REMARK VINA RESULT:    -4.820      2.559      5.681
REMARK INTER + INTRA:         -11.138
REMARK INTER:                  -8.632
REMARK INTRA:                  -2.506
REMARK UNBOUND:                -2.374
REMARK SMILES CCCCCCCCCCCCCC[C@@H](C)C(=O)[O-]
REMARK SMILES IDX 9 1 10 2 11 3 12 4 13 5 14 6 15 7 16 8 17 9 18 10 19 11 8 12
REMARK SMILES IDX 7 13 6 14 5 15 4 16 3 17 2 18 1 19
REMARK H PARENT
REMARK Flexibility Score: inf
ROOT
ATOM      1  C   UNL     1      10.917   7.128  28.243  1.00  0.00     0.000 C 
ENDROOT
BRANCH   1   2
ATOM      2  C   UNL     1      10.609   8.636  28.150  1.00  0.00     0.000 C 
BRANCH   2   3
ATOM      3  C   UNL     1       9.591   9.164  29.180  1.00  0.00     0.000 C 
BRANCH   3   4
ATOM      4  C   UNL     1       9.583   8.428  30.533  1.00  0.00     0.000 C 
BRANCH   4   5
ATOM      5  C   UNL     1       9.090   9.313  31.691  1.00  0.00     0.001 C 
BRANCH   5   6
ATOM      6  C   UNL     1       8.083  10.388  31.242  1.00  0.00     0.009 C 
BRANCH   6   7
ATOM      7  C   UNL     1       6.601  10.080  31.564  1.00  0.00     0.032 C 
ATOM      8  C   UNL     1       5.974  11.124  32.496  1.00  0.00     0.014 C 
BRANCH   7   9
ATOM      9  C   UNL     1       5.817  10.012  30.281  1.00  0.00     0.044 C 
ATOM     10  O   UNL     1       6.333  10.407  29.203  1.00  0.00    -0.550 OA
ATOM     11  O   UNL     1       4.514   9.528  30.279  1.00  0.00    -0.550 OA
ENDBRANCH   7   9
ENDBRANCH   6   7
ENDBRANCH   5   6
ENDBRANCH   4   5
ENDBRANCH   3   4
ENDBRANCH   2   3
ENDBRANCH   1   2
BRANCH   1  12
ATOM     12  C   UNL     1      10.756   6.350  26.924  1.00  0.00     0.000 C 
BRANCH  12  13
ATOM     13  C   UNL     1      10.018   5.016  27.105  1.00  0.00    -0.000 C 
BRANCH  13  14
ATOM     14  C   UNL     1       9.155   5.035  28.377  1.00  0.00    -0.000 C 
BRANCH  14  15
ATOM     15  C   UNL     1       7.656   5.195  28.074  1.00  0.00    -0.000 C 
BRANCH  15  16
ATOM     16  C   UNL     1       7.111   6.568  28.501  1.00  0.00    -0.000 C 
BRANCH  16  17
ATOM     17  C   UNL     1       6.490   7.356  27.331  1.00  0.00    -0.000 C 
BRANCH  17  18
ATOM     18  C   UNL     1       7.506   8.006  26.375  1.00  0.00    -0.003 C 
ATOM     19  C   UNL     1       7.630   7.269  25.042  1.00  0.00     0.004 C 
ENDBRANCH  17  18
ENDBRANCH  16  17
ENDBRANCH  15  16
ENDBRANCH  14  15
ENDBRANCH  13  14
ENDBRANCH  12  13
ENDBRANCH   1  12
TORSDOF 14
ENDMDL
MODEL 4
REMARK VINA RESULT:    -4.780      1.334      2.608
REMARK INTER + INTRA:         -11.067
REMARK INTER:                  -8.915
REMARK INTRA:                  -2.151
REMARK UNBOUND:                -2.374
REMARK SMILES CCCCCCCCCCCCCC[C@@H](C)C(=O)[O-]
REMARK SMILES IDX 9 1 10 2 11 3 12 4 13 5 14 6 15 7 16 8 17 9 18 10 19 11 8 12
REMARK SMILES IDX 7 13 6 14 5 15 4 16 3 17 2 18 1 19
REMARK H PARENT
REMARK Flexibility Score: inf
ROOT
ATOM      1  C   UNL     1       9.334   8.417  29.808  1.00  0.00     0.000 C 
ENDROOT
BRANCH   1   2
ATOM      2  C   UNL     1      10.227   9.215  28.837  1.00  0.00     0.000 C 
BRANCH   2   3
ATOM      3  C   UNL     1       9.509  10.329  28.048  1.00  0.00     0.000 C 
BRANCH   3   4
ATOM      4  C   UNL     1       9.333  10.059  26.542  1.00  0.00     0.000 C 
BRANCH   4   5
ATOM      5  C   UNL     1       9.481   8.570  26.181  1.00  0.00     0.001 C 
BRANCH   5   6
ATOM      6  C   UNL     1       8.129   7.859  25.989  1.00  0.00     0.009 C 
BRANCH   6   7
ATOM      7  C   UNL     1       8.002   6.483  26.684  1.00  0.00     0.032 C 
ATOM      8  C   UNL     1       6.544   6.031  26.831  1.00  0.00     0.014 C 
BRANCH   7   9
ATOM      9  C   UNL     1       8.772   5.456  25.898  1.00  0.00     0.044 C 
ATOM     10  O   UNL     1       8.773   5.493  24.639  1.00  0.00    -0.550 OA
ATOM     11  O   UNL     1       9.474   4.451  26.553  1.00  0.00    -0.550 OA
ENDBRANCH   7   9
ENDBRANCH   6   7
ENDBRANCH   5   6
ENDBRANCH   4   5
ENDBRANCH   3   4
ENDBRANCH   2   3
ENDBRANCH   1   2
BRANCH   1  12
ATOM     12  C   UNL     1       9.348   8.918  31.263  1.00  0.00     0.000 C 
BRANCH  12  13
ATOM     13  C   UNL     1       8.677  10.289  31.429  1.00  0.00    -0.000 C 
BRANCH  13  14
ATOM     14  C   UNL     1       7.301  10.148  32.099  1.00  0.00    -0.000 C 
BRANCH  14  15
ATOM     15  C   UNL     1       6.196  10.913  31.353  1.00  0.00    -0.000 C 
BRANCH  15  16
ATOM     16  C   UNL     1       5.116   9.981  30.780  1.00  0.00    -0.000 C 
BRANCH  16  17
ATOM     17  C   UNL     1       5.688   8.918  29.823  1.00  0.00    -0.000 C 
BRANCH  17  18
ATOM     18  C   UNL     1       5.248   9.062  28.355  1.00  0.00    -0.003 C 
ATOM     19  C   UNL     1       5.800  10.320  27.686  1.00  0.00     0.004 C 
ENDBRANCH  17  18
ENDBRANCH  16  17
ENDBRANCH  15  16
ENDBRANCH  14  15
ENDBRANCH  13  14
ENDBRANCH  12  13
ENDBRANCH   1  12
TORSDOF 14
ENDMDL
MODEL 5
REMARK VINA RESULT:    -4.689      2.804      6.135
REMARK INTER + INTRA:         -10.901
REMARK INTER:                  -8.244
REMARK INTRA:                  -2.656
REMARK UNBOUND:                -2.374
REMARK SMILES CCCCCCCCCCCCCC[C@@H](C)C(=O)[O-]
REMARK SMILES IDX 9 1 10 2 11 3 12 4 13 5 14 6 15 7 16 8 17 9 18 10 19 11 8 12
REMARK SMILES IDX 7 13 6 14 5 15 4 16 3 17 2 18 1 19
REMARK H PARENT
REMARK Flexibility Score: inf
ROOT
ATOM      1  C   UNL     1       9.490   7.790  25.439  1.00  0.00     0.000 C 
ENDROOT
BRANCH   1   2
ATOM      2  C   UNL     1       8.056   7.380  25.053  1.00  0.00     0.000 C 
BRANCH   2   3
ATOM      3  C   UNL     1       7.637   5.962  25.488  1.00  0.00     0.000 C 
BRANCH   3   4
ATOM      4  C   UNL     1       6.485   5.901  26.508  1.00  0.00     0.000 C 
BRANCH   4   5
ATOM      5  C   UNL     1       6.795   6.666  27.806  1.00  0.00     0.001 C 
BRANCH   5   6
ATOM      6  C   UNL     1       5.830   7.840  28.059  1.00  0.00     0.009 C 
BRANCH   6   7
ATOM      7  C   UNL     1       6.451   9.249  27.905  1.00  0.00     0.032 C 
ATOM      8  C   UNL     1       5.733  10.093  26.844  1.00  0.00     0.014 C 
BRANCH   7   9
ATOM      9  C   UNL     1       6.407   9.960  29.230  1.00  0.00     0.044 C 
ATOM     10  O   UNL     1       7.295  10.804  29.524  1.00  0.00    -0.550 OA
ATOM     11  O   UNL     1       5.399   9.681  30.145  1.00  0.00    -0.550 OA
ENDBRANCH   7   9
ENDBRANCH   6   7
ENDBRANCH   5   6
ENDBRANCH   4   5
ENDBRANCH   3   4
ENDBRANCH   2   3
ENDBRANCH   1   2
BRANCH   1  12
ATOM     12  C   UNL     1       9.597   9.098  26.245  1.00  0.00     0.000 C 
BRANCH  12  13
ATOM     13  C   UNL     1      10.200   8.890  27.642  1.00  0.00    -0.000 C 
BRANCH  13  14
ATOM     14  C   UNL     1      10.075   7.422  28.080  1.00  0.00    -0.000 C 
BRANCH  14  15
ATOM     15  C   UNL     1      11.357   6.888  28.738  1.00  0.00    -0.000 C 
BRANCH  15  16
ATOM     16  C   UNL     1      11.612   5.405  28.418  1.00  0.00    -0.000 C 
BRANCH  16  17
ATOM     17  C   UNL     1      10.873   4.930  27.153  1.00  0.00    -0.000 C 
BRANCH  17  18
ATOM     18  C   UNL     1      10.013   3.667  27.340  1.00  0.00    -0.003 C 
ATOM     19  C   UNL     1       8.965   3.814  28.443  1.00  0.00     0.004 C 
ENDBRANCH  17  18
ENDBRANCH  16  17
ENDBRANCH  15  16
ENDBRANCH  14  15
ENDBRANCH  13  14
ENDBRANCH  12  13
ENDBRANCH   1  12
TORSDOF 14
ENDMDL
MODEL 6
REMARK VINA RESULT:    -4.672      1.842      2.365
REMARK INTER + INTRA:         -10.870
REMARK INTER:                  -8.689
REMARK INTRA:                  -2.181
REMARK UNBOUND:                -2.374
REMARK SMILES CCCCCCCCCCCCCC[C@@H](C)C(=O)[O-]
REMARK SMILES IDX 9 1 10 2 11 3 12 4 13 5 14 6 15 7 16 8 17 9 18 10 19 11 8 12
REMARK SMILES IDX 7 13 6 14 5 15 4 16 3 17 2 18 1 19
REMARK H PARENT
REMARK Flexibility Score: inf
ROOT
ATOM      1  C   UNL     1       8.196  10.509  31.233  1.00  0.00     0.000 C 
ENDROOT
BRANCH   1   2
ATOM      2  C   UNL     1       9.119   9.282  31.364  1.00  0.00     0.000 C 
BRANCH   2   3
ATOM      3  C   UNL     1       9.301   8.455  30.076  1.00  0.00     0.000 C 
BRANCH   3   4
ATOM      4  C   UNL     1      10.267   9.059  29.039  1.00  0.00     0.000 C 
BRANCH   4   5
ATOM      5  C   UNL     1      10.515   8.126  27.840  1.00  0.00     0.001 C 
BRANCH   5   6
ATOM      6  C   UNL     1      10.725   6.657  28.253  1.00  0.00     0.009 C 
BRANCH   6   7
ATOM      7  C   UNL     1       9.766   5.642  27.587  1.00  0.00     0.032 C 
ATOM      8  C   UNL     1       9.501   5.965  26.111  1.00  0.00     0.014 C 
BRANCH   7   9
ATOM      9  C   UNL     1      10.347   4.258  27.704  1.00  0.00     0.044 C 
ATOM     10  O   UNL     1      11.578   4.106  27.923  1.00  0.00    -0.550 OA
ATOM     11  O   UNL     1       9.535   3.140  27.558  1.00  0.00    -0.550 OA
ENDBRANCH   7   9
ENDBRANCH   6   7
ENDBRANCH   5   6
ENDBRANCH   4   5
ENDBRANCH   3   4
ENDBRANCH   2   3
ENDBRANCH   1   2
BRANCH   1  12
ATOM     12  C   UNL     1       7.252  10.742  32.427  1.00  0.00     0.000 C 
BRANCH  12  13
ATOM     13  C   UNL     1       5.793  10.384  32.112  1.00  0.00    -0.000 C 
BRANCH  13  14
ATOM     14  C   UNL     1       5.589  10.192  30.600  1.00  0.00    -0.000 C 
BRANCH  14  15
ATOM     15  C   UNL     1       4.828   8.900  30.264  1.00  0.00    -0.000 C 
BRANCH  15  16
ATOM     16  C   UNL     1       4.861   8.570  28.762  1.00  0.00    -0.000 C 
BRANCH  16  17
ATOM     17  C   UNL     1       6.131   7.806  28.343  1.00  0.00    -0.000 C 
BRANCH  17  18
ATOM     18  C   UNL     1       6.873   8.397  27.131  1.00  0.00    -0.003 C 
ATOM     19  C   UNL     1       7.106   9.902  27.247  1.00  0.00     0.004 C 
ENDBRANCH  17  18
ENDBRANCH  16  17
ENDBRANCH  15  16
ENDBRANCH  14  15
ENDBRANCH  13  14
ENDBRANCH  12  13
ENDBRANCH   1  12
TORSDOF 14
ENDMDL
MODEL 7
REMARK VINA RESULT:    -4.604      2.618      5.608
REMARK INTER + INTRA:         -10.746
REMARK INTER:                  -8.238
REMARK INTRA:                  -2.509
REMARK UNBOUND:                -2.374
REMARK SMILES CCCCCCCCCCCCCC[C@@H](C)C(=O)[O-]
REMARK SMILES IDX 9 1 10 2 11 3 12 4 13 5 14 6 15 7 16 8 17 9 18 10 19 11 8 12
REMARK SMILES IDX 7 13 6 14 5 15 4 16 3 17 2 18 1 19
REMARK H PARENT
REMARK Flexibility Score: inf
ROOT
ATOM      1  C   UNL     1       7.577   6.788  24.835  1.00  0.00     0.000 C 
ENDROOT
BRANCH   1   2
ATOM      2  C   UNL     1       9.097   7.001  24.982  1.00  0.00     0.000 C 
BRANCH   2   3
ATOM      3  C   UNL     1       9.527   8.430  25.368  1.00  0.00     0.000 C 
BRANCH   3   4
ATOM      4  C   UNL     1       9.710   8.675  26.877  1.00  0.00     0.000 C 
BRANCH   4   5
ATOM      5  C   UNL     1       9.542  10.154  27.267  1.00  0.00     0.001 C 
BRANCH   5   6
ATOM      6  C   UNL     1       9.380  10.363  28.785  1.00  0.00     0.009 C 
BRANCH   6   7
ATOM      7  C   UNL     1       8.663   9.216  29.536  1.00  0.00     0.032 C 
ATOM      8  C   UNL     1       9.420   8.776  30.795  1.00  0.00     0.014 C 
BRANCH   7   9
ATOM      9  C   UNL     1       7.274   9.658  29.910  1.00  0.00     0.044 C 
ATOM     10  O   UNL     1       7.011   9.975  31.100  1.00  0.00    -0.550 OA
ATOM     11  O   UNL     1       6.269   9.704  28.951  1.00  0.00    -0.550 OA
ENDBRANCH   7   9
ENDBRANCH   6   7
ENDBRANCH   5   6
ENDBRANCH   4   5
ENDBRANCH   3   4
ENDBRANCH   2   3
ENDBRANCH   1   2
BRANCH   1  12
ATOM     12  C   UNL     1       6.941   5.889  25.910  1.00  0.00     0.000 C 
BRANCH  12  13
ATOM     13  C   UNL     1       6.721   6.618  27.244  1.00  0.00    -0.000 C 
BRANCH  13  14
ATOM     14  C   UNL     1       7.474   5.915  28.384  1.00  0.00    -0.000 C 
BRANCH  14  15
ATOM     15  C   UNL     1       7.926   4.495  28.009  1.00  0.00    -0.000 C 
BRANCH  15  16
ATOM     16  C   UNL     1       9.390   4.221  28.391  1.00  0.00    -0.000 C 
BRANCH  16  17
ATOM     17  C   UNL     1      10.363   5.275  27.829  1.00  0.00    -0.000 C 
BRANCH  17  18
ATOM     18  C   UNL     1      11.131   6.081  28.892  1.00  0.00    -0.003 C 
ATOM     19  C   UNL     1      12.499   6.559  28.409  1.00  0.00     0.004 C 
ENDBRANCH  17  18
ENDBRANCH  16  17
ENDBRANCH  15  16
ENDBRANCH  14  15
ENDBRANCH  13  14
ENDBRANCH  12  13
ENDBRANCH   1  12
TORSDOF 14
ENDMDL
MODEL 8
REMARK VINA RESULT:    -4.555      1.710      3.692
REMARK INTER + INTRA:         -10.656
REMARK INTER:                  -8.170
REMARK INTRA:                  -2.487
REMARK UNBOUND:                -2.374
REMARK SMILES CCCCCCCCCCCCCC[C@@H](C)C(=O)[O-]
REMARK SMILES IDX 9 1 10 2 11 3 12 4 13 5 14 6 15 7 16 8 17 9 18 10 19 11 8 12
REMARK SMILES IDX 7 13 6 14 5 15 4 16 3 17 2 18 1 19
REMARK H PARENT
REMARK Flexibility Score: inf
ROOT
ATOM      1  C   UNL     1       5.489   9.430  29.894  1.00  0.00     0.000 C 
ENDROOT
BRANCH   1   2
ATOM      2  C   UNL     1       6.302  10.009  31.068  1.00  0.00     0.000 C 
BRANCH   2   3
ATOM      3  C   UNL     1       7.689  10.569  30.695  1.00  0.00     0.000 C 
BRANCH   3   4
ATOM      4  C   UNL     1       8.887   9.717  31.155  1.00  0.00     0.000 C 
BRANCH   4   5
ATOM      5  C   UNL     1       9.138   8.501  30.247  1.00  0.00     0.001 C 
BRANCH   5   6
ATOM      6  C   UNL     1      10.132   8.795  29.107  1.00  0.00     0.009 C 
BRANCH   6   7
ATOM      7  C   UNL     1       9.492   9.055  27.723  1.00  0.00     0.032 C 
ATOM      8  C   UNL     1       9.499  10.541  27.343  1.00  0.00     0.014 C 
BRANCH   7   9
ATOM      9  C   UNL     1      10.229   8.262  26.677  1.00  0.00     0.044 C 
ATOM     10  O   UNL     1       9.727   8.106  25.533  1.00  0.00    -0.550 OA
ATOM     11  O   UNL     1      11.459   7.685  26.970  1.00  0.00    -0.550 OA
ENDBRANCH   7   9
ENDBRANCH   6   7
ENDBRANCH   5   6
ENDBRANCH   4   5
ENDBRANCH   3   4
ENDBRANCH   2   3
ENDBRANCH   1   2
BRANCH   1  12
ATOM     12  C   UNL     1       5.841  10.010  28.512  1.00  0.00     0.000 C 
BRANCH  12  13
ATOM     13  C   UNL     1       5.977   8.930  27.429  1.00  0.00    -0.000 C 
BRANCH  13  14
ATOM     14  C   UNL     1       6.176   7.543  28.059  1.00  0.00    -0.000 C 
BRANCH  14  15
ATOM     15  C   UNL     1       6.825   6.539  27.093  1.00  0.00    -0.000 C 
BRANCH  15  16
ATOM     16  C   UNL     1       7.719   5.517  27.815  1.00  0.00    -0.000 C 
BRANCH  16  17
ATOM     17  C   UNL     1       8.717   4.822  26.870  1.00  0.00    -0.000 C 
BRANCH  17  18
ATOM     18  C   UNL     1       9.643   3.795  27.547  1.00  0.00    -0.003 C 
ATOM     19  C   UNL     1      10.877   4.430  28.187  1.00  0.00     0.004 C 
ENDBRANCH  17  18
ENDBRANCH  16  17
ENDBRANCH  15  16
ENDBRANCH  14  15
ENDBRANCH  13  14
ENDBRANCH  12  13
ENDBRANCH   1  12
TORSDOF 14
ENDMDL
MODEL 9
REMARK VINA RESULT:    -4.507      3.425      5.476
REMARK INTER + INTRA:         -10.570
REMARK INTER:                  -7.853
REMARK INTRA:                  -2.718
REMARK UNBOUND:                -2.374
REMARK SMILES CCCCCCCCCCCCCC[C@@H](C)C(=O)[O-]
REMARK SMILES IDX 9 1 10 2 11 3 12 4 13 5 14 6 15 7 16 8 17 9 18 10 19 11 8 12
REMARK SMILES IDX 7 13 6 14 5 15 4 16 3 17 2 18 1 19
REMARK H PARENT
REMARK Flexibility Score: inf
ROOT
ATOM      1  C   UNL     1       9.310   8.126  25.370  1.00  0.00     0.000 C 
ENDROOT
BRANCH   1   2
ATOM      2  C   UNL     1      10.572   7.736  26.165  1.00  0.00     0.000 C 
BRANCH   2   3
ATOM      3  C   UNL     1      10.622   8.255  27.616  1.00  0.00     0.000 C 
BRANCH   3   4
ATOM      4  C   UNL     1      11.091   7.230  28.665  1.00  0.00     0.000 C 
BRANCH   4   5
ATOM      5  C   UNL     1      12.487   6.660  28.360  1.00  0.00     0.001 C 
BRANCH   5   6
ATOM      6  C   UNL     1      12.460   5.165  27.988  1.00  0.00     0.009 C 
BRANCH   6   7
ATOM      7  C   UNL     1      11.385   4.323  28.717  1.00  0.00     0.032 C 
ATOM      8  C   UNL     1      10.762   3.255  27.809  1.00  0.00     0.014 C 
BRANCH   7   9
ATOM      9  C   UNL     1      12.001   3.666  29.922  1.00  0.00     0.044 C 
ATOM     10  O   UNL     1      12.659   4.351  30.749  1.00  0.00    -0.550 OA
ATOM     11  O   UNL     1      11.861   2.298  30.125  1.00  0.00    -0.550 OA
ENDBRANCH   7   9
ENDBRANCH   6   7
ENDBRANCH   5   6
ENDBRANCH   4   5
ENDBRANCH   3   4
ENDBRANCH   2   3
ENDBRANCH   1   2
BRANCH   1  12
ATOM     12  C   UNL     1       8.575   6.951  24.700  1.00  0.00     0.000 C 
BRANCH  12  13
ATOM     13  C   UNL     1       8.627   5.662  25.534  1.00  0.00    -0.000 C 
BRANCH  13  14
ATOM     14  C   UNL     1       7.358   5.511  26.388  1.00  0.00    -0.000 C 
BRANCH  14  15
ATOM     15  C   UNL     1       7.668   5.249  27.870  1.00  0.00    -0.000 C 
BRANCH  15  16
ATOM     16  C   UNL     1       7.531   6.514  28.735  1.00  0.00    -0.000 C 
BRANCH  16  17
ATOM     17  C   UNL     1       6.458   7.486  28.209  1.00  0.00    -0.000 C 
BRANCH  17  18
ATOM     18  C   UNL     1       6.918   8.948  28.073  1.00  0.00    -0.003 C 
ATOM     19  C   UNL     1       6.302   9.660  26.869  1.00  0.00     0.004 C 
ENDBRANCH  17  18
ENDBRANCH  16  17
ENDBRANCH  15  16
ENDBRANCH  14  15
ENDBRANCH  13  14
ENDBRANCH  12  13
ENDBRANCH   1  12
TORSDOF 14
ENDMDL
