MODEL 1
REMARK VINA RESULT:    -4.984      0.000      0.000
REMARK INTER + INTRA:          -8.466
REMARK INTER:                  -7.606
REMARK INTRA:                  -0.860
REMARK UNBOUND:                -0.860
REMARK SMILES O=C([O-])CCCCCCCCC(=O)[O-]
REMARK SMILES IDX 7 1 6 2 5 3 4 4 2 5 1 6 3 7 8 8 9 9 10 10 11 11 12 12 13 13
REMARK SMILES IDX 14 14
REMARK H PARENT
REMARK Flexibility Score: inf
ROOT
ATOM      1  C   UNL     1       9.805  21.438  -8.281  1.00  0.00     0.000 C 
ENDROOT
BRANCH   1   2
ATOM      2  C   UNL     1      10.267  22.138  -6.995  1.00  0.00     0.000 C 
BRANCH   2   3
ATOM      3  C   UNL     1      11.797  22.161  -6.902  1.00  0.00     0.006 C 
BRANCH   3   4
ATOM      4  C   UNL     1      12.427  22.395  -8.278  1.00  0.00     0.053 C 
BRANCH   4   5
ATOM      5  C   UNL     1      12.852  23.822  -8.424  1.00  0.00     0.041 C 
ATOM      6  O   UNL     1      13.720  24.306  -7.651  1.00  0.00    -0.550 OA
ATOM      7  O   UNL     1      12.254  24.631  -9.381  1.00  0.00    -0.550 OA
ENDBRANCH   4   5
ENDBRANCH   3   4
ENDBRANCH   2   3
ENDBRANCH   1   2
BRANCH   1   8
ATOM      8  C   UNL     1       8.881  22.317  -9.143  1.00  0.00     0.000 C 
BRANCH   8   9
ATOM      9  C   UNL     1       8.880  23.817  -8.781  1.00  0.00     0.000 C 
BRANCH   9  10
ATOM     10  C   UNL     1       7.485  24.443  -8.600  1.00  0.00     0.006 C 
BRANCH  10  11
ATOM     11  C   UNL     1       6.618  23.682  -7.588  1.00  0.00     0.053 C 
BRANCH  11  12
ATOM     12  C   UNL     1       6.923  24.134  -6.195  1.00  0.00     0.041 C 
ATOM     13  O   UNL     1       6.700  25.326  -5.853  1.00  0.00    -0.550 OA
ATOM     14  O   UNL     1       7.408  23.229  -5.260  1.00  0.00    -0.550 OA
ENDBRANCH  11  12
ENDBRANCH  10  11
ENDBRANCH   9  10
ENDBRANCH   8   9
ENDBRANCH   1   8
TORSDOF 9
ENDMDL
MODEL 2
REMARK VINA RESULT:    -4.937      1.698      5.213
REMARK INTER + INTRA:          -8.394
REMARK INTER:                  -7.851
REMARK INTRA:                  -0.543
REMARK UNBOUND:                -0.860
REMARK SMILES O=C([O-])CCCCCCCCC(=O)[O-]
REMARK SMILES IDX 7 1 6 2 5 3 4 4 2 5 1 6 3 7 8 8 9 9 10 10 11 11 12 12 13 13
REMARK SMILES IDX 14 14
REMARK H PARENT
REMARK Flexibility Score: inf
ROOT
ATOM      1  C   UNL     1       6.583  23.488  -9.418  1.00  0.00     0.000 C 
ENDROOT
BRANCH   1   2
ATOM      2  C   UNL     1       7.167  24.118  -8.145  1.00  0.00     0.000 C 
BRANCH   2   3
ATOM      3  C   UNL     1       6.422  23.627  -6.898  1.00  0.00     0.006 C 
BRANCH   3   4
ATOM      4  C   UNL     1       7.303  23.746  -5.651  1.00  0.00     0.053 C 
BRANCH   4   5
ATOM      5  C   UNL     1       8.007  22.453  -5.382  1.00  0.00     0.041 C 
ATOM      6  O   UNL     1       7.514  21.618  -4.578  1.00  0.00    -0.550 OA
ATOM      7  O   UNL     1       9.233  22.192  -5.981  1.00  0.00    -0.550 OA
ENDBRANCH   4   5
ENDBRANCH   3   4
ENDBRANCH   2   3
ENDBRANCH   1   2
BRANCH   1   8
ATOM      8  C   UNL     1       7.581  22.565 -10.141  1.00  0.00     0.000 C 
BRANCH   8   9
ATOM      9  C   UNL     1       8.885  22.277  -9.368  1.00  0.00     0.000 C 
BRANCH   9  10
ATOM     10  C   UNL     1      10.102  23.111  -9.809  1.00  0.00     0.006 C 
BRANCH  10  11
ATOM     11  C   UNL     1      11.214  23.144  -8.753  1.00  0.00     0.053 C 
BRANCH  11  12
ATOM     12  C   UNL     1      12.221  24.198  -9.090  1.00  0.00     0.041 C 
ATOM     13  O   UNL     1      12.144  24.822 -10.181  1.00  0.00    -0.550 OA
ATOM     14  O   UNL     1      13.216  24.526  -8.178  1.00  0.00    -0.550 OA
ENDBRANCH  11  12
ENDBRANCH  10  11
ENDBRANCH   9  10
ENDBRANCH   8   9
ENDBRANCH   1   8
TORSDOF 9
ENDMDL
MODEL 3
REMARK VINA RESULT:    -4.927      1.598      2.028
REMARK INTER + INTRA:          -8.379
REMARK INTER:                  -7.764
REMARK INTRA:                  -0.614
REMARK UNBOUND:                -0.860
REMARK SMILES O=C([O-])CCCCCCCCC(=O)[O-]
REMARK SMILES IDX 7 1 6 2 5 3 4 4 2 5 1 6 3 7 8 8 9 9 10 10 11 11 12 12 13 13
REMARK SMILES IDX 14 14
REMARK H PARENT
REMARK Flexibility Score: inf
ROOT
ATOM      1  C   UNL     1      10.997  23.165 -10.058  1.00  0.00     0.000 C 
ENDROOT
BRANCH   1   2
ATOM      2  C   UNL     1      11.447  24.458  -9.363  1.00  0.00     0.000 C 
BRANCH   2   3
ATOM      3  C   UNL     1      12.656  24.202  -8.457  1.00  0.00     0.006 C 
BRANCH   3   4
ATOM      4  C   UNL     1      12.854  22.703  -8.216  1.00  0.00     0.053 C 
BRANCH   4   5
ATOM      5  C   UNL     1      12.544  22.355  -6.795  1.00  0.00     0.041 C 
ATOM      6  O   UNL     1      13.463  22.321  -5.935  1.00  0.00    -0.550 OA
ATOM      7  O   UNL     1      11.247  22.018  -6.429  1.00  0.00    -0.550 OA
ENDBRANCH   4   5
ENDBRANCH   3   4
ENDBRANCH   2   3
ENDBRANCH   1   2
BRANCH   1   8
ATOM      8  C   UNL     1       9.518  22.827  -9.796  1.00  0.00     0.000 C 
BRANCH   8   9
ATOM      9  C   UNL     1       8.952  23.357  -8.463  1.00  0.00     0.000 C 
BRANCH   9  10
ATOM     10  C   UNL     1       7.667  24.196  -8.587  1.00  0.00     0.006 C 
BRANCH  10  11
ATOM     11  C   UNL     1       6.551  23.715  -7.651  1.00  0.00     0.053 C 
BRANCH  11  12
ATOM     12  C   UNL     1       6.891  24.033  -6.229  1.00  0.00     0.041 C 
ATOM     13  O   UNL     1       6.663  25.182  -5.765  1.00  0.00    -0.550 OA
ATOM     14  O   UNL     1       7.413  23.048  -5.401  1.00  0.00    -0.550 OA
ENDBRANCH  11  12
ENDBRANCH  10  11
ENDBRANCH   9  10
ENDBRANCH   8   9
ENDBRANCH   1   8
TORSDOF 9
ENDMDL
MODEL 4
REMARK VINA RESULT:    -4.923      0.741      5.539
REMARK INTER + INTRA:          -8.372
REMARK INTER:                  -7.553
REMARK INTRA:                  -0.819
REMARK UNBOUND:                -0.860
REMARK SMILES O=C([O-])CCCCCCCCC(=O)[O-]
REMARK SMILES IDX 7 1 6 2 5 3 4 4 2 5 1 6 3 7 8 8 9 9 10 10 11 11 12 12 13 13
REMARK SMILES IDX 14 14
REMARK H PARENT
REMARK Flexibility Score: inf
ROOT
ATOM      1  C   UNL     1       8.898  22.323  -9.371  1.00  0.00     0.000 C 
ENDROOT
BRANCH   1   2
ATOM      2  C   UNL     1       8.653  23.703  -8.743  1.00  0.00     0.000 C 
BRANCH   2   3
ATOM      3  C   UNL     1       7.160  23.930  -8.482  1.00  0.00     0.006 C 
BRANCH   3   4
ATOM      4  C   UNL     1       6.937  24.614  -7.130  1.00  0.00     0.053 C 
BRANCH   4   5
ATOM      5  C   UNL     1       6.577  23.606  -6.085  1.00  0.00     0.041 C 
ATOM      6  O   UNL     1       7.441  23.214  -5.258  1.00  0.00    -0.550 OA
ATOM      7  O   UNL     1       5.299  23.061  -6.056  1.00  0.00    -0.550 OA
ENDBRANCH   4   5
ENDBRANCH   3   4
ENDBRANCH   2   3
ENDBRANCH   1   2
BRANCH   1   8
ATOM      8  C   UNL     1       9.809  21.427  -8.511  1.00  0.00     0.000 C 
BRANCH   8   9
ATOM      9  C   UNL     1      10.148  21.988  -7.115  1.00  0.00     0.000 C 
BRANCH   9  10
ATOM     10  C   UNL     1      11.645  22.243  -6.860  1.00  0.00     0.006 C 
BRANCH  10  11
ATOM     11  C   UNL     1      12.461  22.336  -8.156  1.00  0.00     0.053 C 
BRANCH  11  12
ATOM     12  C   UNL     1      12.796  23.762  -8.460  1.00  0.00     0.041 C 
ATOM     13  O   UNL     1      12.148  24.391  -9.339  1.00  0.00    -0.550 OA
ATOM     14  O   UNL     1      13.789  24.413  -7.740  1.00  0.00    -0.550 OA
ENDBRANCH  11  12
ENDBRANCH  10  11
ENDBRANCH   9  10
ENDBRANCH   8   9
ENDBRANCH   1   8
TORSDOF 9
ENDMDL
MODEL 5
REMARK VINA RESULT:    -4.866      1.758      5.466
REMARK INTER + INTRA:          -8.285
REMARK INTER:                  -7.724
REMARK INTRA:                  -0.561
REMARK UNBOUND:                -0.860
REMARK SMILES O=C([O-])CCCCCCCCC(=O)[O-]
REMARK SMILES IDX 7 1 6 2 5 3 4 4 2 5 1 6 3 7 8 8 9 9 10 10 11 11 12 12 13 13
REMARK SMILES IDX 14 14
REMARK H PARENT
REMARK Flexibility Score: inf
ROOT
ATOM      1  C   UNL     1       9.593  23.589  -9.012  1.00  0.00     0.000 C 
ENDROOT
BRANCH   1   2
ATOM      2  C   UNL     1       8.426  22.663  -9.385  1.00  0.00     0.000 C 
BRANCH   2   3
ATOM      3  C   UNL     1       7.079  23.359  -9.157  1.00  0.00     0.006 C 
BRANCH   3   4
ATOM      4  C   UNL     1       7.163  24.349  -7.991  1.00  0.00     0.053 C 
BRANCH   4   5
ATOM      5  C   UNL     1       6.715  23.700  -6.720  1.00  0.00     0.041 C 
ATOM      6  O   UNL     1       7.546  23.463  -5.803  1.00  0.00    -0.550 OA
ATOM      7  O   UNL     1       5.391  23.310  -6.567  1.00  0.00    -0.550 OA
ENDBRANCH   4   5
ENDBRANCH   3   4
ENDBRANCH   2   3
ENDBRANCH   1   2
BRANCH   1   8
ATOM      8  C   UNL     1      10.845  23.350  -9.875  1.00  0.00     0.000 C 
BRANCH   8   9
ATOM      9  C   UNL     1      11.963  24.401  -9.712  1.00  0.00     0.000 C 
BRANCH   9  10
ATOM     10  C   UNL     1      12.691  24.374  -8.355  1.00  0.00     0.006 C 
BRANCH  10  11
ATOM     11  C   UNL     1      13.330  23.013  -8.051  1.00  0.00     0.053 C 
BRANCH  11  12
ATOM     12  C   UNL     1      12.859  22.501  -6.726  1.00  0.00     0.041 C 
ATOM     13  O   UNL     1      13.643  22.479  -5.741  1.00  0.00    -0.550 OA
ATOM     14  O   UNL     1      11.542  22.093  -6.566  1.00  0.00    -0.550 OA
ENDBRANCH  11  12
ENDBRANCH  10  11
ENDBRANCH   9  10
ENDBRANCH   8   9
ENDBRANCH   1   8
TORSDOF 9
ENDMDL
MODEL 6
REMARK VINA RESULT:    -4.837      1.981      2.553
REMARK INTER + INTRA:          -8.241
REMARK INTER:                  -7.674
REMARK INTRA:                  -0.567
REMARK UNBOUND:                -0.860
REMARK SMILES O=C([O-])CCCCCCCCC(=O)[O-]
REMARK SMILES IDX 7 1 6 2 5 3 4 4 2 5 1 6 3 7 8 8 9 9 10 10 11 11 12 12 13 13
REMARK SMILES IDX 14 14
REMARK H PARENT
REMARK Flexibility Score: inf
ROOT
ATOM      1  C   UNL     1       8.579  22.126  -9.395  1.00  0.00     0.000 C 
ENDROOT
BRANCH   1   2
ATOM      2  C   UNL     1       9.868  22.810  -9.874  1.00  0.00     0.000 C 
BRANCH   2   3
ATOM      3  C   UNL     1      10.757  23.199  -8.688  1.00  0.00     0.006 C 
BRANCH   3   4
ATOM      4  C   UNL     1      10.697  22.137  -7.585  1.00  0.00     0.053 C 
BRANCH   4   5
ATOM      5  C   UNL     1      11.570  20.973  -7.931  1.00  0.00     0.041 C 
ATOM      6  O   UNL     1      12.785  21.152  -8.208  1.00  0.00    -0.550 OA
ATOM      7  O   UNL     1      11.030  19.694  -7.995  1.00  0.00    -0.550 OA
ENDBRANCH   4   5
ENDBRANCH   3   4
ENDBRANCH   2   3
ENDBRANCH   1   2
BRANCH   1   8
ATOM      8  C   UNL     1       7.352  22.496 -10.247  1.00  0.00     0.000 C 
BRANCH   8   9
ATOM      9  C   UNL     1       6.515  23.676  -9.711  1.00  0.00     0.000 C 
BRANCH   9  10
ATOM     10  C   UNL     1       6.985  24.250  -8.362  1.00  0.00     0.006 C 
BRANCH  10  11
ATOM     11  C   UNL     1       6.233  23.650  -7.167  1.00  0.00     0.053 C 
BRANCH  11  12
ATOM     12  C   UNL     1       6.868  24.081  -5.882  1.00  0.00     0.041 C 
ATOM     13  O   UNL     1       7.639  23.300  -5.264  1.00  0.00    -0.550 OA
ATOM     14  O   UNL     1       6.648  25.362  -5.393  1.00  0.00    -0.550 OA
ENDBRANCH  11  12
ENDBRANCH  10  11
ENDBRANCH   9  10
ENDBRANCH   8   9
ENDBRANCH   1   8
TORSDOF 9
ENDMDL
MODEL 7
REMARK VINA RESULT:    -4.783      1.208      2.023
REMARK INTER + INTRA:          -8.159
REMARK INTER:                  -7.623
REMARK INTRA:                  -0.536
REMARK UNBOUND:                -0.860
REMARK SMILES O=C([O-])CCCCCCCCC(=O)[O-]
REMARK SMILES IDX 7 1 6 2 5 3 4 4 2 5 1 6 3 7 8 8 9 9 10 10 11 11 12 12 13 13
REMARK SMILES IDX 14 14
REMARK H PARENT
REMARK Flexibility Score: inf
ROOT
ATOM      1  C   UNL     1       8.637  22.578 -10.012  1.00  0.00     0.000 C 
ENDROOT
BRANCH   1   2
ATOM      2  C   UNL     1       9.236  21.945  -8.747  1.00  0.00     0.000 C 
BRANCH   2   3
ATOM      3  C   UNL     1      10.517  22.672  -8.323  1.00  0.00     0.006 C 
BRANCH   3   4
ATOM      4  C   UNL     1      11.434  22.915  -9.525  1.00  0.00     0.053 C 
BRANCH   4   5
ATOM      5  C   UNL     1      12.127  24.234  -9.396  1.00  0.00     0.041 C 
ATOM      6  O   UNL     1      12.106  25.057 -10.350  1.00  0.00    -0.550 OA
ATOM      7  O   UNL     1      12.839  24.536  -8.242  1.00  0.00    -0.550 OA
ENDBRANCH   4   5
ENDBRANCH   3   4
ENDBRANCH   2   3
ENDBRANCH   1   2
BRANCH   1   8
ATOM      8  C   UNL     1       7.136  22.279 -10.178  1.00  0.00     0.000 C 
BRANCH   8   9
ATOM      9  C   UNL     1       6.189  23.401  -9.706  1.00  0.00     0.000 C 
BRANCH   9  10
ATOM     10  C   UNL     1       5.990  23.489  -8.182  1.00  0.00     0.006 C 
BRANCH  10  11
ATOM     11  C   UNL     1       6.916  24.516  -7.520  1.00  0.00     0.053 C 
BRANCH  11  12
ATOM     12  C   UNL     1       6.850  24.393  -6.030  1.00  0.00     0.041 C 
ATOM     13  O   UNL     1       7.260  23.345  -5.463  1.00  0.00    -0.550 OA
ATOM     14  O   UNL     1       6.383  25.453  -5.263  1.00  0.00    -0.550 OA
ENDBRANCH  11  12
ENDBRANCH  10  11
ENDBRANCH   9  10
ENDBRANCH   8   9
ENDBRANCH   1   8
TORSDOF 9
ENDMDL
MODEL 8
REMARK VINA RESULT:    -4.780      2.008      5.302
REMARK INTER + INTRA:          -8.154
REMARK INTER:                  -7.298
REMARK INTRA:                  -0.856
REMARK UNBOUND:                -0.860
REMARK SMILES O=C([O-])CCCCCCCCC(=O)[O-]
REMARK SMILES IDX 7 1 6 2 5 3 4 4 2 5 1 6 3 7 8 8 9 9 10 10 11 11 12 12 13 13
REMARK SMILES IDX 14 14
REMARK H PARENT
REMARK Flexibility Score: inf
ROOT
ATOM      1  C   UNL     1       6.894  22.910 -10.591  1.00  0.00     0.000 C 
ENDROOT
BRANCH   1   2
ATOM      2  C   UNL     1       6.058  23.832  -9.691  1.00  0.00     0.000 C 
BRANCH   2   3
ATOM      3  C   UNL     1       6.291  23.512  -8.210  1.00  0.00     0.006 C 
BRANCH   3   4
ATOM      4  C   UNL     1       6.946  24.694  -7.489  1.00  0.00     0.053 C 
BRANCH   4   5
ATOM      5  C   UNL     1       6.851  24.522  -6.007  1.00  0.00     0.041 C 
ATOM      6  O   UNL     1       7.304  23.482  -5.459  1.00  0.00    -0.550 OA
ATOM      7  O   UNL     1       6.217  25.486  -5.233  1.00  0.00    -0.550 OA
ENDBRANCH   4   5
ENDBRANCH   3   4
ENDBRANCH   2   3
ENDBRANCH   1   2
BRANCH   1   8
ATOM      8  C   UNL     1       7.907  22.061  -9.802  1.00  0.00     0.000 C 
BRANCH   8   9
ATOM      9  C   UNL     1       9.384  22.472  -9.978  1.00  0.00     0.000 C 
BRANCH   9  10
ATOM     10  C   UNL     1      10.007  23.201  -8.774  1.00  0.00     0.006 C 
BRANCH  10  11
ATOM     11  C   UNL     1      10.100  22.315  -7.525  1.00  0.00     0.053 C 
BRANCH  11  12
ATOM     12  C   UNL     1      10.891  21.080  -7.820  1.00  0.00     0.041 C 
ATOM     13  O   UNL     1      10.355  19.945  -7.716  1.00  0.00    -0.550 OA
ATOM     14  O   UNL     1      12.205  21.183  -8.257  1.00  0.00    -0.550 OA
ENDBRANCH  11  12
ENDBRANCH  10  11
ENDBRANCH   9  10
ENDBRANCH   8   9
ENDBRANCH   1   8
TORSDOF 9
ENDMDL
MODEL 9
REMARK VINA RESULT:    -4.620      2.474      6.349
REMARK INTER + INTRA:          -7.911
REMARK INTER:                  -7.488
REMARK INTRA:                  -0.423
REMARK UNBOUND:                -0.860
REMARK SMILES O=C([O-])CCCCCCCCC(=O)[O-]
REMARK SMILES IDX 7 1 6 2 5 3 4 4 2 5 1 6 3 7 8 8 9 9 10 10 11 11 12 12 13 13
REMARK SMILES IDX 14 14
REMARK H PARENT
REMARK Flexibility Score: inf
ROOT
ATOM      1  C   UNL     1       8.336  22.132  -9.748  1.00  0.00     0.000 C 
ENDROOT
BRANCH   1   2
ATOM      2  C   UNL     1       6.999  22.501 -10.409  1.00  0.00     0.000 C 
BRANCH   2   3
ATOM      3  C   UNL     1       6.050  23.156  -9.400  1.00  0.00     0.006 C 
BRANCH   3   4
ATOM      4  C   UNL     1       4.605  22.706  -9.633  1.00  0.00     0.053 C 
BRANCH   4   5
ATOM      5  C   UNL     1       3.900  22.511  -8.328  1.00  0.00     0.041 C 
ATOM      6  O   UNL     1       2.707  22.110  -8.306  1.00  0.00    -0.550 OA
ATOM      7  O   UNL     1       4.545  22.821  -7.137  1.00  0.00    -0.550 OA
ENDBRANCH   4   5
ENDBRANCH   3   4
ENDBRANCH   2   3
ENDBRANCH   1   2
BRANCH   1   8
ATOM      8  C   UNL     1       8.729  23.096  -8.614  1.00  0.00     0.000 C 
BRANCH   8   9
ATOM      9  C   UNL     1       9.415  22.433  -7.402  1.00  0.00     0.000 C 
BRANCH   9  10
ATOM     10  C   UNL     1      10.229  21.166  -7.723  1.00  0.00     0.006 C 
BRANCH  10  11
ATOM     11  C   UNL     1      11.600  21.479  -8.335  1.00  0.00     0.053 C 
BRANCH  11  12
ATOM     12  C   UNL     1      12.281  22.564  -7.561  1.00  0.00     0.041 C 
ATOM     13  O   UNL     1      12.463  23.695  -8.083  1.00  0.00    -0.550 OA
ATOM     14  O   UNL     1      12.671  22.341  -6.246  1.00  0.00    -0.550 OA
ENDBRANCH  11  12
ENDBRANCH  10  11
ENDBRANCH   9  10
ENDBRANCH   8   9
ENDBRANCH   1   8
TORSDOF 9
ENDMDL
