MODEL 1
REMARK VINA RESULT:    -4.762      0.000      0.000
REMARK INTER + INTRA:         -18.465
REMARK INTER:                 -12.558
REMARK INTRA:                  -5.907
REMARK UNBOUND:                -5.907
REMARK SMILES CCCCCCCCCCCCCCCCCCCCCCCCCCCCCC(=O)[O-]
REMARK SMILES IDX 16 1 17 2 18 3 19 4 20 5 21 6 22 7 23 8 24 9 25 10 26 11
REMARK SMILES IDX 27 12 28 13 29 14 30 15 31 16 32 17 15 18 14 19 13 20 12 21
REMARK SMILES IDX 11 22 10 23 9 24 8 25 7 26 6 27 5 28 4 29 3 30 2 31 1 32
REMARK H PARENT
REMARK Flexibility Score: inf
ROOT
ATOM      1  C   UNL     1      14.027 -29.799  23.807  1.00  0.00     0.000 C 
ENDROOT
BRANCH   1   2
ATOM      2  C   UNL     1      15.428 -29.722  23.177  1.00  0.00     0.000 C 
BRANCH   2   3
ATOM      3  C   UNL     1      16.459 -30.629  23.877  1.00  0.00     0.000 C 
BRANCH   3   4
ATOM      4  C   UNL     1      17.357 -31.464  22.944  1.00  0.00     0.000 C 
BRANCH   4   5
ATOM      5  C   UNL     1      17.186 -31.109  21.459  1.00  0.00     0.000 C 
BRANCH   5   6
ATOM      6  C   UNL     1      17.989 -32.033  20.528  1.00  0.00     0.000 C 
BRANCH   6   7
ATOM      7  C   UNL     1      18.707 -33.186  21.261  1.00  0.00     0.000 C 
BRANCH   7   8
ATOM      8  C   UNL     1      20.064 -33.529  20.623  1.00  0.00     0.000 C 
BRANCH   8   9
ATOM      9  C   UNL     1      21.030 -34.200  21.614  1.00  0.00     0.000 C 
BRANCH   9  10
ATOM     10  C   UNL     1      21.277 -33.350  22.872  1.00  0.00     0.000 C 
BRANCH  10  11
ATOM     11  C   UNL     1      22.482 -32.408  22.718  1.00  0.00     0.000 C 
BRANCH  11  12
ATOM     12  C   UNL     1      22.150 -30.957  23.103  1.00  0.00     0.000 C 
BRANCH  12  13
ATOM     13  C   UNL     1      20.834 -30.452  22.481  1.00  0.00     0.006 C 
BRANCH  13  14
ATOM     14  C   UNL     1      20.987 -29.914  21.047  1.00  0.00     0.053 C 
BRANCH  14  15
ATOM     15  C   UNL     1      20.905 -28.419  20.979  1.00  0.00     0.041 C 
ATOM     16  O   UNL     1      19.875 -27.860  20.518  1.00  0.00    -0.550 OA
ATOM     17  O   UNL     1      21.976 -27.644  21.404  1.00  0.00    -0.550 OA
ENDBRANCH  14  15
ENDBRANCH  13  14
ENDBRANCH  12  13
ENDBRANCH  11  12
ENDBRANCH  10  11
ENDBRANCH   9  10
ENDBRANCH   8   9
ENDBRANCH   7   8
ENDBRANCH   6   7
ENDBRANCH   5   6
ENDBRANCH   4   5
ENDBRANCH   3   4
ENDBRANCH   2   3
ENDBRANCH   1   2
BRANCH   1  18
ATOM     18  C   UNL     1      13.013 -30.550  22.923  1.00  0.00     0.000 C 
BRANCH  18  19
ATOM     19  C   UNL     1      13.458 -31.945  22.448  1.00  0.00     0.000 C 
BRANCH  19  20
ATOM     20  C   UNL     1      13.562 -32.052  20.917  1.00  0.00     0.000 C 
BRANCH  20  21
ATOM     21  C   UNL     1      14.289 -33.328  20.458  1.00  0.00     0.000 C 
BRANCH  21  22
ATOM     22  C   UNL     1      15.052 -34.024  21.597  1.00  0.00     0.000 C 
BRANCH  22  23
ATOM     23  C   UNL     1      15.690 -35.335  21.111  1.00  0.00     0.000 C 
BRANCH  23  24
ATOM     24  C   UNL     1      16.057 -35.298  19.618  1.00  0.00    -0.000 C 
BRANCH  24  25
ATOM     25  C   UNL     1      17.477 -35.824  19.343  1.00  0.00    -0.000 C 
BRANCH  25  26
ATOM     26  C   UNL     1      17.529 -37.358  19.257  1.00  0.00    -0.000 C 
BRANCH  26  27
ATOM     27  C   UNL     1      17.929 -38.016  20.589  1.00  0.00    -0.000 C 
BRANCH  27  28
ATOM     28  C   UNL     1      18.871 -37.133  21.428  1.00  0.00    -0.000 C 
BRANCH  28  29
ATOM     29  C   UNL     1      18.768 -37.329  22.953  1.00  0.00    -0.000 C 
BRANCH  29  30
ATOM     30  C   UNL     1      18.707 -36.029  23.774  1.00  0.00    -0.000 C 
BRANCH  30  31
ATOM     31  C   UNL     1      17.579 -36.038  24.816  1.00  0.00    -0.003 C 
ATOM     32  C   UNL     1      16.713 -34.787  24.700  1.00  0.00     0.004 C 
ENDBRANCH  30  31
ENDBRANCH  29  30
ENDBRANCH  28  29
ENDBRANCH  27  28
ENDBRANCH  26  27
ENDBRANCH  25  26
ENDBRANCH  24  25
ENDBRANCH  23  24
ENDBRANCH  22  23
ENDBRANCH  21  22
ENDBRANCH  20  21
ENDBRANCH  19  20
ENDBRANCH  18  19
ENDBRANCH   1  18
TORSDOF 28
ENDMDL
MODEL 2
REMARK VINA RESULT:    -4.733      1.381      2.184
REMARK INTER + INTRA:         -18.386
REMARK INTER:                 -13.137
REMARK INTRA:                  -5.249
REMARK UNBOUND:                -5.907
REMARK SMILES CCCCCCCCCCCCCCCCCCCCCCCCCCCCCC(=O)[O-]
REMARK SMILES IDX 16 1 17 2 18 3 19 4 20 5 21 6 22 7 23 8 24 9 25 10 26 11
REMARK SMILES IDX 27 12 28 13 29 14 30 15 31 16 32 17 15 18 14 19 13 20 12 21
REMARK SMILES IDX 11 22 10 23 9 24 8 25 7 26 6 27 5 28 4 29 3 30 2 31 1 32
REMARK H PARENT
REMARK Flexibility Score: inf
ROOT
ATOM      1  C   UNL     1      13.205 -30.215  23.583  1.00  0.00     0.000 C 
ENDROOT
BRANCH   1   2
ATOM      2  C   UNL     1      14.609 -29.588  23.562  1.00  0.00     0.000 C 
BRANCH   2   3
ATOM      3  C   UNL     1      15.730 -30.596  23.885  1.00  0.00     0.000 C 
BRANCH   3   4
ATOM      4  C   UNL     1      17.039 -30.417  23.093  1.00  0.00     0.000 C 
BRANCH   4   5
ATOM      5  C   UNL     1      16.830 -30.396  21.571  1.00  0.00     0.000 C 
BRANCH   5   6
ATOM      6  C   UNL     1      17.556 -31.547  20.854  1.00  0.00     0.000 C 
BRANCH   6   7
ATOM      7  C   UNL     1      18.604 -32.266  21.729  1.00  0.00     0.000 C 
BRANCH   7   8
ATOM      8  C   UNL     1      19.803 -32.771  20.908  1.00  0.00     0.000 C 
BRANCH   8   9
ATOM      9  C   UNL     1      20.993 -31.797  20.940  1.00  0.00     0.000 C 
BRANCH   9  10
ATOM     10  C   UNL     1      20.711 -30.540  21.783  1.00  0.00     0.000 C 
BRANCH  10  11
ATOM     11  C   UNL     1      20.965 -29.240  21.003  1.00  0.00     0.000 C 
BRANCH  11  12
ATOM     12  C   UNL     1      19.744 -28.306  21.000  1.00  0.00     0.000 C 
BRANCH  12  13
ATOM     13  C   UNL     1      20.115 -26.826  20.788  1.00  0.00     0.006 C 
BRANCH  13  14
ATOM     14  C   UNL     1      21.556 -26.607  20.293  1.00  0.00     0.053 C 
BRANCH  14  15
ATOM     15  C   UNL     1      22.239 -25.468  20.986  1.00  0.00     0.041 C 
ATOM     16  O   UNL     1      21.636 -24.814  21.879  1.00  0.00    -0.550 OA
ATOM     17  O   UNL     1      23.533 -25.114  20.632  1.00  0.00    -0.550 OA
ENDBRANCH  14  15
ENDBRANCH  13  14
ENDBRANCH  12  13
ENDBRANCH  11  12
ENDBRANCH  10  11
ENDBRANCH   9  10
ENDBRANCH   8   9
ENDBRANCH   7   8
ENDBRANCH   6   7
ENDBRANCH   5   6
ENDBRANCH   4   5
ENDBRANCH   3   4
ENDBRANCH   2   3
ENDBRANCH   1   2
BRANCH   1  18
ATOM     18  C   UNL     1      13.157 -31.599  22.909  1.00  0.00     0.000 C 
BRANCH  18  19
ATOM     19  C   UNL     1      13.112 -31.583  21.370  1.00  0.00     0.000 C 
BRANCH  19  20
ATOM     20  C   UNL     1      13.886 -32.752  20.735  1.00  0.00     0.000 C 
BRANCH  20  21
ATOM     21  C   UNL     1      14.785 -33.488  21.744  1.00  0.00     0.000 C 
BRANCH  21  22
ATOM     22  C   UNL     1      15.369 -34.794  21.183  1.00  0.00     0.000 C 
BRANCH  22  23
ATOM     23  C   UNL     1      15.858 -34.602  19.738  1.00  0.00     0.000 C 
BRANCH  23  24
ATOM     24  C   UNL     1      17.120 -35.424  19.426  1.00  0.00    -0.000 C 
BRANCH  24  25
ATOM     25  C   UNL     1      17.236 -36.687  20.297  1.00  0.00    -0.000 C 
BRANCH  25  26
ATOM     26  C   UNL     1      18.697 -37.071  20.585  1.00  0.00    -0.000 C 
BRANCH  26  27
ATOM     27  C   UNL     1      19.242 -36.414  21.865  1.00  0.00    -0.000 C 
BRANCH  27  28
ATOM     28  C   UNL     1      18.621 -37.001  23.145  1.00  0.00    -0.000 C 
BRANCH  28  29
ATOM     29  C   UNL     1      17.700 -36.043  23.926  1.00  0.00    -0.000 C 
BRANCH  29  30
ATOM     30  C   UNL     1      18.324 -34.680  24.275  1.00  0.00    -0.000 C 
BRANCH  30  31
ATOM     31  C   UNL     1      17.422 -33.829  25.181  1.00  0.00    -0.003 C 
ATOM     32  C   UNL     1      15.948 -34.118  24.917  1.00  0.00     0.004 C 
ENDBRANCH  30  31
ENDBRANCH  29  30
ENDBRANCH  28  29
ENDBRANCH  27  28
ENDBRANCH  26  27
ENDBRANCH  25  26
ENDBRANCH  24  25
ENDBRANCH  23  24
ENDBRANCH  22  23
ENDBRANCH  21  22
ENDBRANCH  20  21
ENDBRANCH  19  20
ENDBRANCH  18  19
ENDBRANCH   1  18
TORSDOF 28
ENDMDL
MODEL 3
REMARK VINA RESULT:    -4.726      2.380      6.492
REMARK INTER + INTRA:         -18.369
REMARK INTER:                 -12.395
REMARK INTRA:                  -5.974
REMARK UNBOUND:                -5.907
REMARK SMILES CCCCCCCCCCCCCCCCCCCCCCCCCCCCCC(=O)[O-]
REMARK SMILES IDX 16 1 17 2 18 3 19 4 20 5 21 6 22 7 23 8 24 9 25 10 26 11
REMARK SMILES IDX 27 12 28 13 29 14 30 15 31 16 32 17 15 18 14 19 13 20 12 21
REMARK SMILES IDX 11 22 10 23 9 24 8 25 7 26 6 27 5 28 4 29 3 30 2 31 1 32
REMARK H PARENT
REMARK Flexibility Score: inf
ROOT
ATOM      1  C   UNL     1      16.060 -31.514  23.970  1.00  0.00     0.000 C 
ENDROOT
BRANCH   1   2
ATOM      2  C   UNL     1      14.770 -30.842  23.470  1.00  0.00     0.000 C 
BRANCH   2   3
ATOM      3  C   UNL     1      13.744 -31.842  22.901  1.00  0.00     0.000 C 
BRANCH   3   4
ATOM      4  C   UNL     1      13.433 -31.699  21.399  1.00  0.00     0.000 C 
BRANCH   4   5
ATOM      5  C   UNL     1      13.917 -32.893  20.562  1.00  0.00     0.000 C 
BRANCH   5   6
ATOM      6  C   UNL     1      14.890 -33.804  21.330  1.00  0.00     0.000 C 
BRANCH   6   7
ATOM      7  C   UNL     1      15.337 -35.049  20.537  1.00  0.00     0.000 C 
BRANCH   7   8
ATOM      8  C   UNL     1      16.408 -34.716  19.483  1.00  0.00     0.000 C 
BRANCH   8   9
ATOM      9  C   UNL     1      17.490 -35.804  19.377  1.00  0.00     0.000 C 
BRANCH   9  10
ATOM     10  C   UNL     1      17.094 -37.109  20.089  1.00  0.00     0.000 C 
BRANCH  10  11
ATOM     11  C   UNL     1      18.256 -37.716  20.893  1.00  0.00     0.000 C 
BRANCH  11  12
ATOM     12  C   UNL     1      18.965 -36.678  21.779  1.00  0.00     0.000 C 
BRANCH  12  13
ATOM     13  C   UNL     1      18.506 -36.722  23.248  1.00  0.00     0.006 C 
BRANCH  13  14
ATOM     14  C   UNL     1      17.534 -35.592  23.634  1.00  0.00     0.053 C 
BRANCH  14  15
ATOM     15  C   UNL     1      17.867 -34.969  24.955  1.00  0.00     0.041 C 
ATOM     16  O   UNL     1      19.047 -35.005  25.395  1.00  0.00    -0.550 OA
ATOM     17  O   UNL     1      16.871 -34.367  25.711  1.00  0.00    -0.550 OA
ENDBRANCH  14  15
ENDBRANCH  13  14
ENDBRANCH  12  13
ENDBRANCH  11  12
ENDBRANCH  10  11
ENDBRANCH   9  10
ENDBRANCH   8   9
ENDBRANCH   7   8
ENDBRANCH   6   7
ENDBRANCH   5   6
ENDBRANCH   4   5
ENDBRANCH   3   4
ENDBRANCH   2   3
ENDBRANCH   1   2
BRANCH   1  18
ATOM     18  C   UNL     1      17.330 -30.916  23.337  1.00  0.00     0.000 C 
BRANCH  18  19
ATOM     19  C   UNL     1      17.180 -30.434  21.883  1.00  0.00     0.000 C 
BRANCH  19  20
ATOM     20  C   UNL     1      17.641 -31.481  20.854  1.00  0.00     0.000 C 
BRANCH  20  21
ATOM     21  C   UNL     1      18.587 -32.533  21.458  1.00  0.00     0.000 C 
BRANCH  21  22
ATOM     22  C   UNL     1      19.652 -33.021  20.463  1.00  0.00     0.000 C 
BRANCH  22  23
ATOM     23  C   UNL     1      20.810 -33.719  21.193  1.00  0.00     0.000 C 
BRANCH  23  24
ATOM     24  C   UNL     1      20.847 -33.390  22.695  1.00  0.00    -0.000 C 
BRANCH  24  25
ATOM     25  C   UNL     1      22.209 -32.834  23.148  1.00  0.00    -0.000 C 
BRANCH  25  26
ATOM     26  C   UNL     1      22.088 -31.456  23.818  1.00  0.00    -0.000 C 
BRANCH  26  27
ATOM     27  C   UNL     1      21.017 -30.567  23.163  1.00  0.00    -0.000 C 
BRANCH  27  28
ATOM     28  C   UNL     1      21.611 -29.563  22.158  1.00  0.00    -0.000 C 
BRANCH  28  29
ATOM     29  C   UNL     1      20.817 -29.399  20.848  1.00  0.00    -0.000 C 
BRANCH  29  30
ATOM     30  C   UNL     1      19.758 -28.282  20.864  1.00  0.00    -0.000 C 
BRANCH  30  31
ATOM     31  C   UNL     1      20.345 -26.904  20.528  1.00  0.00    -0.003 C 
ATOM     32  C   UNL     1      20.407 -26.017  21.768  1.00  0.00     0.004 C 
ENDBRANCH  30  31
ENDBRANCH  29  30
ENDBRANCH  28  29
ENDBRANCH  27  28
ENDBRANCH  26  27
ENDBRANCH  25  26
ENDBRANCH  24  25
ENDBRANCH  23  24
ENDBRANCH  22  23
ENDBRANCH  21  22
ENDBRANCH  20  21
ENDBRANCH  19  20
ENDBRANCH  18  19
ENDBRANCH   1  18
TORSDOF 28
ENDMDL
MODEL 4
REMARK VINA RESULT:    -4.697      3.817      7.272
REMARK INTER + INTRA:         -18.293
REMARK INTER:                 -12.531
REMARK INTRA:                  -5.762
REMARK UNBOUND:                -5.907
REMARK SMILES CCCCCCCCCCCCCCCCCCCCCCCCCCCCCC(=O)[O-]
REMARK SMILES IDX 16 1 17 2 18 3 19 4 20 5 21 6 22 7 23 8 24 9 25 10 26 11
REMARK SMILES IDX 27 12 28 13 29 14 30 15 31 16 32 17 15 18 14 19 13 20 12 21
REMARK SMILES IDX 11 22 10 23 9 24 8 25 7 26 6 27 5 28 4 29 3 30 2 31 1 32
REMARK H PARENT
REMARK Flexibility Score: inf
ROOT
ATOM      1  C   UNL     1      16.226 -34.673  19.579  1.00  0.00     0.000 C 
ENDROOT
BRANCH   1   2
ATOM      2  C   UNL     1      17.520 -35.502  19.518  1.00  0.00     0.000 C 
BRANCH   2   3
ATOM      3  C   UNL     1      17.266 -37.020  19.423  1.00  0.00     0.000 C 
BRANCH   3   4
ATOM      4  C   UNL     1      18.236 -37.911  20.223  1.00  0.00     0.000 C 
BRANCH   4   5
ATOM      5  C   UNL     1      18.226 -37.617  21.731  1.00  0.00     0.000 C 
BRANCH   5   6
ATOM      6  C   UNL     1      19.626 -37.309  22.288  1.00  0.00     0.000 C 
BRANCH   6   7
ATOM      7  C   UNL     1      19.973 -35.805  22.309  1.00  0.00     0.000 C 
BRANCH   7   8
ATOM      8  C   UNL     1      20.351 -35.312  23.716  1.00  0.00     0.000 C 
BRANCH   8   9
ATOM      9  C   UNL     1      19.362 -34.269  24.262  1.00  0.00     0.000 C 
BRANCH   9  10
ATOM     10  C   UNL     1      18.802 -34.647  25.644  1.00  0.00     0.000 C 
BRANCH  10  11
ATOM     11  C   UNL     1      18.652 -36.167  25.822  1.00  0.00     0.000 C 
BRANCH  11  12
ATOM     12  C   UNL     1      17.196 -36.638  25.666  1.00  0.00     0.000 C 
BRANCH  12  13
ATOM     13  C   UNL     1      16.810 -37.749  26.661  1.00  0.00     0.006 C 
BRANCH  13  14
ATOM     14  C   UNL     1      16.731 -37.279  28.124  1.00  0.00     0.053 C 
BRANCH  14  15
ATOM     15  C   UNL     1      17.676 -38.020  29.021  1.00  0.00     0.041 C 
ATOM     16  O   UNL     1      17.264 -38.524  30.099  1.00  0.00    -0.550 OA
ATOM     17  O   UNL     1      19.016 -38.135  28.676  1.00  0.00    -0.550 OA
ENDBRANCH  14  15
ENDBRANCH  13  14
ENDBRANCH  12  13
ENDBRANCH  11  12
ENDBRANCH  10  11
ENDBRANCH   9  10
ENDBRANCH   8   9
ENDBRANCH   7   8
ENDBRANCH   6   7
ENDBRANCH   5   6
ENDBRANCH   4   5
ENDBRANCH   3   4
ENDBRANCH   2   3
ENDBRANCH   1   2
BRANCH   1  18
ATOM     18  C   UNL     1      15.408 -34.934  20.858  1.00  0.00     0.000 C 
BRANCH  18  19
ATOM     19  C   UNL     1      16.151 -34.678  22.181  1.00  0.00     0.000 C 
BRANCH  19  20
ATOM     20  C   UNL     1      15.201 -34.411  23.361  1.00  0.00     0.000 C 
BRANCH  20  21
ATOM     21  C   UNL     1      15.755 -33.368  24.347  1.00  0.00     0.000 C 
BRANCH  21  22
ATOM     22  C   UNL     1      15.649 -31.930  23.817  1.00  0.00     0.000 C 
BRANCH  22  23
ATOM     23  C   UNL     1      16.963 -31.163  24.037  1.00  0.00     0.000 C 
BRANCH  23  24
ATOM     24  C   UNL     1      17.469 -30.475  22.758  1.00  0.00    -0.000 C 
BRANCH  24  25
ATOM     25  C   UNL     1      16.837 -31.056  21.481  1.00  0.00    -0.000 C 
BRANCH  25  26
ATOM     26  C   UNL     1      17.881 -31.672  20.535  1.00  0.00    -0.000 C 
BRANCH  26  27
ATOM     27  C   UNL     1      18.973 -32.455  21.284  1.00  0.00    -0.000 C 
BRANCH  27  28
ATOM     28  C   UNL     1      20.392 -32.096  20.810  1.00  0.00    -0.000 C 
BRANCH  28  29
ATOM     29  C   UNL     1      21.398 -31.778  21.933  1.00  0.00    -0.000 C 
BRANCH  29  30
ATOM     30  C   UNL     1      21.334 -30.339  22.477  1.00  0.00    -0.000 C 
BRANCH  30  31
ATOM     31  C   UNL     1      20.723 -29.352  21.473  1.00  0.00    -0.003 C 
ATOM     32  C   UNL     1      21.801 -28.489  20.824  1.00  0.00     0.004 C 
ENDBRANCH  30  31
ENDBRANCH  29  30
ENDBRANCH  28  29
ENDBRANCH  27  28
ENDBRANCH  26  27
ENDBRANCH  25  26
ENDBRANCH  24  25
ENDBRANCH  23  24
ENDBRANCH  22  23
ENDBRANCH  21  22
ENDBRANCH  20  21
ENDBRANCH  19  20
ENDBRANCH  18  19
ENDBRANCH   1  18
TORSDOF 28
ENDMDL
MODEL 5
REMARK VINA RESULT:    -4.629      1.308      2.830
REMARK INTER + INTRA:         -18.113
REMARK INTER:                 -12.592
REMARK INTRA:                  -5.520
REMARK UNBOUND:                -5.907
REMARK SMILES CCCCCCCCCCCCCCCCCCCCCCCCCCCCCC(=O)[O-]
REMARK SMILES IDX 16 1 17 2 18 3 19 4 20 5 21 6 22 7 23 8 24 9 25 10 26 11
REMARK SMILES IDX 27 12 28 13 29 14 30 15 31 16 32 17 15 18 14 19 13 20 12 21
REMARK SMILES IDX 11 22 10 23 9 24 8 25 7 26 6 27 5 28 4 29 3 30 2 31 1 32
REMARK H PARENT
REMARK Flexibility Score: inf
ROOT
ATOM      1  C   UNL     1      16.678 -30.631  23.891  1.00  0.00     0.000 C 
ENDROOT
BRANCH   1   2
ATOM      2  C   UNL     1      17.809 -30.991  22.913  1.00  0.00     0.000 C 
BRANCH   2   3
ATOM      3  C   UNL     1      17.364 -30.979  21.437  1.00  0.00     0.000 C 
BRANCH   3   4
ATOM      4  C   UNL     1      18.086 -31.978  20.512  1.00  0.00     0.000 C 
BRANCH   4   5
ATOM      5  C   UNL     1      18.688 -33.174  21.264  1.00  0.00     0.000 C 
BRANCH   5   6
ATOM      6  C   UNL     1      20.170 -33.408  20.924  1.00  0.00     0.000 C 
BRANCH   6   7
ATOM      7  C   UNL     1      20.988 -32.109  20.772  1.00  0.00     0.000 C 
BRANCH   7   8
ATOM      8  C   UNL     1      21.513 -31.588  22.121  1.00  0.00     0.000 C 
BRANCH   8   9
ATOM      9  C   UNL     1      21.252 -30.085  22.316  1.00  0.00     0.000 C 
BRANCH   9  10
ATOM     10  C   UNL     1      20.769 -29.393  21.029  1.00  0.00     0.000 C 
BRANCH  10  11
ATOM     11  C   UNL     1      19.862 -28.185  21.316  1.00  0.00     0.000 C 
BRANCH  11  12
ATOM     12  C   UNL     1      20.083 -27.033  20.320  1.00  0.00     0.000 C 
BRANCH  12  13
ATOM     13  C   UNL     1      21.027 -25.941  20.858  1.00  0.00     0.006 C 
BRANCH  13  14
ATOM     14  C   UNL     1      22.325 -25.783  20.048  1.00  0.00     0.053 C 
BRANCH  14  15
ATOM     15  C   UNL     1      23.306 -26.886  20.307  1.00  0.00     0.041 C 
ATOM     16  O   UNL     1      23.878 -27.467  19.347  1.00  0.00    -0.550 OA
ATOM     17  O   UNL     1      23.572 -27.288  21.609  1.00  0.00    -0.550 OA
ENDBRANCH  14  15
ENDBRANCH  13  14
ENDBRANCH  12  13
ENDBRANCH  11  12
ENDBRANCH  10  11
ENDBRANCH   9  10
ENDBRANCH   8   9
ENDBRANCH   7   8
ENDBRANCH   6   7
ENDBRANCH   5   6
ENDBRANCH   4   5
ENDBRANCH   3   4
ENDBRANCH   2   3
ENDBRANCH   1   2
BRANCH   1  18
ATOM     18  C   UNL     1      15.607 -29.721  23.259  1.00  0.00     0.000 C 
BRANCH  18  19
ATOM     19  C   UNL     1      14.150 -30.166  23.478  1.00  0.00     0.000 C 
BRANCH  19  20
ATOM     20  C   UNL     1      13.982 -31.695  23.468  1.00  0.00     0.000 C 
BRANCH  20  21
ATOM     21  C   UNL     1      13.812 -32.266  22.050  1.00  0.00     0.000 C 
BRANCH  21  22
ATOM     22  C   UNL     1      14.661 -33.523  21.805  1.00  0.00     0.000 C 
BRANCH  22  23
ATOM     23  C   UNL     1      14.923 -33.728  20.304  1.00  0.00     0.000 C 
BRANCH  23  24
ATOM     24  C   UNL     1      15.407 -35.150  19.976  1.00  0.00    -0.000 C 
BRANCH  24  25
ATOM     25  C   UNL     1      16.453 -35.668  20.979  1.00  0.00    -0.000 C 
BRANCH  25  26
ATOM     26  C   UNL     1      17.495 -36.586  20.320  1.00  0.00    -0.000 C 
BRANCH  26  27
ATOM     27  C   UNL     1      18.191 -37.517  21.328  1.00  0.00    -0.000 C 
BRANCH  27  28
ATOM     28  C   UNL     1      19.340 -36.823  22.081  1.00  0.00    -0.000 C 
BRANCH  28  29
ATOM     29  C   UNL     1      19.182 -36.769  23.613  1.00  0.00    -0.000 C 
BRANCH  29  30
ATOM     30  C   UNL     1      18.613 -35.448  24.163  1.00  0.00    -0.000 C 
BRANCH  30  31
ATOM     31  C   UNL     1      17.173 -35.591  24.676  1.00  0.00    -0.003 C 
ATOM     32  C   UNL     1      16.480 -34.233  24.753  1.00  0.00     0.004 C 
ENDBRANCH  30  31
ENDBRANCH  29  30
ENDBRANCH  28  29
ENDBRANCH  27  28
ENDBRANCH  26  27
ENDBRANCH  25  26
ENDBRANCH  24  25
ENDBRANCH  23  24
ENDBRANCH  22  23
ENDBRANCH  21  22
ENDBRANCH  20  21
ENDBRANCH  19  20
ENDBRANCH  18  19
ENDBRANCH   1  18
TORSDOF 28
ENDMDL
MODEL 6
REMARK VINA RESULT:    -4.612      1.484      3.874
REMARK INTER + INTRA:         -18.067
REMARK INTER:                 -12.260
REMARK INTRA:                  -5.808
REMARK UNBOUND:                -5.907
REMARK SMILES CCCCCCCCCCCCCCCCCCCCCCCCCCCCCC(=O)[O-]
REMARK SMILES IDX 16 1 17 2 18 3 19 4 20 5 21 6 22 7 23 8 24 9 25 10 26 11
REMARK SMILES IDX 27 12 28 13 29 14 30 15 31 16 32 17 15 18 14 19 13 20 12 21
REMARK SMILES IDX 11 22 10 23 9 24 8 25 7 26 6 27 5 28 4 29 3 30 2 31 1 32
REMARK H PARENT
REMARK Flexibility Score: inf
ROOT
ATOM      1  C   UNL     1      14.461 -30.433  23.850  1.00  0.00     0.000 C 
ENDROOT
BRANCH   1   2
ATOM      2  C   UNL     1      13.551 -31.590  23.405  1.00  0.00     0.000 C 
BRANCH   2   3
ATOM      3  C   UNL     1      12.827 -31.316  22.072  1.00  0.00     0.000 C 
BRANCH   3   4
ATOM      4  C   UNL     1      13.377 -32.070  20.846  1.00  0.00     0.000 C 
BRANCH   4   5
ATOM      5  C   UNL     1      14.354 -33.198  21.214  1.00  0.00     0.000 C 
BRANCH   5   6
ATOM      6  C   UNL     1      14.756 -34.056  20.003  1.00  0.00     0.000 C 
BRANCH   6   7
ATOM      7  C   UNL     1      15.660 -35.255  20.360  1.00  0.00     0.000 C 
BRANCH   7   8
ATOM      8  C   UNL     1      16.888 -35.355  19.439  1.00  0.00     0.000 C 
BRANCH   8   9
ATOM      9  C   UNL     1      17.778 -34.103  19.504  1.00  0.00     0.000 C 
BRANCH   9  10
ATOM     10  C   UNL     1      19.278 -34.442  19.564  1.00  0.00     0.000 C 
BRANCH  10  11
ATOM     11  C   UNL     1      20.025 -33.615  20.624  1.00  0.00     0.000 C 
BRANCH  11  12
ATOM     12  C   UNL     1      19.248 -32.356  21.045  1.00  0.00     0.000 C 
BRANCH  12  13
ATOM     13  C   UNL     1      20.080 -31.065  20.930  1.00  0.00     0.006 C 
BRANCH  13  14
ATOM     14  C   UNL     1      19.294 -29.784  21.260  1.00  0.00     0.053 C 
BRANCH  14  15
ATOM     15  C   UNL     1      20.125 -28.545  21.124  1.00  0.00     0.041 C 
ATOM     16  O   UNL     1      19.654 -27.424  21.452  1.00  0.00    -0.550 OA
ATOM     17  O   UNL     1      21.414 -28.624  20.614  1.00  0.00    -0.550 OA
ENDBRANCH  14  15
ENDBRANCH  13  14
ENDBRANCH  12  13
ENDBRANCH  11  12
ENDBRANCH  10  11
ENDBRANCH   9  10
ENDBRANCH   8   9
ENDBRANCH   7   8
ENDBRANCH   6   7
ENDBRANCH   5   6
ENDBRANCH   4   5
ENDBRANCH   3   4
ENDBRANCH   2   3
ENDBRANCH   1   2
BRANCH   1  18
ATOM     18  C   UNL     1      15.869 -30.505  23.230  1.00  0.00     0.000 C 
BRANCH  18  19
ATOM     19  C   UNL     1      16.751 -31.664  23.729  1.00  0.00     0.000 C 
BRANCH  19  20
ATOM     20  C   UNL     1      17.881 -31.198  24.664  1.00  0.00     0.000 C 
BRANCH  20  21
ATOM     21  C   UNL     1      19.002 -32.242  24.809  1.00  0.00     0.000 C 
BRANCH  21  22
ATOM     22  C   UNL     1      18.865 -33.093  26.081  1.00  0.00     0.000 C 
BRANCH  22  23
ATOM     23  C   UNL     1      18.666 -34.577  25.732  1.00  0.00     0.000 C 
BRANCH  23  24
ATOM     24  C   UNL     1      17.185 -34.946  25.537  1.00  0.00    -0.000 C 
BRANCH  24  25
ATOM     25  C   UNL     1      16.850 -35.305  24.079  1.00  0.00    -0.000 C 
BRANCH  25  26
ATOM     26  C   UNL     1      18.102 -35.378  23.188  1.00  0.00    -0.000 C 
BRANCH  26  27
ATOM     27  C   UNL     1      18.244 -36.732  22.472  1.00  0.00    -0.000 C 
BRANCH  27  28
ATOM     28  C   UNL     1      19.696 -37.243  22.450  1.00  0.00    -0.000 C 
BRANCH  28  29
ATOM     29  C   UNL     1      20.310 -37.533  23.834  1.00  0.00    -0.000 C 
BRANCH  29  30
ATOM     30  C   UNL     1      21.637 -36.809  24.123  1.00  0.00    -0.000 C 
BRANCH  30  31
ATOM     31  C   UNL     1      21.948 -35.708  23.099  1.00  0.00    -0.003 C 
ATOM     32  C   UNL     1      21.831 -34.323  23.730  1.00  0.00     0.004 C 
ENDBRANCH  30  31
ENDBRANCH  29  30
ENDBRANCH  28  29
ENDBRANCH  27  28
ENDBRANCH  26  27
ENDBRANCH  25  26
ENDBRANCH  24  25
ENDBRANCH  23  24
ENDBRANCH  22  23
ENDBRANCH  21  22
ENDBRANCH  20  21
ENDBRANCH  19  20
ENDBRANCH  18  19
ENDBRANCH   1  18
TORSDOF 28
ENDMDL
MODEL 7
REMARK VINA RESULT:    -4.602      1.834      3.798
REMARK INTER + INTRA:         -18.041
REMARK INTER:                 -13.224
REMARK INTRA:                  -4.817
REMARK UNBOUND:                -5.907
REMARK SMILES CCCCCCCCCCCCCCCCCCCCCCCCCCCCCC(=O)[O-]
REMARK SMILES IDX 16 1 17 2 18 3 19 4 20 5 21 6 22 7 23 8 24 9 25 10 26 11
REMARK SMILES IDX 27 12 28 13 29 14 30 15 31 16 32 17 15 18 14 19 13 20 12 21
REMARK SMILES IDX 11 22 10 23 9 24 8 25 7 26 6 27 5 28 4 29 3 30 2 31 1 32
REMARK H PARENT
REMARK Flexibility Score: inf
ROOT
ATOM      1  C   UNL     1      13.458 -32.074  23.190  1.00  0.00     0.000 C 
ENDROOT
BRANCH   1   2
ATOM      2  C   UNL     1      12.973 -31.554  21.826  1.00  0.00     0.000 C 
BRANCH   2   3
ATOM      3  C   UNL     1      13.533 -32.357  20.635  1.00  0.00     0.000 C 
BRANCH   3   4
ATOM      4  C   UNL     1      14.529 -33.476  20.993  1.00  0.00     0.000 C 
BRANCH   4   5
ATOM      5  C   UNL     1      15.049 -34.241  19.766  1.00  0.00     0.000 C 
BRANCH   5   6
ATOM      6  C   UNL     1      16.175 -35.230  20.113  1.00  0.00     0.000 C 
BRANCH   6   7
ATOM      7  C   UNL     1      17.476 -35.000  19.315  1.00  0.00     0.000 C 
BRANCH   7   8
ATOM      8  C   UNL     1      18.734 -35.193  20.180  1.00  0.00     0.000 C 
BRANCH   8   9
ATOM      9  C   UNL     1      19.676 -33.979  20.131  1.00  0.00     0.000 C 
BRANCH   9  10
ATOM     10  C   UNL     1      20.673 -33.952  21.303  1.00  0.00     0.000 C 
BRANCH  10  11
ATOM     11  C   UNL     1      21.549 -32.689  21.299  1.00  0.00     0.000 C 
BRANCH  11  12
ATOM     12  C   UNL     1      20.792 -31.448  20.796  1.00  0.00     0.000 C 
BRANCH  12  13
ATOM     13  C   UNL     1      20.908 -30.242  21.748  1.00  0.00     0.006 C 
BRANCH  13  14
ATOM     14  C   UNL     1      20.132 -28.999  21.278  1.00  0.00     0.053 C 
BRANCH  14  15
ATOM     15  C   UNL     1      21.032 -27.854  20.927  1.00  0.00     0.041 C 
ATOM     16  O   UNL     1      22.239 -28.062  20.630  1.00  0.00    -0.550 OA
ATOM     17  O   UNL     1      20.545 -26.554  20.949  1.00  0.00    -0.550 OA
ENDBRANCH  14  15
ENDBRANCH  13  14
ENDBRANCH  12  13
ENDBRANCH  11  12
ENDBRANCH  10  11
ENDBRANCH   9  10
ENDBRANCH   8   9
ENDBRANCH   7   8
ENDBRANCH   6   7
ENDBRANCH   5   6
ENDBRANCH   4   5
ENDBRANCH   3   4
ENDBRANCH   2   3
ENDBRANCH   1   2
BRANCH   1  18
ATOM     18  C   UNL     1      13.963 -30.950  24.114  1.00  0.00     0.000 C 
BRANCH  18  19
ATOM     19  C   UNL     1      14.565 -29.727  23.399  1.00  0.00     0.000 C 
BRANCH  19  20
ATOM     20  C   UNL     1      16.082 -29.851  23.173  1.00  0.00     0.000 C 
BRANCH  20  21
ATOM     21  C   UNL     1      16.435 -30.354  21.763  1.00  0.00     0.000 C 
BRANCH  21  22
ATOM     22  C   UNL     1      17.403 -31.548  21.779  1.00  0.00     0.000 C 
BRANCH  22  23
ATOM     23  C   UNL     1      17.899 -31.836  23.205  1.00  0.00     0.000 C 
BRANCH  23  24
ATOM     24  C   UNL     1      18.136 -33.334  23.458  1.00  0.00    -0.000 C 
BRANCH  24  25
ATOM     25  C   UNL     1      16.827 -34.142  23.511  1.00  0.00    -0.000 C 
BRANCH  25  26
ATOM     26  C   UNL     1      16.145 -34.066  24.887  1.00  0.00    -0.000 C 
BRANCH  26  27
ATOM     27  C   UNL     1      16.994 -34.693  26.007  1.00  0.00    -0.000 C 
BRANCH  27  28
ATOM     28  C   UNL     1      17.068 -36.227  25.909  1.00  0.00    -0.000 C 
BRANCH  28  29
ATOM     29  C   UNL     1      16.850 -36.981  27.235  1.00  0.00    -0.000 C 
BRANCH  29  30
ATOM     30  C   UNL     1      17.944 -38.003  27.591  1.00  0.00    -0.000 C 
BRANCH  30  31
ATOM     31  C   UNL     1      17.694 -38.694  28.940  1.00  0.00    -0.003 C 
ATOM     32  C   UNL     1      18.104 -37.795  30.102  1.00  0.00     0.004 C 
ENDBRANCH  30  31
ENDBRANCH  29  30
ENDBRANCH  28  29
ENDBRANCH  27  28
ENDBRANCH  26  27
ENDBRANCH  25  26
ENDBRANCH  24  25
ENDBRANCH  23  24
ENDBRANCH  22  23
ENDBRANCH  21  22
ENDBRANCH  20  21
ENDBRANCH  19  20
ENDBRANCH  18  19
ENDBRANCH   1  18
TORSDOF 28
ENDMDL
MODEL 8
REMARK VINA RESULT:    -4.548      2.139      3.858
REMARK INTER + INTRA:         -17.899
REMARK INTER:                 -11.686
REMARK INTRA:                  -6.213
REMARK UNBOUND:                -5.907
REMARK SMILES CCCCCCCCCCCCCCCCCCCCCCCCCCCCCC(=O)[O-]
REMARK SMILES IDX 16 1 17 2 18 3 19 4 20 5 21 6 22 7 23 8 24 9 25 10 26 11
REMARK SMILES IDX 27 12 28 13 29 14 30 15 31 16 32 17 15 18 14 19 13 20 12 21
REMARK SMILES IDX 11 22 10 23 9 24 8 25 7 26 6 27 5 28 4 29 3 30 2 31 1 32
REMARK H PARENT
REMARK Flexibility Score: inf
ROOT
ATOM      1  C   UNL     1      14.697 -33.413  22.759  1.00  0.00     0.000 C 
ENDROOT
BRANCH   1   2
ATOM      2  C   UNL     1      14.026 -32.391  23.691  1.00  0.00     0.000 C 
BRANCH   2   3
ATOM      3  C   UNL     1      14.900 -31.150  23.962  1.00  0.00     0.000 C 
BRANCH   3   4
ATOM      4  C   UNL     1      14.639 -29.936  23.050  1.00  0.00     0.000 C 
BRANCH   4   5
ATOM      5  C   UNL     1      15.906 -29.420  22.349  1.00  0.00     0.000 C 
BRANCH   5   6
ATOM      6  C   UNL     1      17.114 -30.353  22.539  1.00  0.00     0.000 C 
BRANCH   6   7
ATOM      7  C   UNL     1      17.520 -31.117  21.262  1.00  0.00     0.000 C 
BRANCH   7   8
ATOM      8  C   UNL     1      18.198 -32.462  21.576  1.00  0.00     0.000 C 
BRANCH   8   9
ATOM      9  C   UNL     1      18.682 -33.189  20.311  1.00  0.00     0.000 C 
BRANCH   9  10
ATOM     10  C   UNL     1      20.166 -33.591  20.385  1.00  0.00     0.000 C 
BRANCH  10  11
ATOM     11  C   UNL     1      20.833 -33.132  21.691  1.00  0.00     0.000 C 
BRANCH  11  12
ATOM     12  C   UNL     1      22.130 -33.902  21.993  1.00  0.00     0.000 C 
BRANCH  12  13
ATOM     13  C   UNL     1      22.301 -34.238  23.487  1.00  0.00     0.006 C 
BRANCH  13  14
ATOM     14  C   UNL     1      21.150 -33.735  24.376  1.00  0.00     0.053 C 
BRANCH  14  15
ATOM     15  C   UNL     1      21.582 -32.663  25.329  1.00  0.00     0.041 C 
ATOM     16  O   UNL     1      21.305 -31.456  25.097  1.00  0.00    -0.550 OA
ATOM     17  O   UNL     1      22.310 -32.994  26.464  1.00  0.00    -0.550 OA
ENDBRANCH  14  15
ENDBRANCH  13  14
ENDBRANCH  12  13
ENDBRANCH  11  12
ENDBRANCH  10  11
ENDBRANCH   9  10
ENDBRANCH   8   9
ENDBRANCH   7   8
ENDBRANCH   6   7
ENDBRANCH   5   6
ENDBRANCH   4   5
ENDBRANCH   3   4
ENDBRANCH   2   3
ENDBRANCH   1   2
BRANCH   1  18
ATOM     18  C   UNL     1      14.438 -33.125  21.268  1.00  0.00     0.000 C 
BRANCH  18  19
ATOM     19  C   UNL     1      14.987 -34.177  20.287  1.00  0.00     0.000 C 
BRANCH  19  20
ATOM     20  C   UNL     1      15.750 -35.312  20.991  1.00  0.00     0.000 C 
BRANCH  20  21
ATOM     21  C   UNL     1      16.544 -36.192  20.010  1.00  0.00     0.000 C 
BRANCH  21  22
ATOM     22  C   UNL     1      17.807 -36.800  20.640  1.00  0.00     0.000 C 
BRANCH  22  23
ATOM     23  C   UNL     1      17.877 -36.487  22.144  1.00  0.00     0.000 C 
BRANCH  23  24
ATOM     24  C   UNL     1      19.322 -36.382  22.660  1.00  0.00    -0.000 C 
BRANCH  24  25
ATOM     25  C   UNL     1      20.041 -37.742  22.694  1.00  0.00    -0.000 C 
BRANCH  25  26
ATOM     26  C   UNL     1      19.489 -38.671  23.788  1.00  0.00    -0.000 C 
BRANCH  26  27
ATOM     27  C   UNL     1      19.467 -38.008  25.176  1.00  0.00    -0.000 C 
BRANCH  27  28
ATOM     28  C   UNL     1      18.208 -38.367  25.986  1.00  0.00    -0.000 C 
BRANCH  28  29
ATOM     29  C   UNL     1      17.310 -37.174  26.366  1.00  0.00    -0.000 C 
BRANCH  29  30
ATOM     30  C   UNL     1      17.912 -35.787  26.077  1.00  0.00    -0.000 C 
BRANCH  30  31
ATOM     31  C   UNL     1      16.938 -34.861  25.334  1.00  0.00    -0.003 C 
ATOM     32  C   UNL     1      17.556 -33.485  25.104  1.00  0.00     0.004 C 
ENDBRANCH  30  31
ENDBRANCH  29  30
ENDBRANCH  28  29
ENDBRANCH  27  28
ENDBRANCH  26  27
ENDBRANCH  25  26
ENDBRANCH  24  25
ENDBRANCH  23  24
ENDBRANCH  22  23
ENDBRANCH  21  22
ENDBRANCH  20  21
ENDBRANCH  19  20
ENDBRANCH  18  19
ENDBRANCH   1  18
TORSDOF 28
ENDMDL
MODEL 9
REMARK VINA RESULT:    -4.435      2.730      6.566
REMARK INTER + INTRA:         -17.601
REMARK INTER:                 -11.858
REMARK INTRA:                  -5.743
REMARK UNBOUND:                -5.907
REMARK SMILES CCCCCCCCCCCCCCCCCCCCCCCCCCCCCC(=O)[O-]
REMARK SMILES IDX 16 1 17 2 18 3 19 4 20 5 21 6 22 7 23 8 24 9 25 10 26 11
REMARK SMILES IDX 27 12 28 13 29 14 30 15 31 16 32 17 15 18 14 19 13 20 12 21
REMARK SMILES IDX 11 22 10 23 9 24 8 25 7 26 6 27 5 28 4 29 3 30 2 31 1 32
REMARK H PARENT
REMARK Flexibility Score: inf
ROOT
ATOM      1  C   UNL     1      18.425 -37.272  22.056  1.00  0.00     0.000 C 
ENDROOT
BRANCH   1   2
ATOM      2  C   UNL     1      18.025 -38.027  20.778  1.00  0.00     0.000 C 
BRANCH   2   3
ATOM      3  C   UNL     1      17.240 -37.157  19.778  1.00  0.00     0.000 C 
BRANCH   3   4
ATOM      4  C   UNL     1      16.870 -35.744  20.268  1.00  0.00     0.000 C 
BRANCH   4   5
ATOM      5  C   UNL     1      17.424 -34.626  19.371  1.00  0.00     0.000 C 
BRANCH   5   6
ATOM      6  C   UNL     1      18.961 -34.626  19.300  1.00  0.00     0.000 C 
BRANCH   6   7
ATOM      7  C   UNL     1      19.647 -34.175  20.606  1.00  0.00     0.000 C 
BRANCH   7   8
ATOM      8  C   UNL     1      20.118 -32.712  20.544  1.00  0.00     0.000 C 
BRANCH   8   9
ATOM      9  C   UNL     1      19.374 -31.809  21.541  1.00  0.00     0.000 C 
BRANCH   9  10
ATOM     10  C   UNL     1      18.159 -31.102  20.913  1.00  0.00     0.000 C 
BRANCH  10  11
ATOM     11  C   UNL     1      16.824 -31.703  21.379  1.00  0.00     0.000 C 
BRANCH  11  12
ATOM     12  C   UNL     1      16.955 -32.474  22.703  1.00  0.00     0.000 C 
BRANCH  12  13
ATOM     13  C   UNL     1      16.513 -31.652  23.928  1.00  0.00     0.006 C 
BRANCH  13  14
ATOM     14  C   UNL     1      15.504 -30.536  23.601  1.00  0.00     0.053 C 
BRANCH  14  15
ATOM     15  C   UNL     1      14.106 -30.882  24.015  1.00  0.00     0.041 C 
ATOM     16  O   UNL     1      13.217 -29.991  24.055  1.00  0.00    -0.550 OA
ATOM     17  O   UNL     1      13.790 -32.184  24.379  1.00  0.00    -0.550 OA
ENDBRANCH  14  15
ENDBRANCH  13  14
ENDBRANCH  12  13
ENDBRANCH  11  12
ENDBRANCH  10  11
ENDBRANCH   9  10
ENDBRANCH   8   9
ENDBRANCH   7   8
ENDBRANCH   6   7
ENDBRANCH   5   6
ENDBRANCH   4   5
ENDBRANCH   3   4
ENDBRANCH   2   3
ENDBRANCH   1   2
BRANCH   1  18
ATOM     18  C   UNL     1      19.710 -37.824  22.702  1.00  0.00     0.000 C 
BRANCH  18  19
ATOM     19  C   UNL     1      19.495 -38.751  23.911  1.00  0.00     0.000 C 
BRANCH  19  20
ATOM     20  C   UNL     1      19.431 -37.990  25.247  1.00  0.00     0.000 C 
BRANCH  20  21
ATOM     21  C   UNL     1      18.240 -38.420  26.120  1.00  0.00     0.000 C 
BRANCH  21  22
ATOM     22  C   UNL     1      17.291 -37.257  26.451  1.00  0.00     0.000 C 
BRANCH  22  23
ATOM     23  C   UNL     1      17.228 -36.251  25.291  1.00  0.00     0.000 C 
BRANCH  23  24
ATOM     24  C   UNL     1      17.300 -34.791  25.770  1.00  0.00    -0.000 C 
BRANCH  24  25
ATOM     25  C   UNL     1      18.735 -34.235  25.769  1.00  0.00    -0.000 C 
BRANCH  25  26
ATOM     26  C   UNL     1      19.463 -34.489  24.439  1.00  0.00    -0.000 C 
BRANCH  26  27
ATOM     27  C   UNL     1      20.973 -34.717  24.621  1.00  0.00    -0.000 C 
BRANCH  27  28
ATOM     28  C   UNL     1      21.811 -34.063  23.508  1.00  0.00    -0.000 C 
BRANCH  28  29
ATOM     29  C   UNL     1      22.738 -32.921  23.970  1.00  0.00    -0.000 C 
BRANCH  29  30
ATOM     30  C   UNL     1      22.119 -31.514  23.911  1.00  0.00    -0.000 C 
BRANCH  30  31
ATOM     31  C   UNL     1      22.114 -30.810  25.276  1.00  0.00    -0.003 C 
ATOM     32  C   UNL     1      20.936 -31.273  26.128  1.00  0.00     0.004 C 
ENDBRANCH  30  31
ENDBRANCH  29  30
ENDBRANCH  28  29
ENDBRANCH  27  28
ENDBRANCH  26  27
ENDBRANCH  25  26
ENDBRANCH  24  25
ENDBRANCH  23  24
ENDBRANCH  22  23
ENDBRANCH  21  22
ENDBRANCH  20  21
ENDBRANCH  19  20
ENDBRANCH  18  19
ENDBRANCH   1  18
TORSDOF 28
ENDMDL
