MODEL 1
REMARK VINA RESULT:    -3.055      0.000      0.000
REMARK INTER + INTRA:          -3.638
REMARK INTER:                  -3.590
REMARK INTRA:                  -0.047
REMARK UNBOUND:                -0.047
REMARK SMILES CCCCC(=O)[O-]
REMARK SMILES IDX 4 1 5 2 6 3 7 4 3 5 2 6 1 7
REMARK H PARENT
REMARK Flexibility Score: inf
ROOT
ATOM      1  C   UNL     1       6.525  -0.071   0.631  1.00  0.00     0.053 C 
ENDROOT
BRANCH   1   2
ATOM      2  C   UNL     1       5.677   0.396   1.772  1.00  0.00     0.041 C 
ATOM      3  O   UNL     1       5.360  -0.401   2.693  1.00  0.00    -0.550 OA
ATOM      4  O   UNL     1       5.277   1.724   1.843  1.00  0.00    -0.550 OA
ENDBRANCH   1   2
BRANCH   1   5
ATOM      5  C   UNL     1       5.709  -0.107  -0.665  1.00  0.00     0.006 C 
BRANCH   5   6
ATOM      6  C   UNL     1       6.185  -1.239  -1.582  1.00  0.00    -0.003 C 
ATOM      7  C   UNL     1       7.156  -2.166  -0.855  1.00  0.00     0.004 C 
ENDBRANCH   5   6
ENDBRANCH   1   5
TORSDOF 3
ENDMDL
MODEL 2
REMARK VINA RESULT:    -2.636      7.362      7.992
REMARK INTER + INTRA:          -3.146
REMARK INTER:                  -3.126
REMARK INTRA:                  -0.021
REMARK UNBOUND:                -0.047
REMARK SMILES CCCCC(=O)[O-]
REMARK SMILES IDX 4 1 5 2 6 3 7 4 3 5 2 6 1 7
REMARK H PARENT
REMARK Flexibility Score: inf
ROOT
ATOM      1  C   UNL     1       0.681  -4.321  -2.734  1.00  0.00     0.053 C 
ENDROOT
BRANCH   1   2
ATOM      2  C   UNL     1       1.484  -3.752  -3.861  1.00  0.00     0.041 C 
ATOM      3  O   UNL     1       1.571  -4.372  -4.953  1.00  0.00    -0.550 OA
ATOM      4  O   UNL     1       2.097  -2.513  -3.722  1.00  0.00    -0.550 OA
ENDBRANCH   1   2
BRANCH   1   5
ATOM      5  C   UNL     1       0.877  -5.837  -2.645  1.00  0.00     0.006 C 
BRANCH   5   6
ATOM      6  C   UNL     1       1.114  -6.276  -1.197  1.00  0.00    -0.003 C 
ATOM      7  C   UNL     1       1.835  -7.620  -1.139  1.00  0.00     0.004 C 
ENDBRANCH   5   6
ENDBRANCH   1   5
TORSDOF 3
ENDMDL
MODEL 3
REMARK VINA RESULT:    -2.598      6.639      7.380
REMARK INTER + INTRA:          -3.101
REMARK INTER:                  -3.082
REMARK INTRA:                  -0.019
REMARK UNBOUND:                -0.047
REMARK SMILES CCCCC(=O)[O-]
REMARK SMILES IDX 4 1 5 2 6 3 7 4 3 5 2 6 1 7
REMARK H PARENT
REMARK Flexibility Score: inf
ROOT
ATOM      1  C   UNL     1       1.875  -3.824  -4.525  1.00  0.00     0.053 C 
ENDROOT
BRANCH   1   2
ATOM      2  C   UNL     1       1.225  -4.754  -3.549  1.00  0.00     0.041 C 
ATOM      3  O   UNL     1       1.623  -5.944  -3.446  1.00  0.00    -0.550 OA
ATOM      4  O   UNL     1       0.214  -4.292  -2.717  1.00  0.00    -0.550 OA
ENDBRANCH   1   2
BRANCH   1   5
ATOM      5  C   UNL     1       2.223  -2.495  -3.851  1.00  0.00     0.006 C 
BRANCH   5   6
ATOM      6  C   UNL     1       2.578  -1.427  -4.891  1.00  0.00    -0.003 C 
ATOM      7  C   UNL     1       4.088  -1.220  -4.976  1.00  0.00     0.004 C 
ENDBRANCH   5   6
ENDBRANCH   1   5
TORSDOF 3
ENDMDL
MODEL 4
REMARK VINA RESULT:    -2.590      5.540      6.323
REMARK INTER + INTRA:          -3.092
REMARK INTER:                  -3.044
REMARK INTRA:                  -0.048
REMARK UNBOUND:                -0.047
REMARK SMILES CCCCC(=O)[O-]
REMARK SMILES IDX 4 1 5 2 6 3 7 4 3 5 2 6 1 7
REMARK H PARENT
REMARK Flexibility Score: inf
ROOT
ATOM      1  C   UNL     1       3.414  -1.337  -4.876  1.00  0.00     0.053 C 
ENDROOT
BRANCH   1   2
ATOM      2  C   UNL     1       4.853  -1.400  -4.470  1.00  0.00     0.041 C 
ATOM      3  O   UNL     1       5.369  -2.497  -4.134  1.00  0.00    -0.550 OA
ATOM      4  O   UNL     1       5.637  -0.254  -4.511  1.00  0.00    -0.550 OA
ENDBRANCH   1   2
BRANCH   1   5
ATOM      5  C   UNL     1       2.528  -2.007  -3.822  1.00  0.00     0.006 C 
BRANCH   5   6
ATOM      6  C   UNL     1       1.899  -3.292  -4.369  1.00  0.00    -0.003 C 
ATOM      7  C   UNL     1       1.111  -4.024  -3.286  1.00  0.00     0.004 C 
ENDBRANCH   5   6
ENDBRANCH   1   5
TORSDOF 3
ENDMDL
MODEL 5
REMARK VINA RESULT:    -2.558      2.260      2.948
REMARK INTER + INTRA:          -3.054
REMARK INTER:                  -2.939
REMARK INTRA:                  -0.115
REMARK UNBOUND:                -0.047
REMARK SMILES CCCCC(=O)[O-]
REMARK SMILES IDX 4 1 5 2 6 3 7 4 3 5 2 6 1 7
REMARK H PARENT
REMARK Flexibility Score: inf
ROOT
ATOM      1  C   UNL     1       6.452  -0.983   0.163  1.00  0.00     0.053 C 
ENDROOT
BRANCH   1   2
ATOM      2  C   UNL     1       5.789  -0.186  -0.916  1.00  0.00     0.041 C 
ATOM      3  O   UNL     1       5.982   1.056  -0.996  1.00  0.00    -0.550 OA
ATOM      4  O   UNL     1       4.998  -0.822  -1.864  1.00  0.00    -0.550 OA
ENDBRANCH   1   2
BRANCH   1   5
ATOM      5  C   UNL     1       7.773  -1.573  -0.340  1.00  0.00     0.006 C 
BRANCH   5   6
ATOM      6  C   UNL     1       7.595  -3.034  -0.766  1.00  0.00    -0.003 C 
ATOM      7  C   UNL     1       7.698  -3.183  -2.282  1.00  0.00     0.004 C 
ENDBRANCH   5   6
ENDBRANCH   1   5
TORSDOF 3
ENDMDL
MODEL 6
REMARK VINA RESULT:    -2.545      4.685      5.659
REMARK INTER + INTRA:          -3.039
REMARK INTER:                  -2.993
REMARK INTRA:                  -0.046
REMARK UNBOUND:                -0.047
REMARK SMILES CCCCC(=O)[O-]
REMARK SMILES IDX 4 1 5 2 6 3 7 4 3 5 2 6 1 7
REMARK H PARENT
REMARK Flexibility Score: inf
ROOT
ATOM      1  C   UNL     1       4.462  -1.968  -4.061  1.00  0.00     0.053 C 
ENDROOT
BRANCH   1   2
ATOM      2  C   UNL     1       5.323  -0.940  -3.398  1.00  0.00     0.041 C 
ATOM      3  O   UNL     1       6.085  -0.212  -4.087  1.00  0.00    -0.550 OA
ATOM      4  O   UNL     1       5.249  -0.753  -2.023  1.00  0.00    -0.550 OA
ENDBRANCH   1   2
BRANCH   1   5
ATOM      5  C   UNL     1       2.982  -1.687  -3.787  1.00  0.00     0.006 C 
BRANCH   5   6
ATOM      6  C   UNL     1       2.268  -1.215  -5.059  1.00  0.00    -0.003 C 
ATOM      7  C   UNL     1       2.403  -2.242  -6.180  1.00  0.00     0.004 C 
ENDBRANCH   5   6
ENDBRANCH   1   5
TORSDOF 3
ENDMDL
MODEL 7
REMARK VINA RESULT:    -2.542      6.303      7.145
REMARK INTER + INTRA:          -3.035
REMARK INTER:                  -3.001
REMARK INTRA:                  -0.035
REMARK UNBOUND:                -0.047
REMARK SMILES CCCCC(=O)[O-]
REMARK SMILES IDX 4 1 5 2 6 3 7 4 3 5 2 6 1 7
REMARK H PARENT
REMARK Flexibility Score: inf
ROOT
ATOM      1  C   UNL     1       1.914  -2.765  -3.784  1.00  0.00     0.053 C 
ENDROOT
BRANCH   1   2
ATOM      2  C   UNL     1       2.806  -1.729  -4.392  1.00  0.00     0.041 C 
ATOM      3  O   UNL     1       2.320  -0.816  -5.109  1.00  0.00    -0.550 OA
ATOM      4  O   UNL     1       4.169  -1.743  -4.125  1.00  0.00    -0.550 OA
ENDBRANCH   1   2
BRANCH   1   5
ATOM      5  C   UNL     1       2.196  -4.142  -4.393  1.00  0.00     0.006 C 
BRANCH   5   6
ATOM      6  C   UNL     1       1.348  -5.225  -3.719  1.00  0.00    -0.003 C 
ATOM      7  C   UNL     1       0.523  -4.646  -2.572  1.00  0.00     0.004 C 
ENDBRANCH   5   6
ENDBRANCH   1   5
TORSDOF 3
ENDMDL
MODEL 8
REMARK VINA RESULT:    -2.480      6.068      7.036
REMARK INTER + INTRA:          -2.962
REMARK INTER:                  -2.874
REMARK INTRA:                  -0.088
REMARK UNBOUND:                -0.047
REMARK SMILES CCCCC(=O)[O-]
REMARK SMILES IDX 4 1 5 2 6 3 7 4 3 5 2 6 1 7
REMARK H PARENT
REMARK Flexibility Score: inf
ROOT
ATOM      1  C   UNL     1       2.219  -2.655  -5.142  1.00  0.00     0.053 C 
ENDROOT
BRANCH   1   2
ATOM      2  C   UNL     1       1.920  -3.905  -4.376  1.00  0.00     0.041 C 
ATOM      3  O   UNL     1       2.489  -4.986  -4.679  1.00  0.00    -0.550 OA
ATOM      4  O   UNL     1       1.049  -3.865  -3.294  1.00  0.00    -0.550 OA
ENDBRANCH   1   2
BRANCH   1   5
ATOM      5  C   UNL     1       2.646  -1.532  -4.193  1.00  0.00     0.006 C 
BRANCH   5   6
ATOM      6  C   UNL     1       4.157  -1.570  -3.941  1.00  0.00    -0.003 C 
ATOM      7  C   UNL     1       4.937  -1.368  -5.238  1.00  0.00     0.004 C 
ENDBRANCH   5   6
ENDBRANCH   1   5
TORSDOF 3
ENDMDL
MODEL 9
REMARK VINA RESULT:    -2.440     11.494     12.102
REMARK INTER + INTRA:          -2.915
REMARK INTER:                  -2.827
REMARK INTRA:                  -0.088
REMARK UNBOUND:                -0.047
REMARK SMILES CCCCC(=O)[O-]
REMARK SMILES IDX 4 1 5 2 6 3 7 4 3 5 2 6 1 7
REMARK H PARENT
REMARK Flexibility Score: inf
ROOT
ATOM      1  C   UNL     1      -3.743  -5.633   4.653  1.00  0.00     0.053 C 
ENDROOT
BRANCH   1   2
ATOM      2  C   UNL     1      -4.293  -4.957   5.869  1.00  0.00     0.041 C 
ATOM      3  O   UNL     1      -5.277  -4.178   5.770  1.00  0.00    -0.550 OA
ATOM      4  O   UNL     1      -3.750  -5.225   7.119  1.00  0.00    -0.550 OA
ENDBRANCH   1   2
BRANCH   1   5
ATOM      5  C   UNL     1      -2.260  -5.964   4.847  1.00  0.00     0.006 C 
BRANCH   5   6
ATOM      6  C   UNL     1      -2.057  -7.467   5.063  1.00  0.00    -0.003 C 
ATOM      7  C   UNL     1      -1.282  -7.740   6.350  1.00  0.00     0.004 C 
ENDBRANCH   5   6
ENDBRANCH   1   5
TORSDOF 3
ENDMDL
