MODEL 1
REMARK VINA RESULT:    -5.888      0.000      0.000
REMARK INTER + INTRA:          -5.888
REMARK INTER:                  -5.888
REMARK INTRA:                   0.000
REMARK UNBOUND:                 0.000
REMARK SMILES CC(C)=C1CC[C@@H](C)CC1=O
REMARK SMILES IDX 8 1 7 2 6 3 5 4 4 5 2 6 1 7 3 8 10 9 11 10 9 11
REMARK H PARENT
REMARK Flexibility Score: inf
ROOT
ATOM      1  C   UNL     1     -12.659 -38.673  31.999  1.00  0.00     0.008 C 
ATOM      2  C   UNL     1     -13.226 -37.543  31.130  1.00  0.00    -0.006 C 
ATOM      3  C   UNL     1     -12.821 -37.736  29.661  1.00  0.00     0.008 C 
ATOM      4  C   UNL     1     -13.463 -36.672  28.761  1.00  0.00     0.039 C 
ATOM      5  C   UNL     1     -13.206 -35.255  29.257  1.00  0.00    -0.006 C 
ATOM      6  C   UNL     1     -13.093 -34.209  28.387  1.00  0.00    -0.070 C 
ATOM      7  C   UNL     1     -13.235 -34.410  26.896  1.00  0.00     0.039 C 
ATOM      8  C   UNL     1     -12.783 -32.808  28.863  1.00  0.00     0.039 C 
ATOM      9  C   UNL     1     -13.205 -35.069  30.739  1.00  0.00     0.159 C 
ATOM     10  O   UNL     1     -13.600 -33.994  31.264  1.00  0.00    -0.295 OA
ATOM     11  C   UNL     1     -12.734 -36.178  31.635  1.00  0.00     0.084 C 
ENDROOT
TORSDOF 0
ENDMDL
MODEL 2
REMARK VINA RESULT:    -5.411      1.730      2.346
REMARK INTER + INTRA:          -5.411
REMARK INTER:                  -5.411
REMARK INTRA:                   0.000
REMARK UNBOUND:                 0.000
REMARK SMILES CC(C)=C1CC[C@@H](C)CC1=O
REMARK SMILES IDX 8 1 7 2 6 3 5 4 4 5 2 6 1 7 3 8 10 9 11 10 9 11
REMARK H PARENT
REMARK Flexibility Score: inf
ROOT
ATOM      1  C   UNL     1     -12.625 -38.844  32.075  1.00  0.00     0.008 C 
ATOM      2  C   UNL     1     -12.175 -37.803  31.043  1.00  0.00    -0.006 C 
ATOM      3  C   UNL     1     -11.326 -36.710  31.711  1.00  0.00     0.008 C 
ATOM      4  C   UNL     1     -10.781 -35.716  30.677  1.00  0.00     0.039 C 
ATOM      5  C   UNL     1     -11.875 -35.144  29.785  1.00  0.00    -0.006 C 
ATOM      6  C   UNL     1     -11.790 -33.876  29.285  1.00  0.00    -0.070 C 
ATOM      7  C   UNL     1     -10.600 -32.993  29.582  1.00  0.00     0.039 C 
ATOM      8  C   UNL     1     -12.895 -33.277  28.445  1.00  0.00     0.039 C 
ATOM      9  C   UNL     1     -12.969 -36.084  29.403  1.00  0.00     0.159 C 
ATOM     10  O   UNL     1     -13.552 -35.993  28.290  1.00  0.00    -0.295 OA
ATOM     11  C   UNL     1     -13.391 -37.171  30.349  1.00  0.00     0.084 C 
ENDROOT
TORSDOF 0
ENDMDL
MODEL 3
REMARK VINA RESULT:    -5.375      2.604      4.192
REMARK INTER + INTRA:          -5.375
REMARK INTER:                  -5.375
REMARK INTRA:                   0.000
REMARK UNBOUND:                 0.000
REMARK SMILES CC(C)=C1CC[C@@H](C)CC1=O
REMARK SMILES IDX 8 1 7 2 6 3 5 4 4 5 2 6 1 7 3 8 10 9 11 10 9 11
REMARK H PARENT
REMARK Flexibility Score: inf
ROOT
ATOM      1  C   UNL     1     -11.406 -35.022  25.982  1.00  0.00     0.008 C 
ATOM      2  C   UNL     1     -11.586 -34.301  27.323  1.00  0.00    -0.006 C 
ATOM      3  C   UNL     1     -11.096 -35.183  28.482  1.00  0.00     0.008 C 
ATOM      4  C   UNL     1     -11.173 -34.438  29.821  1.00  0.00     0.039 C 
ATOM      5  C   UNL     1     -12.551 -33.844  30.080  1.00  0.00    -0.006 C 
ATOM      6  C   UNL     1     -13.045 -33.726  31.348  1.00  0.00    -0.070 C 
ATOM      7  C   UNL     1     -12.239 -34.164  32.549  1.00  0.00     0.039 C 
ATOM      8  C   UNL     1     -14.433 -33.190  31.614  1.00  0.00     0.039 C 
ATOM      9  C   UNL     1     -13.266 -33.299  28.888  1.00  0.00     0.159 C 
ATOM     10  O   UNL     1     -14.043 -32.312  28.984  1.00  0.00    -0.295 OA
ATOM     11  C   UNL     1     -13.059 -33.923  27.538  1.00  0.00     0.084 C 
ENDROOT
TORSDOF 0
ENDMDL
MODEL 4
REMARK VINA RESULT:    -5.320      1.956      4.387
REMARK INTER + INTRA:          -5.320
REMARK INTER:                  -5.320
REMARK INTRA:                   0.000
REMARK UNBOUND:                 0.000
REMARK SMILES CC(C)=C1CC[C@@H](C)CC1=O
REMARK SMILES IDX 8 1 7 2 6 3 5 4 4 5 2 6 1 7 3 8 10 9 11 10 9 11
REMARK H PARENT
REMARK Flexibility Score: inf
ROOT
ATOM      1  C   UNL     1      -9.875 -32.644  29.731  1.00  0.00     0.008 C 
ATOM      2  C   UNL     1     -11.002 -33.641  30.030  1.00  0.00    -0.006 C 
ATOM      3  C   UNL     1     -10.551 -34.670  31.078  1.00  0.00     0.008 C 
ATOM      4  C   UNL     1     -11.699 -35.612  31.464  1.00  0.00     0.039 C 
ATOM      5  C   UNL     1     -12.354 -36.261  30.252  1.00  0.00    -0.006 C 
ATOM      6  C   UNL     1     -12.890 -37.515  30.323  1.00  0.00    -0.070 C 
ATOM      7  C   UNL     1     -12.869 -38.306  31.611  1.00  0.00     0.039 C 
ATOM      8  C   UNL     1     -13.493 -38.191  29.113  1.00  0.00     0.039 C 
ATOM      9  C   UNL     1     -12.478 -35.404  29.036  1.00  0.00     0.159 C 
ATOM     10  O   UNL     1     -13.446 -35.532  28.240  1.00  0.00    -0.295 OA
ATOM     11  C   UNL     1     -11.440 -34.359  28.744  1.00  0.00     0.084 C 
ENDROOT
TORSDOF 0
ENDMDL
MODEL 5
REMARK VINA RESULT:    -5.267      1.623      4.329
REMARK INTER + INTRA:          -5.267
REMARK INTER:                  -5.267
REMARK INTRA:                   0.000
REMARK UNBOUND:                 0.000
REMARK SMILES CC(C)=C1CC[C@@H](C)CC1=O
REMARK SMILES IDX 8 1 7 2 6 3 5 4 4 5 2 6 1 7 3 8 10 9 11 10 9 11
REMARK H PARENT
REMARK Flexibility Score: inf
ROOT
ATOM      1  C   UNL     1     -11.737 -34.550  26.003  1.00  0.00     0.008 C 
ATOM      2  C   UNL     1     -12.567 -34.641  27.290  1.00  0.00    -0.006 C 
ATOM      3  C   UNL     1     -12.081 -33.610  28.321  1.00  0.00     0.008 C 
ATOM      4  C   UNL     1     -12.965 -33.617  29.575  1.00  0.00     0.039 C 
ATOM      5  C   UNL     1     -13.123 -35.009  30.170  1.00  0.00    -0.006 C 
ATOM      6  C   UNL     1     -13.277 -35.192  31.515  1.00  0.00    -0.070 C 
ATOM      7  C   UNL     1     -13.314 -34.019  32.467  1.00  0.00     0.039 C 
ATOM      8  C   UNL     1     -13.379 -36.572  32.123  1.00  0.00     0.039 C 
ATOM      9  C   UNL     1     -13.217 -36.134  29.192  1.00  0.00     0.159 C 
ATOM     10  O   UNL     1     -13.908 -37.159  29.437  1.00  0.00    -0.295 OA
ATOM     11  C   UNL     1     -12.486 -36.055  27.883  1.00  0.00     0.084 C 
ENDROOT
TORSDOF 0
ENDMDL
MODEL 6
REMARK VINA RESULT:    -5.202      2.549      4.171
REMARK INTER + INTRA:          -5.202
REMARK INTER:                  -5.202
REMARK INTRA:                   0.000
REMARK UNBOUND:                 0.000
REMARK SMILES CC(C)=C1CC[C@@H](C)CC1=O
REMARK SMILES IDX 8 1 7 2 6 3 5 4 4 5 2 6 1 7 3 8 10 9 11 10 9 11
REMARK H PARENT
REMARK Flexibility Score: inf
ROOT
ATOM      1  C   UNL     1     -11.384 -34.995  26.187  1.00  0.00     0.008 C 
ATOM      2  C   UNL     1     -11.675 -35.222  27.675  1.00  0.00    -0.006 C 
ATOM      3  C   UNL     1     -12.903 -34.410  28.117  1.00  0.00     0.008 C 
ATOM      4  C   UNL     1     -13.270 -34.703  29.577  1.00  0.00     0.039 C 
ATOM      5  C   UNL     1     -12.088 -34.535  30.521  1.00  0.00    -0.006 C 
ATOM      6  C   UNL     1     -12.263 -34.118  31.810  1.00  0.00    -0.070 C 
ATOM      7  C   UNL     1     -13.640 -33.820  32.358  1.00  0.00     0.039 C 
ATOM      8  C   UNL     1     -11.093 -33.893  32.740  1.00  0.00     0.039 C 
ATOM      9  C   UNL     1     -10.759 -34.964  29.992  1.00  0.00     0.159 C 
ATOM     10  O   UNL     1      -9.875 -35.442  30.752  1.00  0.00    -0.295 OA
ATOM     11  C   UNL     1     -10.457 -34.835  28.527  1.00  0.00     0.084 C 
ENDROOT
TORSDOF 0
ENDMDL
MODEL 7
REMARK VINA RESULT:    -5.133      2.123      4.059
REMARK INTER + INTRA:          -5.133
REMARK INTER:                  -5.133
REMARK INTRA:                   0.000
REMARK UNBOUND:                 0.000
REMARK SMILES CC(C)=C1CC[C@@H](C)CC1=O
REMARK SMILES IDX 8 1 7 2 6 3 5 4 4 5 2 6 1 7 3 8 10 9 11 10 9 11
REMARK H PARENT
REMARK Flexibility Score: inf
ROOT
ATOM      1  C   UNL     1      -9.880 -32.475  29.641  1.00  0.00     0.008 C 
ATOM      2  C   UNL     1     -10.383 -33.916  29.501  1.00  0.00    -0.006 C 
ATOM      3  C   UNL     1     -11.646 -33.966  28.627  1.00  0.00     0.008 C 
ATOM      4  C   UNL     1     -12.105 -35.411  28.392  1.00  0.00     0.039 C 
ATOM      5  C   UNL     1     -12.262 -36.192  29.690  1.00  0.00    -0.006 C 
ATOM      6  C   UNL     1     -13.200 -37.176  29.816  1.00  0.00    -0.070 C 
ATOM      7  C   UNL     1     -14.112 -37.543  28.667  1.00  0.00     0.039 C 
ATOM      8  C   UNL     1     -13.403 -37.920  31.116  1.00  0.00     0.039 C 
ATOM      9  C   UNL     1     -11.261 -35.898  30.757  1.00  0.00     0.159 C 
ATOM     10  O   UNL     1     -10.882 -36.789  31.563  1.00  0.00    -0.295 OA
ATOM     11  C   UNL     1     -10.678 -34.520  30.883  1.00  0.00     0.084 C 
ENDROOT
TORSDOF 0
ENDMDL
MODEL 8
REMARK VINA RESULT:    -5.077      1.675      2.540
REMARK INTER + INTRA:          -5.077
REMARK INTER:                  -5.077
REMARK INTRA:                   0.000
REMARK UNBOUND:                 0.000
REMARK SMILES CC(C)=C1CC[C@@H](C)CC1=O
REMARK SMILES IDX 8 1 7 2 6 3 5 4 4 5 2 6 1 7 3 8 10 9 11 10 9 11
REMARK H PARENT
REMARK Flexibility Score: inf
ROOT
ATOM      1  C   UNL     1     -12.209 -37.547  32.031  1.00  0.00     0.008 C 
ATOM      2  C   UNL     1     -12.112 -36.348  31.079  1.00  0.00    -0.006 C 
ATOM      3  C   UNL     1     -13.105 -35.250  31.489  1.00  0.00     0.008 C 
ATOM      4  C   UNL     1     -12.951 -34.002  30.610  1.00  0.00     0.039 C 
ATOM      5  C   UNL     1     -13.016 -34.323  29.123  1.00  0.00    -0.006 C 
ATOM      6  C   UNL     1     -13.529 -33.430  28.227  1.00  0.00    -0.070 C 
ATOM      7  C   UNL     1     -14.039 -32.078  28.670  1.00  0.00     0.039 C 
ATOM      8  C   UNL     1     -13.649 -33.759  26.756  1.00  0.00     0.039 C 
ATOM      9  C   UNL     1     -12.383 -35.608  28.702  1.00  0.00     0.159 C 
ATOM     10  O   UNL     1     -11.836 -35.729  27.573  1.00  0.00    -0.295 OA
ATOM     11  C   UNL     1     -12.382 -36.787  29.632  1.00  0.00     0.084 C 
ENDROOT
TORSDOF 0
ENDMDL
MODEL 9
REMARK VINA RESULT:    -5.069      2.221      3.407
REMARK INTER + INTRA:          -5.069
REMARK INTER:                  -5.069
REMARK INTRA:                   0.000
REMARK UNBOUND:                 0.000
REMARK SMILES CC(C)=C1CC[C@@H](C)CC1=O
REMARK SMILES IDX 8 1 7 2 6 3 5 4 4 5 2 6 1 7 3 8 10 9 11 10 9 11
REMARK H PARENT
REMARK Flexibility Score: inf
ROOT
ATOM      1  C   UNL     1     -14.341 -38.042  28.818  1.00  0.00     0.008 C 
ATOM      2  C   UNL     1     -13.080 -37.350  29.349  1.00  0.00    -0.006 C 
ATOM      3  C   UNL     1     -13.255 -36.966  30.827  1.00  0.00     0.008 C 
ATOM      4  C   UNL     1     -11.967 -36.365  31.404  1.00  0.00     0.039 C 
ATOM      5  C   UNL     1     -11.430 -35.216  30.561  1.00  0.00    -0.006 C 
ATOM      6  C   UNL     1     -10.756 -34.174  31.131  1.00  0.00    -0.070 C 
ATOM      7  C   UNL     1     -10.499 -34.125  32.619  1.00  0.00     0.039 C 
ATOM      8  C   UNL     1     -10.268 -33.001  30.313  1.00  0.00     0.039 C 
ATOM      9  C   UNL     1     -11.583 -35.360  29.083  1.00  0.00     0.159 C 
ATOM     10  O   UNL     1     -10.735 -34.875  28.287  1.00  0.00    -0.295 OA
ATOM     11  C   UNL     1     -12.761 -36.099  28.517  1.00  0.00     0.084 C 
ENDROOT
TORSDOF 0
ENDMDL
