MODEL 1
REMARK VINA RESULT:    -1.693      0.000      0.000
REMARK INTER + INTRA:          -3.697
REMARK INTER:                  -2.980
REMARK INTRA:                  -0.717
REMARK UNBOUND:                -0.717
REMARK SMILES CCCCCCC=CCCCCCCCC(=O)[O-]
REMARK SMILES IDX 10 1 11 2 12 3 13 4 14 5 15 6 16 7 17 8 18 9 9 10 8 11 7 12
REMARK SMILES IDX 6 13 5 14 4 15 3 16 2 17 1 18
REMARK H PARENT
REMARK Flexibility Score: inf
ROOT
ATOM      1  C   UNL     1      -8.165  50.537  -3.044  1.00  0.00     0.004 C 
ENDROOT
BRANCH   1   2
ATOM      2  C   UNL     1      -8.539  50.589  -4.534  1.00  0.00     0.000 C 
BRANCH   2   3
ATOM      3  C   UNL     1      -8.361  51.993  -5.140  1.00  0.00     0.000 C 
BRANCH   3   4
ATOM      4  C   UNL     1      -7.060  52.124  -5.948  1.00  0.00     0.000 C 
BRANCH   4   5
ATOM      5  C   UNL     1      -7.302  52.083  -7.467  1.00  0.00     0.006 C 
BRANCH   5   6
ATOM      6  C   UNL     1      -6.129  51.447  -8.223  1.00  0.00     0.053 C 
BRANCH   6   7
ATOM      7  C   UNL     1      -6.599  50.459  -9.246  1.00  0.00     0.041 C 
ATOM      8  O   UNL     1      -5.806  50.025 -10.123  1.00  0.00    -0.550 OA
ATOM      9  O   UNL     1      -7.907  49.990  -9.209  1.00  0.00    -0.550 OA
ENDBRANCH   6   7
ENDBRANCH   5   6
ENDBRANCH   4   5
ENDBRANCH   3   4
ENDBRANCH   2   3
ENDBRANCH   1   2
BRANCH   1  10
ATOM     10  C   UNL     1      -8.976  51.528  -2.197  1.00  0.00     0.027 C 
BRANCH  10  11
ATOM     11  C   UNL     1      -8.331  51.752  -0.858  1.00  0.00    -0.031 C 
ATOM     12  C   UNL     1      -6.997  51.770  -0.715  1.00  0.00    -0.031 C 
BRANCH  12  13
ATOM     13  C   UNL     1      -6.349  51.978   0.628  1.00  0.00     0.027 C 
BRANCH  13  14
ATOM     14  C   UNL     1      -4.813  52.021   0.544  1.00  0.00     0.004 C 
BRANCH  14  15
ATOM     15  C   UNL     1      -4.152  50.653   0.289  1.00  0.00     0.000 C 
BRANCH  15  16
ATOM     16  C   UNL     1      -2.617  50.710   0.375  1.00  0.00    -0.000 C 
BRANCH  16  17
ATOM     17  C   UNL     1      -2.062  52.106   0.049  1.00  0.00    -0.003 C 
ATOM     18  C   UNL     1      -1.207  52.125  -1.217  1.00  0.00     0.004 C 
ENDBRANCH  16  17
ENDBRANCH  15  16
ENDBRANCH  14  15
ENDBRANCH  13  14
ENDBRANCH  12  13
ENDBRANCH  10  11
ENDBRANCH   1  10
TORSDOF 13
ENDMDL
MODEL 2
REMARK VINA RESULT:    -0.385      3.912      7.443
REMARK INTER + INTRA:          -1.396
REMARK INTER:                  -0.761
REMARK INTRA:                  -0.635
REMARK UNBOUND:                -0.717
REMARK SMILES CCCCCCC=CCCCCCCCC(=O)[O-]
REMARK SMILES IDX 10 1 11 2 12 3 13 4 14 5 15 6 16 7 17 8 18 9 9 10 8 11 7 12
REMARK SMILES IDX 6 13 5 14 4 15 3 16 2 17 1 18
REMARK H PARENT
REMARK Flexibility Score: inf
ROOT
ATOM      1  C   UNL     1      -8.785  50.078  -2.305  1.00  0.00     0.004 C 
ENDROOT
BRANCH   1   2
ATOM      2  C   UNL     1      -8.414  51.338  -1.509  1.00  0.00     0.000 C 
BRANCH   2   3
ATOM      3  C   UNL     1      -6.922  51.381  -1.131  1.00  0.00     0.000 C 
BRANCH   3   4
ATOM      4  C   UNL     1      -6.600  50.509   0.094  1.00  0.00     0.000 C 
BRANCH   4   5
ATOM      5  C   UNL     1      -5.649  51.207   1.081  1.00  0.00     0.006 C 
BRANCH   5   6
ATOM      6  C   UNL     1      -4.589  52.054   0.364  1.00  0.00     0.053 C 
BRANCH   6   7
ATOM      7  C   UNL     1      -3.284  51.327   0.251  1.00  0.00     0.041 C 
ATOM      8  O   UNL     1      -2.207  51.969   0.126  1.00  0.00    -0.550 OA
ATOM      9  O   UNL     1      -3.253  49.940   0.317  1.00  0.00    -0.550 OA
ENDBRANCH   6   7
ENDBRANCH   5   6
ENDBRANCH   4   5
ENDBRANCH   3   4
ENDBRANCH   2   3
ENDBRANCH   1   2
BRANCH   1  10
ATOM     10  C   UNL     1      -9.125  50.385  -3.771  1.00  0.00     0.027 C 
BRANCH  10  11
ATOM     11  C   UNL     1      -7.975  51.059  -4.465  1.00  0.00    -0.031 C 
ATOM     12  C   UNL     1      -8.026  51.369  -5.769  1.00  0.00    -0.031 C 
BRANCH  12  13
ATOM     13  C   UNL     1      -6.870  52.030  -6.471  1.00  0.00     0.027 C 
BRANCH  13  14
ATOM     14  C   UNL     1      -6.857  51.753  -7.984  1.00  0.00     0.004 C 
BRANCH  14  15
ATOM     15  C   UNL     1      -5.506  51.249  -8.527  1.00  0.00     0.000 C 
BRANCH  15  16
ATOM     16  C   UNL     1      -4.321  52.117  -8.070  1.00  0.00    -0.000 C 
BRANCH  16  17
ATOM     17  C   UNL     1      -3.170  51.281  -7.490  1.00  0.00    -0.003 C 
ATOM     18  C   UNL     1      -1.933  51.270  -8.388  1.00  0.00     0.004 C 
ENDBRANCH  16  17
ENDBRANCH  15  16
ENDBRANCH  14  15
ENDBRANCH  13  14
ENDBRANCH  12  13
ENDBRANCH  10  11
ENDBRANCH   1  10
TORSDOF 13
ENDMDL
MODEL 3
REMARK VINA RESULT:    -0.041      3.869      7.637
REMARK INTER + INTRA:          -0.790
REMARK INTER:                  -0.090
REMARK INTRA:                  -0.700
REMARK UNBOUND:                -0.717
REMARK SMILES CCCCCCC=CCCCCCCCC(=O)[O-]
REMARK SMILES IDX 10 1 11 2 12 3 13 4 14 5 15 6 16 7 17 8 18 9 9 10 8 11 7 12
REMARK SMILES IDX 6 13 5 14 4 15 3 16 2 17 1 18
REMARK H PARENT
REMARK Flexibility Score: inf
ROOT
ATOM      1  C   UNL     1      -8.166  51.035  -4.605  1.00  0.00     0.004 C 
ENDROOT
BRANCH   1   2
ATOM      2  C   UNL     1      -7.715  51.993  -3.491  1.00  0.00     0.000 C 
BRANCH   2   3
ATOM      3  C   UNL     1      -8.757  52.125  -2.366  1.00  0.00     0.000 C 
BRANCH   3   4
ATOM      4  C   UNL     1      -8.176  51.784  -0.983  1.00  0.00     0.000 C 
BRANCH   4   5
ATOM      5  C   UNL     1      -7.726  50.317  -0.878  1.00  0.00     0.006 C 
BRANCH   5   6
ATOM      6  C   UNL     1      -6.294  50.187  -0.343  1.00  0.00     0.053 C 
BRANCH   6   7
ATOM      7  C   UNL     1      -5.851  51.433   0.362  1.00  0.00     0.041 C 
ATOM      8  O   UNL     1      -6.474  51.845   1.376  1.00  0.00    -0.550 OA
ATOM      9  O   UNL     1      -4.729  52.121  -0.083  1.00  0.00    -0.550 OA
ENDBRANCH   6   7
ENDBRANCH   5   6
ENDBRANCH   4   5
ENDBRANCH   3   4
ENDBRANCH   2   3
ENDBRANCH   1   2
BRANCH   1  10
ATOM     10  C   UNL     1      -8.680  51.776  -5.848  1.00  0.00     0.027 C 
BRANCH  10  11
ATOM     11  C   UNL     1      -7.561  52.064  -6.809  1.00  0.00    -0.031 C 
ATOM     12  C   UNL     1      -7.648  51.733  -8.107  1.00  0.00    -0.031 C 
BRANCH  12  13
ATOM     13  C   UNL     1      -6.523  52.005  -9.069  1.00  0.00     0.027 C 
BRANCH  13  14
ATOM     14  C   UNL     1      -5.636  50.772  -9.309  1.00  0.00     0.004 C 
BRANCH  14  15
ATOM     15  C   UNL     1      -4.184  51.101  -9.708  1.00  0.00     0.000 C 
BRANCH  15  16
ATOM     16  C   UNL     1      -3.454  51.945  -8.649  1.00  0.00    -0.000 C 
BRANCH  16  17
ATOM     17  C   UNL     1      -3.450  51.277  -7.265  1.00  0.00    -0.003 C 
ATOM     18  C   UNL     1      -4.136  52.125  -6.194  1.00  0.00     0.004 C 
ENDBRANCH  16  17
ENDBRANCH  15  16
ENDBRANCH  14  15
ENDBRANCH  13  14
ENDBRANCH  12  13
ENDBRANCH  10  11
ENDBRANCH   1  10
TORSDOF 13
ENDMDL
MODEL 4
REMARK VINA RESULT:     0.191      3.808      8.024
REMARK INTER + INTRA:          -0.382
REMARK INTER:                   0.265
REMARK INTRA:                  -0.646
REMARK UNBOUND:                -0.717
REMARK SMILES CCCCCCC=CCCCCCCCC(=O)[O-]
REMARK SMILES IDX 10 1 11 2 12 3 13 4 14 5 15 6 16 7 17 8 18 9 9 10 8 11 7 12
REMARK SMILES IDX 6 13 5 14 4 15 3 16 2 17 1 18
REMARK H PARENT
REMARK Flexibility Score: inf
ROOT
ATOM      1  C   UNL     1      -8.701  50.294  -1.440  1.00  0.00     0.004 C 
ENDROOT
BRANCH   1   2
ATOM      2  C   UNL     1      -7.483  51.219  -1.289  1.00  0.00     0.000 C 
BRANCH   2   3
ATOM      3  C   UNL     1      -6.503  50.735  -0.205  1.00  0.00     0.000 C 
BRANCH   3   4
ATOM      4  C   UNL     1      -6.288  51.779   0.903  1.00  0.00     0.000 C 
BRANCH   4   5
ATOM      5  C   UNL     1      -4.798  52.034   1.191  1.00  0.00     0.006 C 
BRANCH   5   6
ATOM      6  C   UNL     1      -3.966  52.123  -0.094  1.00  0.00     0.053 C 
BRANCH   6   7
ATOM      7  C   UNL     1      -2.653  51.416   0.046  1.00  0.00     0.041 C 
ATOM      8  O   UNL     1      -1.573  52.063  -0.009  1.00  0.00    -0.550 OA
ATOM      9  O   UNL     1      -2.623  50.046   0.273  1.00  0.00    -0.550 OA
ENDBRANCH   6   7
ENDBRANCH   5   6
ENDBRANCH   4   5
ENDBRANCH   3   4
ENDBRANCH   2   3
ENDBRANCH   1   2
BRANCH   1  10
ATOM     10  C   UNL     1      -9.013  49.964  -2.907  1.00  0.00     0.027 C 
BRANCH  10  11
ATOM     11  C   UNL     1      -8.696  51.129  -3.804  1.00  0.00    -0.031 C 
ATOM     12  C   UNL     1      -8.410  50.956  -5.103  1.00  0.00    -0.031 C 
BRANCH  12  13
ATOM     13  C   UNL     1      -8.077  52.119  -6.000  1.00  0.00     0.027 C 
BRANCH  13  14
ATOM     14  C   UNL     1      -7.336  51.689  -7.278  1.00  0.00     0.004 C 
BRANCH  14  15
ATOM     15  C   UNL     1      -8.221  51.632  -8.538  1.00  0.00     0.000 C 
BRANCH  15  16
ATOM     16  C   UNL     1      -7.472  51.086  -9.765  1.00  0.00    -0.000 C 
BRANCH  16  17
ATOM     17  C   UNL     1      -6.011  50.726  -9.450  1.00  0.00    -0.003 C 
ATOM     18  C   UNL     1      -5.019  51.768  -9.965  1.00  0.00     0.004 C 
ENDBRANCH  16  17
ENDBRANCH  15  16
ENDBRANCH  14  15
ENDBRANCH  13  14
ENDBRANCH  12  13
ENDBRANCH  10  11
ENDBRANCH   1  10
TORSDOF 13
ENDMDL
MODEL 5
REMARK VINA RESULT:     0.198      3.873      8.279
REMARK INTER + INTRA:          -0.368
REMARK INTER:                   0.097
REMARK INTRA:                  -0.465
REMARK UNBOUND:                -0.717
REMARK SMILES CCCCCCC=CCCCCCCCC(=O)[O-]
REMARK SMILES IDX 10 1 11 2 12 3 13 4 14 5 15 6 16 7 17 8 18 9 9 10 8 11 7 12
REMARK SMILES IDX 6 13 5 14 4 15 3 16 2 17 1 18
REMARK H PARENT
REMARK Flexibility Score: inf
ROOT
ATOM      1  C   UNL     1      -8.616  50.052  -3.839  1.00  0.00     0.004 C 
ENDROOT
BRANCH   1   2
ATOM      2  C   UNL     1      -7.629  49.929  -2.668  1.00  0.00     0.000 C 
BRANCH   2   3
ATOM      3  C   UNL     1      -8.336  49.861  -1.303  1.00  0.00     0.000 C 
BRANCH   3   4
ATOM      4  C   UNL     1      -8.870  51.229  -0.848  1.00  0.00     0.000 C 
BRANCH   4   5
ATOM      5  C   UNL     1      -7.888  51.970   0.076  1.00  0.00     0.006 C 
BRANCH   5   6
ATOM      6  C   UNL     1      -6.500  52.124  -0.559  1.00  0.00     0.053 C 
BRANCH   6   7
ATOM      7  C   UNL     1      -5.414  51.673   0.369  1.00  0.00     0.041 C 
ATOM      8  O   UNL     1      -4.226  52.052   0.188  1.00  0.00    -0.550 OA
ATOM      9  O   UNL     1      -5.719  50.860   1.453  1.00  0.00    -0.550 OA
ENDBRANCH   6   7
ENDBRANCH   5   6
ENDBRANCH   4   5
ENDBRANCH   3   4
ENDBRANCH   2   3
ENDBRANCH   1   2
BRANCH   1  10
ATOM     10  C   UNL     1      -8.976  51.510  -4.157  1.00  0.00     0.027 C 
BRANCH  10  11
ATOM     11  C   UNL     1      -8.769  51.815  -5.615  1.00  0.00    -0.031 C 
ATOM     12  C   UNL     1      -7.547  51.805  -6.167  1.00  0.00    -0.031 C 
BRANCH  12  13
ATOM     13  C   UNL     1      -7.335  52.125  -7.623  1.00  0.00     0.027 C 
BRANCH  13  14
ATOM     14  C   UNL     1      -6.389  51.130  -8.317  1.00  0.00     0.004 C 
BRANCH  14  15
ATOM     15  C   UNL     1      -6.650  50.952  -9.826  1.00  0.00     0.000 C 
BRANCH  15  16
ATOM     16  C   UNL     1      -7.965  50.208 -10.117  1.00  0.00    -0.000 C 
BRANCH  16  17
ATOM     17  C   UNL     1      -8.313  49.181  -9.028  1.00  0.00    -0.003 C 
ATOM     18  C   UNL     1      -9.121  48.000  -9.563  1.00  0.00     0.004 C 
ENDBRANCH  16  17
ENDBRANCH  15  16
ENDBRANCH  14  15
ENDBRANCH  13  14
ENDBRANCH  12  13
ENDBRANCH  10  11
ENDBRANCH   1  10
TORSDOF 13
ENDMDL
MODEL 6
REMARK VINA RESULT:     0.350      4.079      7.406
REMARK INTER + INTRA:          -0.101
REMARK INTER:                   0.569
REMARK INTRA:                  -0.670
REMARK UNBOUND:                -0.717
REMARK SMILES CCCCCCC=CCCCCCCCC(=O)[O-]
REMARK SMILES IDX 10 1 11 2 12 3 13 4 14 5 15 6 16 7 17 8 18 9 9 10 8 11 7 12
REMARK SMILES IDX 6 13 5 14 4 15 3 16 2 17 1 18
REMARK H PARENT
REMARK Flexibility Score: inf
ROOT
ATOM      1  C   UNL     1      -8.521  50.491  -3.499  1.00  0.00     0.004 C 
ENDROOT
BRANCH   1   2
ATOM      2  C   UNL     1      -8.088  50.915  -2.087  1.00  0.00     0.000 C 
BRANCH   2   3
ATOM      3  C   UNL     1      -7.850  49.714  -1.155  1.00  0.00     0.000 C 
BRANCH   3   4
ATOM      4  C   UNL     1      -8.026  48.366  -1.874  1.00  0.00     0.000 C 
BRANCH   4   5
ATOM      5  C   UNL     1      -6.850  47.406  -1.627  1.00  0.00     0.006 C 
BRANCH   5   6
ATOM      6  C   UNL     1      -7.319  45.966  -1.384  1.00  0.00     0.053 C 
BRANCH   6   7
ATOM      7  C   UNL     1      -6.572  44.989  -2.240  1.00  0.00     0.041 C 
ATOM      8  O   UNL     1      -6.810  44.915  -3.475  1.00  0.00    -0.550 OA
ATOM      9  O   UNL     1      -5.589  44.184  -1.679  1.00  0.00    -0.550 OA
ENDBRANCH   6   7
ENDBRANCH   5   6
ENDBRANCH   4   5
ENDBRANCH   3   4
ENDBRANCH   2   3
ENDBRANCH   1   2
BRANCH   1  10
ATOM     10  C   UNL     1      -8.846  51.690  -4.401  1.00  0.00     0.027 C 
BRANCH  10  11
ATOM     11  C   UNL     1      -7.809  51.858  -5.476  1.00  0.00    -0.031 C 
ATOM     12  C   UNL     1      -8.151  51.969  -6.769  1.00  0.00    -0.031 C 
BRANCH  12  13
ATOM     13  C   UNL     1      -7.114  52.121  -7.850  1.00  0.00     0.027 C 
BRANCH  13  14
ATOM     14  C   UNL     1      -6.853  50.810  -8.610  1.00  0.00     0.004 C 
BRANCH  14  15
ATOM     15  C   UNL     1      -5.800  50.923  -9.729  1.00  0.00     0.000 C 
BRANCH  15  16
ATOM     16  C   UNL     1      -4.688  51.933  -9.399  1.00  0.00    -0.000 C 
BRANCH  16  17
ATOM     17  C   UNL     1      -3.604  51.336  -8.487  1.00  0.00    -0.003 C 
ATOM     18  C   UNL     1      -3.789  51.718  -7.018  1.00  0.00     0.004 C 
ENDBRANCH  16  17
ENDBRANCH  15  16
ENDBRANCH  14  15
ENDBRANCH  13  14
ENDBRANCH  12  13
ENDBRANCH  10  11
ENDBRANCH   1  10
TORSDOF 13
ENDMDL
MODEL 7
REMARK VINA RESULT:     0.700      5.597      8.268
REMARK INTER + INTRA:           0.514
REMARK INTER:                   1.008
REMARK INTRA:                  -0.494
REMARK UNBOUND:                -0.717
REMARK SMILES CCCCCCC=CCCCCCCCC(=O)[O-]
REMARK SMILES IDX 10 1 11 2 12 3 13 4 14 5 15 6 16 7 17 8 18 9 9 10 8 11 7 12
REMARK SMILES IDX 6 13 5 14 4 15 3 16 2 17 1 18
REMARK H PARENT
REMARK Flexibility Score: inf
ROOT
ATOM      1  C   UNL     1      -7.780  48.504  -2.649  1.00  0.00     0.004 C 
ENDROOT
BRANCH   1   2
ATOM      2  C   UNL     1      -7.259  47.412  -1.701  1.00  0.00     0.000 C 
BRANCH   2   3
ATOM      3  C   UNL     1      -6.808  46.145  -2.449  1.00  0.00     0.000 C 
BRANCH   3   4
ATOM      4  C   UNL     1      -6.480  44.984  -1.496  1.00  0.00     0.000 C 
BRANCH   4   5
ATOM      5  C   UNL     1      -5.669  43.870  -2.179  1.00  0.00     0.006 C 
BRANCH   5   6
ATOM      6  C   UNL     1      -5.392  42.693  -1.236  1.00  0.00     0.053 C 
BRANCH   6   7
ATOM      7  C   UNL     1      -3.966  42.673  -0.779  1.00  0.00     0.041 C 
ATOM      8  O   UNL     1      -3.630  41.993   0.227  1.00  0.00    -0.550 OA
ATOM      9  O   UNL     1      -3.000  43.378  -1.486  1.00  0.00    -0.550 OA
ENDBRANCH   6   7
ENDBRANCH   5   6
ENDBRANCH   4   5
ENDBRANCH   3   4
ENDBRANCH   2   3
ENDBRANCH   1   2
BRANCH   1  10
ATOM     10  C   UNL     1      -8.384  49.699  -1.897  1.00  0.00     0.027 C 
BRANCH  10  11
ATOM     11  C   UNL     1      -8.399  50.931  -2.759  1.00  0.00    -0.031 C 
ATOM     12  C   UNL     1      -8.568  50.856  -4.087  1.00  0.00    -0.031 C 
BRANCH  12  13
ATOM     13  C   UNL     1      -8.568  52.087  -4.955  1.00  0.00     0.027 C 
BRANCH  13  14
ATOM     14  C   UNL     1      -7.383  52.122  -5.934  1.00  0.00     0.004 C 
BRANCH  14  15
ATOM     15  C   UNL     1      -7.787  52.114  -7.421  1.00  0.00     0.000 C 
BRANCH  15  16
ATOM     16  C   UNL     1      -6.808  51.314  -8.298  1.00  0.00    -0.000 C 
BRANCH  16  17
ATOM     17  C   UNL     1      -5.499  52.074  -8.561  1.00  0.00    -0.003 C 
ATOM     18  C   UNL     1      -4.263  51.179  -8.461  1.00  0.00     0.004 C 
ENDBRANCH  16  17
ENDBRANCH  15  16
ENDBRANCH  14  15
ENDBRANCH  13  14
ENDBRANCH  12  13
ENDBRANCH  10  11
ENDBRANCH   1  10
TORSDOF 13
ENDMDL
MODEL 8
REMARK VINA RESULT:     1.230      4.103      4.935
REMARK INTER + INTRA:           1.448
REMARK INTER:                   1.906
REMARK INTRA:                  -0.458
REMARK UNBOUND:                -0.717
REMARK SMILES CCCCCCC=CCCCCCCCC(=O)[O-]
REMARK SMILES IDX 10 1 11 2 12 3 13 4 14 5 15 6 16 7 17 8 18 9 9 10 8 11 7 12
REMARK SMILES IDX 6 13 5 14 4 15 3 16 2 17 1 18
REMARK H PARENT
REMARK Flexibility Score: inf
ROOT
ATOM      1  C   UNL     1      -9.065  49.993  -2.768  1.00  0.00     0.004 C 
ENDROOT
BRANCH   1   2
ATOM      2  C   UNL     1      -8.203  50.057  -4.038  1.00  0.00     0.000 C 
BRANCH   2   3
ATOM      3  C   UNL     1      -8.356  51.391  -4.791  1.00  0.00     0.000 C 
BRANCH   3   4
ATOM      4  C   UNL     1      -7.002  51.995  -5.199  1.00  0.00     0.000 C 
BRANCH   4   5
ATOM      5  C   UNL     1      -6.849  52.125  -6.724  1.00  0.00     0.006 C 
BRANCH   5   6
ATOM      6  C   UNL     1      -7.967  51.398  -7.482  1.00  0.00     0.053 C 
BRANCH   6   7
ATOM      7  C   UNL     1      -7.444  50.687  -8.692  1.00  0.00     0.041 C 
ATOM      8  O   UNL     1      -8.112  49.759  -9.222  1.00  0.00    -0.550 OA
ATOM      9  O   UNL     1      -6.234  51.071  -9.255  1.00  0.00    -0.550 OA
ENDBRANCH   6   7
ENDBRANCH   5   6
ENDBRANCH   4   5
ENDBRANCH   3   4
ENDBRANCH   2   3
ENDBRANCH   1   2
BRANCH   1  10
ATOM     10  C   UNL     1      -8.248  50.222  -1.489  1.00  0.00     0.027 C 
BRANCH  10  11
ATOM     11  C   UNL     1      -7.397  49.024  -1.167  1.00  0.00    -0.031 C 
ATOM     12  C   UNL     1      -7.657  47.818  -1.691  1.00  0.00    -0.031 C 
BRANCH  12  13
ATOM     13  C   UNL     1      -6.817  46.613  -1.359  1.00  0.00     0.027 C 
BRANCH  13  14
ATOM     14  C   UNL     1      -6.958  45.487  -2.397  1.00  0.00     0.004 C 
BRANCH  14  15
ATOM     15  C   UNL     1      -6.696  44.074  -1.841  1.00  0.00     0.000 C 
BRANCH  15  16
ATOM     16  C   UNL     1      -5.305  43.535  -2.220  1.00  0.00    -0.000 C 
BRANCH  16  17
ATOM     17  C   UNL     1      -4.638  42.769  -1.067  1.00  0.00    -0.003 C 
ATOM     18  C   UNL     1      -3.121  42.956  -1.031  1.00  0.00     0.004 C 
ENDBRANCH  16  17
ENDBRANCH  15  16
ENDBRANCH  14  15
ENDBRANCH  13  14
ENDBRANCH  12  13
ENDBRANCH  10  11
ENDBRANCH   1  10
TORSDOF 13
ENDMDL
