MODEL 1
REMARK VINA RESULT:    -1.956      0.000      0.000
REMARK INTER + INTRA:          -2.459
REMARK INTER:                  -2.756
REMARK INTRA:                   0.297
REMARK UNBOUND:                 0.297
REMARK SMILES CC1=CCC(=C(C)C)C(=O)CC(C)=CCC1
REMARK SMILES IDX 12 1 14 2 13 3 15 4 16 5 2 6 1 7 3 8 11 10 9 11 10 12 5 13
REMARK SMILES IDX 6 14 7 15 8 16 4 17
REMARK H PARENT
REMARK Flexibility Score: 60.00
ROOT
ATOM      1  C   UNL     1     166.790 170.912 148.906  1.00  0.00    -0.070 C 
ATOM      2  C   UNL     1     165.653 171.369 148.330  1.00  0.00    -0.027 C 
ATOM      3  C   UNL     1     167.105 171.397 150.300  1.00  0.00     0.039 C 
ENDROOT
BRANCH   2   4
ATOM      4  C   UNL     1     165.199 171.101 146.915  1.00  0.00     0.032 C 
BRANCH   4   5
ATOM      5  C   UNL     1     165.938 171.973 145.880  1.00  0.00     0.034 C 
BRANCH   5   6
ATOM      6  C   UNL     1     166.413 171.166 144.688  1.00  0.00    -0.077 C 
ATOM      7  C   UNL     1     165.376 170.563 143.773  1.00  0.00     0.039 C 
ATOM      8  C   UNL     1     167.715 170.976 144.379  1.00  0.00    -0.023 CG0
ATOM      9  G   UNL     1     168.893 171.528 145.147  1.00  0.00     0.000 G0
ENDBRANCH   5   6
ENDBRANCH   4   5
ENDBRANCH   2   4
BRANCH   1  10
ATOM     10  C   UNL     1     167.786 170.001 148.207  1.00  0.00     0.111 C 
BRANCH  10  11
ATOM     11  C   UNL     1     168.923 170.785 147.598  1.00  0.00     0.163 C 
ATOM     12  O   UNL     1     169.514 171.630 148.322  1.00  0.00    -0.294 OA
BRANCH  11  13
ATOM     13  C   UNL     1     169.387 170.546 146.196  1.00  0.00    -0.002 C 
ATOM     14  C   UNL     1     170.247 169.529 145.888  1.00  0.00    -0.069 C 
ATOM     15  C   UNL     1     170.835 168.636 146.957  1.00  0.00     0.039 C 
ATOM     16  C   UNL     1     170.682 169.269 144.462  1.00  0.00     0.039 C 
BRANCH  13  17
ATOM     17  C   UNL     1     168.920 171.528 145.137  1.00  0.00     0.066 CG0
ATOM     18  G   UNL     1     167.717 170.970 144.415  1.00  0.00     0.000 G0
ENDBRANCH  13  17
ENDBRANCH  11  13
ENDBRANCH  10  11
ENDBRANCH   1  10
TORSDOF 0
ENDMDL
MODEL 2
REMARK VINA RESULT:    -1.880     19.869     20.882
REMARK INTER + INTRA:          -2.352
REMARK INTER:                  -2.739
REMARK INTRA:                   0.388
REMARK UNBOUND:                 0.297
REMARK SMILES CC1=CCC(=C(C)C)C(=O)CC(C)=CCC1
REMARK SMILES IDX 12 1 14 2 13 3 15 4 16 5 2 6 1 7 3 8 11 10 9 11 10 12 5 13
REMARK SMILES IDX 6 14 7 15 8 16 4 17
REMARK H PARENT
REMARK Flexibility Score: 60.00
ROOT
ATOM      1  C   UNL     1     157.907 153.042 148.136  1.00  0.00    -0.070 C 
ATOM      2  C   UNL     1     156.626 152.819 148.513  1.00  0.00    -0.027 C 
ATOM      3  C   UNL     1     158.997 152.544 149.054  1.00  0.00     0.039 C 
ENDROOT
BRANCH   2   4
ATOM      4  C   UNL     1     155.387 153.318 147.807  1.00  0.00     0.032 C 
BRANCH   4   5
ATOM      5  C   UNL     1     154.965 152.407 146.637  1.00  0.00     0.034 C 
BRANCH   5   6
ATOM      6  C   UNL     1     154.680 153.195 145.374  1.00  0.00    -0.077 C 
ATOM      7  C   UNL     1     153.498 154.132 145.366  1.00  0.00     0.039 C 
ATOM      8  C   UNL     1     155.440 153.126 144.258  1.00  0.00    -0.023 CG0
ATOM      9  G   UNL     1     156.678 152.279 144.084  1.00  0.00     0.000 G0
ENDBRANCH   5   6
ENDBRANCH   4   5
ENDBRANCH   2   4
BRANCH   1  10
ATOM     10  C   UNL     1     158.299 153.813 146.887  1.00  0.00     0.111 C 
BRANCH  10  11
ATOM     11  C   UNL     1     158.546 152.889 145.718  1.00  0.00     0.163 C 
ATOM     12  O   UNL     1     159.271 151.876 145.908  1.00  0.00    -0.294 OA
BRANCH  11  13
ATOM     13  C   UNL     1     157.915 153.120 144.381  1.00  0.00    -0.002 C 
ATOM     14  C   UNL     1     158.387 154.072 143.520  1.00  0.00    -0.069 C 
ATOM     15  C   UNL     1     159.523 154.994 143.902  1.00  0.00     0.039 C 
ATOM     16  C   UNL     1     157.769 154.274 142.153  1.00  0.00     0.039 C 
BRANCH  13  17
ATOM     17  C   UNL     1     156.682 152.302 144.049  1.00  0.00     0.066 CG0
ATOM     18  G   UNL     1     155.440 153.130 144.278  1.00  0.00     0.000 G0
ENDBRANCH  13  17
ENDBRANCH  11  13
ENDBRANCH  10  11
ENDBRANCH   1  10
TORSDOF 0
ENDMDL
MODEL 3
REMARK VINA RESULT:    -1.833     19.678     20.784
REMARK INTER + INTRA:          -2.286
REMARK INTER:                  -2.727
REMARK INTRA:                   0.440
REMARK UNBOUND:                 0.297
REMARK SMILES CC1=CCC(=C(C)C)C(=O)CC(C)=CCC1
REMARK SMILES IDX 12 1 14 2 13 3 15 4 16 5 2 6 1 7 3 8 11 10 9 11 10 12 5 13
REMARK SMILES IDX 6 14 7 15 8 16 4 17
REMARK H PARENT
REMARK Flexibility Score: 60.00
ROOT
ATOM      1  C   UNL     1     155.855 152.154 144.847  1.00  0.00    -0.070 C 
ATOM      2  C   UNL     1     154.740 152.041 145.608  1.00  0.00    -0.027 C 
ATOM      3  C   UNL     1     155.685 152.072 143.349  1.00  0.00     0.039 C 
ENDROOT
BRANCH   2   4
ATOM      4  C   UNL     1     154.690 151.989 147.116  1.00  0.00     0.032 C 
BRANCH   4   5
ATOM      5  C   UNL     1     154.361 153.358 147.746  1.00  0.00     0.034 C 
BRANCH   5   6
ATOM      6  C   UNL     1     155.352 153.741 148.827  1.00  0.00    -0.077 C 
ATOM      7  C   UNL     1     155.160 153.168 150.210  1.00  0.00     0.039 C 
ATOM      8  C   UNL     1     156.416 154.549 148.620  1.00  0.00    -0.023 CG0
ATOM      9  G   UNL     1     156.796 155.187 147.306  1.00  0.00     0.000 G0
ENDBRANCH   5   6
ENDBRANCH   4   5
ENDBRANCH   2   4
BRANCH   1  10
ATOM     10  C   UNL     1     157.257 152.290 145.417  1.00  0.00     0.111 C 
BRANCH  10  11
ATOM     11  C   UNL     1     157.724 153.725 145.406  1.00  0.00     0.163 C 
ATOM     12  O   UNL     1     157.846 154.299 144.290  1.00  0.00    -0.294 OA
BRANCH  11  13
ATOM     13  C   UNL     1     157.989 154.481 146.670  1.00  0.00    -0.002 C 
ATOM     14  C   UNL     1     159.217 154.466 147.271  1.00  0.00    -0.069 C 
ATOM     15  C   UNL     1     160.353 153.625 146.734  1.00  0.00     0.039 C 
ATOM     16  C   UNL     1     159.489 155.263 148.529  1.00  0.00     0.039 C 
BRANCH  13  17
ATOM     17  C   UNL     1     156.815 155.207 147.299  1.00  0.00     0.066 CG0
ATOM     18  G   UNL     1     156.435 154.538 148.598  1.00  0.00     0.000 G0
ENDBRANCH  13  17
ENDBRANCH  11  13
ENDBRANCH  10  11
ENDBRANCH   1  10
TORSDOF 0
ENDMDL
MODEL 4
REMARK VINA RESULT:    -1.793      4.380      6.583
REMARK INTER + INTRA:          -2.230
REMARK INTER:                  -2.700
REMARK INTRA:                   0.470
REMARK UNBOUND:                 0.297
REMARK SMILES CC1=CCC(=C(C)C)C(=O)CC(C)=CCC1
REMARK SMILES IDX 12 1 14 2 13 3 15 4 16 5 2 6 1 7 3 8 11 10 9 11 10 12 5 13
REMARK SMILES IDX 6 14 7 15 8 16 4 17
REMARK H PARENT
REMARK Flexibility Score: 60.00
ROOT
ATOM      1  C   UNL     1     168.712 169.968 140.987  1.00  0.00    -0.070 C 
ATOM      2  C   UNL     1     168.685 170.970 141.897  1.00  0.00    -0.027 C 
ATOM      3  C   UNL     1     170.066 169.489 140.521  1.00  0.00     0.039 C 
ENDROOT
BRANCH   2   4
ATOM      4  C   UNL     1     167.453 171.670 142.419  1.00  0.00     0.032 C 
BRANCH   4   5
ATOM      5  C   UNL     1     166.931 171.051 143.731  1.00  0.00     0.034 C 
BRANCH   5   6
ATOM      6  C   UNL     1     165.458 170.701 143.652  1.00  0.00    -0.077 C 
ATOM      7  C   UNL     1     164.449 171.814 143.798  1.00  0.00     0.039 C 
ATOM      8  C   UNL     1     164.994 169.451 143.432  1.00  0.00    -0.023 CG0
ATOM      9  G   UNL     1     165.842 168.219 143.224  1.00  0.00     0.000 G0
ENDBRANCH   5   6
ENDBRANCH   4   5
ENDBRANCH   2   4
BRANCH   1  10
ATOM     10  C   UNL     1     167.467 169.353 140.369  1.00  0.00     0.111 C 
BRANCH  10  11
ATOM     11  C   UNL     1     167.131 168.025 141.003  1.00  0.00     0.163 C 
ATOM     12  O   UNL     1     167.978 167.095 140.913  1.00  0.00    -0.294 OA
BRANCH  11  13
ATOM     13  C   UNL     1     165.862 167.811 141.765  1.00  0.00    -0.002 C 
ATOM     14  C   UNL     1     164.732 167.334 141.159  1.00  0.00    -0.069 C 
ATOM     15  C   UNL     1     164.682 167.068 139.671  1.00  0.00     0.039 C 
ATOM     16  C   UNL     1     163.462 167.084 141.944  1.00  0.00     0.039 C 
BRANCH  13  17
ATOM     17  C   UNL     1     165.858 168.215 143.227  1.00  0.00     0.066 CG0
ATOM     18  G   UNL     1     164.992 169.438 143.418  1.00  0.00     0.000 G0
ENDBRANCH  13  17
ENDBRANCH  11  13
ENDBRANCH  10  11
ENDBRANCH   1  10
TORSDOF 0
ENDMDL
MODEL 5
REMARK VINA RESULT:    -1.772      2.190      4.179
REMARK INTER + INTRA:          -2.200
REMARK INTER:                  -2.538
REMARK INTRA:                   0.337
REMARK UNBOUND:                 0.297
REMARK SMILES CC1=CCC(=C(C)C)C(=O)CC(C)=CCC1
REMARK SMILES IDX 12 1 14 2 13 3 15 4 16 5 2 6 1 7 3 8 11 10 9 11 10 12 5 13
REMARK SMILES IDX 6 14 7 15 8 16 4 17
REMARK H PARENT
REMARK Flexibility Score: 60.00
ROOT
ATOM      1  C   UNL     1     165.777 171.016 149.552  1.00  0.00    -0.070 C 
ATOM      2  C   UNL     1     166.411 171.063 150.747  1.00  0.00    -0.027 C 
ATOM      3  C   UNL     1     164.334 170.570 149.548  1.00  0.00     0.039 C 
ENDROOT
BRANCH   2   4
ATOM      4  C   UNL     1     167.871 171.375 150.972  1.00  0.00     0.032 C 
BRANCH   4   5
ATOM      5  C   UNL     1     168.794 170.203 150.583  1.00  0.00     0.034 C 
BRANCH   5   6
ATOM      6  C   UNL     1     169.953 170.652 149.715  1.00  0.00    -0.077 C 
ATOM      7  C   UNL     1     170.950 171.623 150.298  1.00  0.00     0.039 C 
ATOM      8  C   UNL     1     170.162 170.213 148.454  1.00  0.00    -0.023 CG0
ATOM      9  G   UNL     1     169.302 169.218 147.712  1.00  0.00     0.000 G0
ENDBRANCH   5   6
ENDBRANCH   4   5
ENDBRANCH   2   4
BRANCH   1  10
ATOM     10  C   UNL     1     166.451 171.320 148.225  1.00  0.00     0.111 C 
BRANCH  10  11
ATOM     11  C   UNL     1     166.883 170.057 147.519  1.00  0.00     0.163 C 
ATOM     12  O   UNL     1     166.051 169.114 147.431  1.00  0.00    -0.294 OA
BRANCH  11  13
ATOM     13  C   UNL     1     168.234 169.925 146.889  1.00  0.00    -0.002 C 
ATOM     14  C   UNL     1     168.478 170.364 145.617  1.00  0.00    -0.069 C 
ATOM     15  C   UNL     1     167.380 170.937 144.751  1.00  0.00     0.039 C 
ATOM     16  C   UNL     1     169.857 170.262 144.999  1.00  0.00     0.039 C 
BRANCH  13  17
ATOM     17  C   UNL     1     169.306 169.216 147.695  1.00  0.00     0.066 CG0
ATOM     18  G   UNL     1     170.129 170.228 148.456  1.00  0.00     0.000 G0
ENDBRANCH  13  17
ENDBRANCH  11  13
ENDBRANCH  10  11
ENDBRANCH   1  10
TORSDOF 0
ENDMDL
MODEL 6
REMARK VINA RESULT:    -1.719     19.766     21.294
REMARK INTER + INTRA:          -2.125
REMARK INTER:                  -2.464
REMARK INTRA:                   0.339
REMARK UNBOUND:                 0.297
REMARK SMILES CC1=CCC(=C(C)C)C(=O)CC(C)=CCC1
REMARK SMILES IDX 12 1 14 2 13 3 15 4 16 5 2 6 1 7 3 8 11 10 9 11 10 12 5 13
REMARK SMILES IDX 6 14 7 15 8 16 4 17
REMARK H PARENT
REMARK Flexibility Score: 60.00
ROOT
ATOM      1  C   UNL     1     156.354 154.218 140.977  1.00  0.00    -0.070 C 
ATOM      2  C   UNL     1     155.048 154.517 140.783  1.00  0.00    -0.027 C 
ATOM      3  C   UNL     1     157.066 153.468 139.876  1.00  0.00     0.039 C 
ENDROOT
BRANCH   2   4
ATOM      4  C   UNL     1     154.121 155.161 141.785  1.00  0.00     0.032 C 
BRANCH   4   5
ATOM      5  C   UNL     1     153.528 154.146 142.782  1.00  0.00     0.034 C 
BRANCH   5   6
ATOM      6  C   UNL     1     153.666 154.608 144.220  1.00  0.00    -0.077 C 
ATOM      7  C   UNL     1     152.806 155.756 144.688  1.00  0.00     0.039 C 
ATOM      8  C   UNL     1     154.499 154.034 145.117  1.00  0.00    -0.023 CG0
ATOM      9  G   UNL     1     155.407 152.858 144.850  1.00  0.00     0.000 G0
ENDBRANCH   5   6
ENDBRANCH   4   5
ENDBRANCH   2   4
BRANCH   1  10
ATOM     10  C   UNL     1     157.113 154.534 142.255  1.00  0.00     0.111 C 
BRANCH  10  11
ATOM     11  C   UNL     1     157.252 153.316 143.135  1.00  0.00     0.163 C 
ATOM     12  O   UNL     1     157.784 152.286 142.641  1.00  0.00    -0.294 OA
BRANCH  11  13
ATOM     13  C   UNL     1     156.826 153.324 144.569  1.00  0.00    -0.002 C 
ATOM     14  C   UNL     1     157.687 153.679 145.571  1.00  0.00    -0.069 C 
ATOM     15  C   UNL     1     159.136 154.010 145.292  1.00  0.00     0.039 C 
ATOM     16  C   UNL     1     157.240 153.722 147.017  1.00  0.00     0.039 C 
BRANCH  13  17
ATOM     17  C   UNL     1     155.418 152.850 144.875  1.00  0.00     0.066 CG0
ATOM     18  G   UNL     1     154.518 154.038 145.115  1.00  0.00     0.000 G0
ENDBRANCH  13  17
ENDBRANCH  11  13
ENDBRANCH  10  11
ENDBRANCH   1  10
TORSDOF 0
ENDMDL
MODEL 7
REMARK VINA RESULT:    -1.712      4.189      5.705
REMARK INTER + INTRA:          -2.116
REMARK INTER:                  -2.511
REMARK INTRA:                   0.395
REMARK UNBOUND:                 0.297
REMARK SMILES CC1=CCC(=C(C)C)C(=O)CC(C)=CCC1
REMARK SMILES IDX 12 1 14 2 13 3 15 4 16 5 2 6 1 7 3 8 11 10 9 11 10 12 5 13
REMARK SMILES IDX 6 14 7 15 8 16 4 17
REMARK H PARENT
REMARK Flexibility Score: 60.00
ROOT
ATOM      1  C   UNL     1     166.207 170.280 144.035  1.00  0.00    -0.070 C 
ATOM      2  C   UNL     1     165.137 169.491 144.296  1.00  0.00    -0.027 C 
ATOM      3  C   UNL     1     166.165 171.699 144.548  1.00  0.00     0.039 C 
ENDROOT
BRANCH   2   4
ATOM      4  C   UNL     1     164.920 168.084 143.793  1.00  0.00     0.032 C 
BRANCH   4   5
ATOM      5  C   UNL     1     164.560 168.040 142.295  1.00  0.00     0.034 C 
BRANCH   5   6
ATOM      6  C   UNL     1     165.377 167.010 141.540  1.00  0.00    -0.077 C 
ATOM      7  C   UNL     1     165.251 165.561 141.943  1.00  0.00     0.039 C 
ATOM      8  C   UNL     1     166.197 167.310 140.508  1.00  0.00    -0.023 CG0
ATOM      9  G   UNL     1     166.427 168.689 139.937  1.00  0.00     0.000 G0
ENDBRANCH   5   6
ENDBRANCH   4   5
ENDBRANCH   2   4
BRANCH   1  10
ATOM     10  C   UNL     1     167.401 169.837 143.208  1.00  0.00     0.111 C 
BRANCH  10  11
ATOM     11  C   UNL     1     167.272 170.272 141.768  1.00  0.00     0.163 C 
ATOM     12  O   UNL     1     166.918 171.460 141.538  1.00  0.00    -0.294 OA
BRANCH  11  13
ATOM     13  C   UNL     1     167.601 169.356 140.632  1.00  0.00    -0.002 C 
ATOM     14  C   UNL     1     168.888 169.169 140.210  1.00  0.00    -0.069 C 
ATOM     15  C   UNL     1     170.042 169.935 140.818  1.00  0.00     0.039 C 
ATOM     16  C   UNL     1     169.218 168.212 139.085  1.00  0.00     0.039 C 
BRANCH  13  17
ATOM     17  C   UNL     1     166.437 168.697 139.917  1.00  0.00     0.066 CG0
ATOM     18  G   UNL     1     166.201 167.317 140.484  1.00  0.00     0.000 G0
ENDBRANCH  13  17
ENDBRANCH  11  13
ENDBRANCH  10  11
ENDBRANCH   1  10
TORSDOF 0
ENDMDL
MODEL 8
REMARK VINA RESULT:    -1.690      3.644      5.894
REMARK INTER + INTRA:          -2.085
REMARK INTER:                  -2.514
REMARK INTRA:                   0.428
REMARK UNBOUND:                 0.297
REMARK SMILES CC1=CCC(=C(C)C)C(=O)CC(C)=CCC1
REMARK SMILES IDX 12 1 14 2 13 3 15 4 16 5 2 6 1 7 3 8 11 10 9 11 10 12 5 13
REMARK SMILES IDX 6 14 7 15 8 16 4 17
REMARK H PARENT
REMARK Flexibility Score: 60.00
ROOT
ATOM      1  C   UNL     1     167.572 170.304 140.440  1.00  0.00    -0.070 C 
ATOM      2  C   UNL     1     166.974 171.148 141.315  1.00  0.00    -0.027 C 
ATOM      3  C   UNL     1     166.856 170.033 139.139  1.00  0.00     0.039 C 
ENDROOT
BRANCH   2   4
ATOM      4  C   UNL     1     167.454 171.477 142.708  1.00  0.00     0.032 C 
BRANCH   4   5
ATOM      5  C   UNL     1     167.274 170.302 143.690  1.00  0.00     0.034 C 
BRANCH   5   6
ATOM      6  C   UNL     1     168.514 170.062 144.528  1.00  0.00    -0.077 C 
ATOM      7  C   UNL     1     169.013 171.183 145.406  1.00  0.00     0.039 C 
ATOM      8  C   UNL     1     169.187 168.890 144.555  1.00  0.00    -0.023 CG0
ATOM      9  G   UNL     1     168.825 167.646 143.779  1.00  0.00     0.000 G0
ENDBRANCH   5   6
ENDBRANCH   4   5
ENDBRANCH   2   4
BRANCH   1  10
ATOM     10  C   UNL     1     168.874 169.575 140.724  1.00  0.00     0.111 C 
BRANCH  10  11
ATOM     11  C   UNL     1     168.627 168.197 141.289  1.00  0.00     0.163 C 
ATOM     12  O   UNL     1     167.727 167.492 140.758  1.00  0.00    -0.294 OA
BRANCH  11  13
ATOM     13  C   UNL     1     169.448 167.642 142.410  1.00  0.00    -0.002 C 
ATOM     14  C   UNL     1     170.686 167.104 142.195  1.00  0.00    -0.069 C 
ATOM     15  C   UNL     1     171.262 166.971 140.803  1.00  0.00     0.039 C 
ATOM     16  C   UNL     1     171.528 166.579 143.338  1.00  0.00     0.039 C 
BRANCH  13  17
ATOM     17  C   UNL     1     168.817 167.635 143.790  1.00  0.00     0.066 CG0
ATOM     18  G   UNL     1     169.186 168.898 144.530  1.00  0.00     0.000 G0
ENDBRANCH  13  17
ENDBRANCH  11  13
ENDBRANCH  10  11
ENDBRANCH   1  10
TORSDOF 0
ENDMDL
MODEL 9
REMARK VINA RESULT:    -1.641     19.216     20.381
REMARK INTER + INTRA:          -2.015
REMARK INTER:                  -2.398
REMARK INTRA:                   0.383
REMARK UNBOUND:                 0.297
REMARK SMILES CC1=CCC(=C(C)C)C(=O)CC(C)=CCC1
REMARK SMILES IDX 12 1 14 2 13 3 15 4 16 5 2 6 1 7 3 8 11 10 9 11 10 12 5 13
REMARK SMILES IDX 6 14 7 15 8 16 4 17
REMARK H PARENT
REMARK Flexibility Score: 60.00
ROOT
ATOM      1  C   UNL     1     155.546 153.097 147.579  1.00  0.00    -0.070 C 
ATOM      2  C   UNL     1     156.296 153.787 148.470  1.00  0.00    -0.027 C 
ATOM      3  C   UNL     1     154.141 152.729 147.993  1.00  0.00     0.039 C 
ENDROOT
BRANCH   2   4
ATOM      4  C   UNL     1     157.750 154.164 148.311  1.00  0.00     0.032 C 
BRANCH   4   5
ATOM      5  C   UNL     1     157.954 155.336 147.330  1.00  0.00     0.034 C 
BRANCH   5   6
ATOM      6  C   UNL     1     158.902 154.978 146.202  1.00  0.00    -0.077 C 
ATOM      7  C   UNL     1     160.318 154.593 146.552  1.00  0.00     0.039 C 
ATOM      8  C   UNL     1     158.545 154.959 144.898  1.00  0.00    -0.023 CG0
ATOM      9  G   UNL     1     157.173 155.277 144.354  1.00  0.00     0.000 G0
ENDBRANCH   5   6
ENDBRANCH   4   5
ENDBRANCH   2   4
BRANCH   1  10
ATOM     10  C   UNL     1     156.059 152.622 146.230  1.00  0.00     0.111 C 
BRANCH  10  11
ATOM     11  C   UNL     1     155.517 153.466 145.102  1.00  0.00     0.163 C 
ATOM     12  O   UNL     1     154.287 153.741 145.106  1.00  0.00    -0.294 OA
BRANCH  11  13
ATOM     13  C   UNL     1     156.404 154.016 144.030  1.00  0.00    -0.002 C 
ATOM     14  C   UNL     1     156.574 153.370 142.837  1.00  0.00    -0.069 C 
ATOM     15  C   UNL     1     155.934 152.027 142.564  1.00  0.00     0.039 C 
ATOM     16  C   UNL     1     157.442 153.952 141.742  1.00  0.00     0.039 C 
BRANCH  13  17
ATOM     17  C   UNL     1     157.167 155.288 144.350  1.00  0.00     0.066 CG0
ATOM     18  G   UNL     1     158.532 154.942 144.896  1.00  0.00     0.000 G0
ENDBRANCH  13  17
ENDBRANCH  11  13
ENDBRANCH  10  11
ENDBRANCH   1  10
TORSDOF 0
ENDMDL
