MODEL 1
REMARK VINA RESULT:    -7.926      0.000      0.000
REMARK INTER + INTRA:          -9.624
REMARK INTER:                  -9.316
REMARK INTRA:                  -0.308
REMARK UNBOUND:                -0.308
REMARK SMILES O=c1c(O)c(-c2ccc(O)c(O)c2)oc2cc(O)ccc12
REMARK SMILES IDX 5 1 3 2 2 3 1 4 21 5 15 6 14 7 16 8 17 9 19 10 20 11 6 12
REMARK SMILES IDX 7 13 8 14 9 15 13 16 11 17 10 18 12 20 4 22 18 24
REMARK H PARENT 10 19 12 21 4 23 18 25
REMARK Flexibility Score: inf
ROOT
ATOM      1  C   UNL     1      97.678 106.460 106.115  1.00  0.00     0.180 A 
ATOM      2  C   UNL     1      98.702 107.211 106.728  1.00  0.00     0.208 A 
ATOM      3  C   UNL     1      98.466 108.562 107.023  1.00  0.00     0.235 A 
ATOM      4  O   UNL     1      99.363 109.252 107.581  1.00  0.00    -0.285 OA
ATOM      5  C   UNL     1      97.230 109.136 106.685  1.00  0.00     0.069 A 
ATOM      6  C   UNL     1      96.266 108.324 106.051  1.00  0.00     0.142 A 
ATOM      7  O   UNL     1      96.526 107.046 105.797  1.00  0.00    -0.452 OA
ATOM      8  C   UNL     1      95.025 108.862 105.691  1.00  0.00     0.094 A 
ATOM      9  C   UNL     1      94.735 110.204 105.955  1.00  0.00     0.119 A 
ATOM     10  C   UNL     1      95.689 111.013 106.586  1.00  0.00     0.047 A 
ATOM     11  C   UNL     1      96.931 110.485 106.949  1.00  0.00     0.020 A 
ENDROOT
BRANCH   1  12
ATOM     12  C   UNL     1      97.844 105.025 105.788  1.00  0.00     0.025 A 
ATOM     13  C   UNL     1      98.444 104.659 104.573  1.00  0.00     0.016 A 
ATOM     14  C   UNL     1      98.591 103.311 104.234  1.00  0.00     0.051 A 
ATOM     15  C   UNL     1      98.127 102.311 105.099  1.00  0.00     0.157 A 
ATOM     16  C   UNL     1      97.360 104.018 106.643  1.00  0.00     0.062 A 
ATOM     17  C   UNL     1      97.507 102.666 106.302  1.00  0.00     0.158 A 
BRANCH  15  18
ATOM     18  O   UNL     1      98.275 100.966 104.765  1.00  0.00    -0.504 OA
ATOM     19  H   UNL     1      98.123 100.633 103.820  1.00  0.00     0.293 HD
ENDBRANCH  15  18
BRANCH  17  20
ATOM     20  O   UNL     1      97.034 101.669 107.154  1.00  0.00    -0.504 OA
ATOM     21  H   UNL     1      96.062 101.380 107.146  1.00  0.00     0.293 HD
ENDBRANCH  17  20
ENDBRANCH   1  12
BRANCH   2  22
ATOM     22  O   UNL     1      99.939 106.625 107.008  1.00  0.00    -0.502 OA
ATOM     23  H   UNL     1     100.516 106.923 107.785  1.00  0.00     0.293 HD
ENDBRANCH   2  22
BRANCH   9  24
ATOM     24  O   UNL     1      93.494 110.723 105.589  1.00  0.00    -0.508 OA
ATOM     25  H   UNL     1      92.686 110.124 105.464  1.00  0.00     0.293 HD
ENDBRANCH   9  24
TORSDOF 5
ENDMDL
MODEL 2
REMARK VINA RESULT:    -7.844      8.598     10.981
REMARK INTER + INTRA:          -9.528
REMARK INTER:                  -9.205
REMARK INTRA:                  -0.323
REMARK UNBOUND:                -0.308
REMARK SMILES O=c1c(O)c(-c2ccc(O)c(O)c2)oc2cc(O)ccc12
REMARK SMILES IDX 5 1 3 2 2 3 1 4 21 5 15 6 14 7 16 8 17 9 19 10 20 11 6 12
REMARK SMILES IDX 7 13 8 14 9 15 13 16 11 17 10 18 12 20 4 22 18 24
REMARK H PARENT 10 19 12 21 4 23 18 25
REMARK Flexibility Score: inf
ROOT
ATOM      1  C   UNL     1     106.298 105.438 107.580  1.00  0.00     0.180 A 
ATOM      2  C   UNL     1     105.275 105.867 108.451  1.00  0.00     0.208 A 
ATOM      3  C   UNL     1     105.554 105.977 109.821  1.00  0.00     0.235 A 
ATOM      4  O   UNL     1     104.658 106.368 110.619  1.00  0.00    -0.285 OA
ATOM      5  C   UNL     1     106.832 105.640 110.294  1.00  0.00     0.069 A 
ATOM      6  C   UNL     1     107.795 105.196 109.362  1.00  0.00     0.142 A 
ATOM      7  O   UNL     1     107.492 105.115 108.071  1.00  0.00    -0.452 OA
ATOM      8  C   UNL     1     109.077 104.842 109.795  1.00  0.00     0.094 A 
ATOM      9  C   UNL     1     109.413 104.926 111.150  1.00  0.00     0.119 A 
ATOM     10  C   UNL     1     108.461 105.369 112.078  1.00  0.00     0.047 A 
ATOM     11  C   UNL     1     107.176 105.723 111.655  1.00  0.00     0.020 A 
ENDROOT
BRANCH   1  12
ATOM     12  C   UNL     1     106.086 105.315 106.120  1.00  0.00     0.025 A 
ATOM     13  C   UNL     1     105.654 104.090 105.586  1.00  0.00     0.016 A 
ATOM     14  C   UNL     1     105.469 103.944 104.209  1.00  0.00     0.051 A 
ATOM     15  C   UNL     1     105.727 105.016 103.345  1.00  0.00     0.157 A 
ATOM     16  C   UNL     1     106.366 106.381 105.246  1.00  0.00     0.062 A 
ATOM     17  C   UNL     1     106.180 106.234 103.863  1.00  0.00     0.158 A 
BRANCH  15  18
ATOM     18  O   UNL     1     105.542 104.874 101.970  1.00  0.00    -0.504 OA
ATOM     19  H   UNL     1     104.618 104.895 101.555  1.00  0.00     0.293 HD
ENDBRANCH  15  18
BRANCH  17  20
ATOM     20  O   UNL     1     106.451 107.294 103.000  1.00  0.00    -0.504 OA
ATOM     21  H   UNL     1     107.125 108.013 103.235  1.00  0.00     0.293 HD
ENDBRANCH  17  20
ENDBRANCH   1  12
BRANCH   2  22
ATOM     22  O   UNL     1     103.997 106.148 107.958  1.00  0.00    -0.502 OA
ATOM     23  H   UNL     1     103.244 105.473 107.992  1.00  0.00     0.293 HD
ENDBRANCH   2  22
BRANCH   9  24
ATOM     24  O   UNL     1     110.695 104.570 111.563  1.00  0.00    -0.508 OA
ATOM     25  H   UNL     1     110.848 103.810 112.216  1.00  0.00     0.293 HD
ENDBRANCH   9  24
TORSDOF 5
ENDMDL
MODEL 3
REMARK VINA RESULT:    -7.822      2.079      6.833
REMARK INTER + INTRA:          -9.502
REMARK INTER:                  -9.193
REMARK INTRA:                  -0.309
REMARK UNBOUND:                -0.308
REMARK SMILES O=c1c(O)c(-c2ccc(O)c(O)c2)oc2cc(O)ccc12
REMARK SMILES IDX 5 1 3 2 2 3 1 4 21 5 15 6 14 7 16 8 17 9 19 10 20 11 6 12
REMARK SMILES IDX 7 13 8 14 9 15 13 16 11 17 10 18 12 20 4 22 18 24
REMARK H PARENT 10 19 12 21 4 23 18 25
REMARK Flexibility Score: inf
ROOT
ATOM      1  C   UNL     1      96.932 107.809 105.851  1.00  0.00     0.180 A 
ATOM      2  C   UNL     1      96.794 106.609 106.577  1.00  0.00     0.208 A 
ATOM      3  C   UNL     1      97.357 105.434 106.056  1.00  0.00     0.235 A 
ATOM      4  O   UNL     1      97.257 104.349 106.693  1.00  0.00    -0.285 OA
ATOM      5  C   UNL     1      98.023 105.477 104.821  1.00  0.00     0.069 A 
ATOM      6  C   UNL     1      98.097 106.713 104.143  1.00  0.00     0.142 A 
ATOM      7  O   UNL     1      97.558 107.804 104.676  1.00  0.00    -0.452 OA
ATOM      8  C   UNL     1      98.744 106.796 102.905  1.00  0.00     0.094 A 
ATOM      9  C   UNL     1      99.320 105.657 102.333  1.00  0.00     0.119 A 
ATOM     10  C   UNL     1      99.250 104.428 103.003  1.00  0.00     0.047 A 
ATOM     11  C   UNL     1      98.605 104.336 104.240  1.00  0.00     0.020 A 
ENDROOT
BRANCH   1  12
ATOM     12  C   UNL     1      96.382 109.093 106.343  1.00  0.00     0.025 A 
ATOM     13  C   UNL     1      97.124 109.856 107.259  1.00  0.00     0.016 A 
ATOM     14  C   UNL     1      96.615 111.060 107.754  1.00  0.00     0.051 A 
ATOM     15  C   UNL     1      95.352 111.510 107.351  1.00  0.00     0.157 A 
ATOM     16  C   UNL     1      95.104 109.539 105.958  1.00  0.00     0.062 A 
ATOM     17  C   UNL     1      94.594 110.747 106.455  1.00  0.00     0.158 A 
BRANCH  15  18
ATOM     18  O   UNL     1      94.842 112.712 107.840  1.00  0.00    -0.504 OA
ATOM     19  H   UNL     1      94.862 112.934 108.829  1.00  0.00     0.293 HD
ENDBRANCH  15  18
BRANCH  17  20
ATOM     20  O   UNL     1      93.330 111.191 106.067  1.00  0.00    -0.504 OA
ATOM     21  H   UNL     1      93.213 111.977 105.439  1.00  0.00     0.293 HD
ENDBRANCH  17  20
ENDBRANCH   1  12
BRANCH   2  22
ATOM     22  O   UNL     1      96.084 106.587 107.781  1.00  0.00    -0.502 OA
ATOM     23  H   UNL     1      95.072 106.613 107.812  1.00  0.00     0.293 HD
ENDBRANCH   2  22
BRANCH   9  24
ATOM     24  O   UNL     1      99.960 105.757 101.100  1.00  0.00    -0.508 OA
ATOM     25  H   UNL     1     100.959 105.614 101.009  1.00  0.00     0.293 HD
ENDBRANCH   9  24
TORSDOF 5
ENDMDL
MODEL 4
REMARK VINA RESULT:    -7.803      1.630      6.828
REMARK INTER + INTRA:          -9.480
REMARK INTER:                  -9.229
REMARK INTRA:                  -0.250
REMARK UNBOUND:                -0.308
REMARK SMILES O=c1c(O)c(-c2ccc(O)c(O)c2)oc2cc(O)ccc12
REMARK SMILES IDX 5 1 3 2 2 3 1 4 21 5 15 6 14 7 16 8 17 9 19 10 20 11 6 12
REMARK SMILES IDX 7 13 8 14 9 15 13 16 11 17 10 18 12 20 4 22 18 24
REMARK H PARENT 10 19 12 21 4 23 18 25
REMARK Flexibility Score: inf
ROOT
ATOM      1  C   UNL     1      97.375 107.097 105.057  1.00  0.00     0.180 A 
ATOM      2  C   UNL     1      98.098 106.843 103.873  1.00  0.00     0.208 A 
ATOM      3  C   UNL     1      98.462 105.522 103.573  1.00  0.00     0.235 A 
ATOM      4  O   UNL     1      99.100 105.267 102.514  1.00  0.00    -0.285 OA
ATOM      5  C   UNL     1      98.119 104.492 104.464  1.00  0.00     0.069 A 
ATOM      6  C   UNL     1      97.416 104.831 105.640  1.00  0.00     0.142 A 
ATOM      7  O   UNL     1      97.082 106.094 105.882  1.00  0.00    -0.452 OA
ATOM      8  C   UNL     1      97.063 103.835 106.557  1.00  0.00     0.094 A 
ATOM      9  C   UNL     1      97.404 102.500 106.314  1.00  0.00     0.119 A 
ATOM     10  C   UNL     1      98.100 102.159 105.147  1.00  0.00     0.047 A 
ATOM     11  C   UNL     1      98.458 103.148 104.225  1.00  0.00     0.020 A 
ENDROOT
BRANCH   1  12
ATOM     12  C   UNL     1      96.939 108.461 105.434  1.00  0.00     0.025 A 
ATOM     13  C   UNL     1      97.878 109.368 105.949  1.00  0.00     0.016 A 
ATOM     14  C   UNL     1      97.485 110.654 106.331  1.00  0.00     0.051 A 
ATOM     15  C   UNL     1      96.145 111.044 106.219  1.00  0.00     0.157 A 
ATOM     16  C   UNL     1      95.590 108.850 105.344  1.00  0.00     0.062 A 
ATOM     17  C   UNL     1      95.196 110.140 105.729  1.00  0.00     0.158 A 
BRANCH  15  18
ATOM     18  O   UNL     1      95.749 112.326 106.597  1.00  0.00    -0.504 OA
ATOM     19  H   UNL     1      94.771 112.591 106.633  1.00  0.00     0.293 HD
ENDBRANCH  15  18
BRANCH  17  20
ATOM     20  O   UNL     1      93.860 110.526 105.631  1.00  0.00    -0.504 OA
ATOM     21  H   UNL     1      93.104 109.869 105.786  1.00  0.00     0.293 HD
ENDBRANCH  17  20
ENDBRANCH   1  12
BRANCH   2  22
ATOM     22  O   UNL     1      98.468 107.894 103.031  1.00  0.00    -0.502 OA
ATOM     23  H   UNL     1      98.435 107.817 102.022  1.00  0.00     0.293 HD
ENDBRANCH   2  22
BRANCH   9  24
ATOM     24  O   UNL     1      97.045 101.521 107.238  1.00  0.00    -0.508 OA
ATOM     25  H   UNL     1      96.696 100.617 106.942  1.00  0.00     0.293 HD
ENDBRANCH   9  24
TORSDOF 5
ENDMDL
MODEL 5
REMARK VINA RESULT:    -7.656      1.147      1.320
REMARK INTER + INTRA:          -9.307
REMARK INTER:                  -8.989
REMARK INTRA:                  -0.318
REMARK UNBOUND:                -0.308
REMARK SMILES O=c1c(O)c(-c2ccc(O)c(O)c2)oc2cc(O)ccc12
REMARK SMILES IDX 5 1 3 2 2 3 1 4 21 5 15 6 14 7 16 8 17 9 19 10 20 11 6 12
REMARK SMILES IDX 7 13 8 14 9 15 13 16 11 17 10 18 12 20 4 22 18 24
REMARK H PARENT 10 19 12 21 4 23 18 25
REMARK Flexibility Score: inf
ROOT
ATOM      1  C   UNL     1      97.419 107.506 106.162  1.00  0.00     0.180 A 
ATOM      2  C   UNL     1      98.481 107.996 106.948  1.00  0.00     0.208 A 
ATOM      3  C   UNL     1      98.374 109.279 107.506  1.00  0.00     0.235 A 
ATOM      4  O   UNL     1      99.307 109.736 108.222  1.00  0.00    -0.285 OA
ATOM      5  C   UNL     1      97.226 110.047 107.255  1.00  0.00     0.069 A 
ATOM      6  C   UNL     1      96.217 109.494 106.438  1.00  0.00     0.142 A 
ATOM      7  O   UNL     1      96.354 108.272 105.935  1.00  0.00    -0.452 OA
ATOM      8  C   UNL     1      95.062 110.231 106.156  1.00  0.00     0.094 A 
ATOM      9  C   UNL     1      94.901 111.518 106.680  1.00  0.00     0.119 A 
ATOM     10  C   UNL     1      95.899 112.070 107.494  1.00  0.00     0.047 A 
ATOM     11  C   UNL     1      97.058 111.341 107.780  1.00  0.00     0.020 A 
ENDROOT
BRANCH   1  12
ATOM     12  C   UNL     1      97.449 106.156 105.553  1.00  0.00     0.025 A 
ATOM     13  C   UNL     1      97.813 106.015 104.205  1.00  0.00     0.016 A 
ATOM     14  C   UNL     1      97.828 104.753 103.604  1.00  0.00     0.051 A 
ATOM     15  C   UNL     1      97.465 103.617 104.339  1.00  0.00     0.157 A 
ATOM     16  C   UNL     1      97.064 105.015 106.281  1.00  0.00     0.062 A 
ATOM     17  C   UNL     1      97.079 103.749 105.677  1.00  0.00     0.158 A 
BRANCH  15  18
ATOM     18  O   UNL     1      97.481 102.357 103.743  1.00  0.00    -0.504 OA
ATOM     19  H   UNL     1      97.931 102.198 102.849  1.00  0.00     0.293 HD
ENDBRANCH  15  18
BRANCH  17  20
ATOM     20  O   UNL     1      96.704 102.619 106.402  1.00  0.00    -0.504 OA
ATOM     21  H   UNL     1      97.095 101.705 106.202  1.00  0.00     0.293 HD
ENDBRANCH  17  20
ENDBRANCH   1  12
BRANCH   2  22
ATOM     22  O   UNL     1      99.633 107.228 107.141  1.00  0.00    -0.502 OA
ATOM     23  H   UNL     1      99.611 106.327 107.602  1.00  0.00     0.293 HD
ENDBRANCH   2  22
BRANCH   9  24
ATOM     24  O   UNL     1      93.744 112.238 106.389  1.00  0.00    -0.508 OA
ATOM     25  H   UNL     1      93.704 112.882 105.607  1.00  0.00     0.293 HD
ENDBRANCH   9  24
TORSDOF 5
ENDMDL
MODEL 6
REMARK VINA RESULT:    -7.615      8.443     11.029
REMARK INTER + INTRA:          -9.259
REMARK INTER:                  -8.949
REMARK INTRA:                  -0.310
REMARK UNBOUND:                -0.308
REMARK SMILES O=c1c(O)c(-c2ccc(O)c(O)c2)oc2cc(O)ccc12
REMARK SMILES IDX 5 1 3 2 2 3 1 4 21 5 15 6 14 7 16 8 17 9 19 10 20 11 6 12
REMARK SMILES IDX 7 13 8 14 9 15 13 16 11 17 10 18 12 20 4 22 18 24
REMARK H PARENT 10 19 12 21 4 23 18 25
REMARK Flexibility Score: inf
ROOT
ATOM      1  C   UNL     1     106.727 105.003 107.731  1.00  0.00     0.180 A 
ATOM      2  C   UNL     1     106.822 105.996 106.735  1.00  0.00     0.208 A 
ATOM      3  C   UNL     1     106.121 105.818 105.533  1.00  0.00     0.235 A 
ATOM      4  O   UNL     1     106.182 106.698 104.630  1.00  0.00    -0.285 OA
ATOM      5  C   UNL     1     105.362 104.653 105.343  1.00  0.00     0.069 A 
ATOM      6  C   UNL     1     105.337 103.694 106.379  1.00  0.00     0.142 A 
ATOM      7  O   UNL     1     106.008 103.906 107.506  1.00  0.00    -0.452 OA
ATOM      8  C   UNL     1     104.599 102.516 106.224  1.00  0.00     0.094 A 
ATOM      9  C   UNL     1     103.884 102.280 105.046  1.00  0.00     0.119 A 
ATOM     10  C   UNL     1     103.905 103.230 104.016  1.00  0.00     0.047 A 
ATOM     11  C   UNL     1     104.640 104.410 104.160  1.00  0.00     0.020 A 
ENDROOT
BRANCH   1  12
ATOM     12  C   UNL     1     107.422 105.126 109.033  1.00  0.00     0.025 A 
ATOM     13  C   UNL     1     106.821 105.859 110.069  1.00  0.00     0.016 A 
ATOM     14  C   UNL     1     107.468 106.006 111.299  1.00  0.00     0.051 A 
ATOM     15  C   UNL     1     108.731 105.437 111.505  1.00  0.00     0.157 A 
ATOM     16  C   UNL     1     108.700 104.575 109.237  1.00  0.00     0.062 A 
ATOM     17  C   UNL     1     109.349 104.725 110.471  1.00  0.00     0.158 A 
BRANCH  15  18
ATOM     18  O   UNL     1     109.379 105.581 112.731  1.00  0.00    -0.504 OA
ATOM     19  H   UNL     1     109.251 104.911 113.480  1.00  0.00     0.293 HD
ENDBRANCH  15  18
BRANCH  17  20
ATOM     20  O   UNL     1     110.613 104.171 110.674  1.00  0.00    -0.504 OA
ATOM     21  H   UNL     1     111.289 104.603 111.293  1.00  0.00     0.293 HD
ENDBRANCH  17  20
ENDBRANCH   1  12
BRANCH   2  22
ATOM     22  O   UNL     1     107.625 107.123 106.933  1.00  0.00    -0.502 OA
ATOM     23  H   UNL     1     108.588 107.054 107.239  1.00  0.00     0.293 HD
ENDBRANCH   2  22
BRANCH   9  24
ATOM     24  O   UNL     1     103.155 101.101 104.908  1.00  0.00    -0.508 OA
ATOM     25  H   UNL     1     103.070 100.632 104.014  1.00  0.00     0.293 HD
ENDBRANCH   9  24
TORSDOF 5
ENDMDL
MODEL 7
REMARK VINA RESULT:    -7.529      8.477     10.755
REMARK INTER + INTRA:          -9.158
REMARK INTER:                  -8.863
REMARK INTRA:                  -0.295
REMARK UNBOUND:                -0.308
REMARK SMILES O=c1c(O)c(-c2ccc(O)c(O)c2)oc2cc(O)ccc12
REMARK SMILES IDX 5 1 3 2 2 3 1 4 21 5 15 6 14 7 16 8 17 9 19 10 20 11 6 12
REMARK SMILES IDX 7 13 8 14 9 15 13 16 11 17 10 18 12 20 4 22 18 24
REMARK H PARENT 10 19 12 21 4 23 18 25
REMARK Flexibility Score: inf
ROOT
ATOM      1  C   UNL     1     106.223 105.383 107.738  1.00  0.00     0.180 A 
ATOM      2  C   UNL     1     105.178 105.790 108.592  1.00  0.00     0.208 A 
ATOM      3  C   UNL     1     105.439 105.924 109.964  1.00  0.00     0.235 A 
ATOM      4  O   UNL     1     104.522 106.297 110.748  1.00  0.00    -0.285 OA
ATOM      5  C   UNL     1     106.721 105.633 110.454  1.00  0.00     0.069 A 
ATOM      6  C   UNL     1     107.707 105.208 109.538  1.00  0.00     0.142 A 
ATOM      7  O   UNL     1     107.421 105.102 108.245  1.00  0.00    -0.452 OA
ATOM      8  C   UNL     1     108.996 104.900 109.989  1.00  0.00     0.094 A 
ATOM      9  C   UNL     1     109.313 105.010 111.346  1.00  0.00     0.119 A 
ATOM     10  C   UNL     1     108.338 105.433 112.259  1.00  0.00     0.047 A 
ATOM     11  C   UNL     1     107.048 105.742 111.818  1.00  0.00     0.020 A 
ENDROOT
BRANCH   1  12
ATOM     12  C   UNL     1     106.032 105.235 106.277  1.00  0.00     0.025 A 
ATOM     13  C   UNL     1     106.384 106.294 105.424  1.00  0.00     0.016 A 
ATOM     14  C   UNL     1     106.193 106.185 104.045  1.00  0.00     0.051 A 
ATOM     15  C   UNL     1     105.632 105.023 103.499  1.00  0.00     0.157 A 
ATOM     16  C   UNL     1     105.449 104.079 105.727  1.00  0.00     0.062 A 
ATOM     17  C   UNL     1     105.255 103.971 104.342  1.00  0.00     0.158 A 
BRANCH  15  18
ATOM     18  O   UNL     1     105.441 104.910 102.123  1.00  0.00    -0.504 OA
ATOM     19  H   UNL     1     105.545 104.024 101.644  1.00  0.00     0.293 HD
ENDBRANCH  15  18
BRANCH  17  20
ATOM     20  O   UNL     1     104.684 102.821 103.798  1.00  0.00    -0.504 OA
ATOM     21  H   UNL     1     104.598 101.966 104.335  1.00  0.00     0.293 HD
ENDBRANCH  17  20
ENDBRANCH   1  12
BRANCH   2  22
ATOM     22  O   UNL     1     103.898 106.025 108.083  1.00  0.00    -0.502 OA
ATOM     23  H   UNL     1     103.213 106.584 108.576  1.00  0.00     0.293 HD
ENDBRANCH   2  22
BRANCH   9  24
ATOM     24  O   UNL     1     110.601 104.698 111.778  1.00  0.00    -0.508 OA
ATOM     25  H   UNL     1     111.081 103.866 111.455  1.00  0.00     0.293 HD
ENDBRANCH   9  24
TORSDOF 5
ENDMDL
MODEL 8
REMARK VINA RESULT:    -7.481      1.566      3.214
REMARK INTER + INTRA:          -9.101
REMARK INTER:                  -8.872
REMARK INTRA:                  -0.229
REMARK UNBOUND:                -0.308
REMARK SMILES O=c1c(O)c(-c2ccc(O)c(O)c2)oc2cc(O)ccc12
REMARK SMILES IDX 5 1 3 2 2 3 1 4 21 5 15 6 14 7 16 8 17 9 19 10 20 11 6 12
REMARK SMILES IDX 7 13 8 14 9 15 13 16 11 17 10 18 12 20 4 22 18 24
REMARK H PARENT 10 19 12 21 4 23 18 25
REMARK Flexibility Score: inf
ROOT
ATOM      1  C   UNL     1      97.546 107.264 106.066  1.00  0.00     0.180 A 
ATOM      2  C   UNL     1      96.597 108.185 105.575  1.00  0.00     0.208 A 
ATOM      3  C   UNL     1      96.587 109.488 106.095  1.00  0.00     0.235 A 
ATOM      4  O   UNL     1      95.755 110.333 105.664  1.00  0.00    -0.285 OA
ATOM      5  C   UNL     1      97.503 109.837 107.100  1.00  0.00     0.069 A 
ATOM      6  C   UNL     1      98.405 108.851 107.555  1.00  0.00     0.142 A 
ATOM      7  O   UNL     1      98.387 107.631 107.030  1.00  0.00    -0.452 OA
ATOM      8  C   UNL     1      99.327 109.157 108.562  1.00  0.00     0.094 A 
ATOM      9  C   UNL     1      99.361 110.438 109.122  1.00  0.00     0.119 A 
ATOM     10  C   UNL     1      98.469 111.420 108.672  1.00  0.00     0.047 A 
ATOM     11  C   UNL     1      97.543 111.124 107.667  1.00  0.00     0.020 A 
ENDROOT
BRANCH   1  12
ATOM     12  C   UNL     1      97.631 105.877 105.555  1.00  0.00     0.025 A 
ATOM     13  C   UNL     1      98.128 105.647 104.262  1.00  0.00     0.016 A 
ATOM     14  C   UNL     1      98.199 104.349 103.751  1.00  0.00     0.051 A 
ATOM     15  C   UNL     1      97.759 103.263 104.520  1.00  0.00     0.157 A 
ATOM     16  C   UNL     1      97.171 104.786 106.314  1.00  0.00     0.062 A 
ATOM     17  C   UNL     1      97.240 103.483 105.801  1.00  0.00     0.158 A 
BRANCH  15  18
ATOM     18  O   UNL     1      97.829 101.966 104.014  1.00  0.00    -0.504 OA
ATOM     19  H   UNL     1      98.692 101.436 104.030  1.00  0.00     0.293 HD
ENDBRANCH  15  18
BRANCH  17  20
ATOM     20  O   UNL     1      96.790 102.402 106.558  1.00  0.00    -0.504 OA
ATOM     21  H   UNL     1      96.351 101.597 106.126  1.00  0.00     0.293 HD
ENDBRANCH  17  20
ENDBRANCH   1  12
BRANCH   2  22
ATOM     22  O   UNL     1      95.666 107.795 104.609  1.00  0.00    -0.502 OA
ATOM     23  H   UNL     1      95.478 108.349 103.782  1.00  0.00     0.293 HD
ENDBRANCH   2  22
BRANCH   9  24
ATOM     24  O   UNL     1     100.286 110.725 110.124  1.00  0.00    -0.508 OA
ATOM     25  H   UNL     1     100.904 111.525 110.060  1.00  0.00     0.293 HD
ENDBRANCH   9  24
TORSDOF 5
ENDMDL
MODEL 9
REMARK VINA RESULT:    -7.452      2.495      6.565
REMARK INTER + INTRA:          -9.067
REMARK INTER:                  -8.929
REMARK INTRA:                  -0.139
REMARK UNBOUND:                -0.308
REMARK SMILES O=c1c(O)c(-c2ccc(O)c(O)c2)oc2cc(O)ccc12
REMARK SMILES IDX 5 1 3 2 2 3 1 4 21 5 15 6 14 7 16 8 17 9 19 10 20 11 6 12
REMARK SMILES IDX 7 13 8 14 9 15 13 16 11 17 10 18 12 20 4 22 18 24
REMARK H PARENT 10 19 12 21 4 23 18 25
REMARK Flexibility Score: inf
ROOT
ATOM      1  C   UNL     1      97.605 106.027 105.272  1.00  0.00     0.180 A 
ATOM      2  C   UNL     1      97.562 104.665 105.633  1.00  0.00     0.208 A 
ATOM      3  C   UNL     1      98.311 103.743 104.885  1.00  0.00     0.235 A 
ATOM      4  O   UNL     1      98.297 102.520 105.194  1.00  0.00    -0.285 OA
ATOM      5  C   UNL     1      99.066 104.194 103.791  1.00  0.00     0.069 A 
ATOM      6  C   UNL     1      99.038 105.570 103.480  1.00  0.00     0.142 A 
ATOM      7  O   UNL     1      98.322 106.411 104.219  1.00  0.00    -0.452 OA
ATOM      8  C   UNL     1      99.770 106.057 102.391  1.00  0.00     0.094 A 
ATOM      9  C   UNL     1     100.531 105.186 101.607  1.00  0.00     0.119 A 
ATOM     10  C   UNL     1     100.563 103.819 101.913  1.00  0.00     0.047 A 
ATOM     11  C   UNL     1      99.835 103.322 102.998  1.00  0.00     0.020 A 
ENDROOT
BRANCH   1  12
ATOM     12  C   UNL     1      96.857 107.063 106.022  1.00  0.00     0.025 A 
ATOM     13  C   UNL     1      95.925 107.865 105.346  1.00  0.00     0.016 A 
ATOM     14  C   UNL     1      95.223 108.862 106.029  1.00  0.00     0.051 A 
ATOM     15  C   UNL     1      95.455 109.081 107.393  1.00  0.00     0.157 A 
ATOM     16  C   UNL     1      97.103 107.300 107.386  1.00  0.00     0.062 A 
ATOM     17  C   UNL     1      96.400 108.302 108.071  1.00  0.00     0.158 A 
BRANCH  15  18
ATOM     18  O   UNL     1      94.756 110.073 108.078  1.00  0.00    -0.504 OA
ATOM     19  H   UNL     1      93.770 109.977 108.290  1.00  0.00     0.293 HD
ENDBRANCH  15  18
BRANCH  17  20
ATOM     20  O   UNL     1      96.639 108.531 109.426  1.00  0.00    -0.504 OA
ATOM     21  H   UNL     1      97.056 107.822 110.019  1.00  0.00     0.293 HD
ENDBRANCH  17  20
ENDBRANCH   1  12
BRANCH   2  22
ATOM     22  O   UNL     1      96.763 104.239 106.697  1.00  0.00    -0.502 OA
ATOM     23  H   UNL     1      97.007 104.418 107.663  1.00  0.00     0.293 HD
ENDBRANCH   2  22
BRANCH   9  24
ATOM     24  O   UNL     1     101.254 105.688 100.526  1.00  0.00    -0.508 OA
ATOM     25  H   UNL     1     101.775 106.554 100.595  1.00  0.00     0.293 HD
ENDBRANCH   9  24
TORSDOF 5
ENDMDL
