MODEL 1
REMARK VINA RESULT:     4.553      0.000      0.000
REMARK INTER + INTRA:           9.441
REMARK INTER:                   9.876
REMARK INTRA:                  -0.435
REMARK UNBOUND:                -0.435
REMARK SMILES CCCCCCCCCCCCCCCCCCCCCC(=O)[O-]
REMARK SMILES IDX 12 1 11 2 10 3 9 4 8 5 7 6 6 7 5 8 4 9 3 10 2 11 1 12 13 13
REMARK SMILES IDX 14 14 15 15 16 16 17 17 18 18 19 19 20 20 21 21 22 22 23 23
REMARK SMILES IDX 24 24
REMARK H PARENT
REMARK Flexibility Score: inf
ROOT
ATOM      1  C   UNL     1      38.137  40.424  19.326  1.00  0.00     0.000 C 
ENDROOT
BRANCH   1   2
ATOM      2  C   UNL     1      37.991  39.116  18.537  1.00  0.00     0.000 C 
BRANCH   2   3
ATOM      3  C   UNL     1      39.284  38.794  17.771  1.00  0.00     0.000 C 
BRANCH   3   4
ATOM      4  C   UNL     1      39.056  37.821  16.604  1.00  0.00    -0.000 C 
BRANCH   4   5
ATOM      5  C   UNL     1      40.123  36.713  16.542  1.00  0.00    -0.000 C 
BRANCH   5   6
ATOM      6  C   UNL     1      39.553  35.377  16.037  1.00  0.00    -0.000 C 
BRANCH   6   7
ATOM      7  C   UNL     1      38.038  35.256  16.280  1.00  0.00    -0.000 C 
BRANCH   7   8
ATOM      8  C   UNL     1      37.692  34.876  17.731  1.00  0.00    -0.000 C 
BRANCH   8   9
ATOM      9  C   UNL     1      38.411  35.700  18.814  1.00  0.00    -0.000 C 
BRANCH   9  10
ATOM     10  C   UNL     1      38.004  35.297  20.242  1.00  0.00    -0.000 C 
BRANCH  10  11
ATOM     11  C   UNL     1      36.921  36.217  20.827  1.00  0.00    -0.003 C 
ATOM     12  C   UNL     1      37.499  37.451  21.517  1.00  0.00     0.004 C 
ENDBRANCH  10  11
ENDBRANCH   9  10
ENDBRANCH   8   9
ENDBRANCH   7   8
ENDBRANCH   6   7
ENDBRANCH   5   6
ENDBRANCH   4   5
ENDBRANCH   3   4
ENDBRANCH   2   3
ENDBRANCH   1   2
BRANCH   1  13
ATOM     13  C   UNL     1      38.871  41.489  18.501  1.00  0.00     0.000 C 
BRANCH  13  14
ATOM     14  C   UNL     1      40.121  41.986  19.241  1.00  0.00     0.000 C 
BRANCH  14  15
ATOM     15  C   UNL     1      40.123  43.508  19.454  1.00  0.00     0.000 C 
BRANCH  15  16
ATOM     16  C   UNL     1      40.109  43.901  20.943  1.00  0.00     0.000 C 
BRANCH  16  17
ATOM     17  C   UNL     1      40.024  45.430  21.151  1.00  0.00     0.000 C 
BRANCH  17  18
ATOM     18  C   UNL     1      40.078  45.865  22.627  1.00  0.00     0.000 C 
BRANCH  18  19
ATOM     19  C   UNL     1      39.830  44.740  23.650  1.00  0.00     0.000 C 
BRANCH  19  20
ATOM     20  C   UNL     1      38.425  44.730  24.278  1.00  0.00     0.006 C 
BRANCH  20  21
ATOM     21  C   UNL     1      37.879  46.138  24.556  1.00  0.00     0.053 C 
BRANCH  21  22
ATOM     22  C   UNL     1      36.391  46.161  24.395  1.00  0.00     0.041 C 
ATOM     23  O   UNL     1      35.653  45.596  25.246  1.00  0.00    -0.550 OA
ATOM     24  O   UNL     1      35.825  46.741  23.267  1.00  0.00    -0.550 OA
ENDBRANCH  21  22
ENDBRANCH  20  21
ENDBRANCH  19  20
ENDBRANCH  18  19
ENDBRANCH  17  18
ENDBRANCH  16  17
ENDBRANCH  15  16
ENDBRANCH  14  15
ENDBRANCH  13  14
ENDBRANCH   1  13
TORSDOF 20
ENDMDL
MODEL 2
REMARK VINA RESULT:     4.911      1.650      3.786
REMARK INTER + INTRA:          10.218
REMARK INTER:                  10.195
REMARK INTRA:                   0.023
REMARK UNBOUND:                -0.435
REMARK SMILES CCCCCCCCCCCCCCCCCCCCCC(=O)[O-]
REMARK SMILES IDX 12 1 11 2 10 3 9 4 8 5 7 6 6 7 5 8 4 9 3 10 2 11 1 12 13 13
REMARK SMILES IDX 14 14 15 15 16 16 17 17 18 18 19 19 20 20 21 21 22 22 23 23
REMARK SMILES IDX 24 24
REMARK H PARENT
REMARK Flexibility Score: inf
ROOT
ATOM      1  C   UNL     1      39.700  44.005  20.361  1.00  0.00     0.000 C 
ENDROOT
BRANCH   1   2
ATOM      2  C   UNL     1      40.124  42.798  19.515  1.00  0.00     0.000 C 
BRANCH   2   3
ATOM      3  C   UNL     1      38.913  41.916  19.176  1.00  0.00     0.000 C 
BRANCH   3   4
ATOM      4  C   UNL     1      39.299  40.453  18.905  1.00  0.00    -0.000 C 
BRANCH   4   5
ATOM      5  C   UNL     1      38.402  39.457  19.661  1.00  0.00    -0.000 C 
BRANCH   5   6
ATOM      6  C   UNL     1      38.260  38.116  18.919  1.00  0.00    -0.000 C 
BRANCH   6   7
ATOM      7  C   UNL     1      39.602  37.609  18.362  1.00  0.00    -0.000 C 
BRANCH   7   8
ATOM      8  C   UNL     1      39.448  36.365  17.468  1.00  0.00    -0.000 C 
BRANCH   8   9
ATOM      9  C   UNL     1      38.908  35.110  18.178  1.00  0.00    -0.000 C 
BRANCH   9  10
ATOM     10  C   UNL     1      38.905  35.243  19.711  1.00  0.00    -0.000 C 
BRANCH  10  11
ATOM     11  C   UNL     1      37.544  34.891  20.329  1.00  0.00    -0.003 C 
ATOM     12  C   UNL     1      37.076  35.919  21.359  1.00  0.00     0.004 C 
ENDBRANCH  10  11
ENDBRANCH   9  10
ENDBRANCH   8   9
ENDBRANCH   7   8
ENDBRANCH   6   7
ENDBRANCH   5   6
ENDBRANCH   4   5
ENDBRANCH   3   4
ENDBRANCH   2   3
ENDBRANCH   1   2
BRANCH   1  13
ATOM     13  C   UNL     1      40.122  43.832  21.825  1.00  0.00     0.000 C 
BRANCH  13  14
ATOM     14  C   UNL     1      39.808  45.097  22.637  1.00  0.00     0.000 C 
BRANCH  14  15
ATOM     15  C   UNL     1      39.262  44.785  24.039  1.00  0.00     0.000 C 
BRANCH  15  16
ATOM     16  C   UNL     1      38.348  45.899  24.583  1.00  0.00     0.000 C 
BRANCH  16  17
ATOM     17  C   UNL     1      36.893  45.771  24.079  1.00  0.00     0.000 C 
BRANCH  17  18
ATOM     18  C   UNL     1      36.603  46.571  22.796  1.00  0.00     0.000 C 
BRANCH  18  19
ATOM     19  C   UNL     1      35.110  46.749  22.459  1.00  0.00     0.000 C 
BRANCH  19  20
ATOM     20  C   UNL     1      34.307  47.575  23.480  1.00  0.00     0.006 C 
BRANCH  20  21
ATOM     21  C   UNL     1      34.254  46.926  24.870  1.00  0.00     0.053 C 
BRANCH  21  22
ATOM     22  C   UNL     1      33.229  45.836  24.898  1.00  0.00     0.041 C 
ATOM     23  O   UNL     1      32.561  45.568  23.864  1.00  0.00    -0.550 OA
ATOM     24  O   UNL     1      32.958  45.169  26.085  1.00  0.00    -0.550 OA
ENDBRANCH  21  22
ENDBRANCH  20  21
ENDBRANCH  19  20
ENDBRANCH  18  19
ENDBRANCH  17  18
ENDBRANCH  16  17
ENDBRANCH  15  16
ENDBRANCH  14  15
ENDBRANCH  13  14
ENDBRANCH   1  13
TORSDOF 20
ENDMDL
MODEL 3
REMARK VINA RESULT:     5.285     12.744     17.914
REMARK INTER + INTRA:          11.029
REMARK INTER:                  11.937
REMARK INTRA:                  -0.909
REMARK UNBOUND:                -0.435
REMARK SMILES CCCCCCCCCCCCCCCCCCCCCC(=O)[O-]
REMARK SMILES IDX 12 1 11 2 10 3 9 4 8 5 7 6 6 7 5 8 4 9 3 10 2 11 1 12 13 13
REMARK SMILES IDX 14 14 15 15 16 16 17 17 18 18 19 19 20 20 21 21 22 22 23 23
REMARK SMILES IDX 24 24
REMARK H PARENT
REMARK Flexibility Score: inf
ROOT
ATOM      1  C   UNL     1      25.162  50.560  25.955  1.00  0.00     0.000 C 
ENDROOT
BRANCH   1   2
ATOM      2  C   UNL     1      26.457  50.199  25.217  1.00  0.00     0.000 C 
BRANCH   2   3
ATOM      3  C   UNL     1      27.518  49.678  26.198  1.00  0.00     0.000 C 
BRANCH   3   4
ATOM      4  C   UNL     1      28.765  49.127  25.489  1.00  0.00    -0.000 C 
BRANCH   4   5
ATOM      5  C   UNL     1      29.467  48.025  26.302  1.00  0.00    -0.000 C 
BRANCH   5   6
ATOM      6  C   UNL     1      30.754  47.526  25.622  1.00  0.00    -0.000 C 
BRANCH   6   7
ATOM      7  C   UNL     1      32.023  47.966  26.372  1.00  0.00    -0.000 C 
BRANCH   7   8
ATOM      8  C   UNL     1      33.209  47.007  26.158  1.00  0.00    -0.000 C 
BRANCH   8   9
ATOM      9  C   UNL     1      32.921  45.803  25.243  1.00  0.00    -0.000 C 
BRANCH   9  10
ATOM     10  C   UNL     1      33.401  46.021  23.797  1.00  0.00    -0.000 C 
BRANCH  10  11
ATOM     11  C   UNL     1      34.488  47.102  23.695  1.00  0.00    -0.003 C 
ATOM     12  C   UNL     1      35.023  47.273  22.273  1.00  0.00     0.004 C 
ENDBRANCH  10  11
ENDBRANCH   9  10
ENDBRANCH   8   9
ENDBRANCH   7   8
ENDBRANCH   6   7
ENDBRANCH   5   6
ENDBRANCH   4   5
ENDBRANCH   3   4
ENDBRANCH   2   3
ENDBRANCH   1   2
BRANCH   1  13
ATOM     13  C   UNL     1      24.401  51.675  25.226  1.00  0.00     0.000 C 
BRANCH  13  14
ATOM     14  C   UNL     1      23.453  52.407  26.187  1.00  0.00     0.000 C 
BRANCH  14  15
ATOM     15  C   UNL     1      23.174  51.610  27.471  1.00  0.00     0.000 C 
BRANCH  15  16
ATOM     16  C   UNL     1      22.662  52.497  28.622  1.00  0.00     0.000 C 
BRANCH  16  17
ATOM     17  C   UNL     1      23.683  52.614  29.777  1.00  0.00     0.000 C 
BRANCH  17  18
ATOM     18  C   UNL     1      23.250  53.576  30.899  1.00  0.00     0.000 C 
BRANCH  18  19
ATOM     19  C   UNL     1      24.376  54.449  31.483  1.00  0.00     0.000 C 
BRANCH  19  20
ATOM     20  C   UNL     1      24.047  55.118  32.831  1.00  0.00     0.006 C 
BRANCH  20  21
ATOM     21  C   UNL     1      23.770  54.107  33.953  1.00  0.00     0.053 C 
BRANCH  21  22
ATOM     22  C   UNL     1      22.344  54.201  34.398  1.00  0.00     0.041 C 
ATOM     23  O   UNL     1      21.551  54.991  33.820  1.00  0.00    -0.550 OA
ATOM     24  O   UNL     1      21.913  53.474  35.499  1.00  0.00    -0.550 OA
ENDBRANCH  21  22
ENDBRANCH  20  21
ENDBRANCH  19  20
ENDBRANCH  18  19
ENDBRANCH  17  18
ENDBRANCH  16  17
ENDBRANCH  15  16
ENDBRANCH  14  15
ENDBRANCH  13  14
ENDBRANCH   1  13
TORSDOF 20
ENDMDL
MODEL 4
REMARK VINA RESULT:     5.364     12.685     19.680
REMARK INTER + INTRA:          11.201
REMARK INTER:                  11.989
REMARK INTRA:                  -0.788
REMARK UNBOUND:                -0.435
REMARK SMILES CCCCCCCCCCCCCCCCCCCCCC(=O)[O-]
REMARK SMILES IDX 12 1 11 2 10 3 9 4 8 5 7 6 6 7 5 8 4 9 3 10 2 11 1 12 13 13
REMARK SMILES IDX 14 14 15 15 16 16 17 17 18 18 19 19 20 20 21 21 22 22 23 23
REMARK SMILES IDX 24 24
REMARK H PARENT
REMARK Flexibility Score: inf
ROOT
ATOM      1  C   UNL     1      24.778  50.947  25.993  1.00  0.00     0.000 C 
ENDROOT
BRANCH   1   2
ATOM      2  C   UNL     1      23.980  52.121  25.413  1.00  0.00     0.000 C 
BRANCH   2   3
ATOM      3  C   UNL     1      23.204  52.853  26.519  1.00  0.00     0.000 C 
BRANCH   3   4
ATOM      4  C   UNL     1      22.803  51.927  27.678  1.00  0.00    -0.000 C 
BRANCH   4   5
ATOM      5  C   UNL     1      21.706  52.537  28.568  1.00  0.00    -0.000 C 
BRANCH   5   6
ATOM      6  C   UNL     1      22.272  53.147  29.862  1.00  0.00    -0.000 C 
BRANCH   6   7
ATOM      7  C   UNL     1      21.202  53.897  30.675  1.00  0.00    -0.000 C 
BRANCH   7   8
ATOM      8  C   UNL     1      21.746  54.472  31.995  1.00  0.00    -0.000 C 
BRANCH   8   9
ATOM      9  C   UNL     1      23.277  54.610  32.069  1.00  0.00    -0.000 C 
BRANCH   9  10
ATOM     10  C   UNL     1      23.840  54.308  33.469  1.00  0.00    -0.000 C 
BRANCH  10  11
ATOM     11  C   UNL     1      22.772  54.416  34.568  1.00  0.00    -0.003 C 
ATOM     12  C   UNL     1      23.286  53.979  35.939  1.00  0.00     0.004 C 
ENDBRANCH  10  11
ENDBRANCH   9  10
ENDBRANCH   8   9
ENDBRANCH   7   8
ENDBRANCH   6   7
ENDBRANCH   5   6
ENDBRANCH   4   5
ENDBRANCH   3   4
ENDBRANCH   2   3
ENDBRANCH   1   2
BRANCH   1  13
ATOM     13  C   UNL     1      26.001  50.626  25.124  1.00  0.00     0.000 C 
BRANCH  13  14
ATOM     14  C   UNL     1      26.670  49.323  25.584  1.00  0.00     0.000 C 
BRANCH  14  15
ATOM     15  C   UNL     1      28.106  49.536  26.089  1.00  0.00     0.000 C 
BRANCH  15  16
ATOM     16  C   UNL     1      29.110  48.550  25.464  1.00  0.00     0.000 C 
BRANCH  16  17
ATOM     17  C   UNL     1      30.227  48.138  26.449  1.00  0.00     0.000 C 
BRANCH  17  18
ATOM     18  C   UNL     1      31.620  48.020  25.802  1.00  0.00     0.000 C 
BRANCH  18  19
ATOM     19  C   UNL     1      32.641  47.182  26.593  1.00  0.00     0.000 C 
BRANCH  19  20
ATOM     20  C   UNL     1      33.293  46.034  25.802  1.00  0.00     0.006 C 
BRANCH  20  21
ATOM     21  C   UNL     1      34.487  46.490  24.952  1.00  0.00     0.053 C 
BRANCH  21  22
ATOM     22  C   UNL     1      34.069  46.685  23.528  1.00  0.00     0.041 C 
ATOM     23  O   UNL     1      34.620  47.571  22.821  1.00  0.00    -0.550 OA
ATOM     24  O   UNL     1      33.019  45.941  23.006  1.00  0.00    -0.550 OA
ENDBRANCH  21  22
ENDBRANCH  20  21
ENDBRANCH  19  20
ENDBRANCH  18  19
ENDBRANCH  17  18
ENDBRANCH  16  17
ENDBRANCH  15  16
ENDBRANCH  14  15
ENDBRANCH  13  14
ENDBRANCH   1  13
TORSDOF 20
ENDMDL
MODEL 5
REMARK VINA RESULT:     5.389      2.790      9.523
REMARK INTER + INTRA:          11.254
REMARK INTER:                  11.960
REMARK INTRA:                  -0.705
REMARK UNBOUND:                -0.435
REMARK SMILES CCCCCCCCCCCCCCCCCCCCCC(=O)[O-]
REMARK SMILES IDX 12 1 11 2 10 3 9 4 8 5 7 6 6 7 5 8 4 9 3 10 2 11 1 12 13 13
REMARK SMILES IDX 14 14 15 15 16 16 17 17 18 18 19 19 20 20 21 21 22 22 23 23
REMARK SMILES IDX 24 24
REMARK H PARENT
REMARK Flexibility Score: inf
ROOT
ATOM      1  C   UNL     1      39.376  41.594  18.890  1.00  0.00     0.000 C 
ENDROOT
BRANCH   1   2
ATOM      2  C   UNL     1      40.125  42.144  20.110  1.00  0.00     0.000 C 
BRANCH   2   3
ATOM      3  C   UNL     1      39.892  43.656  20.257  1.00  0.00     0.000 C 
BRANCH   3   4
ATOM      4  C   UNL     1      40.121  44.156  21.692  1.00  0.00    -0.000 C 
BRANCH   4   5
ATOM      5  C   UNL     1      39.695  45.623  21.880  1.00  0.00    -0.000 C 
BRANCH   5   6
ATOM      6  C   UNL     1      38.457  45.763  22.783  1.00  0.00    -0.000 C 
BRANCH   6   7
ATOM      7  C   UNL     1      38.593  44.969  24.094  1.00  0.00    -0.000 C 
BRANCH   7   8
ATOM      8  C   UNL     1      38.355  45.833  25.345  1.00  0.00    -0.000 C 
BRANCH   8   9
ATOM      9  C   UNL     1      36.922  46.371  25.508  1.00  0.00    -0.000 C 
BRANCH   9  10
ATOM     10  C   UNL     1      35.940  45.779  24.481  1.00  0.00    -0.000 C 
BRANCH  10  11
ATOM     11  C   UNL     1      34.870  46.789  24.041  1.00  0.00    -0.003 C 
ATOM     12  C   UNL     1      35.129  47.358  22.646  1.00  0.00     0.004 C 
ENDBRANCH  10  11
ENDBRANCH   9  10
ENDBRANCH   8   9
ENDBRANCH   7   8
ENDBRANCH   6   7
ENDBRANCH   5   6
ENDBRANCH   4   5
ENDBRANCH   3   4
ENDBRANCH   2   3
ENDBRANCH   1   2
BRANCH   1  13
ATOM     13  C   UNL     1      39.960  40.248  18.442  1.00  0.00     0.000 C 
BRANCH  13  14
ATOM     14  C   UNL     1      39.229  39.723  17.199  1.00  0.00     0.000 C 
BRANCH  14  15
ATOM     15  C   UNL     1      40.107  38.804  16.334  1.00  0.00     0.000 C 
BRANCH  15  16
ATOM     16  C   UNL     1      39.412  37.477  15.979  1.00  0.00     0.000 C 
BRANCH  16  17
ATOM     17  C   UNL     1      39.712  36.359  17.003  1.00  0.00     0.000 C 
BRANCH  17  18
ATOM     18  C   UNL     1      38.585  35.320  17.144  1.00  0.00     0.000 C 
BRANCH  18  19
ATOM     19  C   UNL     1      37.367  35.782  17.967  1.00  0.00     0.000 C 
BRANCH  19  20
ATOM     20  C   UNL     1      37.458  35.498  19.477  1.00  0.00     0.006 C 
BRANCH  20  21
ATOM     21  C   UNL     1      38.303  36.531  20.235  1.00  0.00     0.053 C 
BRANCH  21  22
ATOM     22  C   UNL     1      37.518  37.787  20.452  1.00  0.00     0.041 C 
ATOM     23  O   UNL     1      36.290  37.824  20.172  1.00  0.00    -0.550 OA
ATOM     24  O   UNL     1      38.160  38.938  20.891  1.00  0.00    -0.550 OA
ENDBRANCH  21  22
ENDBRANCH  20  21
ENDBRANCH  19  20
ENDBRANCH  18  19
ENDBRANCH  17  18
ENDBRANCH  16  17
ENDBRANCH  15  16
ENDBRANCH  14  15
ENDBRANCH  13  14
ENDBRANCH   1  13
TORSDOF 20
ENDMDL
MODEL 6
REMARK VINA RESULT:     5.551      1.949      4.036
REMARK INTER + INTRA:          11.607
REMARK INTER:                  11.305
REMARK INTRA:                   0.302
REMARK UNBOUND:                -0.435
REMARK SMILES CCCCCCCCCCCCCCCCCCCCCC(=O)[O-]
REMARK SMILES IDX 12 1 11 2 10 3 9 4 8 5 7 6 6 7 5 8 4 9 3 10 2 11 1 12 13 13
REMARK SMILES IDX 14 14 15 15 16 16 17 17 18 18 19 19 20 20 21 21 22 22 23 23
REMARK SMILES IDX 24 24
REMARK H PARENT
REMARK Flexibility Score: inf
ROOT
ATOM      1  C   UNL     1      39.914  43.574  19.724  1.00  0.00     0.000 C 
ENDROOT
BRANCH   1   2
ATOM      2  C   UNL     1      40.123  42.116  19.295  1.00  0.00     0.000 C 
BRANCH   2   3
ATOM      3  C   UNL     1      38.779  41.381  19.184  1.00  0.00     0.000 C 
BRANCH   3   4
ATOM      4  C   UNL     1      38.939  39.903  18.796  1.00  0.00    -0.000 C 
BRANCH   4   5
ATOM      5  C   UNL     1      38.221  38.955  19.773  1.00  0.00    -0.000 C 
BRANCH   5   6
ATOM      6  C   UNL     1      38.538  37.476  19.494  1.00  0.00    -0.000 C 
BRANCH   6   7
ATOM      7  C   UNL     1      37.342  36.553  19.791  1.00  0.00    -0.000 C 
BRANCH   7   8
ATOM      8  C   UNL     1      37.608  35.086  19.408  1.00  0.00    -0.000 C 
BRANCH   8   9
ATOM      9  C   UNL     1      38.520  34.883  18.184  1.00  0.00    -0.000 C 
BRANCH   9  10
ATOM     10  C   UNL     1      38.492  36.075  17.212  1.00  0.00    -0.000 C 
BRANCH  10  11
ATOM     11  C   UNL     1      39.897  36.489  16.748  1.00  0.00    -0.003 C 
ATOM     12  C   UNL     1      39.975  37.957  16.328  1.00  0.00     0.004 C 
ENDBRANCH  10  11
ENDBRANCH   9  10
ENDBRANCH   8   9
ENDBRANCH   7   8
ENDBRANCH   6   7
ENDBRANCH   5   6
ENDBRANCH   4   5
ENDBRANCH   3   4
ENDBRANCH   2   3
ENDBRANCH   1   2
BRANCH   1  13
ATOM     13  C   UNL     1      40.124  43.743  21.234  1.00  0.00     0.000 C 
BRANCH  13  14
ATOM     14  C   UNL     1      40.069  45.225  21.630  1.00  0.00     0.000 C 
BRANCH  14  15
ATOM     15  C   UNL     1      39.238  45.473  22.899  1.00  0.00     0.000 C 
BRANCH  15  16
ATOM     16  C   UNL     1      38.235  46.629  22.738  1.00  0.00     0.000 C 
BRANCH  16  17
ATOM     17  C   UNL     1      36.772  46.137  22.659  1.00  0.00     0.000 C 
BRANCH  17  18
ATOM     18  C   UNL     1      35.782  47.197  22.141  1.00  0.00     0.000 C 
BRANCH  18  19
ATOM     19  C   UNL     1      34.643  47.558  23.113  1.00  0.00     0.000 C 
BRANCH  19  20
ATOM     20  C   UNL     1      33.486  46.544  23.163  1.00  0.00     0.006 C 
BRANCH  20  21
ATOM     21  C   UNL     1      33.559  45.607  24.377  1.00  0.00     0.053 C 
BRANCH  21  22
ATOM     22  C   UNL     1      32.905  46.241  25.565  1.00  0.00     0.041 C 
ATOM     23  O   UNL     1      33.546  46.385  26.640  1.00  0.00    -0.550 OA
ATOM     24  O   UNL     1      31.566  46.603  25.507  1.00  0.00    -0.550 OA
ENDBRANCH  21  22
ENDBRANCH  20  21
ENDBRANCH  19  20
ENDBRANCH  18  19
ENDBRANCH  17  18
ENDBRANCH  16  17
ENDBRANCH  15  16
ENDBRANCH  14  15
ENDBRANCH  13  14
ENDBRANCH   1  13
TORSDOF 20
ENDMDL
MODEL 7
REMARK VINA RESULT:     5.586     13.676     20.730
REMARK INTER + INTRA:          11.683
REMARK INTER:                  12.562
REMARK INTRA:                  -0.879
REMARK UNBOUND:                -0.435
REMARK SMILES CCCCCCCCCCCCCCCCCCCCCC(=O)[O-]
REMARK SMILES IDX 12 1 11 2 10 3 9 4 8 5 7 6 6 7 5 8 4 9 3 10 2 11 1 12 13 13
REMARK SMILES IDX 14 14 15 15 16 16 17 17 18 18 19 19 20 20 21 21 22 22 23 23
REMARK SMILES IDX 24 24
REMARK H PARENT
REMARK Flexibility Score: inf
ROOT
ATOM      1  C   UNL     1      23.636  52.425  26.078  1.00  0.00     0.000 C 
ENDROOT
BRANCH   1   2
ATOM      2  C   UNL     1      23.262  51.682  27.367  1.00  0.00     0.000 C 
BRANCH   2   3
ATOM      3  C   UNL     1      22.059  52.349  28.052  1.00  0.00     0.000 C 
BRANCH   3   4
ATOM      4  C   UNL     1      22.313  52.649  29.538  1.00  0.00    -0.000 C 
BRANCH   4   5
ATOM      5  C   UNL     1      21.458  53.819  30.058  1.00  0.00    -0.000 C 
BRANCH   5   6
ATOM      6  C   UNL     1      21.537  53.969  31.587  1.00  0.00    -0.000 C 
BRANCH   6   7
ATOM      7  C   UNL     1      22.651  54.937  32.024  1.00  0.00    -0.000 C 
BRANCH   7   8
ATOM      8  C   UNL     1      23.646  54.298  33.010  1.00  0.00    -0.000 C 
BRANCH   8   9
ATOM      9  C   UNL     1      23.668  54.923  34.417  1.00  0.00    -0.000 C 
BRANCH   9  10
ATOM     10  C   UNL     1      22.285  54.930  35.091  1.00  0.00    -0.000 C 
BRANCH  10  11
ATOM     11  C   UNL     1      21.791  53.517  35.435  1.00  0.00    -0.003 C 
ATOM     12  C   UNL     1      20.286  53.348  35.231  1.00  0.00     0.004 C 
ENDBRANCH  10  11
ENDBRANCH   9  10
ENDBRANCH   8   9
ENDBRANCH   7   8
ENDBRANCH   6   7
ENDBRANCH   5   6
ENDBRANCH   4   5
ENDBRANCH   3   4
ENDBRANCH   2   3
ENDBRANCH   1   2
BRANCH   1  13
ATOM     13  C   UNL     1      24.508  51.551  25.168  1.00  0.00     0.000 C 
BRANCH  13  14
ATOM     14  C   UNL     1      25.378  50.597  25.999  1.00  0.00     0.000 C 
BRANCH  14  15
ATOM     15  C   UNL     1      26.598  50.074  25.223  1.00  0.00     0.000 C 
BRANCH  15  16
ATOM     16  C   UNL     1      27.715  49.557  26.149  1.00  0.00     0.000 C 
BRANCH  16  17
ATOM     17  C   UNL     1      28.828  48.816  25.375  1.00  0.00     0.000 C 
BRANCH  17  18
ATOM     18  C   UNL     1      29.824  48.064  26.278  1.00  0.00     0.000 C 
BRANCH  18  19
ATOM     19  C   UNL     1      31.301  48.171  25.855  1.00  0.00     0.000 C 
BRANCH  19  20
ATOM     20  C   UNL     1      32.275  47.300  26.669  1.00  0.00     0.006 C 
BRANCH  20  21
ATOM     21  C   UNL     1      33.475  46.810  25.847  1.00  0.00     0.053 C 
BRANCH  21  22
ATOM     22  C   UNL     1      33.009  46.171  24.576  1.00  0.00     0.041 C 
ATOM     23  O   UNL     1      32.066  45.337  24.595  1.00  0.00    -0.550 OA
ATOM     24  O   UNL     1      33.668  46.441  23.384  1.00  0.00    -0.550 OA
ENDBRANCH  21  22
ENDBRANCH  20  21
ENDBRANCH  19  20
ENDBRANCH  18  19
ENDBRANCH  17  18
ENDBRANCH  16  17
ENDBRANCH  15  16
ENDBRANCH  14  15
ENDBRANCH  13  14
ENDBRANCH   1  13
TORSDOF 20
ENDMDL
MODEL 8
REMARK VINA RESULT:     5.817     19.818     24.316
REMARK INTER + INTRA:          12.183
REMARK INTER:                  12.067
REMARK INTRA:                   0.116
REMARK UNBOUND:                -0.435
REMARK SMILES CCCCCCCCCCCCCCCCCCCCCC(=O)[O-]
REMARK SMILES IDX 12 1 11 2 10 3 9 4 8 5 7 6 6 7 5 8 4 9 3 10 2 11 1 12 13 13
REMARK SMILES IDX 14 14 15 15 16 16 17 17 18 18 19 19 20 20 21 21 22 22 23 23
REMARK SMILES IDX 24 24
REMARK H PARENT
REMARK Flexibility Score: inf
ROOT
ATOM      1  C   UNL     1      20.165  54.784  32.578  1.00  0.00     0.000 C 
ENDROOT
BRANCH   1   2
ATOM      2  C   UNL     1      20.229  54.127  33.962  1.00  0.00     0.000 C 
BRANCH   2   3
ATOM      3  C   UNL     1      21.558  53.378  34.150  1.00  0.00     0.000 C 
BRANCH   3   4
ATOM      4  C   UNL     1      22.103  53.482  35.583  1.00  0.00    -0.000 C 
BRANCH   4   5
ATOM      5  C   UNL     1      22.526  54.916  35.950  1.00  0.00    -0.000 C 
BRANCH   5   6
ATOM      6  C   UNL     1      24.053  55.066  36.064  1.00  0.00    -0.000 C 
BRANCH   6   7
ATOM      7  C   UNL     1      24.801  54.299  34.959  1.00  0.00    -0.000 C 
BRANCH   7   8
ATOM      8  C   UNL     1      24.982  55.125  33.673  1.00  0.00    -0.000 C 
BRANCH   8   9
ATOM      9  C   UNL     1      24.238  54.586  32.437  1.00  0.00    -0.000 C 
BRANCH   9  10
ATOM     10  C   UNL     1      25.122  54.540  31.179  1.00  0.00    -0.000 C 
BRANCH  10  11
ATOM     11  C   UNL     1      24.444  53.811  30.009  1.00  0.00    -0.003 C 
ATOM     12  C   UNL     1      25.087  52.459  29.700  1.00  0.00     0.004 C 
ENDBRANCH  10  11
ENDBRANCH   9  10
ENDBRANCH   8   9
ENDBRANCH   7   8
ENDBRANCH   6   7
ENDBRANCH   5   6
ENDBRANCH   4   5
ENDBRANCH   3   4
ENDBRANCH   2   3
ENDBRANCH   1   2
BRANCH   1  13
ATOM     13  C   UNL     1      21.362  54.372  31.713  1.00  0.00     0.000 C 
BRANCH  13  14
ATOM     14  C   UNL     1      21.340  55.107  30.365  1.00  0.00     0.000 C 
BRANCH  14  15
ATOM     15  C   UNL     1      20.140  54.712  29.490  1.00  0.00     0.000 C 
BRANCH  15  16
ATOM     16  C   UNL     1      20.093  53.202  29.190  1.00  0.00     0.000 C 
BRANCH  16  17
ATOM     17  C   UNL     1      20.770  52.844  27.849  1.00  0.00     0.000 C 
BRANCH  17  18
ATOM     18  C   UNL     1      21.961  51.878  27.988  1.00  0.00     0.000 C 
BRANCH  18  19
ATOM     19  C   UNL     1      23.203  52.245  27.154  1.00  0.00     0.000 C 
BRANCH  19  20
ATOM     20  C   UNL     1      23.454  51.344  25.931  1.00  0.00     0.006 C 
BRANCH  20  21
ATOM     21  C   UNL     1      23.778  52.136  24.656  1.00  0.00     0.053 C 
BRANCH  21  22
ATOM     22  C   UNL     1      23.431  53.580  24.838  1.00  0.00     0.041 C 
ATOM     23  O   UNL     1      24.206  54.477  24.410  1.00  0.00    -0.550 OA
ATOM     24  O   UNL     1      22.291  53.935  25.547  1.00  0.00    -0.550 OA
ENDBRANCH  21  22
ENDBRANCH  20  21
ENDBRANCH  19  20
ENDBRANCH  18  19
ENDBRANCH  17  18
ENDBRANCH  16  17
ENDBRANCH  15  16
ENDBRANCH  14  15
ENDBRANCH  13  14
ENDBRANCH   1  13
TORSDOF 20
ENDMDL
MODEL 9
REMARK VINA RESULT:     5.935      4.147     10.234
REMARK INTER + INTRA:          12.439
REMARK INTER:                  12.172
REMARK INTRA:                   0.267
REMARK UNBOUND:                -0.435
REMARK SMILES CCCCCCCCCCCCCCCCCCCCCC(=O)[O-]
REMARK SMILES IDX 12 1 11 2 10 3 9 4 8 5 7 6 6 7 5 8 4 9 3 10 2 11 1 12 13 13
REMARK SMILES IDX 14 14 15 15 16 16 17 17 18 18 19 19 20 20 21 21 22 22 23 23
REMARK SMILES IDX 24 24
REMARK H PARENT
REMARK Flexibility Score: inf
ROOT
ATOM      1  C   UNL     1      39.996  43.799  23.243  1.00  0.00     0.000 C 
ENDROOT
BRANCH   1   2
ATOM      2  C   UNL     1      40.069  44.593  24.554  1.00  0.00     0.000 C 
BRANCH   2   3
ATOM      3  C   UNL     1      39.089  45.776  24.531  1.00  0.00     0.000 C 
BRANCH   3   4
ATOM      4  C   UNL     1      37.619  45.332  24.577  1.00  0.00    -0.000 C 
BRANCH   4   5
ATOM      5  C   UNL     1      36.723  46.162  23.640  1.00  0.00    -0.000 C 
BRANCH   5   6
ATOM      6  C   UNL     1      35.431  46.634  24.330  1.00  0.00    -0.000 C 
BRANCH   6   7
ATOM      7  C   UNL     1      34.280  46.854  23.334  1.00  0.00    -0.000 C 
BRANCH   7   8
ATOM      8  C   UNL     1      33.225  45.733  23.380  1.00  0.00    -0.000 C 
BRANCH   8   9
ATOM      9  C   UNL     1      32.527  45.544  24.738  1.00  0.00    -0.000 C 
BRANCH   9  10
ATOM     10  C   UNL     1      33.290  46.204  25.901  1.00  0.00    -0.000 C 
BRANCH  10  11
ATOM     11  C   UNL     1      32.629  47.508  26.374  1.00  0.00    -0.003 C 
ATOM     12  C   UNL     1      32.385  47.536  27.882  1.00  0.00     0.004 C 
ENDBRANCH  10  11
ENDBRANCH   9  10
ENDBRANCH   8   9
ENDBRANCH   7   8
ENDBRANCH   6   7
ENDBRANCH   5   6
ENDBRANCH   4   5
ENDBRANCH   3   4
ENDBRANCH   2   3
ENDBRANCH   1   2
BRANCH   1  13
ATOM     13  C   UNL     1      39.486  44.676  22.092  1.00  0.00     0.000 C 
BRANCH  13  14
ATOM     14  C   UNL     1      40.125  44.254  20.761  1.00  0.00     0.000 C 
BRANCH  14  15
ATOM     15  C   UNL     1      39.932  42.760  20.454  1.00  0.00     0.000 C 
BRANCH  15  16
ATOM     16  C   UNL     1      40.124  42.429  18.963  1.00  0.00     0.000 C 
BRANCH  16  17
ATOM     17  C   UNL     1      40.019  40.915  18.674  1.00  0.00     0.000 C 
BRANCH  17  18
ATOM     18  C   UNL     1      38.678  40.488  18.049  1.00  0.00     0.000 C 
BRANCH  18  19
ATOM     19  C   UNL     1      38.297  39.011  18.263  1.00  0.00     0.000 C 
BRANCH  19  20
ATOM     20  C   UNL     1      38.288  38.547  19.731  1.00  0.00     0.006 C 
BRANCH  20  21
ATOM     21  C   UNL     1      37.824  37.094  19.900  1.00  0.00     0.053 C 
BRANCH  21  22
ATOM     22  C   UNL     1      38.793  36.158  19.248  1.00  0.00     0.041 C 
ATOM     23  O   UNL     1      38.398  35.353  18.362  1.00  0.00    -0.550 OA
ATOM     24  O   UNL     1      40.114  36.122  19.673  1.00  0.00    -0.550 OA
ENDBRANCH  21  22
ENDBRANCH  20  21
ENDBRANCH  19  20
ENDBRANCH  18  19
ENDBRANCH  17  18
ENDBRANCH  16  17
ENDBRANCH  15  16
ENDBRANCH  14  15
ENDBRANCH  13  14
ENDBRANCH   1  13
TORSDOF 20
ENDMDL
