MODEL 1
REMARK VINA RESULT:    -3.657      0.000      0.000
REMARK INTER + INTRA:          -5.469
REMARK INTER:                  -4.939
REMARK INTRA:                  -0.529
REMARK UNBOUND:                -0.529
REMARK SMILES C[C@@H](O)[C@H](O)[C@H](O)[C@@H](O)C=O
REMARK SMILES IDX 4 1 2 2 1 3 3 4 6 6 8 7 10 8 11 9 9 10 7 12 5 14
REMARK H PARENT 3 5 9 11 7 13 5 15
REMARK Flexibility Score: inf
ROOT
ATOM      1  C   UNL     1      24.260  -5.752 -29.623  1.00  0.00     0.174 C 
ENDROOT
BRANCH   1   2
ATOM      2  C   UNL     1      24.966  -6.892 -28.841  1.00  0.00     0.142 C 
ATOM      3  C   UNL     1      24.515  -6.970 -27.379  1.00  0.00     0.041 C 
BRANCH   2   4
ATOM      4  O   UNL     1      24.665  -8.122 -29.451  1.00  0.00    -0.391 OA
ATOM      5  H   UNL     1      24.306  -7.921 -30.356  1.00  0.00     0.211 HD
ENDBRANCH   2   4
ENDBRANCH   1   2
BRANCH   1   6
ATOM      6  C   UNL     1      25.058  -5.174 -30.833  1.00  0.00     0.181 C 
BRANCH   6   7
ATOM      7  C   UNL     1      24.347  -5.312 -32.210  1.00  0.00     0.209 C 
BRANCH   7   8
ATOM      8  C   UNL     1      25.291  -5.056 -33.354  1.00  0.00     0.258 C 
ATOM      9  O   UNL     1      26.460  -4.775 -33.138  1.00  0.00    -0.300 OA
ENDBRANCH   7   8
BRANCH   7  10
ATOM     10  O   UNL     1      23.302  -4.376 -32.286  1.00  0.00    -0.383 OA
ATOM     11  H   UNL     1      22.541  -4.827 -32.738  1.00  0.00     0.211 HD
ENDBRANCH   7  10
ENDBRANCH   6   7
BRANCH   6  12
ATOM     12  O   UNL     1      25.355  -3.821 -30.578  1.00  0.00    -0.387 OA
ATOM     13  H   UNL     1      25.933  -3.784 -29.771  1.00  0.00     0.211 HD
ENDBRANCH   6  12
ENDBRANCH   1   6
BRANCH   1  14
ATOM     14  O   UNL     1      23.002  -6.213 -30.053  1.00  0.00    -0.388 OA
ATOM     15  H   UNL     1      22.383  -5.436 -30.045  1.00  0.00     0.211 HD
ENDBRANCH   1  14
TORSDOF 8
ENDMDL
MODEL 2
REMARK VINA RESULT:    -3.603     14.303     15.815
REMARK INTER + INTRA:          -5.396
REMARK INTER:                  -4.888
REMARK INTRA:                  -0.508
REMARK UNBOUND:                -0.529
REMARK SMILES C[C@@H](O)[C@H](O)[C@H](O)[C@@H](O)C=O
REMARK SMILES IDX 4 1 2 2 1 3 3 4 6 6 8 7 10 8 11 9 9 10 7 12 5 14
REMARK H PARENT 3 5 9 11 7 13 5 15
REMARK Flexibility Score: inf
ROOT
ATOM      1  C   UNL     1      34.551   7.199 -30.808  1.00  0.00     0.174 C 
ENDROOT
BRANCH   1   2
ATOM      2  C   UNL     1      33.253   8.047 -30.876  1.00  0.00     0.142 C 
ATOM      3  C   UNL     1      32.678   8.355 -29.489  1.00  0.00     0.041 C 
BRANCH   2   4
ATOM      4  O   UNL     1      33.536   9.270 -31.507  1.00  0.00    -0.391 OA
ATOM      5  H   UNL     1      32.801   9.897 -31.273  1.00  0.00     0.211 HD
ENDBRANCH   2   4
ENDBRANCH   1   2
BRANCH   1   6
ATOM      6  C   UNL     1      34.406   5.712 -31.261  1.00  0.00     0.181 C 
BRANCH   6   7
ATOM      7  C   UNL     1      34.439   5.492 -32.801  1.00  0.00     0.209 C 
BRANCH   7   8
ATOM      8  C   UNL     1      33.861   4.156 -33.186  1.00  0.00     0.258 C 
ATOM      9  O   UNL     1      33.381   3.423 -32.336  1.00  0.00    -0.300 OA
ENDBRANCH   7   8
BRANCH   7  10
ATOM     10  O   UNL     1      35.771   5.537 -33.245  1.00  0.00    -0.383 OA
ATOM     11  H   UNL     1      35.844   4.905 -34.008  1.00  0.00     0.211 HD
ENDBRANCH   7  10
ENDBRANCH   6   7
BRANCH   6  12
ATOM     12  O   UNL     1      35.414   4.948 -30.643  1.00  0.00    -0.387 OA
ATOM     13  H   UNL     1      36.136   5.568 -30.361  1.00  0.00     0.211 HD
ENDBRANCH   6  12
ENDBRANCH   1   6
BRANCH   1  14
ATOM     14  O   UNL     1      35.546   7.838 -31.571  1.00  0.00    -0.388 OA
ATOM     15  H   UNL     1      35.931   8.561 -31.009  1.00  0.00     0.211 HD
ENDBRANCH   1  14
TORSDOF 8
ENDMDL
MODEL 3
REMARK VINA RESULT:    -3.535      4.628      6.124
REMARK INTER + INTRA:          -5.305
REMARK INTER:                  -4.710
REMARK INTRA:                  -0.595
REMARK UNBOUND:                -0.529
REMARK SMILES C[C@@H](O)[C@H](O)[C@H](O)[C@@H](O)C=O
REMARK SMILES IDX 4 1 2 2 1 3 3 4 6 6 8 7 10 8 11 9 9 10 7 12 5 14
REMARK H PARENT 3 5 9 11 7 13 5 15
REMARK Flexibility Score: inf
ROOT
ATOM      1  C   UNL     1      21.224  -1.325 -31.481  1.00  0.00     0.174 C 
ENDROOT
BRANCH   1   2
ATOM      2  C   UNL     1      20.618   0.036 -31.914  1.00  0.00     0.142 C 
ATOM      3  C   UNL     1      20.339   0.104 -33.419  1.00  0.00     0.041 C 
BRANCH   2   4
ATOM      4  O   UNL     1      19.400   0.231 -31.241  1.00  0.00    -0.391 OA
ATOM      5  H   UNL     1      19.233  -0.582 -30.694  1.00  0.00     0.211 HD
ENDBRANCH   2   4
ENDBRANCH   1   2
BRANCH   1   6
ATOM      6  C   UNL     1      22.577  -1.242 -30.706  1.00  0.00     0.181 C 
BRANCH   6   7
ATOM      7  C   UNL     1      23.355  -2.585 -30.603  1.00  0.00     0.209 C 
BRANCH   7   8
ATOM      8  C   UNL     1      23.677  -3.149 -31.961  1.00  0.00     0.258 C 
ATOM      9  O   UNL     1      24.469  -2.579 -32.694  1.00  0.00    -0.300 OA
ENDBRANCH   7   8
BRANCH   7  10
ATOM     10  O   UNL     1      22.567  -3.522 -29.914  1.00  0.00    -0.383 OA
ATOM     11  H   UNL     1      22.741  -3.392 -28.945  1.00  0.00     0.211 HD
ENDBRANCH   7  10
ENDBRANCH   6   7
BRANCH   6  12
ATOM     12  O   UNL     1      23.388  -0.261 -31.309  1.00  0.00    -0.387 OA
ATOM     13  H   UNL     1      23.610  -0.572 -32.226  1.00  0.00     0.211 HD
ENDBRANCH   6  12
ENDBRANCH   1   6
BRANCH   1  14
ATOM     14  O   UNL     1      20.272  -2.018 -30.710  1.00  0.00    -0.388 OA
ATOM     15  H   UNL     1      19.966  -1.402 -29.993  1.00  0.00     0.211 HD
ENDBRANCH   1  14
TORSDOF 8
ENDMDL
MODEL 4
REMARK VINA RESULT:    -3.535     13.113     14.731
REMARK INTER + INTRA:          -5.305
REMARK INTER:                  -4.755
REMARK INTRA:                  -0.550
REMARK UNBOUND:                -0.529
REMARK SMILES C[C@@H](O)[C@H](O)[C@H](O)[C@@H](O)C=O
REMARK SMILES IDX 4 1 2 2 1 3 3 4 6 6 8 7 10 8 11 9 9 10 7 12 5 14
REMARK H PARENT 3 5 9 11 7 13 5 15
REMARK Flexibility Score: inf
ROOT
ATOM      1  C   UNL     1      33.688   4.701 -32.580  1.00  0.00     0.174 C 
ENDROOT
BRANCH   1   2
ATOM      2  C   UNL     1      33.009   3.317 -32.753  1.00  0.00     0.142 C 
ATOM      3  C   UNL     1      31.688   3.401 -33.525  1.00  0.00     0.041 C 
BRANCH   2   4
ATOM      4  O   UNL     1      33.872   2.468 -33.468  1.00  0.00    -0.391 OA
ATOM      5  H   UNL     1      34.343   3.028 -34.140  1.00  0.00     0.211 HD
ENDBRANCH   2   4
ENDBRANCH   1   2
BRANCH   1   6
ATOM      6  C   UNL     1      34.619   4.841 -31.335  1.00  0.00     0.181 C 
BRANCH   6   7
ATOM      7  C   UNL     1      35.271   6.243 -31.160  1.00  0.00     0.209 C 
BRANCH   7   8
ATOM      8  C   UNL     1      34.238   7.336 -31.113  1.00  0.00     0.258 C 
ATOM      9  O   UNL     1      33.484   7.434 -30.158  1.00  0.00    -0.300 OA
ENDBRANCH   7   8
BRANCH   7  10
ATOM     10  O   UNL     1      36.125   6.493 -32.246  1.00  0.00    -0.383 OA
ATOM     11  H   UNL     1      36.567   7.366 -32.073  1.00  0.00     0.211 HD
ENDBRANCH   7  10
ENDBRANCH   6   7
BRANCH   6  12
ATOM     12  O   UNL     1      33.889   4.502 -30.179  1.00  0.00    -0.387 OA
ATOM     13  H   UNL     1      33.570   5.346 -29.763  1.00  0.00     0.211 HD
ENDBRANCH   6  12
ENDBRANCH   1   6
BRANCH   1  14
ATOM     14  O   UNL     1      34.407   5.001 -33.752  1.00  0.00    -0.388 OA
ATOM     15  H   UNL     1      34.974   4.213 -33.962  1.00  0.00     0.211 HD
ENDBRANCH   1  14
TORSDOF 8
ENDMDL
MODEL 5
REMARK VINA RESULT:    -3.519      5.528      6.558
REMARK INTER + INTRA:          -5.283
REMARK INTER:                  -4.548
REMARK INTRA:                  -0.734
REMARK UNBOUND:                -0.529
REMARK SMILES C[C@@H](O)[C@H](O)[C@H](O)[C@@H](O)C=O
REMARK SMILES IDX 4 1 2 2 1 3 3 4 6 6 8 7 10 8 11 9 9 10 7 12 5 14
REMARK H PARENT 3 5 9 11 7 13 5 15
REMARK Flexibility Score: inf
ROOT
ATOM      1  C   UNL     1      21.434  -1.253 -31.146  1.00  0.00     0.174 C 
ENDROOT
BRANCH   1   2
ATOM      2  C   UNL     1      22.762  -2.042 -31.282  1.00  0.00     0.142 C 
ATOM      3  C   UNL     1      23.112  -2.831 -30.016  1.00  0.00     0.041 C 
BRANCH   2   4
ATOM      4  O   UNL     1      22.646  -2.958 -32.342  1.00  0.00    -0.391 OA
ATOM      5  H   UNL     1      22.589  -3.865 -31.941  1.00  0.00     0.211 HD
ENDBRANCH   2   4
ENDBRANCH   1   2
BRANCH   1   6
ATOM      6  C   UNL     1      20.904  -0.597 -32.460  1.00  0.00     0.181 C 
BRANCH   6   7
ATOM      7  C   UNL     1      20.038   0.679 -32.251  1.00  0.00     0.209 C 
BRANCH   7   8
ATOM      8  C   UNL     1      20.864   1.934 -32.339  1.00  0.00     0.258 C 
ATOM      9  O   UNL     1      21.048   2.478 -33.416  1.00  0.00    -0.300 OA
ENDBRANCH   7   8
BRANCH   7  10
ATOM     10  O   UNL     1      19.447   0.632 -30.978  1.00  0.00    -0.383 OA
ATOM     11  H   UNL     1      18.654   0.037 -31.048  1.00  0.00     0.211 HD
ENDBRANCH   7  10
ENDBRANCH   6   7
BRANCH   6  12
ATOM     12  O   UNL     1      21.999  -0.304 -33.296  1.00  0.00    -0.387 OA
ATOM     13  H   UNL     1      21.937  -0.891 -34.094  1.00  0.00     0.211 HD
ENDBRANCH   6  12
ENDBRANCH   1   6
BRANCH   1  14
ATOM     14  O   UNL     1      20.454  -2.108 -30.609  1.00  0.00    -0.388 OA
ATOM     15  H   UNL     1      20.360  -2.878 -31.229  1.00  0.00     0.211 HD
ENDBRANCH   1  14
TORSDOF 8
ENDMDL
MODEL 6
REMARK VINA RESULT:    -3.499     12.956     14.580
REMARK INTER + INTRA:          -5.256
REMARK INTER:                  -4.499
REMARK INTRA:                  -0.757
REMARK UNBOUND:                -0.529
REMARK SMILES C[C@@H](O)[C@H](O)[C@H](O)[C@@H](O)C=O
REMARK SMILES IDX 4 1 2 2 1 3 3 4 6 6 8 7 10 8 11 9 9 10 7 12 5 14
REMARK H PARENT 3 5 9 11 7 13 5 15
REMARK Flexibility Score: inf
ROOT
ATOM      1  C   UNL     1      35.032   5.363 -32.392  1.00  0.00     0.174 C 
ENDROOT
BRANCH   1   2
ATOM      2  C   UNL     1      35.546   6.581 -31.580  1.00  0.00     0.142 C 
ATOM      3  C   UNL     1      34.426   7.562 -31.218  1.00  0.00     0.041 C 
BRANCH   2   4
ATOM      4  O   UNL     1      36.123   6.124 -30.383  1.00  0.00    -0.391 OA
ATOM      5  H   UNL     1      36.860   6.750 -30.155  1.00  0.00     0.211 HD
ENDBRANCH   2   4
ENDBRANCH   1   2
BRANCH   1   6
ATOM      6  C   UNL     1      33.720   4.705 -31.860  1.00  0.00     0.181 C 
BRANCH   6   7
ATOM      7  C   UNL     1      33.086   3.650 -32.811  1.00  0.00     0.209 C 
BRANCH   7   8
ATOM      8  C   UNL     1      32.273   2.635 -32.054  1.00  0.00     0.258 C 
ATOM      9  O   UNL     1      32.798   1.622 -31.621  1.00  0.00    -0.300 OA
ENDBRANCH   7   8
BRANCH   7  10
ATOM     10  O   UNL     1      34.107   2.972 -33.496  1.00  0.00    -0.383 OA
ATOM     11  H   UNL     1      34.952   3.145 -33.002  1.00  0.00     0.211 HD
ENDBRANCH   7  10
ENDBRANCH   6   7
BRANCH   6  12
ATOM     12  O   UNL     1      33.978   4.127 -30.602  1.00  0.00    -0.387 OA
ATOM     13  H   UNL     1      33.812   4.819 -29.910  1.00  0.00     0.211 HD
ENDBRANCH   6  12
ENDBRANCH   1   6
BRANCH   1  14
ATOM     14  O   UNL     1      34.863   5.754 -33.733  1.00  0.00    -0.388 OA
ATOM     15  H   UNL     1      35.666   5.453 -34.234  1.00  0.00     0.211 HD
ENDBRANCH   1  14
TORSDOF 8
ENDMDL
MODEL 7
REMARK VINA RESULT:    -3.483      1.533      4.457
REMARK INTER + INTRA:          -5.234
REMARK INTER:                  -4.690
REMARK INTRA:                  -0.544
REMARK UNBOUND:                -0.529
REMARK SMILES C[C@@H](O)[C@H](O)[C@H](O)[C@@H](O)C=O
REMARK SMILES IDX 4 1 2 2 1 3 3 4 6 6 8 7 10 8 11 9 9 10 7 12 5 14
REMARK H PARENT 3 5 9 11 7 13 5 15
REMARK Flexibility Score: inf
ROOT
ATOM      1  C   UNL     1      23.817  -5.881 -30.650  1.00  0.00     0.174 C 
ENDROOT
BRANCH   1   2
ATOM      2  C   UNL     1      24.513  -5.382 -31.944  1.00  0.00     0.142 C 
ATOM      3  C   UNL     1      23.673  -4.350 -32.705  1.00  0.00     0.041 C 
BRANCH   2   4
ATOM      4  O   UNL     1      25.735  -4.777 -31.604  1.00  0.00    -0.391 OA
ATOM      5  H   UNL     1      26.438  -5.201 -32.164  1.00  0.00     0.211 HD
ENDBRANCH   2   4
ENDBRANCH   1   2
BRANCH   1   6
ATOM      6  C   UNL     1      24.762  -6.507 -29.578  1.00  0.00     0.181 C 
BRANCH   6   7
ATOM      7  C   UNL     1      24.622  -5.903 -28.151  1.00  0.00     0.209 C 
BRANCH   7   8
ATOM      8  C   UNL     1      25.747  -6.337 -27.249  1.00  0.00     0.258 C 
ATOM      9  O   UNL     1      25.861  -7.508 -26.924  1.00  0.00    -0.300 OA
ENDBRANCH   7   8
BRANCH   7  10
ATOM     10  O   UNL     1      23.413  -6.335 -27.583  1.00  0.00    -0.383 OA
ATOM     11  H   UNL     1      22.970  -6.919 -28.253  1.00  0.00     0.211 HD
ENDBRANCH   7  10
ENDBRANCH   6   7
BRANCH   6  12
ATOM     12  O   UNL     1      24.545  -7.898 -29.535  1.00  0.00    -0.387 OA
ATOM     13  H   UNL     1      23.564  -8.052 -29.524  1.00  0.00     0.211 HD
ENDBRANCH   6  12
ENDBRANCH   1   6
BRANCH   1  14
ATOM     14  O   UNL     1      23.094  -4.813 -30.087  1.00  0.00    -0.388 OA
ATOM     15  H   UNL     1      23.750  -4.205 -29.656  1.00  0.00     0.211 HD
ENDBRANCH   1  14
TORSDOF 8
ENDMDL
MODEL 8
REMARK VINA RESULT:    -3.479      4.345      5.582
REMARK INTER + INTRA:          -5.229
REMARK INTER:                  -4.661
REMARK INTRA:                  -0.567
REMARK UNBOUND:                -0.529
REMARK SMILES C[C@@H](O)[C@H](O)[C@H](O)[C@@H](O)C=O
REMARK SMILES IDX 4 1 2 2 1 3 3 4 6 6 8 7 10 8 11 9 9 10 7 12 5 14
REMARK H PARENT 3 5 9 11 7 13 5 15
REMARK Flexibility Score: inf
ROOT
ATOM      1  C   UNL     1      23.248  -2.230 -30.800  1.00  0.00     0.174 C 
ENDROOT
BRANCH   1   2
ATOM      2  C   UNL     1      23.729  -2.844 -32.141  1.00  0.00     0.142 C 
ATOM      3  C   UNL     1      25.226  -3.173 -32.136  1.00  0.00     0.041 C 
BRANCH   2   4
ATOM      4  O   UNL     1      23.027  -4.038 -32.377  1.00  0.00    -0.391 OA
ATOM      5  H   UNL     1      23.572  -4.579 -33.007  1.00  0.00     0.211 HD
ENDBRANCH   2   4
ENDBRANCH   1   2
BRANCH   1   6
ATOM      6  C   UNL     1      22.295  -1.001 -30.927  1.00  0.00     0.181 C 
BRANCH   6   7
ATOM      7  C   UNL     1      20.967  -1.279 -31.689  1.00  0.00     0.209 C 
BRANCH   7   8
ATOM      8  C   UNL     1      20.222  -0.007 -31.994  1.00  0.00     0.258 C 
ATOM      9  O   UNL     1      19.800   0.693 -31.088  1.00  0.00    -0.300 OA
ENDBRANCH   7   8
BRANCH   7  10
ATOM     10  O   UNL     1      20.142  -2.091 -30.895  1.00  0.00    -0.383 OA
ATOM     11  H   UNL     1      19.687  -1.495 -30.244  1.00  0.00     0.211 HD
ENDBRANCH   7  10
ENDBRANCH   6   7
BRANCH   6  12
ATOM     12  O   UNL     1      22.017  -0.505 -29.639  1.00  0.00    -0.387 OA
ATOM     13  H   UNL     1      22.831  -0.041 -29.309  1.00  0.00     0.211 HD
ENDBRANCH   6  12
ENDBRANCH   1   6
BRANCH   1  14
ATOM     14  O   UNL     1      22.630  -3.239 -30.038  1.00  0.00    -0.388 OA
ATOM     15  H   UNL     1      23.350  -3.823 -29.679  1.00  0.00     0.211 HD
ENDBRANCH   1  14
TORSDOF 8
ENDMDL
MODEL 9
REMARK VINA RESULT:    -3.477     13.380     14.956
REMARK INTER + INTRA:          -5.226
REMARK INTER:                  -4.837
REMARK INTRA:                  -0.389
REMARK UNBOUND:                -0.529
REMARK SMILES C[C@@H](O)[C@H](O)[C@H](O)[C@@H](O)C=O
REMARK SMILES IDX 4 1 2 2 1 3 3 4 6 6 8 7 10 8 11 9 9 10 7 12 5 14
REMARK H PARENT 3 5 9 11 7 13 5 15
REMARK Flexibility Score: inf
ROOT
ATOM      1  C   UNL     1      34.508   5.428 -31.409  1.00  0.00     0.174 C 
ENDROOT
BRANCH   1   2
ATOM      2  C   UNL     1      34.502   6.975 -31.525  1.00  0.00     0.142 C 
ATOM      3  C   UNL     1      33.679   7.646 -30.420  1.00  0.00     0.041 C 
BRANCH   2   4
ATOM      4  O   UNL     1      35.822   7.448 -31.426  1.00  0.00    -0.391 OA
ATOM      5  H   UNL     1      36.423   6.660 -31.505  1.00  0.00     0.211 HD
ENDBRANCH   2   4
ENDBRANCH   1   2
BRANCH   1   6
ATOM      6  C   UNL     1      34.807   4.656 -32.733  1.00  0.00     0.181 C 
BRANCH   6   7
ATOM      7  C   UNL     1      33.574   3.953 -33.372  1.00  0.00     0.209 C 
BRANCH   7   8
ATOM      8  C   UNL     1      32.332   4.145 -32.544  1.00  0.00     0.258 C 
ATOM      9  O   UNL     1      31.406   4.819 -32.967  1.00  0.00    -0.300 OA
ENDBRANCH   7   8
BRANCH   7  10
ATOM     10  O   UNL     1      33.828   2.576 -33.469  1.00  0.00    -0.383 OA
ATOM     11  H   UNL     1      33.935   2.234 -32.542  1.00  0.00     0.211 HD
ENDBRANCH   7  10
ENDBRANCH   6   7
BRANCH   6  12
ATOM     12  O   UNL     1      35.387   5.546 -33.658  1.00  0.00    -0.387 OA
ATOM     13  H   UNL     1      36.280   5.805 -33.311  1.00  0.00     0.211 HD
ENDBRANCH   6  12
ENDBRANCH   1   6
BRANCH   1  14
ATOM     14  O   UNL     1      35.433   5.053 -30.417  1.00  0.00    -0.388 OA
ATOM     15  H   UNL     1      35.424   4.062 -30.362  1.00  0.00     0.211 HD
ENDBRANCH   1  14
TORSDOF 8
ENDMDL
