MODEL 1
REMARK VINA RESULT:    -5.284      0.000      0.000
REMARK INTER + INTRA:          -5.943
REMARK INTER:                  -5.748
REMARK INTRA:                  -0.195
REMARK UNBOUND:                -0.195
REMARK SMILES CC(C)(C)[C@@H]1C=C[C@@H](O)CC1
REMARK SMILES IDX 5 1 11 2 10 3 8 4 7 5 6 6 2 7 1 8 3 9 4 10 9 11
REMARK H PARENT 9 12
REMARK Flexibility Score: inf
ROOT
ATOM      1  C   UNL     1      13.083  16.349  26.659  1.00  0.00     0.017 C 
ATOM      2  C   UNL     1      14.329  15.460  26.353  1.00  0.00     0.011 C 
ATOM      3  C   UNL     1      15.233  15.160  27.580  1.00  0.00     0.037 C 
ATOM      4  C   UNL     1      14.613  15.574  28.927  1.00  0.00     0.137 C 
ATOM      5  C   UNL     1      14.101  16.983  28.824  1.00  0.00     0.000 C 
ATOM      6  C   UNL     1      13.410  17.364  27.742  1.00  0.00    -0.025 C 
ENDROOT
BRANCH   1   7
ATOM      7  C   UNL     1      12.410  16.982  25.383  1.00  0.00    -0.032 C 
ATOM      8  C   UNL     1      11.959  15.867  24.409  1.00  0.00     0.011 C 
ATOM      9  C   UNL     1      11.144  17.772  25.797  1.00  0.00     0.011 C 
ATOM     10  C   UNL     1      13.364  17.938  24.627  1.00  0.00     0.011 C 
ENDBRANCH   1   7
BRANCH   4  11
ATOM     11  O   UNL     1      13.555  14.718  29.267  1.00  0.00    -0.389 OA
ATOM     12  H   UNL     1      13.180  15.051  30.123  1.00  0.00     0.211 HD
ENDBRANCH   4  11
TORSDOF 2
ENDMDL
MODEL 2
REMARK VINA RESULT:    -5.270      0.071      1.310
REMARK INTER + INTRA:          -5.928
REMARK INTER:                  -5.727
REMARK INTRA:                  -0.201
REMARK UNBOUND:                -0.195
REMARK SMILES CC(C)(C)[C@@H]1C=C[C@@H](O)CC1
REMARK SMILES IDX 5 1 11 2 10 3 8 4 7 5 6 6 2 7 1 8 3 9 4 10 9 11
REMARK H PARENT 9 12
REMARK Flexibility Score: inf
ROOT
ATOM      1  C   UNL     1      13.025  16.312  26.683  1.00  0.00     0.017 C 
ATOM      2  C   UNL     1      14.254  15.398  26.383  1.00  0.00     0.011 C 
ATOM      3  C   UNL     1      15.173  15.118  27.604  1.00  0.00     0.037 C 
ATOM      4  C   UNL     1      14.579  15.578  28.949  1.00  0.00     0.137 C 
ATOM      5  C   UNL     1      14.085  16.991  28.814  1.00  0.00     0.000 C 
ATOM      6  C   UNL     1      13.383  17.352  27.732  1.00  0.00    -0.025 C 
ENDROOT
BRANCH   1   7
ATOM      7  C   UNL     1      12.342  16.919  25.400  1.00  0.00    -0.032 C 
ATOM      8  C   UNL     1      11.096  17.746  25.798  1.00  0.00     0.011 C 
ATOM      9  C   UNL     1      13.325  17.881  24.690  1.00  0.00     0.011 C 
ATOM     10  C   UNL     1      11.904  15.828  24.393  1.00  0.00     0.011 C 
ENDBRANCH   1   7
BRANCH   4  11
ATOM     11  O   UNL     1      13.514  14.746  29.327  1.00  0.00    -0.389 OA
ATOM     12  H   UNL     1      13.879  13.825  29.389  1.00  0.00     0.211 HD
ENDBRANCH   4  11
TORSDOF 2
ENDMDL
MODEL 3
REMARK VINA RESULT:    -5.097      1.975      4.278
REMARK INTER + INTRA:          -5.739
REMARK INTER:                  -5.540
REMARK INTRA:                  -0.199
REMARK UNBOUND:                -0.195
REMARK SMILES CC(C)(C)[C@@H]1C=C[C@@H](O)CC1
REMARK SMILES IDX 5 1 11 2 10 3 8 4 7 5 6 6 2 7 1 8 3 9 4 10 9 11
REMARK H PARENT 9 12
REMARK Flexibility Score: inf
ROOT
ATOM      1  C   UNL     1      13.266  16.307  26.572  1.00  0.00     0.017 C 
ATOM      2  C   UNL     1      11.915  17.083  26.663  1.00  0.00     0.011 C 
ATOM      3  C   UNL     1      11.330  17.537  25.297  1.00  0.00     0.037 C 
ATOM      4  C   UNL     1      12.047  16.925  24.079  1.00  0.00     0.137 C 
ATOM      5  C   UNL     1      13.531  17.096  24.241  1.00  0.00     0.000 C 
ATOM      6  C   UNL     1      14.106  16.841  25.423  1.00  0.00    -0.025 C 
ENDROOT
BRANCH   1   7
ATOM      7  C   UNL     1      14.050  16.211  27.935  1.00  0.00    -0.032 C 
ATOM      8  C   UNL     1      14.212  17.618  28.559  1.00  0.00     0.011 C 
ATOM      9  C   UNL     1      13.246  15.351  28.941  1.00  0.00     0.011 C 
ATOM     10  C   UNL     1      15.456  15.586  27.764  1.00  0.00     0.011 C 
ENDBRANCH   1   7
BRANCH   4  11
ATOM     11  O   UNL     1      11.745  15.560  23.962  1.00  0.00    -0.389 OA
ATOM     12  H   UNL     1      11.709  15.356  22.992  1.00  0.00     0.211 HD
ENDBRANCH   4  11
TORSDOF 2
ENDMDL
MODEL 4
REMARK VINA RESULT:    -5.080      1.978      4.288
REMARK INTER + INTRA:          -5.721
REMARK INTER:                  -5.519
REMARK INTRA:                  -0.202
REMARK UNBOUND:                -0.195
REMARK SMILES CC(C)(C)[C@@H]1C=C[C@@H](O)CC1
REMARK SMILES IDX 5 1 11 2 10 3 8 4 7 5 6 6 2 7 1 8 3 9 4 10 9 11
REMARK H PARENT 9 12
REMARK Flexibility Score: inf
ROOT
ATOM      1  C   UNL     1      13.253  16.290  26.577  1.00  0.00     0.017 C 
ATOM      2  C   UNL     1      11.903  17.065  26.700  1.00  0.00     0.011 C 
ATOM      3  C   UNL     1      11.309  17.560  25.353  1.00  0.00     0.037 C 
ATOM      4  C   UNL     1      12.018  16.986  24.112  1.00  0.00     0.137 C 
ATOM      5  C   UNL     1      13.502  17.150  24.270  1.00  0.00     0.000 C 
ATOM      6  C   UNL     1      14.085  16.858  25.439  1.00  0.00    -0.025 C 
ENDROOT
BRANCH   1   7
ATOM      7  C   UNL     1      14.045  16.151  27.931  1.00  0.00    -0.032 C 
ATOM      8  C   UNL     1      15.429  15.506  27.677  1.00  0.00     0.011 C 
ATOM      9  C   UNL     1      14.295  17.554  28.537  1.00  0.00     0.011 C 
ATOM     10  C   UNL     1      13.287  15.292  28.972  1.00  0.00     0.011 C 
ENDBRANCH   1   7
BRANCH   4  11
ATOM     11  O   UNL     1      11.713  15.625  23.956  1.00  0.00    -0.389 OA
ATOM     12  H   UNL     1      10.819  15.580  23.526  1.00  0.00     0.211 HD
ENDBRANCH   4  11
TORSDOF 2
ENDMDL
MODEL 5
REMARK VINA RESULT:    -4.708      1.059      1.832
REMARK INTER + INTRA:          -5.316
REMARK INTER:                  -5.115
REMARK INTRA:                  -0.201
REMARK UNBOUND:                -0.195
REMARK SMILES CC(C)(C)[C@@H]1C=C[C@@H](O)CC1
REMARK SMILES IDX 5 1 11 2 10 3 8 4 7 5 6 6 2 7 1 8 3 9 4 10 9 11
REMARK H PARENT 9 12
REMARK Flexibility Score: inf
ROOT
ATOM      1  C   UNL     1      13.515  16.634  26.438  1.00  0.00     0.017 C 
ATOM      2  C   UNL     1      12.916  16.854  27.863  1.00  0.00     0.011 C 
ATOM      3  C   UNL     1      13.595  16.029  28.991  1.00  0.00     0.037 C 
ATOM      4  C   UNL     1      14.899  15.334  28.556  1.00  0.00     0.137 C 
ATOM      5  C   UNL     1      14.662  14.603  27.265  1.00  0.00     0.000 C 
ATOM      6  C   UNL     1      13.980  15.196  26.277  1.00  0.00    -0.025 C 
ENDROOT
BRANCH   1   7
ATOM      7  C   UNL     1      12.593  17.134  25.264  1.00  0.00    -0.032 C 
ATOM      8  C   UNL     1      12.099  15.933  24.423  1.00  0.00     0.011 C 
ATOM      9  C   UNL     1      11.341  17.835  25.845  1.00  0.00     0.011 C 
ATOM     10  C   UNL     1      13.321  18.125  24.323  1.00  0.00     0.011 C 
ENDBRANCH   1   7
BRANCH   4  11
ATOM     11  O   UNL     1      15.923  16.276  28.377  1.00  0.00    -0.389 OA
ATOM     12  H   UNL     1      16.558  16.156  29.131  1.00  0.00     0.211 HD
ENDBRANCH   4  11
TORSDOF 2
ENDMDL
MODEL 6
REMARK VINA RESULT:    -4.459      2.182      4.293
REMARK INTER + INTRA:          -5.045
REMARK INTER:                  -4.846
REMARK INTRA:                  -0.199
REMARK UNBOUND:                -0.195
REMARK SMILES CC(C)(C)[C@@H]1C=C[C@@H](O)CC1
REMARK SMILES IDX 5 1 11 2 10 3 8 4 7 5 6 6 2 7 1 8 3 9 4 10 9 11
REMARK H PARENT 9 12
REMARK Flexibility Score: inf
ROOT
ATOM      1  C   UNL     1      13.116  16.612  26.457  1.00  0.00     0.017 C 
ATOM      2  C   UNL     1      13.846  17.581  25.475  1.00  0.00     0.011 C 
ATOM      3  C   UNL     1      13.290  17.582  24.025  1.00  0.00     0.037 C 
ATOM      4  C   UNL     1      11.959  16.822  23.868  1.00  0.00     0.137 C 
ATOM      5  C   UNL     1      12.081  15.474  24.519  1.00  0.00     0.000 C 
ATOM      6  C   UNL     1      12.656  15.363  25.722  1.00  0.00    -0.025 C 
ENDROOT
BRANCH   1   7
ATOM      7  C   UNL     1      13.915  16.309  27.780  1.00  0.00    -0.032 C 
ATOM      8  C   UNL     1      15.291  15.686  27.442  1.00  0.00     0.011 C 
ATOM      9  C   UNL     1      14.181  17.628  28.544  1.00  0.00     0.011 C 
ATOM     10  C   UNL     1      13.155  15.340  28.718  1.00  0.00     0.011 C 
ENDBRANCH   1   7
BRANCH   4  11
ATOM     11  O   UNL     1      10.910  17.536  24.466  1.00  0.00    -0.389 OA
ATOM     12  H   UNL     1      10.485  16.925  25.122  1.00  0.00     0.211 HD
ENDBRANCH   4  11
TORSDOF 2
ENDMDL
MODEL 7
REMARK VINA RESULT:    -4.174      2.200      4.186
REMARK INTER + INTRA:          -4.735
REMARK INTER:                  -4.536
REMARK INTRA:                  -0.199
REMARK UNBOUND:                -0.195
REMARK SMILES CC(C)(C)[C@@H]1C=C[C@@H](O)CC1
REMARK SMILES IDX 5 1 11 2 10 3 8 4 7 5 6 6 2 7 1 8 3 9 4 10 9 11
REMARK H PARENT 9 12
REMARK Flexibility Score: inf
ROOT
ATOM      1  C   UNL     1      13.352  16.694  26.525  1.00  0.00     0.017 C 
ATOM      2  C   UNL     1      13.095  15.529  25.519  1.00  0.00     0.011 C 
ATOM      3  C   UNL     1      12.105  15.864  24.370  1.00  0.00     0.037 C 
ATOM      4  C   UNL     1      11.746  17.359  24.274  1.00  0.00     0.137 C 
ATOM      5  C   UNL     1      11.359  17.862  25.636  1.00  0.00     0.000 C 
ATOM      6  C   UNL     1      12.091  17.524  26.705  1.00  0.00    -0.025 C 
ENDROOT
BRANCH   1   7
ATOM      7  C   UNL     1      14.011  16.244  27.883  1.00  0.00    -0.032 C 
ATOM      8  C   UNL     1      13.109  15.208  28.596  1.00  0.00     0.011 C 
ATOM      9  C   UNL     1      15.369  15.556  27.602  1.00  0.00     0.011 C 
ATOM     10  C   UNL     1      14.248  17.433  28.845  1.00  0.00     0.011 C 
ENDBRANCH   1   7
BRANCH   4  11
ATOM     11  O   UNL     1      12.838  18.099  23.796  1.00  0.00    -0.389 OA
ATOM     12  H   UNL     1      12.974  18.850  24.430  1.00  0.00     0.211 HD
ENDBRANCH   4  11
TORSDOF 2
ENDMDL
MODEL 8
REMARK VINA RESULT:    -3.240      1.892      4.337
REMARK INTER + INTRA:          -3.720
REMARK INTER:                  -3.523
REMARK INTRA:                  -0.196
REMARK UNBOUND:                -0.195
REMARK SMILES CC(C)(C)[C@@H]1C=C[C@@H](O)CC1
REMARK SMILES IDX 5 1 11 2 10 3 8 4 7 5 6 6 2 7 1 8 3 9 4 10 9 11
REMARK H PARENT 9 12
REMARK Flexibility Score: inf
ROOT
ATOM      1  C   UNL     1      13.964  15.421  27.148  1.00  0.00     0.017 C 
ATOM      2  C   UNL     1      12.628  16.150  27.496  1.00  0.00     0.011 C 
ATOM      3  C   UNL     1      11.961  16.893  26.306  1.00  0.00     0.037 C 
ATOM      4  C   UNL     1      12.594  16.574  24.939  1.00  0.00     0.137 C 
ATOM      5  C   UNL     1      14.087  16.712  25.040  1.00  0.00     0.000 C 
ATOM      6  C   UNL     1      14.734  16.203  26.096  1.00  0.00    -0.025 C 
ENDROOT
BRANCH   1   7
ATOM      7  C   UNL     1      14.832  15.027  28.403  1.00  0.00    -0.032 C 
ATOM      8  C   UNL     1      15.361  13.581  28.254  1.00  0.00     0.011 C 
ATOM      9  C   UNL     1      16.063  15.960  28.500  1.00  0.00     0.011 C 
ATOM     10  C   UNL     1      14.033  15.124  29.725  1.00  0.00     0.011 C 
ENDBRANCH   1   7
BRANCH   4  11
ATOM     11  O   UNL     1      12.273  15.267  24.540  1.00  0.00    -0.389 OA
ATOM     12  H   UNL     1      11.286  15.233  24.441  1.00  0.00     0.211 HD
ENDBRANCH   4  11
TORSDOF 2
ENDMDL
MODEL 9
REMARK VINA RESULT:    -2.637      1.753      4.253
REMARK INTER + INTRA:          -3.063
REMARK INTER:                  -2.866
REMARK INTRA:                  -0.197
REMARK UNBOUND:                -0.195
REMARK SMILES CC(C)(C)[C@@H]1C=C[C@@H](O)CC1
REMARK SMILES IDX 5 1 11 2 10 3 8 4 7 5 6 6 2 7 1 8 3 9 4 10 9 11
REMARK H PARENT 9 12
REMARK Flexibility Score: inf
ROOT
ATOM      1  C   UNL     1      13.769  15.978  27.720  1.00  0.00     0.017 C 
ATOM      2  C   UNL     1      14.301  17.314  27.114  1.00  0.00     0.011 C 
ATOM      3  C   UNL     1      13.439  17.898  25.962  1.00  0.00     0.037 C 
ATOM      4  C   UNL     1      12.078  17.198  25.787  1.00  0.00     0.137 C 
ATOM      5  C   UNL     1      12.287  15.711  25.757  1.00  0.00     0.000 C 
ATOM      6  C   UNL     1      13.110  15.134  26.642  1.00  0.00    -0.025 C 
ENDROOT
BRANCH   1   7
ATOM      7  C   UNL     1      14.828  15.189  28.580  1.00  0.00    -0.032 C 
ATOM      8  C   UNL     1      14.224  14.805  29.951  1.00  0.00     0.011 C 
ATOM      9  C   UNL     1      15.210  13.873  27.859  1.00  0.00     0.011 C 
ATOM     10  C   UNL     1      16.117  16.011  28.824  1.00  0.00     0.011 C 
ENDBRANCH   1   7
BRANCH   4  11
ATOM     11  O   UNL     1      11.216  17.526  26.844  1.00  0.00    -0.389 OA
ATOM     12  H   UNL     1      10.349  17.787  26.437  1.00  0.00     0.211 HD
ENDBRANCH   4  11
TORSDOF 2
ENDMDL
