MODEL 1
REMARK VINA RESULT:     0.856      0.000      0.000
REMARK INTER + INTRA:           0.635
REMARK INTER:                   0.906
REMARK INTRA:                  -0.271
REMARK UNBOUND:                -0.271
REMARK SMILES C=C1CC[C@@H](C(C)C)[C@@H]2C=C(C)CC[C@H]12
REMARK SMILES IDX 12 1 11 2 10 3 9 4 15 5 14 6 13 7 2 8 1 9 3 10 4 11 5 12
REMARK SMILES IDX 6 13 7 14 8 15
REMARK H PARENT
REMARK Flexibility Score: inf
ROOT
ATOM      1  C   UNL     1     155.118 140.307 162.609  1.00  0.00     0.039 C 
ATOM      2  C   UNL     1     154.130 139.182 162.763  1.00  0.00    -0.077 C 
ATOM      3  C   UNL     1     153.420 138.783 161.687  1.00  0.00    -0.024 C 
ATOM      4  C   UNL     1     152.364 137.685 161.735  1.00  0.00     0.022 C 
ATOM      5  C   UNL     1     152.541 136.756 162.975  1.00  0.00     0.022 C 
ATOM      6  C   UNL     1     152.768 137.631 164.225  1.00  0.00     0.013 C 
ATOM      7  C   UNL     1     154.044 138.464 164.091  1.00  0.00     0.031 C 
ATOM      8  C   UNL     1     153.644 135.725 162.767  1.00  0.00    -0.074 C 
ATOM      9  C   UNL     1     154.002 134.875 163.746  1.00  0.00     0.008 C 
ATOM     10  C   UNL     1     154.216 135.561 161.385  1.00  0.00     0.031 C 
ATOM     11  C   UNL     1     153.051 135.555 160.399  1.00  0.00     0.009 C 
ATOM     12  C   UNL     1     152.301 136.918 160.355  1.00  0.00    -0.001 C 
ENDROOT
BRANCH  12  13
ATOM     13  C   UNL     1     150.833 136.771 159.824  1.00  0.00    -0.014 C 
ATOM     14  C   UNL     1     150.778 136.407 158.326  1.00  0.00     0.007 C 
ATOM     15  C   UNL     1     150.028 138.073 160.022  1.00  0.00     0.007 C 
ENDBRANCH  12  13
TORSDOF 1
ENDMDL
MODEL 2
REMARK VINA RESULT:     2.750     13.541     16.534
REMARK INTER + INTRA:           2.640
REMARK INTER:                   2.958
REMARK INTRA:                  -0.318
REMARK UNBOUND:                -0.271
REMARK SMILES C=C1CC[C@@H](C(C)C)[C@@H]2C=C(C)CC[C@H]12
REMARK SMILES IDX 12 1 11 2 10 3 9 4 15 5 14 6 13 7 2 8 1 9 3 10 4 11 5 12
REMARK SMILES IDX 6 13 7 14 8 15
REMARK H PARENT
REMARK Flexibility Score: inf
ROOT
ATOM      1  C   UNL     1     134.895 138.100 158.922  1.00  0.00     0.039 C 
ATOM      2  C   UNL     1     135.580 137.175 159.892  1.00  0.00    -0.077 C 
ATOM      3  C   UNL     1     136.712 137.585 160.500  1.00  0.00    -0.024 C 
ATOM      4  C   UNL     1     137.511 136.718 161.465  1.00  0.00     0.022 C 
ATOM      5  C   UNL     1     136.655 135.555 162.055  1.00  0.00     0.022 C 
ATOM      6  C   UNL     1     135.879 134.877 160.907  1.00  0.00     0.013 C 
ATOM      7  C   UNL     1     134.917 135.859 160.235  1.00  0.00     0.031 C 
ATOM      8  C   UNL     1     135.747 136.027 163.185  1.00  0.00    -0.074 C 
ATOM      9  C   UNL     1     134.877 135.191 163.779  1.00  0.00     0.008 C 
ATOM     10  C   UNL     1     135.960 137.408 163.742  1.00  0.00     0.031 C 
ATOM     11  C   UNL     1     137.462 137.613 163.913  1.00  0.00     0.009 C 
ATOM     12  C   UNL     1     138.222 137.615 162.555  1.00  0.00    -0.001 C 
ENDROOT
BRANCH  12  13
ATOM     13  C   UNL     1     139.739 137.255 162.723  1.00  0.00    -0.014 C 
ATOM     14  C   UNL     1     140.130 135.966 161.972  1.00  0.00     0.007 C 
ATOM     15  C   UNL     1     140.113 137.067 164.209  1.00  0.00     0.007 C 
ENDBRANCH  12  13
TORSDOF 1
ENDMDL
MODEL 3
REMARK VINA RESULT:     3.529     19.839     22.394
REMARK INTER + INTRA:           3.465
REMARK INTER:                   3.735
REMARK INTRA:                  -0.270
REMARK UNBOUND:                -0.271
REMARK SMILES C=C1CC[C@@H](C(C)C)[C@@H]2C=C(C)CC[C@H]12
REMARK SMILES IDX 12 1 11 2 10 3 9 4 15 5 14 6 13 7 2 8 1 9 3 10 4 11 5 12
REMARK SMILES IDX 6 13 7 14 8 15
REMARK H PARENT
REMARK Flexibility Score: inf
ROOT
ATOM      1  C   UNL     1     135.388 149.842 162.233  1.00  0.00     0.039 C 
ATOM      2  C   UNL     1     136.318 150.966 162.600  1.00  0.00    -0.077 C 
ATOM      3  C   UNL     1     137.095 151.514 161.641  1.00  0.00    -0.024 C 
ATOM      4  C   UNL     1     138.102 152.626 161.906  1.00  0.00     0.022 C 
ATOM      5  C   UNL     1     137.794 153.392 163.229  1.00  0.00     0.022 C 
ATOM      6  C   UNL     1     137.503 152.365 164.343  1.00  0.00     0.013 C 
ATOM      7  C   UNL     1     136.273 151.520 164.007  1.00  0.00     0.031 C 
ATOM      8  C   UNL     1     136.672 154.410 163.056  1.00  0.00    -0.074 C 
ATOM      9  C   UNL     1     136.208 155.124 164.096  1.00  0.00     0.008 C 
ATOM     10  C   UNL     1     136.205 154.725 161.661  1.00  0.00     0.031 C 
ATOM     11  C   UNL     1     137.442 154.883 160.782  1.00  0.00     0.009 C 
ATOM     12  C   UNL     1     138.244 153.557 160.638  1.00  0.00    -0.001 C 
ENDROOT
BRANCH  12  13
ATOM     13  C   UNL     1     139.742 153.809 160.250  1.00  0.00    -0.014 C 
ATOM     14  C   UNL     1     139.900 154.357 158.816  1.00  0.00     0.007 C 
ATOM     15  C   UNL     1     140.577 152.514 160.353  1.00  0.00     0.007 C 
ENDBRANCH  12  13
TORSDOF 1
ENDMDL
