MODEL 1
REMARK VINA RESULT:     0.006      0.000      0.000
REMARK INTER + INTRA:          -1.647
REMARK INTER:                   0.014
REMARK INTRA:                  -1.661
REMARK UNBOUND:                -1.661
REMARK SMILES CCCCCCCCCCCCCCCCCCCCCCCCCCCC(=O)[O-]
REMARK SMILES IDX 15 1 16 2 17 3 18 4 19 5 20 6 21 7 22 8 23 9 24 10 25 11
REMARK SMILES IDX 26 12 27 13 28 14 29 15 30 16 14 17 13 18 12 19 11 20 10 21
REMARK SMILES IDX 9 22 8 23 7 24 6 25 5 26 4 27 3 28 2 29 1 30
REMARK H PARENT
REMARK Flexibility Score: inf
ROOT
ATOM      1  C   UNL     1      13.831  13.209   7.582  1.00  0.00     0.000 C 
ENDROOT
BRANCH   1   2
ATOM      2  C   UNL     1      13.522  12.210   8.708  1.00  0.00     0.000 C 
BRANCH   2   3
ATOM      3  C   UNL     1      14.203  12.574  10.036  1.00  0.00     0.000 C 
BRANCH   3   4
ATOM      4  C   UNL     1      14.676  11.311  10.772  1.00  0.00     0.000 C 
BRANCH   4   5
ATOM      5  C   UNL     1      16.111  11.436  11.311  1.00  0.00     0.000 C 
BRANCH   5   6
ATOM      6  C   UNL     1      16.207  12.398  12.509  1.00  0.00     0.000 C 
BRANCH   6   7
ATOM      7  C   UNL     1      17.004  13.674  12.187  1.00  0.00     0.000 C 
BRANCH   7   8
ATOM      8  C   UNL     1      16.183  14.957  12.411  1.00  0.00     0.000 C 
BRANCH   8   9
ATOM      9  C   UNL     1      17.010  16.090  13.045  1.00  0.00     0.000 C 
BRANCH   9  10
ATOM     10  C   UNL     1      17.011  17.419  12.261  1.00  0.00     0.000 C 
BRANCH  10  11
ATOM     11  C   UNL     1      16.431  18.631  13.018  1.00  0.00     0.000 C 
BRANCH  11  12
ATOM     12  C   UNL     1      16.229  19.894  12.161  1.00  0.00     0.006 C 
BRANCH  12  13
ATOM     13  C   UNL     1      15.105  19.737  11.128  1.00  0.00     0.053 C 
BRANCH  13  14
ATOM     14  C   UNL     1      13.793  20.158  11.712  1.00  0.00     0.041 C 
ATOM     15  O   UNL     1      13.076  19.326  12.327  1.00  0.00    -0.550 OA
ATOM     16  O   UNL     1      13.382  21.482  11.618  1.00  0.00    -0.550 OA
ENDBRANCH  13  14
ENDBRANCH  12  13
ENDBRANCH  11  12
ENDBRANCH  10  11
ENDBRANCH   9  10
ENDBRANCH   8   9
ENDBRANCH   7   8
ENDBRANCH   6   7
ENDBRANCH   5   6
ENDBRANCH   4   5
ENDBRANCH   3   4
ENDBRANCH   2   3
ENDBRANCH   1   2
BRANCH   1  17
ATOM     17  C   UNL     1      14.493  14.500   8.100  1.00  0.00     0.000 C 
BRANCH  17  18
ATOM     18  C   UNL     1      16.035  14.446   8.060  1.00  0.00     0.000 C 
BRANCH  18  19
ATOM     19  C   UNL     1      16.702  15.762   7.614  1.00  0.00     0.000 C 
BRANCH  19  20
ATOM     20  C   UNL     1      15.903  16.595   6.598  1.00  0.00     0.000 C 
BRANCH  20  21
ATOM     21  C   UNL     1      16.509  16.553   5.183  1.00  0.00     0.000 C 
BRANCH  21  22
ATOM     22  C   UNL     1      17.085  17.911   4.745  1.00  0.00    -0.000 C 
BRANCH  22  23
ATOM     23  C   UNL     1      17.125  18.064   3.214  1.00  0.00    -0.000 C 
BRANCH  23  24
ATOM     24  C   UNL     1      15.818  17.625   2.537  1.00  0.00    -0.000 C 
BRANCH  24  25
ATOM     25  C   UNL     1      15.414  18.545   1.371  1.00  0.00    -0.000 C 
BRANCH  25  26
ATOM     26  C   UNL     1      16.566  19.474   0.946  1.00  0.00    -0.000 C 
BRANCH  26  27
ATOM     27  C   UNL     1      16.405  20.008  -0.490  1.00  0.00    -0.000 C 
BRANCH  27  28
ATOM     28  C   UNL     1      15.495  21.247  -0.544  1.00  0.00    -0.000 C 
BRANCH  28  29
ATOM     29  C   UNL     1      14.182  20.975  -1.297  1.00  0.00    -0.003 C 
ATOM     30  C   UNL     1      13.089  20.435  -0.373  1.00  0.00     0.004 C 
ENDBRANCH  28  29
ENDBRANCH  27  28
ENDBRANCH  26  27
ENDBRANCH  25  26
ENDBRANCH  24  25
ENDBRANCH  23  24
ENDBRANCH  22  23
ENDBRANCH  21  22
ENDBRANCH  20  21
ENDBRANCH  19  20
ENDBRANCH  18  19
ENDBRANCH  17  18
ENDBRANCH   1  17
TORSDOF 26
ENDMDL
MODEL 2
REMARK VINA RESULT:     0.030      2.507      4.551
REMARK INTER + INTRA:          -1.585
REMARK INTER:                   0.720
REMARK INTRA:                  -2.305
REMARK UNBOUND:                -1.661
REMARK SMILES CCCCCCCCCCCCCCCCCCCCCCCCCCCC(=O)[O-]
REMARK SMILES IDX 15 1 16 2 17 3 18 4 19 5 20 6 21 7 22 8 23 9 24 10 25 11
REMARK SMILES IDX 26 12 27 13 28 14 29 15 30 16 14 17 13 18 12 19 11 20 10 21
REMARK SMILES IDX 9 22 8 23 7 24 6 25 5 26 4 27 3 28 2 29 1 30
REMARK H PARENT
REMARK Flexibility Score: inf
ROOT
ATOM      1  C   UNL     1      13.501  13.875   6.388  1.00  0.00     0.000 C 
ENDROOT
BRANCH   1   2
ATOM      2  C   UNL     1      14.541  13.347   7.389  1.00  0.00     0.000 C 
BRANCH   2   3
ATOM      3  C   UNL     1      15.977  13.764   7.037  1.00  0.00     0.000 C 
BRANCH   3   4
ATOM      4  C   UNL     1      16.516  14.779   8.056  1.00  0.00     0.000 C 
BRANCH   4   5
ATOM      5  C   UNL     1      16.387  16.235   7.575  1.00  0.00     0.000 C 
BRANCH   5   6
ATOM      6  C   UNL     1      15.219  16.975   8.251  1.00  0.00     0.000 C 
BRANCH   6   7
ATOM      7  C   UNL     1      15.687  17.995   9.303  1.00  0.00     0.000 C 
BRANCH   7   8
ATOM      8  C   UNL     1      16.538  17.351  10.413  1.00  0.00     0.000 C 
BRANCH   8   9
ATOM      9  C   UNL     1      16.185  17.878  11.816  1.00  0.00     0.000 C 
BRANCH   9  10
ATOM     10  C   UNL     1      16.266  16.834  12.948  1.00  0.00     0.000 C 
BRANCH  10  11
ATOM     11  C   UNL     1      16.948  15.503  12.569  1.00  0.00     0.000 C 
BRANCH  11  12
ATOM     12  C   UNL     1      16.029  14.268  12.616  1.00  0.00     0.006 C 
BRANCH  12  13
ATOM     13  C   UNL     1      16.063  13.453  11.316  1.00  0.00     0.053 C 
BRANCH  13  14
ATOM     14  C   UNL     1      14.965  12.436  11.306  1.00  0.00     0.041 C 
ATOM     15  O   UNL     1      13.844  12.718  10.808  1.00  0.00    -0.550 OA
ATOM     16  O   UNL     1      15.193  11.160  11.806  1.00  0.00    -0.550 OA
ENDBRANCH  13  14
ENDBRANCH  12  13
ENDBRANCH  11  12
ENDBRANCH  10  11
ENDBRANCH   9  10
ENDBRANCH   8   9
ENDBRANCH   7   8
ENDBRANCH   6   7
ENDBRANCH   5   6
ENDBRANCH   4   5
ENDBRANCH   3   4
ENDBRANCH   2   3
ENDBRANCH   1   2
BRANCH   1  17
ATOM     17  C   UNL     1      14.065  14.977   5.472  1.00  0.00     0.000 C 
BRANCH  17  18
ATOM     18  C   UNL     1      13.029  15.511   4.460  1.00  0.00     0.000 C 
BRANCH  18  19
ATOM     19  C   UNL     1      13.406  16.863   3.823  1.00  0.00     0.000 C 
BRANCH  19  20
ATOM     20  C   UNL     1      14.842  16.958   3.280  1.00  0.00     0.000 C 
BRANCH  20  21
ATOM     21  C   UNL     1      14.982  17.982   2.138  1.00  0.00     0.000 C 
BRANCH  21  22
ATOM     22  C   UNL     1      16.437  18.427   1.915  1.00  0.00    -0.000 C 
BRANCH  22  23
ATOM     23  C   UNL     1      16.683  18.936   0.484  1.00  0.00    -0.000 C 
BRANCH  23  24
ATOM     24  C   UNL     1      17.124  20.406   0.441  1.00  0.00    -0.000 C 
BRANCH  24  25
ATOM     25  C   UNL     1      15.939  21.379   0.307  1.00  0.00    -0.000 C 
BRANCH  25  26
ATOM     26  C   UNL     1      15.517  21.572  -1.161  1.00  0.00    -0.000 C 
BRANCH  26  27
ATOM     27  C   UNL     1      14.209  20.838  -1.509  1.00  0.00    -0.000 C 
BRANCH  27  28
ATOM     28  C   UNL     1      13.507  20.288  -0.255  1.00  0.00    -0.000 C 
BRANCH  28  29
ATOM     29  C   UNL     1      12.760  18.973  -0.534  1.00  0.00    -0.003 C 
ATOM     30  C   UNL     1      11.472  19.197  -1.328  1.00  0.00     0.004 C 
ENDBRANCH  28  29
ENDBRANCH  27  28
ENDBRANCH  26  27
ENDBRANCH  25  26
ENDBRANCH  24  25
ENDBRANCH  23  24
ENDBRANCH  22  23
ENDBRANCH  21  22
ENDBRANCH  20  21
ENDBRANCH  19  20
ENDBRANCH  18  19
ENDBRANCH  17  18
ENDBRANCH   1  17
TORSDOF 26
ENDMDL
MODEL 3
REMARK VINA RESULT:     0.266      1.260      2.271
REMARK INTER + INTRA:          -0.992
REMARK INTER:                   0.125
REMARK INTRA:                  -1.116
REMARK UNBOUND:                -1.661
REMARK SMILES CCCCCCCCCCCCCCCCCCCCCCCCCCCC(=O)[O-]
REMARK SMILES IDX 15 1 16 2 17 3 18 4 19 5 20 6 21 7 22 8 23 9 24 10 25 11
REMARK SMILES IDX 26 12 27 13 28 14 29 15 30 16 14 17 13 18 12 19 11 20 10 21
REMARK SMILES IDX 9 22 8 23 7 24 6 25 5 26 4 27 3 28 2 29 1 30
REMARK H PARENT
REMARK Flexibility Score: inf
ROOT
ATOM      1  C   UNL     1      14.858  15.548   8.536  1.00  0.00     0.000 C 
ENDROOT
BRANCH   1   2
ATOM      2  C   UNL     1      14.431  14.554   7.443  1.00  0.00     0.000 C 
BRANCH   2   3
ATOM      3  C   UNL     1      15.014  13.148   7.652  1.00  0.00     0.000 C 
BRANCH   3   4
ATOM      4  C   UNL     1      15.743  13.054   9.001  1.00  0.00     0.000 C 
BRANCH   4   5
ATOM      5  C   UNL     1      14.925  12.310  10.070  1.00  0.00     0.000 C 
BRANCH   5   6
ATOM      6  C   UNL     1      14.114  13.268  10.961  1.00  0.00     0.000 C 
BRANCH   6   7
ATOM      7  C   UNL     1      14.810  13.572  12.299  1.00  0.00     0.000 C 
BRANCH   7   8
ATOM      8  C   UNL     1      16.344  13.490  12.200  1.00  0.00     0.000 C 
BRANCH   8   9
ATOM      9  C   UNL     1      17.049  14.698  12.843  1.00  0.00     0.000 C 
BRANCH   9  10
ATOM     10  C   UNL     1      16.145  15.919  13.111  1.00  0.00     0.000 C 
BRANCH  10  11
ATOM     11  C   UNL     1      16.814  17.293  12.902  1.00  0.00     0.000 C 
BRANCH  11  12
ATOM     12  C   UNL     1      15.848  18.492  12.913  1.00  0.00     0.006 C 
BRANCH  12  13
ATOM     13  C   UNL     1      15.057  18.630  11.605  1.00  0.00     0.053 C 
BRANCH  13  14
ATOM     14  C   UNL     1      15.428  19.896  10.899  1.00  0.00     0.041 C 
ATOM     15  O   UNL     1      16.389  19.911  10.085  1.00  0.00    -0.550 OA
ATOM     16  O   UNL     1      14.684  21.051  11.104  1.00  0.00    -0.550 OA
ENDBRANCH  13  14
ENDBRANCH  12  13
ENDBRANCH  11  12
ENDBRANCH  10  11
ENDBRANCH   9  10
ENDBRANCH   8   9
ENDBRANCH   7   8
ENDBRANCH   6   7
ENDBRANCH   5   6
ENDBRANCH   4   5
ENDBRANCH   3   4
ENDBRANCH   2   3
ENDBRANCH   1   2
BRANCH   1  17
ATOM     17  C   UNL     1      15.891  16.574   8.033  1.00  0.00     0.000 C 
BRANCH  17  18
ATOM     18  C   UNL     1      17.124  15.918   7.377  1.00  0.00     0.000 C 
BRANCH  18  19
ATOM     19  C   UNL     1      17.091  15.912   5.836  1.00  0.00     0.000 C 
BRANCH  19  20
ATOM     20  C   UNL     1      17.063  17.298   5.171  1.00  0.00     0.000 C 
BRANCH  20  21
ATOM     21  C   UNL     1      17.125  17.225   3.634  1.00  0.00     0.000 C 
BRANCH  21  22
ATOM     22  C   UNL     1      16.554  18.483   2.957  1.00  0.00    -0.000 C 
BRANCH  22  23
ATOM     23  C   UNL     1      16.850  18.523   1.447  1.00  0.00    -0.000 C 
BRANCH  23  24
ATOM     24  C   UNL     1      15.868  19.412   0.671  1.00  0.00    -0.000 C 
BRANCH  24  25
ATOM     25  C   UNL     1      16.575  20.521  -0.130  1.00  0.00    -0.000 C 
BRANCH  25  26
ATOM     26  C   UNL     1      15.572  21.499  -0.767  1.00  0.00    -0.000 C 
BRANCH  26  27
ATOM     27  C   UNL     1      14.397  20.785  -1.459  1.00  0.00    -0.000 C 
BRANCH  27  28
ATOM     28  C   UNL     1      13.219  20.550  -0.498  1.00  0.00    -0.000 C 
BRANCH  28  29
ATOM     29  C   UNL     1      12.705  19.101  -0.548  1.00  0.00    -0.003 C 
ATOM     30  C   UNL     1      11.618  18.910  -1.606  1.00  0.00     0.004 C 
ENDBRANCH  28  29
ENDBRANCH  27  28
ENDBRANCH  26  27
ENDBRANCH  25  26
ENDBRANCH  24  25
ENDBRANCH  23  24
ENDBRANCH  22  23
ENDBRANCH  21  22
ENDBRANCH  20  21
ENDBRANCH  19  20
ENDBRANCH  18  19
ENDBRANCH  17  18
ENDBRANCH   1  17
TORSDOF 26
ENDMDL
MODEL 4
REMARK VINA RESULT:     0.778      3.832     11.156
REMARK INTER + INTRA:           0.299
REMARK INTER:                   2.260
REMARK INTRA:                  -1.961
REMARK UNBOUND:                -1.661
REMARK SMILES CCCCCCCCCCCCCCCCCCCCCCCCCCCC(=O)[O-]
REMARK SMILES IDX 15 1 16 2 17 3 18 4 19 5 20 6 21 7 22 8 23 9 24 10 25 11
REMARK SMILES IDX 26 12 27 13 28 14 29 15 30 16 14 17 13 18 12 19 11 20 10 21
REMARK SMILES IDX 9 22 8 23 7 24 6 25 5 26 4 27 3 28 2 29 1 30
REMARK H PARENT
REMARK Flexibility Score: inf
ROOT
ATOM      1  C   UNL     1      14.286  16.598   5.380  1.00  0.00     0.000 C 
ENDROOT
BRANCH   1   2
ATOM      2  C   UNL     1      14.098  16.991   3.906  1.00  0.00     0.000 C 
BRANCH   2   3
ATOM      3  C   UNL     1      15.422  17.331   3.204  1.00  0.00     0.000 C 
BRANCH   3   4
ATOM      4  C   UNL     1      15.169  18.160   1.935  1.00  0.00     0.000 C 
BRANCH   4   5
ATOM      5  C   UNL     1      16.467  18.549   1.208  1.00  0.00     0.000 C 
BRANCH   5   6
ATOM      6  C   UNL     1      16.280  19.763   0.281  1.00  0.00     0.000 C 
BRANCH   6   7
ATOM      7  C   UNL     1      16.910  21.048   0.845  1.00  0.00     0.000 C 
BRANCH   7   8
ATOM      8  C   UNL     1      17.124  22.125  -0.234  1.00  0.00     0.000 C 
BRANCH   8   9
ATOM      9  C   UNL     1      16.629  21.684  -1.623  1.00  0.00     0.000 C 
BRANCH   9  10
ATOM     10  C   UNL     1      15.153  22.011  -1.928  1.00  0.00     0.000 C 
BRANCH  10  11
ATOM     11  C   UNL     1      14.176  20.824  -1.802  1.00  0.00     0.000 C 
BRANCH  11  12
ATOM     12  C   UNL     1      12.982  21.065  -0.861  1.00  0.00     0.006 C 
BRANCH  12  13
ATOM     13  C   UNL     1      12.546  19.796  -0.116  1.00  0.00     0.053 C 
BRANCH  13  14
ATOM     14  C   UNL     1      11.899  18.831  -1.058  1.00  0.00     0.041 C 
ATOM     15  O   UNL     1      10.882  19.173  -1.718  1.00  0.00    -0.550 OA
ATOM     16  O   UNL     1      12.444  17.567  -1.244  1.00  0.00    -0.550 OA
ENDBRANCH  13  14
ENDBRANCH  12  13
ENDBRANCH  11  12
ENDBRANCH  10  11
ENDBRANCH   9  10
ENDBRANCH   8   9
ENDBRANCH   7   8
ENDBRANCH   6   7
ENDBRANCH   5   6
ENDBRANCH   4   5
ENDBRANCH   3   4
ENDBRANCH   2   3
ENDBRANCH   1   2
BRANCH   1  17
ATOM     17  C   UNL     1      15.752  16.278   5.727  1.00  0.00     0.000 C 
BRANCH  17  18
ATOM     18  C   UNL     1      15.926  15.716   7.153  1.00  0.00     0.000 C 
BRANCH  18  19
ATOM     19  C   UNL     1      17.114  16.320   7.930  1.00  0.00     0.000 C 
BRANCH  19  20
ATOM     20  C   UNL     1      16.868  17.714   8.530  1.00  0.00     0.000 C 
BRANCH  20  21
ATOM     21  C   UNL     1      16.140  17.661   9.886  1.00  0.00     0.000 C 
BRANCH  21  22
ATOM     22  C   UNL     1      17.065  17.238  11.040  1.00  0.00    -0.000 C 
BRANCH  22  23
ATOM     23  C   UNL     1      16.324  17.158  12.386  1.00  0.00    -0.000 C 
BRANCH  23  24
ATOM     24  C   UNL     1      15.929  15.723  12.764  1.00  0.00    -0.000 C 
BRANCH  24  25
ATOM     25  C   UNL     1      16.916  14.672  12.225  1.00  0.00    -0.000 C 
BRANCH  25  26
ATOM     26  C   UNL     1      16.196  13.536  11.476  1.00  0.00    -0.000 C 
BRANCH  26  27
ATOM     27  C   UNL     1      15.207  14.052  10.414  1.00  0.00    -0.000 C 
BRANCH  27  28
ATOM     28  C   UNL     1      14.744  12.933   9.466  1.00  0.00    -0.000 C 
BRANCH  28  29
ATOM     29  C   UNL     1      14.043  13.482   8.212  1.00  0.00    -0.003 C 
ATOM     30  C   UNL     1      13.539  12.365   7.297  1.00  0.00     0.004 C 
ENDBRANCH  28  29
ENDBRANCH  27  28
ENDBRANCH  26  27
ENDBRANCH  25  26
ENDBRANCH  24  25
ENDBRANCH  23  24
ENDBRANCH  22  23
ENDBRANCH  21  22
ENDBRANCH  20  21
ENDBRANCH  19  20
ENDBRANCH  18  19
ENDBRANCH  17  18
ENDBRANCH   1  17
TORSDOF 26
ENDMDL
MODEL 5
REMARK VINA RESULT:     0.945      1.487      2.136
REMARK INTER + INTRA:           0.719
REMARK INTER:                   1.299
REMARK INTRA:                  -0.580
REMARK UNBOUND:                -1.661
REMARK SMILES CCCCCCCCCCCCCCCCCCCCCCCCCCCC(=O)[O-]
REMARK SMILES IDX 15 1 16 2 17 3 18 4 19 5 20 6 21 7 22 8 23 9 24 10 25 11
REMARK SMILES IDX 26 12 27 13 28 14 29 15 30 16 14 17 13 18 12 19 11 20 10 21
REMARK SMILES IDX 9 22 8 23 7 24 6 25 5 26 4 27 3 28 2 29 1 30
REMARK H PARENT
REMARK Flexibility Score: inf
ROOT
ATOM      1  C   UNL     1      15.262  13.047   8.904  1.00  0.00     0.000 C 
ENDROOT
BRANCH   1   2
ATOM      2  C   UNL     1      13.856  12.487   9.175  1.00  0.00     0.000 C 
BRANCH   2   3
ATOM      3  C   UNL     1      13.826  11.479  10.334  1.00  0.00     0.000 C 
BRANCH   3   4
ATOM      4  C   UNL     1      14.311  12.132  11.638  1.00  0.00     0.000 C 
BRANCH   4   5
ATOM      5  C   UNL     1      14.696  13.610  11.458  1.00  0.00     0.000 C 
BRANCH   5   6
ATOM      6  C   UNL     1      15.378  14.194  12.708  1.00  0.00     0.000 C 
BRANCH   6   7
ATOM      7  C   UNL     1      16.813  14.676  12.435  1.00  0.00     0.000 C 
BRANCH   7   8
ATOM      8  C   UNL     1      17.125  16.023  13.112  1.00  0.00     0.000 C 
BRANCH   8   9
ATOM      9  C   UNL     1      16.185  17.152  12.652  1.00  0.00     0.000 C 
BRANCH   9  10
ATOM     10  C   UNL     1      16.810  18.563  12.643  1.00  0.00     0.000 C 
BRANCH  10  11
ATOM     11  C   UNL     1      16.192  19.551  11.633  1.00  0.00     0.000 C 
BRANCH  11  12
ATOM     12  C   UNL     1      14.665  19.432  11.463  1.00  0.00     0.006 C 
BRANCH  12  13
ATOM     13  C   UNL     1      13.890  19.959  12.678  1.00  0.00     0.053 C 
BRANCH  13  14
ATOM     14  C   UNL     1      13.270  21.285  12.369  1.00  0.00     0.041 C 
ATOM     15  O   UNL     1      13.686  21.970  11.398  1.00  0.00    -0.550 OA
ATOM     16  O   UNL     1      12.199  21.746  13.125  1.00  0.00    -0.550 OA
ENDBRANCH  13  14
ENDBRANCH  12  13
ENDBRANCH  11  12
ENDBRANCH  10  11
ENDBRANCH   9  10
ENDBRANCH   8   9
ENDBRANCH   7   8
ENDBRANCH   6   7
ENDBRANCH   5   6
ENDBRANCH   4   5
ENDBRANCH   3   4
ENDBRANCH   2   3
ENDBRANCH   1   2
BRANCH   1  17
ATOM     17  C   UNL     1      15.643  12.997   7.413  1.00  0.00     0.000 C 
BRANCH  17  18
ATOM     18  C   UNL     1      14.440  13.227   6.474  1.00  0.00     0.000 C 
BRANCH  18  19
ATOM     19  C   UNL     1      13.981  14.696   6.384  1.00  0.00     0.000 C 
BRANCH  19  20
ATOM     20  C   UNL     1      14.726  15.558   5.352  1.00  0.00     0.000 C 
BRANCH  20  21
ATOM     21  C   UNL     1      13.919  16.792   4.909  1.00  0.00     0.000 C 
BRANCH  21  22
ATOM     22  C   UNL     1      13.916  16.982   3.383  1.00  0.00    -0.000 C 
BRANCH  22  23
ATOM     23  C   UNL     1      15.301  17.373   2.837  1.00  0.00    -0.000 C 
BRANCH  23  24
ATOM     24  C   UNL     1      15.220  18.271   1.594  1.00  0.00    -0.000 C 
BRANCH  24  25
ATOM     25  C   UNL     1      13.840  18.221   0.913  1.00  0.00    -0.000 C 
BRANCH  25  26
ATOM     26  C   UNL     1      13.801  19.067  -0.372  1.00  0.00    -0.000 C 
BRANCH  26  27
ATOM     27  C   UNL     1      14.086  20.558  -0.116  1.00  0.00    -0.000 C 
BRANCH  27  28
ATOM     28  C   UNL     1      14.430  21.310  -1.413  1.00  0.00    -0.000 C 
BRANCH  28  29
ATOM     29  C   UNL     1      15.784  22.034  -1.327  1.00  0.00    -0.003 C 
ATOM     30  C   UNL     1      16.803  21.256  -0.494  1.00  0.00     0.004 C 
ENDBRANCH  28  29
ENDBRANCH  27  28
ENDBRANCH  26  27
ENDBRANCH  25  26
ENDBRANCH  24  25
ENDBRANCH  23  24
ENDBRANCH  22  23
ENDBRANCH  21  22
ENDBRANCH  20  21
ENDBRANCH  19  20
ENDBRANCH  18  19
ENDBRANCH  17  18
ENDBRANCH   1  17
TORSDOF 26
ENDMDL
MODEL 6
REMARK VINA RESULT:     0.976      1.352      3.441
REMARK INTER + INTRA:           0.799
REMARK INTER:                   2.898
REMARK INTRA:                  -2.099
REMARK UNBOUND:                -1.661
REMARK SMILES CCCCCCCCCCCCCCCCCCCCCCCCCCCC(=O)[O-]
REMARK SMILES IDX 15 1 16 2 17 3 18 4 19 5 20 6 21 7 22 8 23 9 24 10 25 11
REMARK SMILES IDX 26 12 27 13 28 14 29 15 30 16 14 17 13 18 12 19 11 20 10 21
REMARK SMILES IDX 9 22 8 23 7 24 6 25 5 26 4 27 3 28 2 29 1 30
REMARK H PARENT
REMARK Flexibility Score: inf
ROOT
ATOM      1  C   UNL     1      16.249  16.262   5.705  1.00  0.00     0.000 C 
ENDROOT
BRANCH   1   2
ATOM      2  C   UNL     1      16.327  15.964   7.211  1.00  0.00     0.000 C 
BRANCH   2   3
ATOM      3  C   UNL     1      16.012  14.500   7.550  1.00  0.00     0.000 C 
BRANCH   3   4
ATOM      4  C   UNL     1      14.629  14.377   8.209  1.00  0.00     0.000 C 
BRANCH   4   5
ATOM      5  C   UNL     1      14.214  12.918   8.459  1.00  0.00     0.000 C 
BRANCH   5   6
ATOM      6  C   UNL     1      14.470  12.475   9.911  1.00  0.00     0.000 C 
BRANCH   6   7
ATOM      7  C   UNL     1      15.732  13.114  10.516  1.00  0.00     0.000 C 
BRANCH   7   8
ATOM      8  C   UNL     1      15.932  12.743  11.996  1.00  0.00     0.000 C 
BRANCH   8   9
ATOM      9  C   UNL     1      16.900  13.693  12.724  1.00  0.00     0.000 C 
BRANCH   9  10
ATOM     10  C   UNL     1      17.067  15.083  12.076  1.00  0.00     0.000 C 
BRANCH  10  11
ATOM     11  C   UNL     1      16.716  16.279  12.984  1.00  0.00     0.000 C 
BRANCH  11  12
ATOM     12  C   UNL     1      15.685  17.260  12.394  1.00  0.00     0.006 C 
BRANCH  12  13
ATOM     13  C   UNL     1      16.272  18.653  12.134  1.00  0.00     0.053 C 
BRANCH  13  14
ATOM     14  C   UNL     1      15.693  19.241  10.886  1.00  0.00     0.041 C 
ATOM     15  O   UNL     1      15.283  18.491   9.962  1.00  0.00    -0.550 OA
ATOM     16  O   UNL     1      15.562  20.619  10.761  1.00  0.00    -0.550 OA
ENDBRANCH  13  14
ENDBRANCH  12  13
ENDBRANCH  11  12
ENDBRANCH  10  11
ENDBRANCH   9  10
ENDBRANCH   8   9
ENDBRANCH   7   8
ENDBRANCH   6   7
ENDBRANCH   5   6
ENDBRANCH   4   5
ENDBRANCH   3   4
ENDBRANCH   2   3
ENDBRANCH   1   2
BRANCH   1  17
ATOM     17  C   UNL     1      15.158  17.293   5.360  1.00  0.00     0.000 C 
BRANCH  17  18
ATOM     18  C   UNL     1      14.023  16.706   4.495  1.00  0.00     0.000 C 
BRANCH  18  19
ATOM     19  C   UNL     1      14.229  16.881   2.978  1.00  0.00     0.000 C 
BRANCH  19  20
ATOM     20  C   UNL     1      14.866  18.213   2.548  1.00  0.00     0.000 C 
BRANCH  20  21
ATOM     21  C   UNL     1      15.623  18.110   1.211  1.00  0.00     0.000 C 
BRANCH  21  22
ATOM     22  C   UNL     1      17.061  18.649   1.301  1.00  0.00    -0.000 C 
BRANCH  22  23
ATOM     23  C   UNL     1      17.122  20.181   1.172  1.00  0.00    -0.000 C 
BRANCH  23  24
ATOM     24  C   UNL     1      16.805  20.673  -0.248  1.00  0.00    -0.000 C 
BRANCH  24  25
ATOM     25  C   UNL     1      16.096  22.039  -0.259  1.00  0.00    -0.000 C 
BRANCH  25  26
ATOM     26  C   UNL     1      14.938  22.077  -1.274  1.00  0.00    -0.000 C 
BRANCH  26  27
ATOM     27  C   UNL     1      14.252  20.710  -1.451  1.00  0.00    -0.000 C 
BRANCH  27  28
ATOM     28  C   UNL     1      13.188  20.456  -0.368  1.00  0.00    -0.000 C 
BRANCH  28  29
ATOM     29  C   UNL     1      12.524  19.077  -0.515  1.00  0.00    -0.003 C 
ATOM     30  C   UNL     1      11.353  19.102  -1.497  1.00  0.00     0.004 C 
ENDBRANCH  28  29
ENDBRANCH  27  28
ENDBRANCH  26  27
ENDBRANCH  25  26
ENDBRANCH  24  25
ENDBRANCH  23  24
ENDBRANCH  22  23
ENDBRANCH  21  22
ENDBRANCH  20  21
ENDBRANCH  19  20
ENDBRANCH  18  19
ENDBRANCH  17  18
ENDBRANCH   1  17
TORSDOF 26
ENDMDL
MODEL 7
REMARK VINA RESULT:     1.103      3.871     10.898
REMARK INTER + INTRA:           1.118
REMARK INTER:                   3.213
REMARK INTRA:                  -2.094
REMARK UNBOUND:                -1.661
REMARK SMILES CCCCCCCCCCCCCCCCCCCCCCCCCCCC(=O)[O-]
REMARK SMILES IDX 15 1 16 2 17 3 18 4 19 5 20 6 21 7 22 8 23 9 24 10 25 11
REMARK SMILES IDX 26 12 27 13 28 14 29 15 30 16 14 17 13 18 12 19 11 20 10 21
REMARK SMILES IDX 9 22 8 23 7 24 6 25 5 26 4 27 3 28 2 29 1 30
REMARK H PARENT
REMARK Flexibility Score: inf
ROOT
ATOM      1  C   UNL     1      14.353  14.531   6.849  1.00  0.00     0.000 C 
ENDROOT
BRANCH   1   2
ATOM      2  C   UNL     1      13.813  15.037   5.501  1.00  0.00     0.000 C 
BRANCH   2   3
ATOM      3  C   UNL     1      14.161  16.509   5.232  1.00  0.00     0.000 C 
BRANCH   3   4
ATOM      4  C   UNL     1      14.150  16.806   3.725  1.00  0.00     0.000 C 
BRANCH   4   5
ATOM      5  C   UNL     1      15.440  17.490   3.241  1.00  0.00     0.000 C 
BRANCH   5   6
ATOM      6  C   UNL     1      15.307  18.053   1.815  1.00  0.00     0.000 C 
BRANCH   6   7
ATOM      7  C   UNL     1      16.658  18.469   1.210  1.00  0.00     0.000 C 
BRANCH   7   8
ATOM      8  C   UNL     1      16.768  19.990   0.996  1.00  0.00     0.000 C 
BRANCH   8   9
ATOM      9  C   UNL     1      17.043  20.368  -0.470  1.00  0.00     0.000 C 
BRANCH   9  10
ATOM     10  C   UNL     1      15.835  20.943  -1.238  1.00  0.00     0.000 C 
BRANCH  10  11
ATOM     11  C   UNL     1      14.650  21.393  -0.359  1.00  0.00     0.000 C 
BRANCH  11  12
ATOM     12  C   UNL     1      13.281  20.828  -0.779  1.00  0.00     0.006 C 
BRANCH  12  13
ATOM     13  C   UNL     1      13.042  19.402  -0.264  1.00  0.00     0.053 C 
BRANCH  13  14
ATOM     14  C   UNL     1      12.037  18.697  -1.119  1.00  0.00     0.041 C 
ATOM     15  O   UNL     1      11.207  19.357  -1.798  1.00  0.00    -0.550 OA
ATOM     16  O   UNL     1      12.045  17.310  -1.203  1.00  0.00    -0.550 OA
ENDBRANCH  13  14
ENDBRANCH  12  13
ENDBRANCH  11  12
ENDBRANCH  10  11
ENDBRANCH   9  10
ENDBRANCH   8   9
ENDBRANCH   7   8
ENDBRANCH   6   7
ENDBRANCH   5   6
ENDBRANCH   4   5
ENDBRANCH   3   4
ENDBRANCH   2   3
ENDBRANCH   1   2
BRANCH   1  17
ATOM     17  C   UNL     1      15.115  13.199   6.719  1.00  0.00     0.000 C 
BRANCH  17  18
ATOM     18  C   UNL     1      16.588  13.300   7.166  1.00  0.00     0.000 C 
BRANCH  18  19
ATOM     19  C   UNL     1      16.782  13.895   8.575  1.00  0.00     0.000 C 
BRANCH  19  20
ATOM     20  C   UNL     1      17.096  15.400   8.617  1.00  0.00     0.000 C 
BRANCH  20  21
ATOM     21  C   UNL     1      16.204  16.169   9.609  1.00  0.00     0.000 C 
BRANCH  21  22
ATOM     22  C   UNL     1      16.897  17.414  10.187  1.00  0.00    -0.000 C 
BRANCH  22  23
ATOM     23  C   UNL     1      17.074  17.331  11.714  1.00  0.00    -0.000 C 
BRANCH  23  24
ATOM     24  C   UNL     1      17.125  15.885  12.229  1.00  0.00    -0.000 C 
BRANCH  24  25
ATOM     25  C   UNL     1      15.834  15.469  12.958  1.00  0.00    -0.000 C 
BRANCH  25  26
ATOM     26  C   UNL     1      15.735  13.941  13.125  1.00  0.00    -0.000 C 
BRANCH  26  27
ATOM     27  C   UNL     1      16.528  13.170  12.054  1.00  0.00    -0.000 C 
BRANCH  27  28
ATOM     28  C   UNL     1      15.984  11.745  11.850  1.00  0.00    -0.000 C 
BRANCH  28  29
ATOM     29  C   UNL     1      14.881  11.688  10.780  1.00  0.00    -0.003 C 
ATOM     30  C   UNL     1      14.160  13.027  10.622  1.00  0.00     0.004 C 
ENDBRANCH  28  29
ENDBRANCH  27  28
ENDBRANCH  26  27
ENDBRANCH  25  26
ENDBRANCH  24  25
ENDBRANCH  23  24
ENDBRANCH  22  23
ENDBRANCH  21  22
ENDBRANCH  20  21
ENDBRANCH  19  20
ENDBRANCH  18  19
ENDBRANCH  17  18
ENDBRANCH   1  17
TORSDOF 26
ENDMDL
MODEL 8
REMARK VINA RESULT:     1.205      3.663     10.337
REMARK INTER + INTRA:           1.375
REMARK INTER:                   2.320
REMARK INTRA:                  -0.945
REMARK UNBOUND:                -1.661
REMARK SMILES CCCCCCCCCCCCCCCCCCCCCCCCCCCC(=O)[O-]
REMARK SMILES IDX 15 1 16 2 17 3 18 4 19 5 20 6 21 7 22 8 23 9 24 10 25 11
REMARK SMILES IDX 26 12 27 13 28 14 29 15 30 16 14 17 13 18 12 19 11 20 10 21
REMARK SMILES IDX 9 22 8 23 7 24 6 25 5 26 4 27 3 28 2 29 1 30
REMARK H PARENT
REMARK Flexibility Score: inf
ROOT
ATOM      1  C   UNL     1      13.683  14.476   6.145  1.00  0.00     0.000 C 
ENDROOT
BRANCH   1   2
ATOM      2  C   UNL     1      14.589  15.197   5.134  1.00  0.00     0.000 C 
BRANCH   2   3
ATOM      3  C   UNL     1      14.171  16.654   4.886  1.00  0.00     0.000 C 
BRANCH   3   4
ATOM      4  C   UNL     1      13.516  16.806   3.504  1.00  0.00     0.000 C 
BRANCH   4   5
ATOM      5  C   UNL     1      14.506  17.266   2.421  1.00  0.00     0.000 C 
BRANCH   5   6
ATOM      6  C   UNL     1      15.733  17.983   3.013  1.00  0.00     0.000 C 
BRANCH   6   7
ATOM      7  C   UNL     1      16.807  18.298   1.958  1.00  0.00     0.000 C 
BRANCH   7   8
ATOM      8  C   UNL     1      16.252  19.107   0.772  1.00  0.00     0.000 C 
BRANCH   8   9
ATOM      9  C   UNL     1      17.125  20.326   0.420  1.00  0.00     0.000 C 
BRANCH   9  10
ATOM     10  C   UNL     1      16.451  21.376  -0.487  1.00  0.00     0.000 C 
BRANCH  10  11
ATOM     11  C   UNL     1      15.149  20.916  -1.172  1.00  0.00     0.000 C 
BRANCH  11  12
ATOM     12  C   UNL     1      14.112  20.277  -0.230  1.00  0.00     0.006 C 
BRANCH  12  13
ATOM     13  C   UNL     1      12.667  20.496  -0.699  1.00  0.00     0.053 C 
BRANCH  13  14
ATOM     14  C   UNL     1      12.012  19.187  -1.008  1.00  0.00     0.041 C 
ATOM     15  O   UNL     1      12.550  18.107  -0.647  1.00  0.00    -0.550 OA
ATOM     16  O   UNL     1      10.783  19.158  -1.654  1.00  0.00    -0.550 OA
ENDBRANCH  13  14
ENDBRANCH  12  13
ENDBRANCH  11  12
ENDBRANCH  10  11
ENDBRANCH   9  10
ENDBRANCH   8   9
ENDBRANCH   7   8
ENDBRANCH   6   7
ENDBRANCH   5   6
ENDBRANCH   4   5
ENDBRANCH   3   4
ENDBRANCH   2   3
ENDBRANCH   1   2
BRANCH   1  17
ATOM     17  C   UNL     1      14.419  13.363   6.913  1.00  0.00     0.000 C 
BRANCH  17  18
ATOM     18  C   UNL     1      15.726  13.848   7.575  1.00  0.00     0.000 C 
BRANCH  18  19
ATOM     19  C   UNL     1      15.874  13.440   9.054  1.00  0.00     0.000 C 
BRANCH  19  20
ATOM     20  C   UNL     1      14.560  13.114   9.783  1.00  0.00     0.000 C 
BRANCH  20  21
ATOM     21  C   UNL     1      14.723  13.055  11.313  1.00  0.00     0.000 C 
BRANCH  21  22
ATOM     22  C   UNL     1      16.083  13.598  11.785  1.00  0.00    -0.000 C 
BRANCH  22  23
ATOM     23  C   UNL     1      15.940  14.646  12.902  1.00  0.00    -0.000 C 
BRANCH  23  24
ATOM     24  C   UNL     1      17.041  15.717  12.859  1.00  0.00    -0.000 C 
BRANCH  24  25
ATOM     25  C   UNL     1      16.567  17.031  12.215  1.00  0.00    -0.000 C 
BRANCH  25  26
ATOM     26  C   UNL     1      16.473  16.920  10.682  1.00  0.00    -0.000 C 
BRANCH  26  27
ATOM     27  C   UNL     1      16.194  18.271   9.999  1.00  0.00    -0.000 C 
BRANCH  27  28
ATOM     28  C   UNL     1      15.025  19.021  10.662  1.00  0.00    -0.000 C 
BRANCH  28  29
ATOM     29  C   UNL     1      15.388  20.474  11.014  1.00  0.00    -0.003 C 
ATOM     30  C   UNL     1      14.217  21.223  11.651  1.00  0.00     0.004 C 
ENDBRANCH  28  29
ENDBRANCH  27  28
ENDBRANCH  26  27
ENDBRANCH  25  26
ENDBRANCH  24  25
ENDBRANCH  23  24
ENDBRANCH  22  23
ENDBRANCH  21  22
ENDBRANCH  20  21
ENDBRANCH  19  20
ENDBRANCH  18  19
ENDBRANCH  17  18
ENDBRANCH   1  17
TORSDOF 26
ENDMDL
MODEL 9
REMARK VINA RESULT:     1.497      2.035      2.998
REMARK INTER + INTRA:           2.111
REMARK INTER:                   1.819
REMARK INTRA:                   0.292
REMARK UNBOUND:                -1.661
REMARK SMILES CCCCCCCCCCCCCCCCCCCCCCCCCCCC(=O)[O-]
REMARK SMILES IDX 15 1 16 2 17 3 18 4 19 5 20 6 21 7 22 8 23 9 24 10 25 11
REMARK SMILES IDX 26 12 27 13 28 14 29 15 30 16 14 17 13 18 12 19 11 20 10 21
REMARK SMILES IDX 9 22 8 23 7 24 6 25 5 26 4 27 3 28 2 29 1 30
REMARK H PARENT
REMARK Flexibility Score: inf
ROOT
ATOM      1  C   UNL     1      16.649  13.557   9.493  1.00  0.00     0.000 C 
ENDROOT
BRANCH   1   2
ATOM      2  C   UNL     1      15.365  12.774   9.809  1.00  0.00     0.000 C 
BRANCH   2   3
ATOM      3  C   UNL     1      15.415  12.065  11.171  1.00  0.00     0.000 C 
BRANCH   3   4
ATOM      4  C   UNL     1      15.532  13.086  12.313  1.00  0.00     0.000 C 
BRANCH   4   5
ATOM      5  C   UNL     1      15.581  14.539  11.813  1.00  0.00     0.000 C 
BRANCH   5   6
ATOM      6  C   UNL     1      15.846  15.543  12.949  1.00  0.00     0.000 C 
BRANCH   6   7
ATOM      7  C   UNL     1      17.103  16.397  12.710  1.00  0.00     0.000 C 
BRANCH   7   8
ATOM      8  C   UNL     1      16.909  17.866  13.125  1.00  0.00     0.000 C 
BRANCH   8   9
ATOM      9  C   UNL     1      15.715  18.533  12.418  1.00  0.00     0.000 C 
BRANCH   9  10
ATOM     10  C   UNL     1      15.749  20.075  12.384  1.00  0.00     0.000 C 
BRANCH  10  11
ATOM     11  C   UNL     1      15.353  20.712  11.036  1.00  0.00     0.000 C 
BRANCH  11  12
ATOM     12  C   UNL     1      16.198  20.258   9.831  1.00  0.00     0.006 C 
BRANCH  12  13
ATOM     13  C   UNL     1      16.843  18.882  10.043  1.00  0.00     0.053 C 
BRANCH  13  14
ATOM     14  C   UNL     1      16.860  18.109   8.762  1.00  0.00     0.041 C 
ATOM     15  O   UNL     1      16.796  18.709   7.657  1.00  0.00    -0.550 OA
ATOM     16  O   UNL     1      16.992  16.726   8.785  1.00  0.00    -0.550 OA
ENDBRANCH  13  14
ENDBRANCH  12  13
ENDBRANCH  11  12
ENDBRANCH  10  11
ENDBRANCH   9  10
ENDBRANCH   8   9
ENDBRANCH   7   8
ENDBRANCH   6   7
ENDBRANCH   5   6
ENDBRANCH   4   5
ENDBRANCH   3   4
ENDBRANCH   2   3
ENDBRANCH   1   2
BRANCH   1  17
ATOM     17  C   UNL     1      17.086  13.411   8.023  1.00  0.00     0.000 C 
BRANCH  17  18
ATOM     18  C   UNL     1      15.896  13.290   7.048  1.00  0.00     0.000 C 
BRANCH  18  19
ATOM     19  C   UNL     1      15.072  14.583   6.893  1.00  0.00     0.000 C 
BRANCH  19  20
ATOM     20  C   UNL     1      15.597  15.577   5.844  1.00  0.00     0.000 C 
BRANCH  20  21
ATOM     21  C   UNL     1      14.510  16.543   5.338  1.00  0.00     0.000 C 
BRANCH  21  22
ATOM     22  C   UNL     1      14.507  16.684   3.807  1.00  0.00    -0.000 C 
BRANCH  22  23
ATOM     23  C   UNL     1      15.756  17.415   3.283  1.00  0.00    -0.000 C 
BRANCH  23  24
ATOM     24  C   UNL     1      15.463  18.293   2.057  1.00  0.00    -0.000 C 
BRANCH  24  25
ATOM     25  C   UNL     1      14.015  18.147   1.554  1.00  0.00    -0.000 C 
BRANCH  25  26
ATOM     26  C   UNL     1      13.744  19.024   0.319  1.00  0.00    -0.000 C 
BRANCH  26  27
ATOM     27  C   UNL     1      14.872  20.035   0.043  1.00  0.00    -0.000 C 
BRANCH  27  28
ATOM     28  C   UNL     1      14.505  21.016  -1.084  1.00  0.00    -0.000 C 
BRANCH  28  29
ATOM     29  C   UNL     1      15.594  22.076  -1.313  1.00  0.00    -0.003 C 
ATOM     30  C   UNL     1      16.992  21.547  -0.992  1.00  0.00     0.004 C 
ENDBRANCH  28  29
ENDBRANCH  27  28
ENDBRANCH  26  27
ENDBRANCH  25  26
ENDBRANCH  24  25
ENDBRANCH  23  24
ENDBRANCH  22  23
ENDBRANCH  21  22
ENDBRANCH  20  21
ENDBRANCH  19  20
ENDBRANCH  18  19
ENDBRANCH  17  18
ENDBRANCH   1  17
TORSDOF 26
ENDMDL
