MODEL 1
REMARK VINA RESULT:    -3.774      0.000      0.000
REMARK INTER + INTRA:          -5.515
REMARK INTER:                  -5.208
REMARK INTRA:                  -0.307
REMARK UNBOUND:                -0.307
REMARK SMILES CCCCCCCCO
REMARK SMILES IDX 5 1 4 2 3 3 2 4 1 5 6 6 7 7 8 8 9 9
REMARK H PARENT 9 10
REMARK Flexibility Score: inf
ROOT
ATOM      1  C   UNL     1      29.099  26.995  22.442  1.00  0.00     0.000 C 
ENDROOT
BRANCH   1   2
ATOM      2  C   UNL     1      29.763  25.624  22.228  1.00  0.00    -0.000 C 
BRANCH   2   3
ATOM      3  C   UNL     1      29.181  24.869  21.022  1.00  0.00    -0.000 C 
BRANCH   3   4
ATOM      4  C   UNL     1      28.584  25.811  19.966  1.00  0.00    -0.003 C 
ATOM      5  C   UNL     1      28.823  25.278  18.557  1.00  0.00     0.004 C 
ENDBRANCH   3   4
ENDBRANCH   2   3
ENDBRANCH   1   2
BRANCH   1   6
ATOM      6  C   UNL     1      28.033  26.975  23.554  1.00  0.00     0.002 C 
BRANCH   6   7
ATOM      7  C   UNL     1      26.591  26.722  23.073  1.00  0.00     0.028 C 
BRANCH   7   8
ATOM      8  C   UNL     1      25.524  27.466  23.889  1.00  0.00     0.156 C 
BRANCH   8   9
ATOM      9  O   UNL     1      24.821  28.377  23.090  1.00  0.00    -0.396 OA
ATOM     10  H   UNL     1      23.967  28.568  23.560  1.00  0.00     0.210 HD
ENDBRANCH   8   9
ENDBRANCH   7   8
ENDBRANCH   6   7
ENDBRANCH   1   6
TORSDOF 7
ENDMDL
MODEL 2
REMARK VINA RESULT:    -3.773      1.711      1.766
REMARK INTER + INTRA:          -5.513
REMARK INTER:                  -5.213
REMARK INTRA:                  -0.300
REMARK UNBOUND:                -0.307
REMARK SMILES CCCCCCCCO
REMARK SMILES IDX 5 1 4 2 3 3 2 4 1 5 6 6 7 7 8 8 9 9
REMARK H PARENT 9 10
REMARK Flexibility Score: inf
ROOT
ATOM      1  C   UNL     1      28.658  26.902  22.424  1.00  0.00     0.000 C 
ENDROOT
BRANCH   1   2
ATOM      2  C   UNL     1      29.520  25.641  22.236  1.00  0.00    -0.000 C 
BRANCH   2   3
ATOM      3  C   UNL     1      29.191  24.891  20.934  1.00  0.00    -0.000 C 
BRANCH   3   4
ATOM      4  C   UNL     1      28.673  25.824  19.829  1.00  0.00    -0.003 C 
ATOM      5  C   UNL     1      28.831  25.184  18.453  1.00  0.00     0.004 C 
ENDBRANCH   3   4
ENDBRANCH   2   3
ENDBRANCH   1   2
BRANCH   1   6
ATOM      6  C   UNL     1      27.421  26.653  23.307  1.00  0.00     0.002 C 
BRANCH   6   7
ATOM      7  C   UNL     1      26.162  26.187  22.552  1.00  0.00     0.028 C 
BRANCH   7   8
ATOM      8  C   UNL     1      25.348  25.120  23.297  1.00  0.00     0.156 C 
BRANCH   8   9
ATOM      9  O   UNL     1      25.362  23.900  22.608  1.00  0.00    -0.396 OA
ATOM     10  H   UNL     1      24.431  23.734  22.305  1.00  0.00     0.210 HD
ENDBRANCH   8   9
ENDBRANCH   7   8
ENDBRANCH   6   7
ENDBRANCH   1   6
TORSDOF 7
ENDMDL
MODEL 3
REMARK VINA RESULT:    -3.616      0.969      1.576
REMARK INTER + INTRA:          -5.297
REMARK INTER:                  -5.162
REMARK INTRA:                  -0.135
REMARK UNBOUND:                -0.307
REMARK SMILES CCCCCCCCO
REMARK SMILES IDX 5 1 4 2 3 3 2 4 1 5 6 6 7 7 8 8 9 9
REMARK H PARENT 9 10
REMARK Flexibility Score: inf
ROOT
ATOM      1  C   UNL     1      26.727  26.521  22.732  1.00  0.00     0.000 C 
ENDROOT
BRANCH   1   2
ATOM      2  C   UNL     1      28.229  26.359  22.443  1.00  0.00    -0.000 C 
BRANCH   2   3
ATOM      3  C   UNL     1      28.503  25.403  21.270  1.00  0.00    -0.000 C 
BRANCH   3   4
ATOM      4  C   UNL     1      28.726  26.144  19.943  1.00  0.00    -0.003 C 
ATOM      5  C   UNL     1      28.773  25.168  18.771  1.00  0.00     0.004 C 
ENDBRANCH   3   4
ENDBRANCH   2   3
ENDBRANCH   1   2
BRANCH   1   6
ATOM      6  C   UNL     1      26.449  27.318  24.020  1.00  0.00     0.002 C 
BRANCH   6   7
ATOM      7  C   UNL     1      24.960  27.504  24.366  1.00  0.00     0.028 C 
BRANCH   7   8
ATOM      8  C   UNL     1      24.476  28.959  24.275  1.00  0.00     0.156 C 
BRANCH   8   9
ATOM      9  O   UNL     1      24.464  29.405  22.946  1.00  0.00    -0.396 OA
ATOM     10  H   UNL     1      23.861  30.194  22.917  1.00  0.00     0.210 HD
ENDBRANCH   8   9
ENDBRANCH   7   8
ENDBRANCH   6   7
ENDBRANCH   1   6
TORSDOF 7
ENDMDL
MODEL 4
REMARK VINA RESULT:    -3.606      3.180      4.664
REMARK INTER + INTRA:          -5.283
REMARK INTER:                  -4.999
REMARK INTRA:                  -0.284
REMARK UNBOUND:                -0.307
REMARK SMILES CCCCCCCCO
REMARK SMILES IDX 5 1 4 2 3 3 2 4 1 5 6 6 7 7 8 8 9 9
REMARK H PARENT 9 10
REMARK Flexibility Score: inf
ROOT
ATOM      1  C   UNL     1      29.389  25.832  22.389  1.00  0.00     0.000 C 
ENDROOT
BRANCH   1   2
ATOM      2  C   UNL     1      30.836  25.638  22.877  1.00  0.00    -0.000 C 
BRANCH   2   3
ATOM      3  C   UNL     1      31.557  26.973  23.128  1.00  0.00    -0.000 C 
BRANCH   3   4
ATOM      4  C   UNL     1      30.984  28.123  22.286  1.00  0.00    -0.003 C 
ATOM      5  C   UNL     1      32.095  29.039  21.780  1.00  0.00     0.004 C 
ENDBRANCH   3   4
ENDBRANCH   2   3
ENDBRANCH   1   2
BRANCH   1   6
ATOM      6  C   UNL     1      29.077  25.029  21.113  1.00  0.00     0.002 C 
BRANCH   6   7
ATOM      7  C   UNL     1      28.703  25.878  19.882  1.00  0.00     0.028 C 
BRANCH   7   8
ATOM      8  C   UNL     1      28.772  25.111  18.554  1.00  0.00     0.156 C 
BRANCH   8   9
ATOM      9  O   UNL     1      29.146  25.957  17.501  1.00  0.00    -0.396 OA
ATOM     10  H   UNL     1      30.038  25.649  17.193  1.00  0.00     0.210 HD
ENDBRANCH   8   9
ENDBRANCH   7   8
ENDBRANCH   6   7
ENDBRANCH   1   6
TORSDOF 7
ENDMDL
MODEL 5
REMARK VINA RESULT:    -3.471      2.242      3.158
REMARK INTER + INTRA:          -5.096
REMARK INTER:                  -4.839
REMARK INTRA:                  -0.257
REMARK UNBOUND:                -0.307
REMARK SMILES CCCCCCCCO
REMARK SMILES IDX 5 1 4 2 3 3 2 4 1 5 6 6 7 7 8 8 9 9
REMARK H PARENT 9 10
REMARK Flexibility Score: inf
ROOT
ATOM      1  C   UNL     1      27.473  26.373  22.633  1.00  0.00     0.000 C 
ENDROOT
BRANCH   1   2
ATOM      2  C   UNL     1      27.991  25.376  21.582  1.00  0.00    -0.000 C 
BRANCH   2   3
ATOM      3  C   UNL     1      29.519  25.209  21.630  1.00  0.00    -0.000 C 
BRANCH   3   4
ATOM      4  C   UNL     1      30.166  26.005  22.773  1.00  0.00    -0.003 C 
ATOM      5  C   UNL     1      31.340  25.242  23.377  1.00  0.00     0.004 C 
ENDBRANCH   3   4
ENDBRANCH   2   3
ENDBRANCH   1   2
BRANCH   1   6
ATOM      6  C   UNL     1      25.939  26.369  22.754  1.00  0.00     0.002 C 
BRANCH   6   7
ATOM      7  C   UNL     1      25.380  25.612  23.975  1.00  0.00     0.028 C 
BRANCH   7   8
ATOM      8  C   UNL     1      24.565  24.363  23.613  1.00  0.00     0.156 C 
BRANCH   8   9
ATOM      9  O   UNL     1      25.190  23.627  22.597  1.00  0.00    -0.396 OA
ATOM     10  H   UNL     1      26.166  23.776  22.698  1.00  0.00     0.210 HD
ENDBRANCH   8   9
ENDBRANCH   7   8
ENDBRANCH   6   7
ENDBRANCH   1   6
TORSDOF 7
ENDMDL
MODEL 6
REMARK VINA RESULT:    -3.453      4.296      5.834
REMARK INTER + INTRA:          -5.072
REMARK INTER:                  -4.796
REMARK INTRA:                  -0.276
REMARK UNBOUND:                -0.307
REMARK SMILES CCCCCCCCO
REMARK SMILES IDX 5 1 4 2 3 3 2 4 1 5 6 6 7 7 8 8 9 9
REMARK H PARENT 9 10
REMARK Flexibility Score: inf
ROOT
ATOM      1  C   UNL     1      24.728  24.163  22.987  1.00  0.00     0.000 C 
ENDROOT
BRANCH   1   2
ATOM      2  C   UNL     1      23.457  23.437  22.512  1.00  0.00    -0.000 C 
BRANCH   2   3
ATOM      3  C   UNL     1      22.335  23.465  23.564  1.00  0.00    -0.000 C 
BRANCH   3   4
ATOM      4  C   UNL     1      21.281  22.371  23.334  1.00  0.00    -0.003 C 
ATOM      5  C   UNL     1      21.671  21.471  22.165  1.00  0.00     0.004 C 
ENDBRANCH   3   4
ENDBRANCH   2   3
ENDBRANCH   1   2
BRANCH   1   6
ATOM      6  C   UNL     1      24.599  24.719  24.417  1.00  0.00     0.002 C 
BRANCH   6   7
ATOM      7  C   UNL     1      24.939  26.214  24.571  1.00  0.00     0.028 C 
BRANCH   7   8
ATOM      8  C   UNL     1      25.596  26.834  23.330  1.00  0.00     0.156 C 
BRANCH   8   9
ATOM      9  O   UNL     1      25.248  28.184  23.194  1.00  0.00    -0.396 OA
ATOM     10  H   UNL     1      24.819  28.279  22.304  1.00  0.00     0.210 HD
ENDBRANCH   8   9
ENDBRANCH   7   8
ENDBRANCH   6   7
ENDBRANCH   1   6
TORSDOF 7
ENDMDL
MODEL 7
REMARK VINA RESULT:    -3.406      1.391      2.455
REMARK INTER + INTRA:          -5.007
REMARK INTER:                  -4.787
REMARK INTRA:                  -0.220
REMARK UNBOUND:                -0.307
REMARK SMILES CCCCCCCCO
REMARK SMILES IDX 5 1 4 2 3 3 2 4 1 5 6 6 7 7 8 8 9 9
REMARK H PARENT 9 10
REMARK Flexibility Score: inf
ROOT
ATOM      1  C   UNL     1      27.430  26.352  22.468  1.00  0.00     0.000 C 
ENDROOT
BRANCH   1   2
ATOM      2  C   UNL     1      27.990  25.465  21.341  1.00  0.00    -0.000 C 
BRANCH   2   3
ATOM      3  C   UNL     1      29.484  25.150  21.526  1.00  0.00    -0.000 C 
BRANCH   3   4
ATOM      4  C   UNL     1      30.112  25.925  22.694  1.00  0.00    -0.003 C 
ATOM      5  C   UNL     1      31.374  25.230  23.197  1.00  0.00     0.004 C 
ENDBRANCH   3   4
ENDBRANCH   2   3
ENDBRANCH   1   2
BRANCH   1   6
ATOM      6  C   UNL     1      25.960  26.038  22.800  1.00  0.00     0.002 C 
BRANCH   6   7
ATOM      7  C   UNL     1      25.479  26.536  24.176  1.00  0.00     0.028 C 
BRANCH   7   8
ATOM      8  C   UNL     1      25.317  28.059  24.265  1.00  0.00     0.156 C 
BRANCH   8   9
ATOM      9  O   UNL     1      24.672  28.567  23.129  1.00  0.00    -0.396 OA
ATOM     10  H   UNL     1      23.710  28.336  23.221  1.00  0.00     0.210 HD
ENDBRANCH   8   9
ENDBRANCH   7   8
ENDBRANCH   6   7
ENDBRANCH   1   6
TORSDOF 7
ENDMDL
MODEL 8
REMARK VINA RESULT:    -3.375      4.705      6.129
REMARK INTER + INTRA:          -4.964
REMARK INTER:                  -4.705
REMARK INTRA:                  -0.260
REMARK UNBOUND:                -0.307
REMARK SMILES CCCCCCCCO
REMARK SMILES IDX 5 1 4 2 3 3 2 4 1 5 6 6 7 7 8 8 9 9
REMARK H PARENT 9 10
REMARK Flexibility Score: inf
ROOT
ATOM      1  C   UNL     1      23.301  24.107  24.242  1.00  0.00     0.000 C 
ENDROOT
BRANCH   1   2
ATOM      2  C   UNL     1      24.655  24.831  24.344  1.00  0.00    -0.000 C 
BRANCH   2   3
ATOM      3  C   UNL     1      25.388  24.901  22.993  1.00  0.00    -0.000 C 
BRANCH   3   4
ATOM      4  C   UNL     1      26.036  26.270  22.742  1.00  0.00    -0.003 C 
ATOM      5  C   UNL     1      25.397  27.347  23.613  1.00  0.00     0.004 C 
ENDBRANCH   3   4
ENDBRANCH   2   3
ENDBRANCH   1   2
BRANCH   1   6
ATOM      6  C   UNL     1      23.086  23.432  22.875  1.00  0.00     0.002 C 
BRANCH   6   7
ATOM      7  C   UNL     1      21.758  22.665  22.726  1.00  0.00     0.028 C 
BRANCH   7   8
ATOM      8  C   UNL     1      21.861  21.407  21.853  1.00  0.00     0.156 C 
BRANCH   8   9
ATOM      9  O   UNL     1      23.043  21.410  21.099  1.00  0.00    -0.396 OA
ATOM     10  H   UNL     1      22.995  20.625  20.492  1.00  0.00     0.210 HD
ENDBRANCH   8   9
ENDBRANCH   7   8
ENDBRANCH   6   7
ENDBRANCH   1   6
TORSDOF 7
ENDMDL
