MODEL 1
REMARK VINA RESULT:    -2.165      0.000      0.000
REMARK INTER + INTRA:          -2.165
REMARK INTER:                  -2.165
REMARK INTRA:                   0.000
REMARK UNBOUND:                 0.000
REMARK SMILES CC(=O)[O-]
REMARK SMILES IDX 1 1 2 2 3 3 4 4
REMARK H PARENT
REMARK Flexibility Score: inf
ROOT
ATOM      1  C   UNL     1      -1.921  11.964 -23.902  1.00  0.00     0.063 C 
ATOM      2  C   UNL     1      -1.750  12.028 -22.423  1.00  0.00     0.038 C 
ATOM      3  O   UNL     1      -2.055  13.075 -21.795  1.00  0.00    -0.550 OA
ATOM      4  O   UNL     1      -1.201  10.951 -21.738  1.00  0.00    -0.550 OA
ENDROOT
TORSDOF 0
ENDMDL
MODEL 2
REMARK VINA RESULT:    -2.039      2.046      2.410
REMARK INTER + INTRA:          -2.039
REMARK INTER:                  -2.039
REMARK INTRA:                   0.000
REMARK UNBOUND:                 0.000
REMARK SMILES CC(=O)[O-]
REMARK SMILES IDX 1 1 2 2 3 3 4 4
REMARK H PARENT
REMARK Flexibility Score: inf
ROOT
ATOM      1  C   UNL     1      -1.588  11.711 -22.212  1.00  0.00     0.063 C 
ATOM      2  C   UNL     1      -2.147  12.122 -23.531  1.00  0.00     0.038 C 
ATOM      3  O   UNL     1      -1.376  12.457 -24.467  1.00  0.00    -0.550 OA
ATOM      4  O   UNL     1      -3.522  12.189 -23.715  1.00  0.00    -0.550 OA
ENDROOT
TORSDOF 0
ENDMDL
MODEL 3
REMARK VINA RESULT:    -1.929     17.812     18.303
REMARK INTER + INTRA:          -1.929
REMARK INTER:                  -1.929
REMARK INTRA:                   0.000
REMARK UNBOUND:                 0.000
REMARK SMILES CC(=O)[O-]
REMARK SMILES IDX 1 1 2 2 3 3 4 4
REMARK H PARENT
REMARK Flexibility Score: inf
ROOT
ATOM      1  C   UNL     1       7.159  -3.598 -29.165  1.00  0.00     0.063 C 
ATOM      2  C   UNL     1       6.722  -3.258 -27.781  1.00  0.00     0.038 C 
ATOM      3  O   UNL     1       7.013  -2.140 -27.283  1.00  0.00    -0.550 OA
ATOM      4  O   UNL     1       6.038  -4.195 -27.017  1.00  0.00    -0.550 OA
ENDROOT
TORSDOF 0
ENDMDL
MODEL 4
REMARK VINA RESULT:    -1.927      1.707      1.765
REMARK INTER + INTRA:          -1.927
REMARK INTER:                  -1.927
REMARK INTRA:                   0.000
REMARK UNBOUND:                 0.000
REMARK SMILES CC(=O)[O-]
REMARK SMILES IDX 1 1 2 2 3 3 4 4
REMARK H PARENT
REMARK Flexibility Score: inf
ROOT
ATOM      1  C   UNL     1      -3.500  12.256 -23.526  1.00  0.00     0.063 C 
ATOM      2  C   UNL     1      -2.042  11.971 -23.413  1.00  0.00     0.038 C 
ATOM      3  O   UNL     1      -1.276  12.194 -24.387  1.00  0.00    -0.550 OA
ATOM      4  O   UNL     1      -1.530  11.407 -22.251  1.00  0.00    -0.550 OA
ENDROOT
TORSDOF 0
ENDMDL
MODEL 5
REMARK VINA RESULT:    -1.906     17.855     18.433
REMARK INTER + INTRA:          -1.906
REMARK INTER:                  -1.906
REMARK INTRA:                   0.000
REMARK UNBOUND:                 0.000
REMARK SMILES CC(=O)[O-]
REMARK SMILES IDX 1 1 2 2 3 3 4 4
REMARK H PARENT
REMARK Flexibility Score: inf
ROOT
ATOM      1  C   UNL     1       7.125  -3.690 -29.197  1.00  0.00     0.063 C 
ATOM      2  C   UNL     1       6.749  -3.396 -27.784  1.00  0.00     0.038 C 
ATOM      3  O   UNL     1       6.198  -4.282 -27.080  1.00  0.00    -0.550 OA
ATOM      4  O   UNL     1       6.955  -2.128 -27.257  1.00  0.00    -0.550 OA
ENDROOT
TORSDOF 0
ENDMDL
MODEL 6
REMARK VINA RESULT:    -1.717      3.251      3.526
REMARK INTER + INTRA:          -1.717
REMARK INTER:                  -1.717
REMARK INTRA:                   0.000
REMARK UNBOUND:                 0.000
REMARK SMILES CC(=O)[O-]
REMARK SMILES IDX 1 1 2 2 3 3 4 4
REMARK H PARENT
REMARK Flexibility Score: inf
ROOT
ATOM      1  C   UNL     1      -1.371  12.717 -20.536  1.00  0.00     0.063 C 
ATOM      2  C   UNL     1      -0.719  12.521 -19.210  1.00  0.00     0.038 C 
ATOM      3  O   UNL     1      -1.395  12.617 -18.153  1.00  0.00    -0.550 OA
ATOM      4  O   UNL     1       0.648  12.286 -19.134  1.00  0.00    -0.550 OA
ENDROOT
TORSDOF 0
ENDMDL
MODEL 7
REMARK VINA RESULT:    -1.712     17.830     18.499
REMARK INTER + INTRA:          -1.712
REMARK INTER:                  -1.712
REMARK INTRA:                   0.000
REMARK UNBOUND:                 0.000
REMARK SMILES CC(=O)[O-]
REMARK SMILES IDX 1 1 2 2 3 3 4 4
REMARK H PARENT
REMARK Flexibility Score: inf
ROOT
ATOM      1  C   UNL     1       6.909  -2.957 -27.805  1.00  0.00     0.063 C 
ATOM      2  C   UNL     1       6.141  -4.023 -27.101  1.00  0.00     0.038 C 
ATOM      3  O   UNL     1       6.341  -5.234 -27.380  1.00  0.00    -0.550 OA
ATOM      4  O   UNL     1       5.164  -3.682 -26.175  1.00  0.00    -0.550 OA
ENDROOT
TORSDOF 0
ENDMDL
MODEL 8
REMARK VINA RESULT:    -1.652     18.527     18.915
REMARK INTER + INTRA:          -1.652
REMARK INTER:                  -1.652
REMARK INTRA:                   0.000
REMARK UNBOUND:                 0.000
REMARK SMILES CC(=O)[O-]
REMARK SMILES IDX 1 1 2 2 3 3 4 4
REMARK H PARENT
REMARK Flexibility Score: inf
ROOT
ATOM      1  C   UNL     1       6.847  -2.754 -27.582  1.00  0.00     0.063 C 
ATOM      2  C   UNL     1       6.710  -3.563 -28.826  1.00  0.00     0.038 C 
ATOM      3  O   UNL     1       5.705  -4.303 -28.991  1.00  0.00    -0.550 OA
ATOM      4  O   UNL     1       7.716  -3.547 -29.783  1.00  0.00    -0.550 OA
ENDROOT
TORSDOF 0
ENDMDL
MODEL 9
REMARK VINA RESULT:    -1.579      3.625      4.159
REMARK INTER + INTRA:          -1.579
REMARK INTER:                  -1.579
REMARK INTRA:                   0.000
REMARK UNBOUND:                 0.000
REMARK SMILES CC(=O)[O-]
REMARK SMILES IDX 1 1 2 2 3 3 4 4
REMARK H PARENT
REMARK Flexibility Score: inf
ROOT
ATOM      1  C   UNL     1       1.042  12.800 -18.864  1.00  0.00     0.063 C 
ATOM      2  C   UNL     1      -0.396  12.484 -19.097  1.00  0.00     0.038 C 
ATOM      3  O   UNL     1      -0.786  12.124 -20.239  1.00  0.00    -0.550 OA
ATOM      4  O   UNL     1      -1.318  12.638 -18.071  1.00  0.00    -0.550 OA
ENDROOT
TORSDOF 0
ENDMDL
