MODEL 1
REMARK VINA RESULT:    -4.881      0.000      0.000
REMARK INTER + INTRA:          -7.884
REMARK INTER:                  -7.164
REMARK INTRA:                  -0.720
REMARK UNBOUND:                -0.720
REMARK SMILES O=C([O-])CCCCCCCC(=O)[O-]
REMARK SMILES IDX 7 1 6 2 5 3 4 4 2 5 1 6 3 7 8 8 9 9 10 10 11 11 12 12 13 13
REMARK H PARENT
REMARK Flexibility Score: inf
ROOT
ATOM      1  C   UNL     1       5.053   1.675  15.035  1.00  0.00     0.000 C 
ENDROOT
BRANCH   1   2
ATOM      2  C   UNL     1       3.998   1.594  13.917  1.00  0.00     0.000 C 
BRANCH   2   3
ATOM      3  C   UNL     1       3.588   0.147  13.597  1.00  0.00     0.006 C 
BRANCH   3   4
ATOM      4  C   UNL     1       2.964  -0.568  14.802  1.00  0.00     0.053 C 
BRANCH   4   5
ATOM      5  C   UNL     1       1.601  -0.019  15.085  1.00  0.00     0.041 C 
ATOM      6  O   UNL     1       0.627  -0.332  14.351  1.00  0.00    -0.550 OA
ATOM      7  O   UNL     1       1.397   0.800  16.188  1.00  0.00    -0.550 OA
ENDBRANCH   4   5
ENDBRANCH   3   4
ENDBRANCH   2   3
ENDBRANCH   1   2
BRANCH   1   8
ATOM      8  C   UNL     1       4.512   2.339  16.311  1.00  0.00     0.000 C 
BRANCH   8   9
ATOM      9  C   UNL     1       4.530   1.395  17.522  1.00  0.00     0.006 C 
BRANCH   9  10
ATOM     10  C   UNL     1       5.779   0.509  17.507  1.00  0.00     0.053 C 
BRANCH  10  11
ATOM     11  C   UNL     1       5.505  -0.794  18.191  1.00  0.00     0.041 C 
ATOM     12  O   UNL     1       4.416  -1.394  17.996  1.00  0.00    -0.550 OA
ATOM     13  O   UNL     1       6.473  -1.369  19.003  1.00  0.00    -0.550 OA
ENDBRANCH  10  11
ENDBRANCH   9  10
ENDBRANCH   8   9
ENDBRANCH   1   8
TORSDOF 8
ENDMDL
MODEL 2
REMARK VINA RESULT:    -4.839      1.161      4.750
REMARK INTER + INTRA:          -7.823
REMARK INTER:                  -7.152
REMARK INTRA:                  -0.671
REMARK UNBOUND:                -0.720
REMARK SMILES O=C([O-])CCCCCCCC(=O)[O-]
REMARK SMILES IDX 7 1 6 2 5 3 4 4 2 5 1 6 3 7 8 8 9 9 10 10 11 11 12 12 13 13
REMARK H PARENT
REMARK Flexibility Score: inf
ROOT
ATOM      1  C   UNL     1       5.696  -0.461  14.669  1.00  0.00     0.000 C 
ENDROOT
BRANCH   1   2
ATOM      2  C   UNL     1       5.895   0.915  15.328  1.00  0.00     0.000 C 
BRANCH   2   3
ATOM      3  C   UNL     1       5.637   0.888  16.843  1.00  0.00     0.006 C 
BRANCH   3   4
ATOM      4  C   UNL     1       5.355  -0.527  17.366  1.00  0.00     0.053 C 
BRANCH   4   5
ATOM      5  C   UNL     1       5.547  -0.582  18.849  1.00  0.00     0.041 C 
ATOM      6  O   UNL     1       4.742   0.011  19.614  1.00  0.00    -0.550 OA
ATOM      7  O   UNL     1       6.588  -1.327  19.388  1.00  0.00    -0.550 OA
ENDBRANCH   4   5
ENDBRANCH   3   4
ENDBRANCH   2   3
ENDBRANCH   1   2
BRANCH   1   8
ATOM      8  C   UNL     1       4.802  -0.395  13.421  1.00  0.00     0.000 C 
BRANCH   8   9
ATOM      9  C   UNL     1       3.489   0.361  13.673  1.00  0.00     0.006 C 
BRANCH   9  10
ATOM     10  C   UNL     1       2.516  -0.490  14.492  1.00  0.00     0.053 C 
BRANCH  10  11
ATOM     11  C   UNL     1       1.626   0.382  15.322  1.00  0.00     0.041 C 
ATOM     12  O   UNL     1       0.378   0.352  15.155  1.00  0.00    -0.550 OA
ATOM     13  O   UNL     1       2.170   1.189  16.312  1.00  0.00    -0.550 OA
ENDBRANCH  10  11
ENDBRANCH   9  10
ENDBRANCH   8   9
ENDBRANCH   1   8
TORSDOF 8
ENDMDL
MODEL 3
REMARK VINA RESULT:    -4.818      0.690      4.677
REMARK INTER + INTRA:          -7.792
REMARK INTER:                  -7.101
REMARK INTRA:                  -0.691
REMARK UNBOUND:                -0.720
REMARK SMILES O=C([O-])CCCCCCCC(=O)[O-]
REMARK SMILES IDX 7 1 6 2 5 3 4 4 2 5 1 6 3 7 8 8 9 9 10 10 11 11 12 12 13 13
REMARK H PARENT
REMARK Flexibility Score: inf
ROOT
ATOM      1  C   UNL     1       5.181   1.452  14.786  1.00  0.00     0.000 C 
ENDROOT
BRANCH   1   2
ATOM      2  C   UNL     1       4.800   2.333  15.990  1.00  0.00     0.000 C 
BRANCH   2   3
ATOM      3  C   UNL     1       4.642   1.524  17.287  1.00  0.00     0.006 C 
BRANCH   3   4
ATOM      4  C   UNL     1       5.542   0.282  17.320  1.00  0.00     0.053 C 
BRANCH   4   5
ATOM      5  C   UNL     1       5.519  -0.342  18.680  1.00  0.00     0.041 C 
ATOM      6  O   UNL     1       6.382  -1.203  18.996  1.00  0.00    -0.550 OA
ATOM      7  O   UNL     1       4.574   0.062  19.614  1.00  0.00    -0.550 OA
ENDBRANCH   4   5
ENDBRANCH   3   4
ENDBRANCH   2   3
ENDBRANCH   1   2
BRANCH   1   8
ATOM      8  C   UNL     1       4.005   1.228  13.822  1.00  0.00     0.000 C 
BRANCH   8   9
ATOM      9  C   UNL     1       3.594  -0.248  13.723  1.00  0.00     0.006 C 
BRANCH   9  10
ATOM     10  C   UNL     1       2.918  -0.716  15.015  1.00  0.00     0.053 C 
BRANCH  10  11
ATOM     11  C   UNL     1       1.588  -0.050  15.181  1.00  0.00     0.041 C 
ATOM     12  O   UNL     1       1.409   0.782  16.109  1.00  0.00    -0.550 OA
ATOM     13  O   UNL     1       0.562  -0.311  14.283  1.00  0.00    -0.550 OA
ENDBRANCH  10  11
ENDBRANCH   9  10
ENDBRANCH   8   9
ENDBRANCH   1   8
TORSDOF 8
ENDMDL
MODEL 4
REMARK VINA RESULT:    -4.745      1.522      4.479
REMARK INTER + INTRA:          -7.685
REMARK INTER:                  -6.921
REMARK INTRA:                  -0.764
REMARK UNBOUND:                -0.720
REMARK SMILES O=C([O-])CCCCCCCC(=O)[O-]
REMARK SMILES IDX 7 1 6 2 5 3 4 4 2 5 1 6 3 7 8 8 9 9 10 10 11 11 12 12 13 13
REMARK H PARENT
REMARK Flexibility Score: inf
ROOT
ATOM      1  C   UNL     1       6.237   0.240  14.680  1.00  0.00     0.000 C 
ENDROOT
BRANCH   1   2
ATOM      2  C   UNL     1       5.631  -1.140  14.992  1.00  0.00     0.000 C 
BRANCH   2   3
ATOM      3  C   UNL     1       5.497  -1.398  16.501  1.00  0.00     0.006 C 
BRANCH   3   4
ATOM      4  C   UNL     1       5.524  -0.104  17.324  1.00  0.00     0.053 C 
BRANCH   4   5
ATOM      5  C   UNL     1       5.577  -0.417  18.786  1.00  0.00     0.041 C 
ATOM      6  O   UNL     1       4.726   0.078  19.572  1.00  0.00    -0.550 OA
ATOM      7  O   UNL     1       6.536  -1.295  19.275  1.00  0.00    -0.550 OA
ENDBRANCH   4   5
ENDBRANCH   3   4
ENDBRANCH   2   3
ENDBRANCH   1   2
BRANCH   1   8
ATOM      8  C   UNL     1       5.382   1.051  13.693  1.00  0.00     0.000 C 
BRANCH   8   9
ATOM      9  C   UNL     1       3.884   0.729  13.806  1.00  0.00     0.006 C 
BRANCH   9  10
ATOM     10  C   UNL     1       3.187   1.697  14.767  1.00  0.00     0.053 C 
BRANCH  10  11
ATOM     11  C   UNL     1       2.446   0.942  15.825  1.00  0.00     0.041 C 
ATOM     12  O   UNL     1       2.068   1.529  16.873  1.00  0.00    -0.550 OA
ATOM     13  O   UNL     1       2.128  -0.395  15.632  1.00  0.00    -0.550 OA
ENDBRANCH  10  11
ENDBRANCH   9  10
ENDBRANCH   8   9
ENDBRANCH   1   8
TORSDOF 8
ENDMDL
MODEL 5
REMARK VINA RESULT:    -4.732      1.599      2.382
REMARK INTER + INTRA:          -7.666
REMARK INTER:                  -6.993
REMARK INTRA:                  -0.673
REMARK UNBOUND:                -0.720
REMARK SMILES O=C([O-])CCCCCCCC(=O)[O-]
REMARK SMILES IDX 7 1 6 2 5 3 4 4 2 5 1 6 3 7 8 8 9 9 10 10 11 11 12 12 13 13
REMARK H PARENT
REMARK Flexibility Score: inf
ROOT
ATOM      1  C   UNL     1       6.172   0.481  14.774  1.00  0.00     0.000 C 
ENDROOT
BRANCH   1   2
ATOM      2  C   UNL     1       5.277   1.093  13.682  1.00  0.00     0.000 C 
BRANCH   2   3
ATOM      3  C   UNL     1       3.783   1.033  14.041  1.00  0.00     0.006 C 
BRANCH   3   4
ATOM      4  C   UNL     1       3.379   2.109  15.058  1.00  0.00     0.053 C 
BRANCH   4   5
ATOM      5  C   UNL     1       2.622   1.495  16.193  1.00  0.00     0.041 C 
ATOM      6  O   UNL     1       2.943   1.755  17.382  1.00  0.00    -0.550 OA
ATOM      7  O   UNL     1       1.531   0.674  15.938  1.00  0.00    -0.550 OA
ENDBRANCH   4   5
ENDBRANCH   3   4
ENDBRANCH   2   3
ENDBRANCH   1   2
BRANCH   1   8
ATOM      8  C   UNL     1       5.917  -1.021  14.974  1.00  0.00     0.000 C 
BRANCH   8   9
ATOM      9  C   UNL     1       5.565  -1.373  16.427  1.00  0.00     0.006 C 
BRANCH   9  10
ATOM     10  C   UNL     1       5.732  -0.155  17.341  1.00  0.00     0.053 C 
BRANCH  10  11
ATOM     11  C   UNL     1       5.657  -0.563  18.778  1.00  0.00     0.041 C 
ATOM     12  O   UNL     1       6.483  -1.391  19.245  1.00  0.00    -0.550 OA
ATOM     13  O   UNL     1       4.707   0.007  19.615  1.00  0.00    -0.550 OA
ENDBRANCH  10  11
ENDBRANCH   9  10
ENDBRANCH   8   9
ENDBRANCH   1   8
TORSDOF 8
ENDMDL
MODEL 6
REMARK VINA RESULT:    -4.695      1.433      1.906
REMARK INTER + INTRA:          -7.610
REMARK INTER:                  -6.957
REMARK INTRA:                  -0.653
REMARK UNBOUND:                -0.720
REMARK SMILES O=C([O-])CCCCCCCC(=O)[O-]
REMARK SMILES IDX 7 1 6 2 5 3 4 4 2 5 1 6 3 7 8 8 9 9 10 10 11 11 12 12 13 13
REMARK H PARENT
REMARK Flexibility Score: inf
ROOT
ATOM      1  C   UNL     1       6.213   0.511  14.641  1.00  0.00     0.000 C 
ENDROOT
BRANCH   1   2
ATOM      2  C   UNL     1       5.164   0.879  13.576  1.00  0.00     0.000 C 
BRANCH   2   3
ATOM      3  C   UNL     1       3.851   1.388  14.191  1.00  0.00     0.006 C 
BRANCH   3   4
ATOM      4  C   UNL     1       2.771   0.300  14.257  1.00  0.00     0.053 C 
BRANCH   4   5
ATOM      5  C   UNL     1       1.779   0.616  15.331  1.00  0.00     0.041 C 
ATOM      6  O   UNL     1       0.591   0.210  15.235  1.00  0.00    -0.550 OA
ATOM      7  O   UNL     1       2.177   1.317  16.462  1.00  0.00    -0.550 OA
ENDBRANCH   4   5
ENDBRANCH   3   4
ENDBRANCH   2   3
ENDBRANCH   1   2
BRANCH   1   8
ATOM      8  C   UNL     1       6.235  -0.994  14.952  1.00  0.00     0.000 C 
BRANCH   8   9
ATOM      9  C   UNL     1       5.469  -1.344  16.237  1.00  0.00     0.006 C 
BRANCH   9  10
ATOM     10  C   UNL     1       5.401  -0.138  17.179  1.00  0.00     0.053 C 
BRANCH  10  11
ATOM     11  C   UNL     1       5.507  -0.581  18.605  1.00  0.00     0.041 C 
ATOM     12  O   UNL     1       6.354  -1.452  18.935  1.00  0.00    -0.550 OA
ATOM     13  O   UNL     1       4.707   0.005  19.576  1.00  0.00    -0.550 OA
ENDBRANCH  10  11
ENDBRANCH   9  10
ENDBRANCH   8   9
ENDBRANCH   1   8
TORSDOF 8
ENDMDL
MODEL 7
REMARK VINA RESULT:    -4.422      2.319      4.416
REMARK INTER + INTRA:          -7.210
REMARK INTER:                  -6.443
REMARK INTRA:                  -0.767
REMARK UNBOUND:                -0.720
REMARK SMILES O=C([O-])CCCCCCCC(=O)[O-]
REMARK SMILES IDX 7 1 6 2 5 3 4 4 2 5 1 6 3 7 8 8 9 9 10 10 11 11 12 12 13 13
REMARK H PARENT
REMARK Flexibility Score: inf
ROOT
ATOM      1  C   UNL     1       5.090  -1.381  16.851  1.00  0.00     0.000 C 
ENDROOT
BRANCH   1   2
ATOM      2  C   UNL     1       5.452  -0.164  17.721  1.00  0.00     0.000 C 
BRANCH   2   3
ATOM      3  C   UNL     1       5.625   1.122  16.896  1.00  0.00     0.006 C 
BRANCH   3   4
ATOM      4  C   UNL     1       4.374   2.010  16.922  1.00  0.00     0.053 C 
BRANCH   4   5
ATOM      5  C   UNL     1       4.302   2.844  15.682  1.00  0.00     0.041 C 
ATOM      6  O   UNL     1       3.842   2.357  14.616  1.00  0.00    -0.550 OA
ATOM      7  O   UNL     1       4.698   4.175  15.716  1.00  0.00    -0.550 OA
ENDBRANCH   4   5
ENDBRANCH   3   4
ENDBRANCH   2   3
ENDBRANCH   1   2
BRANCH   1   8
ATOM      8  C   UNL     1       5.222  -1.092  15.348  1.00  0.00     0.000 C 
BRANCH   8   9
ATOM      9  C   UNL     1       3.917  -1.350  14.580  1.00  0.00     0.006 C 
BRANCH   9  10
ATOM     10  C   UNL     1       2.727  -1.446  15.539  1.00  0.00     0.053 C 
BRANCH  10  11
ATOM     11  C   UNL     1       1.687  -0.430  15.187  1.00  0.00     0.041 C 
ATOM     12  O   UNL     1       1.045  -0.529  14.107  1.00  0.00    -0.550 OA
ATOM     13  O   UNL     1       1.390   0.598  16.072  1.00  0.00    -0.550 OA
ENDBRANCH  10  11
ENDBRANCH   9  10
ENDBRANCH   8   9
ENDBRANCH   1   8
TORSDOF 8
ENDMDL
MODEL 8
REMARK VINA RESULT:    -4.361      1.796      3.938
REMARK INTER + INTRA:          -7.121
REMARK INTER:                  -6.361
REMARK INTRA:                  -0.760
REMARK UNBOUND:                -0.720
REMARK SMILES O=C([O-])CCCCCCCC(=O)[O-]
REMARK SMILES IDX 7 1 6 2 5 3 4 4 2 5 1 6 3 7 8 8 9 9 10 10 11 11 12 12 13 13
REMARK H PARENT
REMARK Flexibility Score: inf
ROOT
ATOM      1  C   UNL     1       4.890   1.384  13.118  1.00  0.00     0.000 C 
ENDROOT
BRANCH   1   2
ATOM      2  C   UNL     1       6.098   0.727  13.810  1.00  0.00     0.000 C 
BRANCH   2   3
ATOM      3  C   UNL     1       5.689  -0.411  14.759  1.00  0.00     0.006 C 
BRANCH   3   4
ATOM      4  C   UNL     1       5.958  -0.075  16.231  1.00  0.00     0.053 C 
BRANCH   4   5
ATOM      5  C   UNL     1       5.243  -1.039  17.124  1.00  0.00     0.041 C 
ATOM      6  O   UNL     1       4.044  -1.346  16.894  1.00  0.00    -0.550 OA
ATOM      7  O   UNL     1       5.915  -1.636  18.183  1.00  0.00    -0.550 OA
ENDBRANCH   4   5
ENDBRANCH   3   4
ENDBRANCH   2   3
ENDBRANCH   1   2
BRANCH   1   8
ATOM      8  C   UNL     1       4.845   2.906  13.327  1.00  0.00     0.000 C 
BRANCH   8   9
ATOM      9  C   UNL     1       3.702   3.342  14.255  1.00  0.00     0.006 C 
BRANCH   9  10
ATOM     10  C   UNL     1       4.014   2.988  15.712  1.00  0.00     0.053 C 
BRANCH  10  11
ATOM     11  C   UNL     1       3.010   2.013  16.242  1.00  0.00     0.041 C 
ATOM     12  O   UNL     1       2.968   1.755  17.474  1.00  0.00    -0.550 OA
ATOM     13  O   UNL     1       2.087   1.429  15.384  1.00  0.00    -0.550 OA
ENDBRANCH  10  11
ENDBRANCH   9  10
ENDBRANCH   8   9
ENDBRANCH   1   8
TORSDOF 8
ENDMDL
MODEL 9
REMARK VINA RESULT:    -4.235      2.453      3.526
REMARK INTER + INTRA:          -6.936
REMARK INTER:                  -6.192
REMARK INTRA:                  -0.744
REMARK UNBOUND:                -0.720
REMARK SMILES O=C([O-])CCCCCCCC(=O)[O-]
REMARK SMILES IDX 7 1 6 2 5 3 4 4 2 5 1 6 3 7 8 8 9 9 10 10 11 11 12 12 13 13
REMARK H PARENT
REMARK Flexibility Score: inf
ROOT
ATOM      1  C   UNL     1       4.705   0.035  12.888  1.00  0.00     0.000 C 
ENDROOT
BRANCH   1   2
ATOM      2  C   UNL     1       4.848  -1.271  13.690  1.00  0.00     0.000 C 
BRANCH   2   3
ATOM      3  C   UNL     1       3.514  -1.745  14.288  1.00  0.00     0.006 C 
BRANCH   3   4
ATOM      4  C   UNL     1       3.066  -0.889  15.480  1.00  0.00     0.053 C 
BRANCH   4   5
ATOM      5  C   UNL     1       1.726  -0.281  15.211  1.00  0.00     0.041 C 
ATOM      6  O   UNL     1       1.232   0.547  16.020  1.00  0.00    -0.550 OA
ATOM      7  O   UNL     1       1.043  -0.593  14.042  1.00  0.00    -0.550 OA
ENDBRANCH   4   5
ENDBRANCH   3   4
ENDBRANCH   2   3
ENDBRANCH   1   2
BRANCH   1   8
ATOM      8  C   UNL     1       5.712   1.110  13.325  1.00  0.00     0.000 C 
BRANCH   8   9
ATOM      9  C   UNL     1       5.081   2.508  13.418  1.00  0.00     0.006 C 
BRANCH   9  10
ATOM     10  C   UNL     1       3.847   2.492  14.324  1.00  0.00     0.053 C 
BRANCH  10  11
ATOM     11  C   UNL     1       4.195   2.990  15.692  1.00  0.00     0.041 C 
ATOM     12  O   UNL     1       4.025   2.249  16.697  1.00  0.00    -0.550 OA
ATOM     13  O   UNL     1       4.752   4.251  15.853  1.00  0.00    -0.550 OA
ENDBRANCH  10  11
ENDBRANCH   9  10
ENDBRANCH   8   9
ENDBRANCH   1   8
TORSDOF 8
ENDMDL
