MODEL 1
REMARK VINA RESULT:    -8.754      0.000      0.000
REMARK INTER + INTRA:          -9.522
REMARK INTER:                  -9.522
REMARK INTRA:                   0.000
REMARK UNBOUND:                 0.000
REMARK SMILES Cc1cc(O)c2c(c1)C(=O)c1cc(O)cc(O)c1C2=O
REMARK SMILES IDX 1 1 2 2 8 3 7 4 6 5 4 6 3 7 19 8 20 9 18 10 11 11 9 12 10 13
REMARK SMILES IDX 12 14 13 15 15 16 16 17 5 18 17 20 14 22
REMARK H PARENT 5 19 17 21 14 23
REMARK Flexibility Score: inf
ROOT
ATOM      1  C   UNL     1      15.759   4.611 128.672  1.00  0.00     0.044 C 
ATOM      2  C   UNL     1      15.872   5.177 130.058  1.00  0.00    -0.047 A 
ATOM      3  C   UNL     1      16.151   4.338 131.141  1.00  0.00     0.016 A 
ATOM      4  C   UNL     1      16.295   4.862 132.438  1.00  0.00     0.038 A 
ATOM      5  C   UNL     1      16.169   6.253 132.653  1.00  0.00     0.076 A 
ATOM      6  C   UNL     1      15.907   7.099 131.548  1.00  0.00     0.127 A 
ATOM      7  C   UNL     1      15.766   6.556 130.265  1.00  0.00     0.050 A 
ATOM      8  C   UNL     1      16.321   6.796 134.032  1.00  0.00     0.201 C 
ATOM      9  O   UNL     1      16.202   8.035 134.233  1.00  0.00    -0.288 OA
ATOM     10  C   UNL     1      16.609   5.887 135.177  1.00  0.00     0.076 A 
ATOM     11  C   UNL     1      16.735   4.499 134.944  1.00  0.00     0.041 A 
ATOM     12  C   UNL     1      16.580   3.957 133.575  1.00  0.00     0.194 C 
ATOM     13  O   UNL     1      16.692   2.715 133.375  1.00  0.00    -0.289 OA
ATOM     14  C   UNL     1      17.008   3.631 136.018  1.00  0.00     0.059 A 
ATOM     15  C   UNL     1      17.155   4.130 137.315  1.00  0.00     0.120 A 
ATOM     16  C   UNL     1      17.033   5.497 137.549  1.00  0.00     0.093 A 
ATOM     17  C   UNL     1      16.762   6.380 136.497  1.00  0.00     0.131 A 
ENDROOT
BRANCH   6  18
ATOM     18  O   UNL     1      15.786   8.479 131.717  1.00  0.00    -0.507 OA
ATOM     19  H   UNL     1      16.278   8.971 132.453  1.00  0.00     0.293 HD
ENDBRANCH   6  18
BRANCH  17  20
ATOM     20  O   UNL     1      16.646   7.744 136.769  1.00  0.00    -0.507 OA
ATOM     21  H   UNL     1      17.427   8.380 136.652  1.00  0.00     0.293 HD
ENDBRANCH  17  20
BRANCH  15  22
ATOM     22  O   UNL     1      17.425   3.271 138.378  1.00  0.00    -0.508 OA
ATOM     23  H   UNL     1      18.340   2.853 138.504  1.00  0.00     0.293 HD
ENDBRANCH  15  22
TORSDOF 3
ENDMDL
MODEL 2
REMARK VINA RESULT:    -8.537      1.219      5.499
REMARK INTER + INTRA:          -9.285
REMARK INTER:                  -9.285
REMARK INTRA:                   0.000
REMARK UNBOUND:                 0.000
REMARK SMILES Cc1cc(O)c2c(c1)C(=O)c1cc(O)cc(O)c1C2=O
REMARK SMILES IDX 1 1 2 2 8 3 7 4 6 5 4 6 3 7 19 8 20 9 18 10 11 11 9 12 10 13
REMARK SMILES IDX 12 14 13 15 15 16 16 17 5 18 17 20 14 22
REMARK H PARENT 5 19 17 21 14 23
REMARK Flexibility Score: inf
ROOT
ATOM      1  C   UNL     1      17.470   3.210 138.014  1.00  0.00     0.044 C 
ATOM      2  C   UNL     1      17.182   4.157 136.885  1.00  0.00    -0.047 A 
ATOM      3  C   UNL     1      16.962   3.668 135.593  1.00  0.00     0.016 A 
ATOM      4  C   UNL     1      16.655   4.542 134.535  1.00  0.00     0.038 A 
ATOM      5  C   UNL     1      16.556   5.931 134.777  1.00  0.00     0.076 A 
ATOM      6  C   UNL     1      16.759   6.417 136.092  1.00  0.00     0.127 A 
ATOM      7  C   UNL     1      17.064   5.528 137.130  1.00  0.00     0.050 A 
ATOM      8  C   UNL     1      16.233   6.847 133.647  1.00  0.00     0.201 C 
ATOM      9  O   UNL     1      16.150   8.088 133.854  1.00  0.00    -0.288 OA
ATOM     10  C   UNL     1      16.011   6.310 132.275  1.00  0.00     0.076 A 
ATOM     11  C   UNL     1      16.112   4.919 132.052  1.00  0.00     0.041 A 
ATOM     12  C   UNL     1      16.437   4.007 133.172  1.00  0.00     0.194 C 
ATOM     13  O   UNL     1      16.527   2.765 132.964  1.00  0.00    -0.289 OA
ATOM     14  C   UNL     1      15.904   4.401 130.760  1.00  0.00     0.059 A 
ATOM     15  C   UNL     1      15.597   5.250 129.694  1.00  0.00     0.120 A 
ATOM     16  C   UNL     1      15.496   6.623 129.910  1.00  0.00     0.093 A 
ATOM     17  C   UNL     1      15.700   7.162 131.186  1.00  0.00     0.131 A 
ENDROOT
BRANCH   6  18
ATOM     18  O   UNL     1      16.659   7.780 136.373  1.00  0.00    -0.507 OA
ATOM     19  H   UNL     1      17.277   8.235 137.034  1.00  0.00     0.293 HD
ENDBRANCH   6  18
BRANCH  17  20
ATOM     20  O   UNL     1      15.589   8.541 131.365  1.00  0.00    -0.507 OA
ATOM     21  H   UNL     1      16.399   9.122 131.550  1.00  0.00     0.293 HD
ENDBRANCH  17  20
BRANCH  15  22
ATOM     22  O   UNL     1      15.391   4.738 128.415  1.00  0.00    -0.508 OA
ATOM     23  H   UNL     1      14.523   4.892 127.916  1.00  0.00     0.293 HD
ENDBRANCH  15  22
TORSDOF 3
ENDMDL
MODEL 3
REMARK VINA RESULT:    -8.261      2.440      6.594
REMARK INTER + INTRA:          -8.986
REMARK INTER:                  -8.986
REMARK INTRA:                   0.000
REMARK UNBOUND:                 0.000
REMARK SMILES Cc1cc(O)c2c(c1)C(=O)c1cc(O)cc(O)c1C2=O
REMARK SMILES IDX 1 1 2 2 8 3 7 4 6 5 4 6 3 7 19 8 20 9 18 10 11 11 9 12 10 13
REMARK SMILES IDX 12 14 13 15 15 16 16 17 5 18 17 20 14 22
REMARK H PARENT 5 19 17 21 14 23
REMARK Flexibility Score: inf
ROOT
ATOM      1  C   UNL     1      19.035   3.972 135.666  1.00  0.00     0.044 C 
ATOM      2  C   UNL     1      18.032   3.795 134.564  1.00  0.00    -0.047 A 
ATOM      3  C   UNL     1      17.521   4.908 133.890  1.00  0.00     0.016 A 
ATOM      4  C   UNL     1      16.608   4.752 132.831  1.00  0.00     0.038 A 
ATOM      5  C   UNL     1      16.208   3.457 132.432  1.00  0.00     0.076 A 
ATOM      6  C   UNL     1      16.746   2.332 133.106  1.00  0.00     0.127 A 
ATOM      7  C   UNL     1      17.653   2.511 134.158  1.00  0.00     0.050 A 
ATOM      8  C   UNL     1      15.238   3.304 131.312  1.00  0.00     0.201 C 
ATOM      9  O   UNL     1      14.871   2.152 130.955  1.00  0.00    -0.288 OA
ATOM     10  C   UNL     1      14.696   4.502 130.611  1.00  0.00     0.076 A 
ATOM     11  C   UNL     1      15.108   5.789 131.020  1.00  0.00     0.041 A 
ATOM     12  C   UNL     1      16.069   5.944 132.136  1.00  0.00     0.194 C 
ATOM     13  O   UNL     1      16.432   7.098 132.498  1.00  0.00    -0.289 OA
ATOM     14  C   UNL     1      14.604   6.928 130.365  1.00  0.00     0.059 A 
ATOM     15  C   UNL     1      13.696   6.796 129.310  1.00  0.00     0.120 A 
ATOM     16  C   UNL     1      13.287   5.529 128.902  1.00  0.00     0.093 A 
ATOM     17  C   UNL     1      13.776   4.382 129.540  1.00  0.00     0.131 A 
ENDROOT
BRANCH   6  18
ATOM     18  O   UNL     1      16.384   1.037 132.735  1.00  0.00    -0.507 OA
ATOM     19  H   UNL     1      17.075   0.347 132.465  1.00  0.00     0.293 HD
ENDBRANCH   6  18
BRANCH  17  20
ATOM     20  O   UNL     1      13.344   3.128 129.104  1.00  0.00    -0.507 OA
ATOM     21  H   UNL     1      13.101   2.954 128.135  1.00  0.00     0.293 HD
ENDBRANCH  17  20
BRANCH  15  22
ATOM     22  O   UNL     1      13.196   7.922 128.660  1.00  0.00    -0.508 OA
ATOM     23  H   UNL     1      13.796   8.697 128.403  1.00  0.00     0.293 HD
ENDBRANCH  15  22
TORSDOF 3
ENDMDL
MODEL 4
REMARK VINA RESULT:    -8.207      1.181      2.082
REMARK INTER + INTRA:          -8.927
REMARK INTER:                  -8.927
REMARK INTRA:                   0.000
REMARK UNBOUND:                 0.000
REMARK SMILES Cc1cc(O)c2c(c1)C(=O)c1cc(O)cc(O)c1C2=O
REMARK SMILES IDX 1 1 2 2 8 3 7 4 6 5 4 6 3 7 19 8 20 9 18 10 11 11 9 12 10 13
REMARK SMILES IDX 12 14 13 15 15 16 16 17 5 18 17 20 14 22
REMARK H PARENT 5 19 17 21 14 23
REMARK Flexibility Score: inf
ROOT
ATOM      1  C   UNL     1      15.203   4.089 126.752  1.00  0.00     0.044 C 
ATOM      2  C   UNL     1      15.374   4.758 128.085  1.00  0.00    -0.047 A 
ATOM      3  C   UNL     1      15.624   3.995 129.230  1.00  0.00     0.016 A 
ATOM      4  C   UNL     1      15.822   4.613 130.477  1.00  0.00     0.038 A 
ATOM      5  C   UNL     1      15.780   6.022 130.579  1.00  0.00     0.076 A 
ATOM      6  C   UNL     1      15.547   6.789 129.411  1.00  0.00     0.127 A 
ATOM      7  C   UNL     1      15.352   6.152 128.179  1.00  0.00     0.050 A 
ATOM      8  C   UNL     1      15.988   6.665 131.906  1.00  0.00     0.201 C 
ATOM      9  O   UNL     1      15.945   7.921 132.006  1.00  0.00    -0.288 OA
ATOM     10  C   UNL     1      16.244   5.837 133.118  1.00  0.00     0.076 A 
ATOM     11  C   UNL     1      16.285   4.430 132.999  1.00  0.00     0.041 A 
ATOM     12  C   UNL     1      16.074   3.788 131.681  1.00  0.00     0.194 C 
ATOM     13  O   UNL     1      16.110   2.530 131.583  1.00  0.00    -0.289 OA
ATOM     14  C   UNL     1      16.526   3.637 134.136  1.00  0.00     0.059 A 
ATOM     15  C   UNL     1      16.726   4.230 135.386  1.00  0.00     0.120 A 
ATOM     16  C   UNL     1      16.688   5.617 135.509  1.00  0.00     0.093 A 
ATOM     17  C   UNL     1      16.449   6.426 134.391  1.00  0.00     0.131 A 
ENDROOT
BRANCH   6  18
ATOM     18  O   UNL     1      15.510   8.183 129.468  1.00  0.00    -0.507 OA
ATOM     19  H   UNL     1      14.857   8.722 128.911  1.00  0.00     0.293 HD
ENDBRANCH   6  18
BRANCH  17  20
ATOM     20  O   UNL     1      16.417   7.812 134.551  1.00  0.00    -0.507 OA
ATOM     21  H   UNL     1      16.287   8.438 133.764  1.00  0.00     0.293 HD
ENDBRANCH  17  20
BRANCH  15  22
ATOM     22  O   UNL     1      16.965   3.447 136.513  1.00  0.00    -0.508 OA
ATOM     23  H   UNL     1      16.322   2.717 136.799  1.00  0.00     0.293 HD
ENDBRANCH  15  22
TORSDOF 3
ENDMDL
MODEL 5
REMARK VINA RESULT:    -7.986      1.793      5.678
REMARK INTER + INTRA:          -8.686
REMARK INTER:                  -8.686
REMARK INTRA:                   0.000
REMARK UNBOUND:                 0.000
REMARK SMILES Cc1cc(O)c2c(c1)C(=O)c1cc(O)cc(O)c1C2=O
REMARK SMILES IDX 1 1 2 2 8 3 7 4 6 5 4 6 3 7 19 8 20 9 18 10 11 11 9 12 10 13
REMARK SMILES IDX 12 14 13 15 15 16 16 17 5 18 17 20 14 22
REMARK H PARENT 5 19 17 21 14 23
REMARK Flexibility Score: inf
ROOT
ATOM      1  C   UNL     1      17.377   4.358 137.638  1.00  0.00     0.044 C 
ATOM      2  C   UNL     1      17.029   4.689 136.216  1.00  0.00    -0.047 A 
ATOM      3  C   UNL     1      17.023   3.687 135.241  1.00  0.00     0.016 A 
ATOM      4  C   UNL     1      16.663   3.977 133.913  1.00  0.00     0.038 A 
ATOM      5  C   UNL     1      16.289   5.293 133.557  1.00  0.00     0.076 A 
ATOM      6  C   UNL     1      16.277   6.299 134.555  1.00  0.00     0.127 A 
ATOM      7  C   UNL     1      16.640   5.987 135.871  1.00  0.00     0.050 A 
ATOM      8  C   UNL     1      15.913   5.590 132.147  1.00  0.00     0.201 C 
ATOM      9  O   UNL     1      15.585   6.762 131.821  1.00  0.00    -0.288 OA
ATOM     10  C   UNL     1      15.922   4.513 131.118  1.00  0.00     0.076 A 
ATOM     11  C   UNL     1      16.295   3.202 131.490  1.00  0.00     0.041 A 
ATOM     12  C   UNL     1      16.674   2.906 132.890  1.00  0.00     0.194 C 
ATOM     13  O   UNL     1      17.008   1.733 133.216  1.00  0.00    -0.289 OA
ATOM     14  C   UNL     1      16.307   2.177 130.527  1.00  0.00     0.059 A 
ATOM     15  C   UNL     1      15.952   2.442 129.202  1.00  0.00     0.120 A 
ATOM     16  C   UNL     1      15.582   3.733 128.829  1.00  0.00     0.093 A 
ATOM     17  C   UNL     1      15.563   4.769 129.771  1.00  0.00     0.131 A 
ENDROOT
BRANCH   6  18
ATOM     18  O   UNL     1      15.903   7.607 134.247  1.00  0.00    -0.507 OA
ATOM     19  H   UNL     1      15.678   8.282 134.968  1.00  0.00     0.293 HD
ENDBRANCH   6  18
BRANCH  17  20
ATOM     20  O   UNL     1      15.187   6.049 129.362  1.00  0.00    -0.507 OA
ATOM     21  H   UNL     1      14.988   6.263 128.391  1.00  0.00     0.293 HD
ENDBRANCH  17  20
BRANCH  15  22
ATOM     22  O   UNL     1      15.963   1.428 128.247  1.00  0.00    -0.508 OA
ATOM     23  H   UNL     1      16.078   1.628 127.261  1.00  0.00     0.293 HD
ENDBRANCH  15  22
TORSDOF 3
ENDMDL
MODEL 6
REMARK VINA RESULT:    -7.907      1.362      3.797
REMARK INTER + INTRA:          -8.601
REMARK INTER:                  -8.601
REMARK INTRA:                   0.000
REMARK UNBOUND:                 0.000
REMARK SMILES Cc1cc(O)c2c(c1)C(=O)c1cc(O)cc(O)c1C2=O
REMARK SMILES IDX 1 1 2 2 8 3 7 4 6 5 4 6 3 7 19 8 20 9 18 10 11 11 9 12 10 13
REMARK SMILES IDX 12 14 13 15 15 16 16 17 5 18 17 20 14 22
REMARK H PARENT 5 19 17 21 14 23
REMARK Flexibility Score: inf
ROOT
ATOM      1  C   UNL     1      15.067   3.983 127.353  1.00  0.00     0.044 C 
ATOM      2  C   UNL     1      15.474   3.774 128.783  1.00  0.00    -0.047 A 
ATOM      3  C   UNL     1      15.494   4.851 129.675  1.00  0.00     0.016 A 
ATOM      4  C   UNL     1      15.838   4.661 131.025  1.00  0.00     0.038 A 
ATOM      5  C   UNL     1      16.157   3.367 131.494  1.00  0.00     0.076 A 
ATOM      6  C   UNL     1      16.115   2.277 130.590  1.00  0.00     0.127 A 
ATOM      7  C   UNL     1      15.770   2.489 129.249  1.00  0.00     0.050 A 
ATOM      8  C   UNL     1      16.523   3.178 132.926  1.00  0.00     0.201 C 
ATOM      9  O   UNL     1      16.815   2.028 133.350  1.00  0.00    -0.288 OA
ATOM     10  C   UNL     1      16.548   4.338 133.861  1.00  0.00     0.076 A 
ATOM     11  C   UNL     1      16.224   5.625 133.376  1.00  0.00     0.041 A 
ATOM     12  C   UNL     1      15.864   5.815 131.952  1.00  0.00     0.194 C 
ATOM     13  O   UNL     1      15.578   6.969 131.526  1.00  0.00    -0.289 OA
ATOM     14  C   UNL     1      16.244   6.728 134.250  1.00  0.00     0.059 A 
ATOM     15  C   UNL     1      16.582   6.563 135.595  1.00  0.00     0.120 A 
ATOM     16  C   UNL     1      16.902   5.296 136.078  1.00  0.00     0.093 A 
ATOM     17  C   UNL     1      16.889   4.183 135.227  1.00  0.00     0.131 A 
ENDROOT
BRANCH   6  18
ATOM     18  O   UNL     1      16.412   0.982 131.017  1.00  0.00    -0.507 OA
ATOM     19  H   UNL     1      16.942   0.339 130.441  1.00  0.00     0.293 HD
ENDBRANCH   6  18
BRANCH  17  20
ATOM     20  O   UNL     1      17.214   2.929 135.746  1.00  0.00    -0.507 OA
ATOM     21  H   UNL     1      17.111   2.082 135.199  1.00  0.00     0.293 HD
ENDBRANCH  17  20
BRANCH  15  22
ATOM     22  O   UNL     1      16.602   7.653 136.461  1.00  0.00    -0.508 OA
ATOM     23  H   UNL     1      15.838   8.318 136.496  1.00  0.00     0.293 HD
ENDBRANCH  15  22
TORSDOF 3
ENDMDL
MODEL 7
REMARK VINA RESULT:    -7.880      2.280      4.954
REMARK INTER + INTRA:          -8.571
REMARK INTER:                  -8.571
REMARK INTRA:                   0.000
REMARK UNBOUND:                 0.000
REMARK SMILES Cc1cc(O)c2c(c1)C(=O)c1cc(O)cc(O)c1C2=O
REMARK SMILES IDX 1 1 2 2 8 3 7 4 6 5 4 6 3 7 19 8 20 9 18 10 11 11 9 12 10 13
REMARK SMILES IDX 12 14 13 15 15 16 16 17 5 18 17 20 14 22
REMARK H PARENT 5 19 17 21 14 23
REMARK Flexibility Score: inf
ROOT
ATOM      1  C   UNL     1      15.753   1.015 130.155  1.00  0.00     0.044 C 
ATOM      2  C   UNL     1      15.943   2.266 130.962  1.00  0.00    -0.047 A 
ATOM      3  C   UNL     1      15.829   3.521 130.355  1.00  0.00     0.016 A 
ATOM      4  C   UNL     1      15.968   4.700 131.109  1.00  0.00     0.038 A 
ATOM      5  C   UNL     1      16.215   4.622 132.498  1.00  0.00     0.076 A 
ATOM      6  C   UNL     1      16.309   3.347 133.110  1.00  0.00     0.127 A 
ATOM      7  C   UNL     1      16.167   2.186 132.340  1.00  0.00     0.050 A 
ATOM      8  C   UNL     1      16.365   5.878 133.285  1.00  0.00     0.201 C 
ATOM      9  O   UNL     1      16.592   5.816 134.523  1.00  0.00    -0.288 OA
ATOM     10  C   UNL     1      16.250   7.207 132.621  1.00  0.00     0.076 A 
ATOM     11  C   UNL     1      16.000   7.267 131.232  1.00  0.00     0.041 A 
ATOM     12  C   UNL     1      15.855   6.020 130.447  1.00  0.00     0.194 C 
ATOM     13  O   UNL     1      15.634   6.081 129.205  1.00  0.00    -0.289 OA
ATOM     14  C   UNL     1      15.889   8.516 130.594  1.00  0.00     0.059 A 
ATOM     15  C   UNL     1      16.023   9.701 131.323  1.00  0.00     0.120 A 
ATOM     16  C   UNL     1      16.269   9.647 132.693  1.00  0.00     0.093 A 
ATOM     17  C   UNL     1      16.384   8.415 133.349  1.00  0.00     0.131 A 
ENDROOT
BRANCH   6  18
ATOM     18  O   UNL     1      16.541   3.228 134.481  1.00  0.00    -0.507 OA
ATOM     19  H   UNL     1      17.079   2.461 134.866  1.00  0.00     0.293 HD
ENDBRANCH   6  18
BRANCH  17  20
ATOM     20  O   UNL     1      16.629   8.399 134.723  1.00  0.00    -0.507 OA
ATOM     21  H   UNL     1      16.177   9.051 135.354  1.00  0.00     0.293 HD
ENDBRANCH  17  20
BRANCH  15  22
ATOM     22  O   UNL     1      15.913  10.938 130.693  1.00  0.00    -0.508 OA
ATOM     23  H   UNL     1      16.432  11.152 129.849  1.00  0.00     0.293 HD
ENDBRANCH  15  22
TORSDOF 3
ENDMDL
MODEL 8
REMARK VINA RESULT:    -7.815      1.884      4.208
REMARK INTER + INTRA:          -8.500
REMARK INTER:                  -8.500
REMARK INTRA:                   0.000
REMARK UNBOUND:                 0.000
REMARK SMILES Cc1cc(O)c2c(c1)C(=O)c1cc(O)cc(O)c1C2=O
REMARK SMILES IDX 1 1 2 2 8 3 7 4 6 5 4 6 3 7 19 8 20 9 18 10 11 11 9 12 10 13
REMARK SMILES IDX 12 14 13 15 15 16 16 17 5 18 17 20 14 22
REMARK H PARENT 5 19 17 21 14 23
REMARK Flexibility Score: inf
ROOT
ATOM      1  C   UNL     1      14.738   7.365 126.719  1.00  0.00     0.044 C 
ATOM      2  C   UNL     1      15.094   6.376 127.791  1.00  0.00    -0.047 A 
ATOM      3  C   UNL     1      15.351   6.811 129.095  1.00  0.00     0.016 A 
ATOM      4  C   UNL     1      15.649   5.891 130.115  1.00  0.00     0.038 A 
ATOM      5  C   UNL     1      15.680   4.507 129.828  1.00  0.00     0.076 A 
ATOM      6  C   UNL     1      15.398   4.072 128.509  1.00  0.00     0.127 A 
ATOM      7  C   UNL     1      15.103   5.006 127.509  1.00  0.00     0.050 A 
ATOM      8  C   UNL     1      16.000   3.542 130.916  1.00  0.00     0.201 C 
ATOM      9  O   UNL     1      16.035   2.307 130.665  1.00  0.00    -0.288 OA
ATOM     10  C   UNL     1      16.281   4.023 132.298  1.00  0.00     0.076 A 
ATOM     11  C   UNL     1      16.244   5.409 132.569  1.00  0.00     0.041 A 
ATOM     12  C   UNL     1      15.930   6.371 131.488  1.00  0.00     0.194 C 
ATOM     13  O   UNL     1      15.901   7.608 131.737  1.00  0.00    -0.289 OA
ATOM     14  C   UNL     1      16.507   5.875 133.870  1.00  0.00     0.059 A 
ATOM     15  C   UNL     1      16.805   4.978 134.899  1.00  0.00     0.120 A 
ATOM     16  C   UNL     1      16.842   3.611 134.637  1.00  0.00     0.093 A 
ATOM     17  C   UNL     1      16.584   3.124 133.350  1.00  0.00     0.131 A 
ENDROOT
BRANCH   6  18
ATOM     18  O   UNL     1      15.406   2.714 128.188  1.00  0.00    -0.507 OA
ATOM     19  H   UNL     1      15.872   2.030 128.773  1.00  0.00     0.293 HD
ENDBRANCH   6  18
BRANCH  17  20
ATOM     20  O   UNL     1      16.629   1.747 133.125  1.00  0.00    -0.507 OA
ATOM     21  H   UNL     1      17.488   1.276 132.865  1.00  0.00     0.293 HD
ENDBRANCH  17  20
BRANCH  15  22
ATOM     22  O   UNL     1      17.065   5.439 136.188  1.00  0.00    -0.508 OA
ATOM     23  H   UNL     1      17.623   6.269 136.353  1.00  0.00     0.293 HD
ENDBRANCH  15  22
TORSDOF 3
ENDMDL
MODEL 9
REMARK VINA RESULT:    -7.705      1.551      2.170
REMARK INTER + INTRA:          -8.380
REMARK INTER:                  -8.380
REMARK INTRA:                   0.000
REMARK UNBOUND:                 0.000
REMARK SMILES Cc1cc(O)c2c(c1)C(=O)c1cc(O)cc(O)c1C2=O
REMARK SMILES IDX 1 1 2 2 8 3 7 4 6 5 4 6 3 7 19 8 20 9 18 10 11 11 9 12 10 13
REMARK SMILES IDX 12 14 13 15 15 16 16 17 5 18 17 20 14 22
REMARK H PARENT 5 19 17 21 14 23
REMARK Flexibility Score: inf
ROOT
ATOM      1  C   UNL     1      16.067   1.296 128.589  1.00  0.00     0.044 C 
ATOM      2  C   UNL     1      15.981   2.440 129.556  1.00  0.00    -0.047 A 
ATOM      3  C   UNL     1      16.383   2.272 130.884  1.00  0.00     0.016 A 
ATOM      4  C   UNL     1      16.342   3.347 131.790  1.00  0.00     0.038 A 
ATOM      5  C   UNL     1      15.902   4.618 131.355  1.00  0.00     0.076 A 
ATOM      6  C   UNL     1      15.516   4.786 130.002  1.00  0.00     0.127 A 
ATOM      7  C   UNL     1      15.565   3.701 129.117  1.00  0.00     0.050 A 
ATOM      8  C   UNL     1      15.860   5.748 132.324  1.00  0.00     0.201 C 
ATOM      9  O   UNL     1      15.462   6.882 131.944  1.00  0.00    -0.288 OA
ATOM     10  C   UNL     1      16.283   5.549 133.739  1.00  0.00     0.076 A 
ATOM     11  C   UNL     1      16.723   4.274 134.157  1.00  0.00     0.041 A 
ATOM     12  C   UNL     1      16.761   3.148 133.197  1.00  0.00     0.194 C 
ATOM     13  O   UNL     1      17.154   2.010 133.578  1.00  0.00    -0.289 OA
ATOM     14  C   UNL     1      17.125   4.075 135.491  1.00  0.00     0.059 A 
ATOM     15  C   UNL     1      17.093   5.129 136.408  1.00  0.00     0.120 A 
ATOM     16  C   UNL     1      16.661   6.388 136.000  1.00  0.00     0.093 A 
ATOM     17  C   UNL     1      16.256   6.610 134.678  1.00  0.00     0.131 A 
ENDROOT
BRANCH   6  18
ATOM     18  O   UNL     1      15.086   6.027 129.530  1.00  0.00    -0.507 OA
ATOM     19  H   UNL     1      15.040   6.234 128.540  1.00  0.00     0.293 HD
ENDBRANCH   6  18
BRANCH  17  20
ATOM     20  O   UNL     1      15.829   7.886 134.305  1.00  0.00    -0.507 OA
ATOM     21  H   UNL     1      15.250   8.037 133.486  1.00  0.00     0.293 HD
ENDBRANCH  17  20
BRANCH  15  22
ATOM     22  O   UNL     1      17.491   4.932 137.728  1.00  0.00    -0.508 OA
ATOM     23  H   UNL     1      17.290   5.614 138.450  1.00  0.00     0.293 HD
ENDBRANCH  15  22
TORSDOF 3
ENDMDL
