MODEL 1
REMARK VINA RESULT:    -4.197      0.000      0.000
REMARK INTER + INTRA:          -5.172
REMARK INTER:                  -5.056
REMARK INTRA:                  -0.115
REMARK UNBOUND:                -0.115
REMARK SMILES NC(=O)C[C@H]([NH3+])C(=O)[O-]
REMARK SMILES IDX 4 1 5 2 6 3 7 7 8 8 9 9 2 10 3 11 1 12
REMARK H PARENT 6 4 6 5 6 6 1 13 1 14
REMARK Flexibility Score: inf
ROOT
ATOM      1  C   UNL     1     -24.476   5.224 -15.388  1.00  0.00     0.171 C 
ENDROOT
BRANCH   1   2
ATOM      2  C   UNL     1     -23.685   6.001 -14.317  1.00  0.00     0.237 C 
BRANCH   2   3
ATOM      3  N   UNL     1     -24.546   6.402 -13.196  1.00  0.00    -0.350 N 
ATOM      4  H   UNL     1     -24.088   6.153 -12.289  1.00  0.00     0.345 HD
ATOM      5  H   UNL     1     -25.458   5.892 -13.245  1.00  0.00     0.345 HD
ATOM      6  H   UNL     1     -24.727   7.432 -13.217  1.00  0.00     0.345 HD
ENDBRANCH   2   3
BRANCH   2   7
ATOM      7  C   UNL     1     -23.050   7.216 -14.939  1.00  0.00     0.100 C 
ATOM      8  O   UNL     1     -21.898   7.140 -15.444  1.00  0.00    -0.544 OA
ATOM      9  O   UNL     1     -23.736   8.424 -14.978  1.00  0.00    -0.544 OA
ENDBRANCH   2   7
ENDBRANCH   1   2
BRANCH   1  10
ATOM     10  C   UNL     1     -23.631   4.172 -16.047  1.00  0.00     0.223 C 
ATOM     11  O   UNL     1     -23.005   4.445 -17.106  1.00  0.00    -0.275 OA
ATOM     12  N   UNL     1     -23.504   2.874 -15.465  1.00  0.00    -0.369 N 
ATOM     13  H   UNL     1     -23.998   2.638 -14.576  1.00  0.00     0.159 HD
ATOM     14  H   UNL     1     -22.908   2.149 -15.921  1.00  0.00     0.159 HD
ENDBRANCH   1  10
TORSDOF 4
ENDMDL
MODEL 2
REMARK VINA RESULT:    -4.174      2.241      3.568
REMARK INTER + INTRA:          -5.144
REMARK INTER:                  -5.072
REMARK INTRA:                  -0.072
REMARK UNBOUND:                -0.115
REMARK SMILES NC(=O)C[C@H]([NH3+])C(=O)[O-]
REMARK SMILES IDX 4 1 5 2 6 3 7 7 8 8 9 9 2 10 3 11 1 12
REMARK H PARENT 6 4 6 5 6 6 1 13 1 14
REMARK Flexibility Score: inf
ROOT
ATOM      1  C   UNL     1     -23.508   6.841 -15.065  1.00  0.00     0.171 C 
ENDROOT
BRANCH   1   2
ATOM      2  C   UNL     1     -22.445   5.747 -15.286  1.00  0.00     0.237 C 
BRANCH   2   3
ATOM      3  N   UNL     1     -21.241   6.288 -15.932  1.00  0.00    -0.350 N 
ATOM      4  H   UNL     1     -20.552   6.590 -15.204  1.00  0.00     0.345 HD
ATOM      5  H   UNL     1     -21.489   7.126 -16.506  1.00  0.00     0.345 HD
ATOM      6  H   UNL     1     -20.796   5.569 -16.548  1.00  0.00     0.345 HD
ENDBRANCH   2   3
BRANCH   2   7
ATOM      7  C   UNL     1     -23.026   4.639 -16.124  1.00  0.00     0.100 C 
ATOM      8  O   UNL     1     -22.798   4.596 -17.362  1.00  0.00    -0.544 OA
ATOM      9  O   UNL     1     -23.802   3.648 -15.535  1.00  0.00    -0.544 OA
ENDBRANCH   2   7
ENDBRANCH   1   2
BRANCH   1  10
ATOM     10  C   UNL     1     -24.633   6.354 -14.199  1.00  0.00     0.223 C 
ATOM     11  O   UNL     1     -24.484   6.304 -12.948  1.00  0.00    -0.275 OA
ATOM     12  N   UNL     1     -25.883   5.976 -14.776  1.00  0.00    -0.369 N 
ATOM     13  H   UNL     1     -26.032   6.032 -15.809  1.00  0.00     0.159 HD
ATOM     14  H   UNL     1     -26.666   5.647 -14.169  1.00  0.00     0.159 HD
ENDBRANCH   1  10
TORSDOF 4
ENDMDL
MODEL 3
REMARK VINA RESULT:    -4.030      1.731      3.700
REMARK INTER + INTRA:          -4.970
REMARK INTER:                  -4.888
REMARK INTRA:                  -0.081
REMARK UNBOUND:                -0.115
REMARK SMILES NC(=O)C[C@H]([NH3+])C(=O)[O-]
REMARK SMILES IDX 4 1 5 2 6 3 7 7 8 8 9 9 2 10 3 11 1 12
REMARK H PARENT 6 4 6 5 6 6 1 13 1 14
REMARK Flexibility Score: inf
ROOT
ATOM      1  C   UNL     1     -23.413   5.447 -15.206  1.00  0.00     0.171 C 
ENDROOT
BRANCH   1   2
ATOM      2  C   UNL     1     -23.887   4.214 -16.002  1.00  0.00     0.237 C 
BRANCH   2   3
ATOM      3  N   UNL     1     -23.255   2.981 -15.512  1.00  0.00    -0.350 N 
ATOM      4  H   UNL     1     -23.644   2.730 -14.574  1.00  0.00     0.345 HD
ATOM      5  H   UNL     1     -22.225   3.126 -15.403  1.00  0.00     0.345 HD
ATOM      6  H   UNL     1     -23.423   2.190 -16.175  1.00  0.00     0.345 HD
ENDBRANCH   2   3
BRANCH   2   7
ATOM      7  C   UNL     1     -23.580   4.406 -17.463  1.00  0.00     0.100 C 
ATOM      8  O   UNL     1     -22.401   4.646 -17.835  1.00  0.00    -0.544 OA
ATOM      9  O   UNL     1     -24.590   4.303 -18.411  1.00  0.00    -0.544 OA
ENDBRANCH   2   7
ENDBRANCH   1   2
BRANCH   1  10
ATOM     10  C   UNL     1     -24.537   6.072 -14.431  1.00  0.00     0.223 C 
ATOM     11  O   UNL     1     -25.652   6.261 -14.988  1.00  0.00    -0.275 OA
ATOM     12  N   UNL     1     -24.364   6.425 -13.059  1.00  0.00    -0.369 N 
ATOM     13  H   UNL     1     -23.454   6.255 -12.575  1.00  0.00     0.159 HD
ATOM     14  H   UNL     1     -25.151   6.850 -12.521  1.00  0.00     0.159 HD
ENDBRANCH   1  10
TORSDOF 4
ENDMDL
MODEL 4
REMARK VINA RESULT:    -4.001      2.243      2.444
REMARK INTER + INTRA:          -4.935
REMARK INTER:                  -4.825
REMARK INTRA:                  -0.110
REMARK UNBOUND:                -0.115
REMARK SMILES NC(=O)C[C@H]([NH3+])C(=O)[O-]
REMARK SMILES IDX 4 1 5 2 6 3 7 7 8 8 9 9 2 10 3 11 1 12
REMARK H PARENT 6 4 6 5 6 6 1 13 1 14
REMARK Flexibility Score: inf
ROOT
ATOM      1  C   UNL     1     -23.246   4.317 -16.133  1.00  0.00     0.171 C 
ENDROOT
BRANCH   1   2
ATOM      2  C   UNL     1     -23.220   5.753 -15.573  1.00  0.00     0.237 C 
BRANCH   2   3
ATOM      3  N   UNL     1     -21.966   6.031 -14.860  1.00  0.00    -0.350 N 
ATOM      4  H   UNL     1     -21.429   5.143 -14.726  1.00  0.00     0.345 HD
ATOM      5  H   UNL     1     -22.171   6.426 -13.914  1.00  0.00     0.345 HD
ATOM      6  H   UNL     1     -21.377   6.710 -15.395  1.00  0.00     0.345 HD
ENDBRANCH   2   3
BRANCH   2   7
ATOM      7  C   UNL     1     -24.393   5.958 -14.652  1.00  0.00     0.100 C 
ATOM      8  O   UNL     1     -24.205   6.278 -13.448  1.00  0.00    -0.544 OA
ATOM      9  O   UNL     1     -25.691   5.814 -15.127  1.00  0.00    -0.544 OA
ENDBRANCH   2   7
ENDBRANCH   1   2
BRANCH   1  10
ATOM     10  C   UNL     1     -23.219   4.306 -17.634  1.00  0.00     0.223 C 
ATOM     11  O   UNL     1     -22.144   4.557 -18.242  1.00  0.00    -0.275 OA
ATOM     12  N   UNL     1     -24.393   3.983 -18.379  1.00  0.00    -0.369 N 
ATOM     13  H   UNL     1     -25.287   3.750 -17.891  1.00  0.00     0.159 HD
ATOM     14  H   UNL     1     -24.367   3.967 -19.422  1.00  0.00     0.159 HD
ENDBRANCH   1  10
TORSDOF 4
ENDMDL
MODEL 5
REMARK VINA RESULT:    -3.895      2.048      2.417
REMARK INTER + INTRA:          -4.807
REMARK INTER:                  -4.694
REMARK INTRA:                  -0.113
REMARK UNBOUND:                -0.115
REMARK SMILES NC(=O)C[C@H]([NH3+])C(=O)[O-]
REMARK SMILES IDX 4 1 5 2 6 3 7 7 8 8 9 9 2 10 3 11 1 12
REMARK H PARENT 6 4 6 5 6 6 1 13 1 14
REMARK Flexibility Score: inf
ROOT
ATOM      1  C   UNL     1     -23.972   4.995 -14.838  1.00  0.00     0.171 C 
ENDROOT
BRANCH   1   2
ATOM      2  C   UNL     1     -24.310   6.375 -14.239  1.00  0.00     0.237 C 
BRANCH   2   3
ATOM      3  N   UNL     1     -24.423   6.313 -12.775  1.00  0.00    -0.350 N 
ATOM      4  H   UNL     1     -25.362   6.666 -12.476  1.00  0.00     0.345 HD
ATOM      5  H   UNL     1     -23.697   6.923 -12.333  1.00  0.00     0.345 HD
ATOM      6  H   UNL     1     -24.301   5.331 -12.435  1.00  0.00     0.345 HD
ENDBRANCH   2   3
BRANCH   2   7
ATOM      7  C   UNL     1     -25.596   6.883 -14.834  1.00  0.00     0.100 C 
ATOM      8  O   UNL     1     -25.888   8.107 -14.760  1.00  0.00    -0.544 OA
ATOM      9  O   UNL     1     -26.461   6.011 -15.485  1.00  0.00    -0.544 OA
ENDBRANCH   2   7
ENDBRANCH   1   2
BRANCH   1  10
ATOM     10  C   UNL     1     -22.867   5.087 -15.851  1.00  0.00     0.223 C 
ATOM     11  O   UNL     1     -22.971   4.476 -16.948  1.00  0.00    -0.275 OA
ATOM     12  N   UNL     1     -21.713   5.887 -15.594  1.00  0.00    -0.369 N 
ATOM     13  H   UNL     1     -21.620   6.419 -14.700  1.00  0.00     0.159 HD
ATOM     14  H   UNL     1     -20.951   5.956 -16.305  1.00  0.00     0.159 HD
ENDBRANCH   1  10
TORSDOF 4
ENDMDL
MODEL 6
REMARK VINA RESULT:    -3.889      1.657      1.997
REMARK INTER + INTRA:          -4.800
REMARK INTER:                  -4.515
REMARK INTRA:                  -0.285
REMARK UNBOUND:                -0.115
REMARK SMILES NC(=O)C[C@H]([NH3+])C(=O)[O-]
REMARK SMILES IDX 4 1 5 2 6 3 7 7 8 8 9 9 2 10 3 11 1 12
REMARK H PARENT 6 4 6 5 6 6 1 13 1 14
REMARK Flexibility Score: inf
ROOT
ATOM      1  C   UNL     1     -24.531   4.874 -15.498  1.00  0.00     0.171 C 
ENDROOT
BRANCH   1   2
ATOM      2  C   UNL     1     -23.937   6.249 -15.129  1.00  0.00     0.237 C 
BRANCH   2   3
ATOM      3  N   UNL     1     -22.563   6.124 -14.626  1.00  0.00    -0.350 N 
ATOM      4  H   UNL     1     -22.478   5.269 -14.029  1.00  0.00     0.345 HD
ATOM      5  H   UNL     1     -22.321   6.953 -14.035  1.00  0.00     0.345 HD
ATOM      6  H   UNL     1     -21.882   6.057 -15.418  1.00  0.00     0.345 HD
ENDBRANCH   2   3
BRANCH   2   7
ATOM      7  C   UNL     1     -24.807   6.913 -14.095  1.00  0.00     0.100 C 
ATOM      8  O   UNL     1     -25.591   7.841 -14.429  1.00  0.00    -0.544 OA
ATOM      9  O   UNL     1     -24.763   6.497 -12.770  1.00  0.00    -0.544 OA
ENDBRANCH   2   7
ENDBRANCH   1   2
BRANCH   1  10
ATOM     10  C   UNL     1     -23.493   3.963 -16.087  1.00  0.00     0.223 C 
ATOM     11  O   UNL     1     -22.858   4.320 -17.115  1.00  0.00    -0.275 OA
ATOM     12  N   UNL     1     -23.197   2.708 -15.474  1.00  0.00    -0.369 N 
ATOM     13  H   UNL     1     -23.698   2.405 -14.609  1.00  0.00     0.159 HD
ATOM     14  H   UNL     1     -22.468   2.082 -15.882  1.00  0.00     0.159 HD
ENDBRANCH   1  10
TORSDOF 4
ENDMDL
MODEL 7
REMARK VINA RESULT:    -3.875      1.821      3.858
REMARK INTER + INTRA:          -4.783
REMARK INTER:                  -4.703
REMARK INTRA:                  -0.080
REMARK UNBOUND:                -0.115
REMARK SMILES NC(=O)C[C@H]([NH3+])C(=O)[O-]
REMARK SMILES IDX 4 1 5 2 6 3 7 7 8 8 9 9 2 10 3 11 1 12
REMARK H PARENT 6 4 6 5 6 6 1 13 1 14
REMARK Flexibility Score: inf
ROOT
ATOM      1  C   UNL     1     -22.898   6.778 -15.043  1.00  0.00     0.171 C 
ENDROOT
BRANCH   1   2
ATOM      2  C   UNL     1     -24.276   6.286 -14.555  1.00  0.00     0.237 C 
BRANCH   2   3
ATOM      3  N   UNL     1     -24.259   5.973 -13.119  1.00  0.00    -0.350 N 
ATOM      4  H   UNL     1     -25.231   6.012 -12.735  1.00  0.00     0.345 HD
ATOM      5  H   UNL     1     -23.683   6.679 -12.606  1.00  0.00     0.345 HD
ATOM      6  H   UNL     1     -23.862   5.019 -12.952  1.00  0.00     0.345 HD
ENDBRANCH   2   3
BRANCH   2   7
ATOM      7  C   UNL     1     -24.686   5.070 -15.343  1.00  0.00     0.100 C 
ATOM      8  O   UNL     1     -25.816   5.027 -15.897  1.00  0.00    -0.544 OA
ATOM      9  O   UNL     1     -23.815   3.995 -15.478  1.00  0.00    -0.544 OA
ENDBRANCH   2   7
ENDBRANCH   1   2
BRANCH   1  10
ATOM     10  C   UNL     1     -22.840   8.276 -15.118  1.00  0.00     0.223 C 
ATOM     11  O   UNL     1     -21.770   8.844 -15.463  1.00  0.00    -0.275 OA
ATOM     12  N   UNL     1     -23.997   9.063 -14.832  1.00  0.00    -0.369 N 
ATOM     13  H   UNL     1     -24.899   8.608 -14.566  1.00  0.00     0.159 HD
ATOM     14  H   UNL     1     -23.955  10.104 -14.895  1.00  0.00     0.159 HD
ENDBRANCH   1  10
TORSDOF 4
ENDMDL
MODEL 8
REMARK VINA RESULT:    -3.869      2.054      2.223
REMARK INTER + INTRA:          -4.776
REMARK INTER:                  -4.677
REMARK INTRA:                  -0.098
REMARK UNBOUND:                -0.115
REMARK SMILES NC(=O)C[C@H]([NH3+])C(=O)[O-]
REMARK SMILES IDX 4 1 5 2 6 3 7 7 8 8 9 9 2 10 3 11 1 12
REMARK H PARENT 6 4 6 5 6 6 1 13 1 14
REMARK Flexibility Score: inf
ROOT
ATOM      1  C   UNL     1     -25.466   6.668 -14.722  1.00  0.00     0.171 C 
ENDROOT
BRANCH   1   2
ATOM      2  C   UNL     1     -24.072   6.224 -14.237  1.00  0.00     0.237 C 
BRANCH   2   3
ATOM      3  N   UNL     1     -23.953   6.321 -12.776  1.00  0.00    -0.350 N 
ATOM      4  H   UNL     1     -24.499   7.143 -12.429  1.00  0.00     0.345 HD
ATOM      5  H   UNL     1     -22.953   6.464 -12.506  1.00  0.00     0.345 HD
ATOM      6  H   UNL     1     -24.312   5.452 -12.316  1.00  0.00     0.345 HD
ENDBRANCH   2   3
BRANCH   2   7
ATOM      7  C   UNL     1     -23.014   7.068 -14.897  1.00  0.00     0.100 C 
ATOM      8  O   UNL     1     -21.932   6.546 -15.275  1.00  0.00    -0.544 OA
ATOM      9  O   UNL     1     -23.231   8.424 -15.110  1.00  0.00    -0.544 OA
ENDBRANCH   2   7
ENDBRANCH   1   2
BRANCH   1  10
ATOM     10  C   UNL     1     -26.127   5.608 -15.555  1.00  0.00     0.223 C 
ATOM     11  O   UNL     1     -25.435   4.677 -16.046  1.00  0.00    -0.275 OA
ATOM     12  N   UNL     1     -27.538   5.628 -15.769  1.00  0.00    -0.369 N 
ATOM     13  H   UNL     1     -28.130   6.380 -15.351  1.00  0.00     0.159 HD
ATOM     14  H   UNL     1     -27.994   4.884 -16.341  1.00  0.00     0.159 HD
ENDBRANCH   1  10
TORSDOF 4
ENDMDL
MODEL 9
REMARK VINA RESULT:    -3.598      2.303      3.182
REMARK INTER + INTRA:          -4.449
REMARK INTER:                  -4.343
REMARK INTRA:                  -0.107
REMARK UNBOUND:                -0.115
REMARK SMILES NC(=O)C[C@H]([NH3+])C(=O)[O-]
REMARK SMILES IDX 4 1 5 2 6 3 7 7 8 8 9 9 2 10 3 11 1 12
REMARK H PARENT 6 4 6 5 6 6 1 13 1 14
REMARK Flexibility Score: inf
ROOT
ATOM      1  C   UNL     1     -22.943   4.597 -17.252  1.00  0.00     0.171 C 
ENDROOT
BRANCH   1   2
ATOM      2  C   UNL     1     -23.268   4.360 -15.763  1.00  0.00     0.237 C 
BRANCH   2   3
ATOM      3  N   UNL     1     -23.513   2.939 -15.484  1.00  0.00    -0.350 N 
ATOM      4  H   UNL     1     -22.602   2.433 -15.385  1.00  0.00     0.345 HD
ATOM      5  H   UNL     1     -24.036   2.503 -16.279  1.00  0.00     0.345 HD
ATOM      6  H   UNL     1     -24.066   2.823 -14.604  1.00  0.00     0.345 HD
ENDBRANCH   2   3
BRANCH   2   7
ATOM      7  C   UNL     1     -24.471   5.177 -15.373  1.00  0.00     0.100 C 
ATOM      8  O   UNL     1     -25.590   4.951 -15.906  1.00  0.00    -0.544 OA
ATOM      9  O   UNL     1     -24.360   6.173 -14.410  1.00  0.00    -0.544 OA
ENDBRANCH   2   7
ENDBRANCH   1   2
BRANCH   1  10
ATOM     10  C   UNL     1     -21.643   5.327 -17.425  1.00  0.00     0.223 C 
ATOM     11  O   UNL     1     -21.026   5.255 -18.522  1.00  0.00    -0.275 OA
ATOM     12  N   UNL     1     -21.114   6.130 -16.370  1.00  0.00    -0.369 N 
ATOM     13  H   UNL     1     -21.623   6.219 -15.462  1.00  0.00     0.159 HD
ATOM     14  H   UNL     1     -20.215   6.643 -16.498  1.00  0.00     0.159 HD
ENDBRANCH   1  10
TORSDOF 4
ENDMDL
