MODEL 1
REMARK VINA RESULT:    -4.430      0.000      0.000
REMARK INTER + INTRA:          -9.305
REMARK INTER:                  -7.538
REMARK INTRA:                  -1.767
REMARK UNBOUND:                -1.767
REMARK SMILES CCCCCCCCCCCCCC(=O)[O-]
REMARK SMILES IDX 8 1 9 2 10 3 11 4 12 5 13 6 14 7 15 8 16 9 7 10 6 11 5 12
REMARK SMILES IDX 4 13 3 14 2 15 1 16
REMARK H PARENT
REMARK Flexibility Score: inf
ROOT
ATOM      1  C   UNL     1      -8.088 -18.792  30.978  1.00  0.00     0.000 C 
ENDROOT
BRANCH   1   2
ATOM      2  C   UNL     1      -8.446 -18.057  32.279  1.00  0.00     0.000 C 
BRANCH   2   3
ATOM      3  C   UNL     1      -8.145 -18.898  33.533  1.00  0.00     0.000 C 
BRANCH   3   4
ATOM      4  C   UNL     1      -8.520 -20.378  33.355  1.00  0.00     0.000 C 
BRANCH   4   5
ATOM      5  C   UNL     1      -7.567 -21.326  34.105  1.00  0.00     0.006 C 
BRANCH   5   6
ATOM      6  C   UNL     1      -6.143 -20.762  34.196  1.00  0.00     0.053 C 
BRANCH   6   7
ATOM      7  C   UNL     1      -5.327 -21.482  35.225  1.00  0.00     0.041 C 
ATOM      8  O   UNL     1      -5.859 -22.356  35.959  1.00  0.00    -0.550 OA
ATOM      9  O   UNL     1      -3.970 -21.210  35.349  1.00  0.00    -0.550 OA
ENDBRANCH   6   7
ENDBRANCH   5   6
ENDBRANCH   4   5
ENDBRANCH   3   4
ENDBRANCH   2   3
ENDBRANCH   1   2
BRANCH   1  10
ATOM     10  C   UNL     1      -9.191 -18.680  29.910  1.00  0.00     0.000 C 
BRANCH  10  11
ATOM     11  C   UNL     1     -10.605 -18.689  30.513  1.00  0.00    -0.000 C 
BRANCH  11  12
ATOM     12  C   UNL     1     -11.132 -20.114  30.759  1.00  0.00    -0.000 C 
BRANCH  12  13
ATOM     13  C   UNL     1     -12.148 -20.180  31.911  1.00  0.00    -0.000 C 
BRANCH  13  14
ATOM     14  C   UNL     1     -12.021 -18.992  32.880  1.00  0.00    -0.000 C 
BRANCH  14  15
ATOM     15  C   UNL     1     -11.994 -19.436  34.352  1.00  0.00    -0.003 C 
ATOM     16  C   UNL     1     -12.080 -20.954  34.514  1.00  0.00     0.004 C 
ENDBRANCH  14  15
ENDBRANCH  13  14
ENDBRANCH  12  13
ENDBRANCH  11  12
ENDBRANCH  10  11
ENDBRANCH   1  10
TORSDOF 12
ENDMDL
MODEL 2
REMARK VINA RESULT:    -4.390     20.049     21.618
REMARK INTER + INTRA:          -9.237
REMARK INTER:                  -7.894
REMARK INTRA:                  -1.343
REMARK UNBOUND:                -1.767
REMARK SMILES CCCCCCCCCCCCCC(=O)[O-]
REMARK SMILES IDX 8 1 9 2 10 3 11 4 12 5 13 6 14 7 15 8 16 9 7 10 6 11 5 12
REMARK SMILES IDX 4 13 3 14 2 15 1 16
REMARK H PARENT
REMARK Flexibility Score: inf
ROOT
ATOM      1  C   UNL     1       0.315 -37.576  21.332  1.00  0.00     0.000 C 
ENDROOT
BRANCH   1   2
ATOM      2  C   UNL     1      -0.405 -36.219  21.378  1.00  0.00     0.000 C 
BRANCH   2   3
ATOM      3  C   UNL     1      -1.932 -36.358  21.249  1.00  0.00     0.000 C 
BRANCH   3   4
ATOM      4  C   UNL     1      -2.692 -35.457  22.238  1.00  0.00     0.000 C 
BRANCH   4   5
ATOM      5  C   UNL     1      -1.871 -34.230  22.672  1.00  0.00     0.006 C 
BRANCH   5   6
ATOM      6  C   UNL     1      -2.551 -33.452  23.807  1.00  0.00     0.053 C 
BRANCH   6   7
ATOM      7  C   UNL     1      -1.739 -32.265  24.228  1.00  0.00     0.041 C 
ATOM      8  O   UNL     1      -2.290 -31.145  24.391  1.00  0.00    -0.550 OA
ATOM      9  O   UNL     1      -0.379 -32.407  24.473  1.00  0.00    -0.550 OA
ENDBRANCH   6   7
ENDBRANCH   5   6
ENDBRANCH   4   5
ENDBRANCH   3   4
ENDBRANCH   2   3
ENDBRANCH   1   2
BRANCH   1  10
ATOM     10  C   UNL     1       1.465 -37.605  20.310  1.00  0.00     0.000 C 
BRANCH  10  11
ATOM     11  C   UNL     1       1.684 -36.246  19.625  1.00  0.00    -0.000 C 
BRANCH  11  12
ATOM     12  C   UNL     1       3.166 -35.834  19.594  1.00  0.00    -0.000 C 
BRANCH  12  13
ATOM     13  C   UNL     1       4.023 -36.625  20.596  1.00  0.00    -0.000 C 
BRANCH  13  14
ATOM     14  C   UNL     1       4.463 -35.774  21.800  1.00  0.00    -0.000 C 
BRANCH  14  15
ATOM     15  C   UNL     1       3.487 -35.882  22.983  1.00  0.00    -0.003 C 
ATOM     16  C   UNL     1       2.546 -34.681  23.086  1.00  0.00     0.004 C 
ENDBRANCH  14  15
ENDBRANCH  13  14
ENDBRANCH  12  13
ENDBRANCH  11  12
ENDBRANCH  10  11
ENDBRANCH   1  10
TORSDOF 12
ENDMDL
MODEL 3
REMARK VINA RESULT:    -4.384      2.104      3.515
REMARK INTER + INTRA:          -9.226
REMARK INTER:                  -8.093
REMARK INTRA:                  -1.134
REMARK UNBOUND:                -1.767
REMARK SMILES CCCCCCCCCCCCCC(=O)[O-]
REMARK SMILES IDX 8 1 9 2 10 3 11 4 12 5 13 6 14 7 15 8 16 9 7 10 6 11 5 12
REMARK SMILES IDX 4 13 3 14 2 15 1 16
REMARK H PARENT
REMARK Flexibility Score: inf
ROOT
ATOM      1  C   UNL     1      -6.784 -18.833  32.482  1.00  0.00     0.000 C 
ENDROOT
BRANCH   1   2
ATOM      2  C   UNL     1      -7.304 -19.299  33.851  1.00  0.00     0.000 C 
BRANCH   2   3
ATOM      3  C   UNL     1      -7.519 -20.821  33.914  1.00  0.00     0.000 C 
BRANCH   3   4
ATOM      4  C   UNL     1      -6.320 -21.561  34.529  1.00  0.00     0.000 C 
BRANCH   4   5
ATOM      5  C   UNL     1      -5.489 -20.668  35.467  1.00  0.00     0.006 C 
BRANCH   5   6
ATOM      6  C   UNL     1      -4.022 -21.110  35.538  1.00  0.00     0.053 C 
BRANCH   6   7
ATOM      7  C   UNL     1      -3.116 -20.138  34.845  1.00  0.00     0.041 C 
ATOM      8  O   UNL     1      -1.882 -20.370  34.760  1.00  0.00    -0.550 OA
ATOM      9  O   UNL     1      -3.644 -18.992  34.263  1.00  0.00    -0.550 OA
ENDBRANCH   6   7
ENDBRANCH   5   6
ENDBRANCH   4   5
ENDBRANCH   3   4
ENDBRANCH   2   3
ENDBRANCH   1   2
BRANCH   1  10
ATOM     10  C   UNL     1      -7.835 -18.040  31.685  1.00  0.00     0.000 C 
BRANCH  10  11
ATOM     11  C   UNL     1      -9.183 -17.938  32.418  1.00  0.00    -0.000 C 
BRANCH  11  12
ATOM     12  C   UNL     1     -10.345 -18.528  31.600  1.00  0.00    -0.000 C 
BRANCH  12  13
ATOM     13  C   UNL     1     -10.109 -19.996  31.208  1.00  0.00    -0.000 C 
BRANCH  13  14
ATOM     14  C   UNL     1     -10.157 -20.219  29.687  1.00  0.00    -0.000 C 
BRANCH  14  15
ATOM     15  C   UNL     1      -9.901 -18.925  28.896  1.00  0.00    -0.003 C 
ATOM     16  C   UNL     1      -9.653 -19.180  27.409  1.00  0.00     0.004 C 
ENDBRANCH  14  15
ENDBRANCH  13  14
ENDBRANCH  12  13
ENDBRANCH  11  12
ENDBRANCH  10  11
ENDBRANCH   1  10
TORSDOF 12
ENDMDL
MODEL 4
REMARK VINA RESULT:    -4.340      1.574      3.285
REMARK INTER + INTRA:          -9.152
REMARK INTER:                  -7.620
REMARK INTRA:                  -1.532
REMARK UNBOUND:                -1.767
REMARK SMILES CCCCCCCCCCCCCC(=O)[O-]
REMARK SMILES IDX 8 1 9 2 10 3 11 4 12 5 13 6 14 7 15 8 16 9 7 10 6 11 5 12
REMARK SMILES IDX 4 13 3 14 2 15 1 16
REMARK H PARENT
REMARK Flexibility Score: inf
ROOT
ATOM      1  C   UNL     1      -8.173 -20.267  33.503  1.00  0.00     0.000 C 
ENDROOT
BRANCH   1   2
ATOM      2  C   UNL     1      -8.251 -18.766  33.826  1.00  0.00     0.000 C 
BRANCH   2   3
ATOM      3  C   UNL     1      -7.003 -17.997  33.359  1.00  0.00     0.000 C 
BRANCH   3   4
ATOM      4  C   UNL     1      -5.942 -18.918  32.733  1.00  0.00     0.000 C 
BRANCH   4   5
ATOM      5  C   UNL     1      -4.514 -18.574  33.190  1.00  0.00     0.006 C 
BRANCH   5   6
ATOM      6  C   UNL     1      -4.282 -18.915  34.668  1.00  0.00     0.053 C 
BRANCH   6   7
ATOM      7  C   UNL     1      -3.750 -20.305  34.839  1.00  0.00     0.041 C 
ATOM      8  O   UNL     1      -4.542 -21.275  34.972  1.00  0.00    -0.550 OA
ATOM      9  O   UNL     1      -2.380 -20.531  34.817  1.00  0.00    -0.550 OA
ENDBRANCH   6   7
ENDBRANCH   5   6
ENDBRANCH   4   5
ENDBRANCH   3   4
ENDBRANCH   2   3
ENDBRANCH   1   2
BRANCH   1  10
ATOM     10  C   UNL     1      -9.508 -20.834  32.990  1.00  0.00     0.000 C 
BRANCH  10  11
ATOM     11  C   UNL     1     -10.683 -19.863  33.191  1.00  0.00    -0.000 C 
BRANCH  11  12
ATOM     12  C   UNL     1     -11.384 -19.504  31.869  1.00  0.00    -0.000 C 
BRANCH  12  13
ATOM     13  C   UNL     1     -10.919 -18.154  31.299  1.00  0.00    -0.000 C 
BRANCH  13  14
ATOM     14  C   UNL     1     -10.742 -18.186  29.771  1.00  0.00    -0.000 C 
BRANCH  14  15
ATOM     15  C   UNL     1      -9.605 -19.122  29.331  1.00  0.00    -0.003 C 
ATOM     16  C   UNL     1      -8.255 -18.742  29.942  1.00  0.00     0.004 C 
ENDBRANCH  14  15
ENDBRANCH  13  14
ENDBRANCH  12  13
ENDBRANCH  11  12
ENDBRANCH  10  11
ENDBRANCH   1  10
TORSDOF 12
ENDMDL
MODEL 5
REMARK VINA RESULT:    -4.326      1.392      1.841
REMARK INTER + INTRA:          -9.127
REMARK INTER:                  -7.727
REMARK INTRA:                  -1.400
REMARK UNBOUND:                -1.767
REMARK SMILES CCCCCCCCCCCCCC(=O)[O-]
REMARK SMILES IDX 8 1 9 2 10 3 11 4 12 5 13 6 14 7 15 8 16 9 7 10 6 11 5 12
REMARK SMILES IDX 4 13 3 14 2 15 1 16
REMARK H PARENT
REMARK Flexibility Score: inf
ROOT
ATOM      1  C   UNL     1      -8.085 -18.702  30.662  1.00  0.00     0.000 C 
ENDROOT
BRANCH   1   2
ATOM      2  C   UNL     1      -8.325 -17.893  31.947  1.00  0.00     0.000 C 
BRANCH   2   3
ATOM      3  C   UNL     1      -7.278 -18.191  33.035  1.00  0.00     0.000 C 
BRANCH   3   4
ATOM      4  C   UNL     1      -6.144 -19.099  32.530  1.00  0.00     0.000 C 
BRANCH   4   5
ATOM      5  C   UNL     1      -4.774 -18.722  33.122  1.00  0.00     0.006 C 
BRANCH   5   6
ATOM      6  C   UNL     1      -4.685 -19.040  34.620  1.00  0.00     0.053 C 
BRANCH   6   7
ATOM      7  C   UNL     1      -4.047 -20.374  34.865  1.00  0.00     0.041 C 
ATOM      8  O   UNL     1      -4.754 -21.366  35.186  1.00  0.00    -0.550 OA
ATOM      9  O   UNL     1      -2.676 -20.527  34.705  1.00  0.00    -0.550 OA
ENDBRANCH   6   7
ENDBRANCH   5   6
ENDBRANCH   4   5
ENDBRANCH   3   4
ENDBRANCH   2   3
ENDBRANCH   1   2
BRANCH   1  10
ATOM     10  C   UNL     1      -9.314 -18.724  29.737  1.00  0.00     0.000 C 
BRANCH  10  11
ATOM     11  C   UNL     1     -10.641 -18.644  30.509  1.00  0.00    -0.000 C 
BRANCH  11  12
ATOM     12  C   UNL     1     -11.201 -20.033  30.863  1.00  0.00    -0.000 C 
BRANCH  12  13
ATOM     13  C   UNL     1     -11.987 -20.036  32.185  1.00  0.00    -0.000 C 
BRANCH  13  14
ATOM     14  C   UNL     1     -11.115 -19.654  33.393  1.00  0.00    -0.000 C 
BRANCH  14  15
ATOM     15  C   UNL     1     -10.554 -20.884  34.125  1.00  0.00    -0.003 C 
ATOM     16  C   UNL     1      -9.165 -21.287  33.628  1.00  0.00     0.004 C 
ENDBRANCH  14  15
ENDBRANCH  13  14
ENDBRANCH  12  13
ENDBRANCH  11  12
ENDBRANCH  10  11
ENDBRANCH   1  10
TORSDOF 12
ENDMDL
MODEL 6
REMARK VINA RESULT:    -4.321     20.511     22.097
REMARK INTER + INTRA:          -9.118
REMARK INTER:                  -8.150
REMARK INTRA:                  -0.968
REMARK UNBOUND:                -1.767
REMARK SMILES CCCCCCCCCCCCCC(=O)[O-]
REMARK SMILES IDX 8 1 9 2 10 3 11 4 12 5 13 6 14 7 15 8 16 9 7 10 6 11 5 12
REMARK SMILES IDX 4 13 3 14 2 15 1 16
REMARK H PARENT
REMARK Flexibility Score: inf
ROOT
ATOM      1  C   UNL     1       0.183 -37.160  20.847  1.00  0.00     0.000 C 
ENDROOT
BRANCH   1   2
ATOM      2  C   UNL     1      -0.590 -35.983  21.463  1.00  0.00     0.000 C 
BRANCH   2   3
ATOM      3  C   UNL     1      -2.107 -36.235  21.511  1.00  0.00     0.000 C 
BRANCH   3   4
ATOM      4  C   UNL     1      -2.831 -35.291  22.485  1.00  0.00     0.000 C 
BRANCH   4   5
ATOM      5  C   UNL     1      -2.036 -34.003  22.764  1.00  0.00     0.006 C 
BRANCH   5   6
ATOM      6  C   UNL     1      -2.494 -33.309  24.054  1.00  0.00     0.053 C 
BRANCH   6   7
ATOM      7  C   UNL     1      -1.730 -32.045  24.303  1.00  0.00     0.041 C 
ATOM      8  O   UNL     1      -2.338 -30.948  24.419  1.00  0.00    -0.550 OA
ATOM      9  O   UNL     1      -0.348 -32.085  24.441  1.00  0.00    -0.550 OA
ENDBRANCH   6   7
ENDBRANCH   5   6
ENDBRANCH   4   5
ENDBRANCH   3   4
ENDBRANCH   2   3
ENDBRANCH   1   2
BRANCH   1  10
ATOM     10  C   UNL     1       1.627 -37.261  21.370  1.00  0.00     0.000 C 
BRANCH  10  11
ATOM     11  C   UNL     1       2.193 -35.903  21.818  1.00  0.00    -0.000 C 
BRANCH  11  12
ATOM     12  C   UNL     1       3.691 -35.755  21.499  1.00  0.00    -0.000 C 
BRANCH  12  13
ATOM     13  C   UNL     1       4.244 -36.940  20.690  1.00  0.00    -0.000 C 
BRANCH  13  14
ATOM     14  C   UNL     1       4.392 -36.617  19.193  1.00  0.00    -0.000 C 
BRANCH  14  15
ATOM     15  C   UNL     1       3.607 -37.593  18.301  1.00  0.00    -0.003 C 
ATOM     16  C   UNL     1       2.361 -36.959  17.683  1.00  0.00     0.004 C 
ENDBRANCH  14  15
ENDBRANCH  13  14
ENDBRANCH  12  13
ENDBRANCH  11  12
ENDBRANCH  10  11
ENDBRANCH   1  10
TORSDOF 12
ENDMDL
MODEL 7
REMARK VINA RESULT:    -4.291      1.566      2.539
REMARK INTER + INTRA:          -9.067
REMARK INTER:                  -7.738
REMARK INTRA:                  -1.329
REMARK UNBOUND:                -1.767
REMARK SMILES CCCCCCCCCCCCCC(=O)[O-]
REMARK SMILES IDX 8 1 9 2 10 3 11 4 12 5 13 6 14 7 15 8 16 9 7 10 6 11 5 12
REMARK SMILES IDX 4 13 3 14 2 15 1 16
REMARK H PARENT
REMARK Flexibility Score: inf
ROOT
ATOM      1  C   UNL     1      -6.834 -18.813  32.371  1.00  0.00     0.000 C 
ENDROOT
BRANCH   1   2
ATOM      2  C   UNL     1      -7.188 -19.276  33.793  1.00  0.00     0.000 C 
BRANCH   2   3
ATOM      3  C   UNL     1      -7.426 -20.794  33.876  1.00  0.00     0.000 C 
BRANCH   3   4
ATOM      4  C   UNL     1      -6.279 -21.533  34.584  1.00  0.00     0.000 C 
BRANCH   4   5
ATOM      5  C   UNL     1      -5.486 -20.622  35.538  1.00  0.00     0.006 C 
BRANCH   5   6
ATOM      6  C   UNL     1      -4.014 -21.039  35.646  1.00  0.00     0.053 C 
BRANCH   6   7
ATOM      7  C   UNL     1      -3.121 -20.129  34.859  1.00  0.00     0.041 C 
ATOM      8  O   UNL     1      -1.890 -20.374  34.763  1.00  0.00    -0.550 OA
ATOM      9  O   UNL     1      -3.659 -19.028  34.203  1.00  0.00    -0.550 OA
ENDBRANCH   6   7
ENDBRANCH   5   6
ENDBRANCH   4   5
ENDBRANCH   3   4
ENDBRANCH   2   3
ENDBRANCH   1   2
BRANCH   1  10
ATOM     10  C   UNL     1      -8.035 -18.202  31.628  1.00  0.00     0.000 C 
BRANCH  10  11
ATOM     11  C   UNL     1      -8.247 -18.818  30.235  1.00  0.00    -0.000 C 
BRANCH  11  12
ATOM     12  C   UNL     1      -9.683 -18.626  29.718  1.00  0.00    -0.000 C 
BRANCH  12  13
ATOM     13  C   UNL     1     -10.698 -18.408  30.853  1.00  0.00    -0.000 C 
BRANCH  13  14
ATOM     14  C   UNL     1     -11.405 -19.709  31.272  1.00  0.00    -0.000 C 
BRANCH  14  15
ATOM     15  C   UNL     1     -10.818 -20.306  32.561  1.00  0.00    -0.003 C 
ATOM     16  C   UNL     1     -11.101 -19.447  33.795  1.00  0.00     0.004 C 
ENDBRANCH  14  15
ENDBRANCH  13  14
ENDBRANCH  12  13
ENDBRANCH  11  12
ENDBRANCH  10  11
ENDBRANCH   1  10
TORSDOF 12
ENDMDL
MODEL 8
REMARK VINA RESULT:    -4.284     22.275     23.877
REMARK INTER + INTRA:          -9.056
REMARK INTER:                  -7.631
REMARK INTRA:                  -1.425
REMARK UNBOUND:                -1.767
REMARK SMILES CCCCCCCCCCCCCC(=O)[O-]
REMARK SMILES IDX 8 1 9 2 10 3 11 4 12 5 13 6 14 7 15 8 16 9 7 10 6 11 5 12
REMARK SMILES IDX 4 13 3 14 2 15 1 16
REMARK H PARENT
REMARK Flexibility Score: inf
ROOT
ATOM      1  C   UNL     1       2.214 -37.053  18.030  1.00  0.00     0.000 C 
ENDROOT
BRANCH   1   2
ATOM      2  C   UNL     1       1.637 -36.692  19.408  1.00  0.00     0.000 C 
BRANCH   2   3
ATOM      3  C   UNL     1       1.356 -37.934  20.272  1.00  0.00     0.000 C 
BRANCH   3   4
ATOM      4  C   UNL     1       0.460 -37.619  21.482  1.00  0.00     0.000 C 
BRANCH   4   5
ATOM      5  C   UNL     1      -0.821 -36.862  21.090  1.00  0.00     0.006 C 
BRANCH   5   6
ATOM      6  C   UNL     1      -0.831 -35.425  21.628  1.00  0.00     0.053 C 
BRANCH   6   7
ATOM      7  C   UNL     1      -2.135 -35.089  22.284  1.00  0.00     0.041 C 
ATOM      8  O   UNL     1      -3.094 -35.905  22.247  1.00  0.00    -0.550 OA
ATOM      9  O   UNL     1      -2.280 -33.887  22.966  1.00  0.00    -0.550 OA
ENDBRANCH   6   7
ENDBRANCH   5   6
ENDBRANCH   4   5
ENDBRANCH   3   4
ENDBRANCH   2   3
ENDBRANCH   1   2
BRANCH   1  10
ATOM     10  C   UNL     1       3.657 -37.581  18.109  1.00  0.00     0.000 C 
BRANCH  10  11
ATOM     11  C   UNL     1       4.623 -36.572  18.752  1.00  0.00    -0.000 C 
BRANCH  11  12
ATOM     12  C   UNL     1       5.879 -37.246  19.332  1.00  0.00    -0.000 C 
BRANCH  12  13
ATOM     13  C   UNL     1       6.022 -37.026  20.847  1.00  0.00    -0.000 C 
BRANCH  13  14
ATOM     14  C   UNL     1       4.752 -37.412  21.625  1.00  0.00    -0.000 C 
BRANCH  14  15
ATOM     15  C   UNL     1       4.425 -36.414  22.748  1.00  0.00    -0.003 C 
ATOM     16  C   UNL     1       3.379 -35.378  22.333  1.00  0.00     0.004 C 
ENDBRANCH  14  15
ENDBRANCH  13  14
ENDBRANCH  12  13
ENDBRANCH  11  12
ENDBRANCH  10  11
ENDBRANCH   1  10
TORSDOF 12
ENDMDL
MODEL 9
REMARK VINA RESULT:    -4.249     22.056     23.772
REMARK INTER + INTRA:          -8.996
REMARK INTER:                  -7.498
REMARK INTRA:                  -1.498
REMARK UNBOUND:                -1.767
REMARK SMILES CCCCCCCCCCCCCC(=O)[O-]
REMARK SMILES IDX 8 1 9 2 10 3 11 4 12 5 13 6 14 7 15 8 16 9 7 10 6 11 5 12
REMARK SMILES IDX 4 13 3 14 2 15 1 16
REMARK H PARENT
REMARK Flexibility Score: inf
ROOT
ATOM      1  C   UNL     1       3.416 -35.597  22.817  1.00  0.00     0.000 C 
ENDROOT
BRANCH   1   2
ATOM      2  C   UNL     1       2.473 -35.765  21.615  1.00  0.00     0.000 C 
BRANCH   2   3
ATOM      3  C   UNL     1       1.735 -37.115  21.628  1.00  0.00     0.000 C 
BRANCH   3   4
ATOM      4  C   UNL     1       0.502 -37.122  20.710  1.00  0.00     0.000 C 
BRANCH   4   5
ATOM      5  C   UNL     1      -0.813 -36.909  21.481  1.00  0.00     0.006 C 
BRANCH   5   6
ATOM      6  C   UNL     1      -1.334 -35.472  21.350  1.00  0.00     0.053 C 
BRANCH   6   7
ATOM      7  C   UNL     1      -2.461 -35.203  22.299  1.00  0.00     0.041 C 
ATOM      8  O   UNL     1      -3.482 -35.939  22.297  1.00  0.00    -0.550 OA
ATOM      9  O   UNL     1      -2.366 -34.158  23.211  1.00  0.00    -0.550 OA
ENDBRANCH   6   7
ENDBRANCH   5   6
ENDBRANCH   4   5
ENDBRANCH   3   4
ENDBRANCH   2   3
ENDBRANCH   1   2
BRANCH   1  10
ATOM     10  C   UNL     1       4.533 -36.656  22.848  1.00  0.00     0.000 C 
BRANCH  10  11
ATOM     11  C   UNL     1       5.337 -36.710  21.539  1.00  0.00    -0.000 C 
BRANCH  11  12
ATOM     12  C   UNL     1       5.268 -38.089  20.861  1.00  0.00    -0.000 C 
BRANCH  12  13
ATOM     13  C   UNL     1       4.790 -38.010  19.402  1.00  0.00    -0.000 C 
BRANCH  13  14
ATOM     14  C   UNL     1       4.861 -36.582  18.833  1.00  0.00    -0.000 C 
BRANCH  14  15
ATOM     15  C   UNL     1       3.535 -36.137  18.195  1.00  0.00    -0.003 C 
ATOM     16  C   UNL     1       2.666 -37.316  17.754  1.00  0.00     0.004 C 
ENDBRANCH  14  15
ENDBRANCH  13  14
ENDBRANCH  12  13
ENDBRANCH  11  12
ENDBRANCH  10  11
ENDBRANCH   1  10
TORSDOF 12
ENDMDL
