MODEL 1
REMARK VINA RESULT:    -2.037      0.000      0.000
REMARK INTER + INTRA:          -2.037
REMARK INTER:                  -2.037
REMARK INTRA:                   0.000
REMARK UNBOUND:                 0.000
REMARK SMILES CC(=O)[O-]
REMARK SMILES IDX 1 1 2 2 3 3 4 4
REMARK H PARENT
REMARK Flexibility Score: inf
ROOT
ATOM      1  C   UNL     1       1.241  48.053  21.426  1.00  0.00     0.063 C 
ATOM      2  C   UNL     1       1.699  49.376  21.939  1.00  0.00     0.038 C 
ATOM      3  O   UNL     1       1.960  49.524  23.161  1.00  0.00    -0.550 OA
ATOM      4  O   UNL     1       1.786  50.463  21.078  1.00  0.00    -0.550 OA
ENDROOT
TORSDOF 0
ENDMDL
MODEL 2
REMARK VINA RESULT:    -2.026      3.630      3.991
REMARK INTER + INTRA:          -2.026
REMARK INTER:                  -2.026
REMARK INTRA:                   0.000
REMARK UNBOUND:                 0.000
REMARK SMILES CC(=O)[O-]
REMARK SMILES IDX 1 1 2 2 3 3 4 4
REMARK H PARENT
REMARK Flexibility Score: inf
ROOT
ATOM      1  C   UNL     1      -0.479  46.695  24.894  1.00  0.00     0.063 C 
ATOM      2  C   UNL     1      -0.472  46.843  23.410  1.00  0.00     0.038 C 
ATOM      3  O   UNL     1      -0.869  45.900  22.679  1.00  0.00    -0.550 OA
ATOM      4  O   UNL     1       0.024  48.004  22.830  1.00  0.00    -0.550 OA
ENDROOT
TORSDOF 0
ENDMDL
MODEL 3
REMARK VINA RESULT:    -2.026      1.727      2.265
REMARK INTER + INTRA:          -2.026
REMARK INTER:                  -2.026
REMARK INTRA:                   0.000
REMARK UNBOUND:                 0.000
REMARK SMILES CC(=O)[O-]
REMARK SMILES IDX 1 1 2 2 3 3 4 4
REMARK H PARENT
REMARK Flexibility Score: inf
ROOT
ATOM      1  C   UNL     1       1.740  50.286  21.374  1.00  0.00     0.063 C 
ATOM      2  C   UNL     1       1.036  49.042  21.799  1.00  0.00     0.038 C 
ATOM      3  O   UNL     1       1.222  47.965  21.175  1.00  0.00    -0.550 OA
ATOM      4  O   UNL     1       0.131  49.080  22.852  1.00  0.00    -0.550 OA
ENDROOT
TORSDOF 0
ENDMDL
MODEL 4
REMARK VINA RESULT:    -2.015      3.972      4.467
REMARK INTER + INTRA:          -2.015
REMARK INTER:                  -2.015
REMARK INTRA:                   0.000
REMARK UNBOUND:                 0.000
REMARK SMILES CC(=O)[O-]
REMARK SMILES IDX 1 1 2 2 3 3 4 4
REMARK H PARENT
REMARK Flexibility Score: inf
ROOT
ATOM      1  C   UNL     1      -0.074  47.958  23.160  1.00  0.00     0.063 C 
ATOM      2  C   UNL     1      -0.451  46.599  23.645  1.00  0.00     0.038 C 
ATOM      3  O   UNL     1      -1.075  45.809  22.890  1.00  0.00    -0.550 OA
ATOM      4  O   UNL     1      -0.160  46.222  24.950  1.00  0.00    -0.550 OA
ENDROOT
TORSDOF 0
ENDMDL
MODEL 5
REMARK VINA RESULT:    -1.991     19.372     19.900
REMARK INTER + INTRA:          -1.991
REMARK INTER:                  -1.991
REMARK INTRA:                   0.000
REMARK UNBOUND:                 0.000
REMARK SMILES CC(=O)[O-]
REMARK SMILES IDX 1 1 2 2 3 3 4 4
REMARK H PARENT
REMARK Flexibility Score: inf
ROOT
ATOM      1  C   UNL     1      -5.112  45.113  39.075  1.00  0.00     0.063 C 
ATOM      2  C   UNL     1      -6.067  44.010  39.383  1.00  0.00     0.038 C 
ATOM      3  O   UNL     1      -6.848  44.105  40.365  1.00  0.00    -0.550 OA
ATOM      4  O   UNL     1      -6.060  42.850  38.618  1.00  0.00    -0.550 OA
ENDROOT
TORSDOF 0
ENDMDL
MODEL 6
REMARK VINA RESULT:    -1.990      1.400      2.041
REMARK INTER + INTRA:          -1.990
REMARK INTER:                  -1.990
REMARK INTRA:                   0.000
REMARK UNBOUND:                 0.000
REMARK SMILES CC(=O)[O-]
REMARK SMILES IDX 1 1 2 2 3 3 4 4
REMARK H PARENT
REMARK Flexibility Score: inf
ROOT
ATOM      1  C   UNL     1       1.775  49.565  23.208  1.00  0.00     0.063 C 
ATOM      2  C   UNL     1       1.612  49.450  21.730  1.00  0.00     0.038 C 
ATOM      3  O   UNL     1       1.769  50.460  20.996  1.00  0.00    -0.550 OA
ATOM      4  O   UNL     1       1.232  48.239  21.165  1.00  0.00    -0.550 OA
ENDROOT
TORSDOF 0
ENDMDL
MODEL 7
REMARK VINA RESULT:    -1.976     19.369     19.913
REMARK INTER + INTRA:          -1.976
REMARK INTER:                  -1.976
REMARK INTRA:                   0.000
REMARK UNBOUND:                 0.000
REMARK SMILES CC(=O)[O-]
REMARK SMILES IDX 1 1 2 2 3 3 4 4
REMARK H PARENT
REMARK Flexibility Score: inf
ROOT
ATOM      1  C   UNL     1      -5.808  42.989  38.598  1.00  0.00     0.063 C 
ATOM      2  C   UNL     1      -6.197  44.209  39.363  1.00  0.00     0.038 C 
ATOM      3  O   UNL     1      -5.812  45.344  38.982  1.00  0.00    -0.550 OA
ATOM      4  O   UNL     1      -6.942  44.089  40.530  1.00  0.00    -0.550 OA
ENDROOT
TORSDOF 0
ENDMDL
MODEL 8
REMARK VINA RESULT:    -1.972      2.111      2.625
REMARK INTER + INTRA:          -1.972
REMARK INTER:                  -1.972
REMARK INTRA:                   0.000
REMARK UNBOUND:                 0.000
REMARK SMILES CC(=O)[O-]
REMARK SMILES IDX 1 1 2 2 3 3 4 4
REMARK H PARENT
REMARK Flexibility Score: inf
ROOT
ATOM      1  C   UNL     1       1.293  48.268  21.499  1.00  0.00     0.063 C 
ATOM      2  C   UNL     1       0.321  48.159  22.625  1.00  0.00     0.038 C 
ATOM      3  O   UNL     1       0.099  49.151  23.367  1.00  0.00    -0.550 OA
ATOM      4  O   UNL     1      -0.302  46.946  22.891  1.00  0.00    -0.550 OA
ENDROOT
TORSDOF 0
ENDMDL
MODEL 9
REMARK VINA RESULT:    -1.921     19.916     20.189
REMARK INTER + INTRA:          -1.921
REMARK INTER:                  -1.921
REMARK INTRA:                   0.000
REMARK UNBOUND:                 0.000
REMARK SMILES CC(=O)[O-]
REMARK SMILES IDX 1 1 2 2 3 3 4 4
REMARK H PARENT
REMARK Flexibility Score: inf
ROOT
ATOM      1  C   UNL     1      -8.322  48.844  40.185  1.00  0.00     0.063 C 
ATOM      2  C   UNL     1      -8.327  47.741  39.181  1.00  0.00     0.038 C 
ATOM      3  O   UNL     1      -9.194  47.719  38.270  1.00  0.00    -0.550 OA
ATOM      4  O   UNL     1      -7.406  46.705  39.282  1.00  0.00    -0.550 OA
ENDROOT
TORSDOF 0
ENDMDL
