MODEL 1
REMARK VINA RESULT:    -4.341      0.000      0.000
REMARK INTER + INTRA:          -5.467
REMARK INTER:                  -5.356
REMARK INTRA:                  -0.111
REMARK UNBOUND:                -0.111
REMARK SMILES CCCCCC(=O)[O-]
REMARK SMILES IDX 4 1 5 2 6 3 7 4 8 5 3 6 2 7 1 8
REMARK H PARENT
REMARK Flexibility Score: inf
ROOT
ATOM      1  C   UNL     1     -16.027  -7.630  -1.712  1.00  0.00     0.006 C 
ENDROOT
BRANCH   1   2
ATOM      2  C   UNL     1     -16.833  -8.565  -2.617  1.00  0.00     0.053 C 
BRANCH   2   3
ATOM      3  C   UNL     1     -16.234  -8.613  -3.987  1.00  0.00     0.041 C 
ATOM      4  O   UNL     1     -16.758  -7.964  -4.931  1.00  0.00    -0.550 OA
ATOM      5  O   UNL     1     -15.127  -9.415  -4.234  1.00  0.00    -0.550 OA
ENDBRANCH   2   3
ENDBRANCH   1   2
BRANCH   1   6
ATOM      6  C   UNL     1     -15.747  -8.285  -0.354  1.00  0.00     0.000 C 
BRANCH   6   7
ATOM      7  C   UNL     1     -16.460  -7.536   0.777  1.00  0.00    -0.003 C 
ATOM      8  C   UNL     1     -17.782  -8.207   1.136  1.00  0.00     0.004 C 
ENDBRANCH   6   7
ENDBRANCH   1   6
TORSDOF 4
ENDMDL
MODEL 2
REMARK VINA RESULT:    -4.224      6.214      7.278
REMARK INTER + INTRA:          -5.322
REMARK INTER:                  -5.202
REMARK INTRA:                  -0.120
REMARK UNBOUND:                -0.111
REMARK SMILES CCCCCC(=O)[O-]
REMARK SMILES IDX 4 1 5 2 6 3 7 4 8 5 3 6 2 7 1 8
REMARK H PARENT
REMARK Flexibility Score: inf
ROOT
ATOM      1  C   UNL     1     -16.317 -14.648  -0.964  1.00  0.00     0.006 C 
ENDROOT
BRANCH   1   2
ATOM      2  C   UNL     1     -16.547 -13.618   0.146  1.00  0.00     0.053 C 
BRANCH   2   3
ATOM      3  C   UNL     1     -15.423 -13.651   1.132  1.00  0.00     0.041 C 
ATOM      4  O   UNL     1     -14.318 -13.116   0.851  1.00  0.00    -0.550 OA
ATOM      5  O   UNL     1     -15.580 -14.314   2.343  1.00  0.00    -0.550 OA
ENDBRANCH   2   3
ENDBRANCH   1   2
BRANCH   1   6
ATOM      6  C   UNL     1     -16.418 -13.997  -2.348  1.00  0.00     0.000 C 
BRANCH   6   7
ATOM      7  C   UNL     1     -17.537 -14.638  -3.177  1.00  0.00    -0.003 C 
ATOM      8  C   UNL     1     -18.878 -13.961  -2.911  1.00  0.00     0.004 C 
ENDBRANCH   6   7
ENDBRANCH   1   6
TORSDOF 4
ENDMDL
MODEL 3
REMARK VINA RESULT:    -4.171      2.785      4.333
REMARK INTER + INTRA:          -5.257
REMARK INTER:                  -5.152
REMARK INTRA:                  -0.105
REMARK UNBOUND:                -0.111
REMARK SMILES CCCCCC(=O)[O-]
REMARK SMILES IDX 4 1 5 2 6 3 7 4 8 5 3 6 2 7 1 8
REMARK H PARENT
REMARK Flexibility Score: inf
ROOT
ATOM      1  C   UNL     1     -15.873  -7.616  -1.504  1.00  0.00     0.006 C 
ENDROOT
BRANCH   1   2
ATOM      2  C   UNL     1     -16.359  -7.865  -0.074  1.00  0.00     0.053 C 
BRANCH   2   3
ATOM      3  C   UNL     1     -16.140  -9.293   0.313  1.00  0.00     0.041 C 
ATOM      4  O   UNL     1     -17.124 -10.054   0.510  1.00  0.00    -0.550 OA
ATOM      5  O   UNL     1     -14.850  -9.771   0.505  1.00  0.00    -0.550 OA
ENDBRANCH   2   3
ENDBRANCH   1   2
BRANCH   1   6
ATOM      6  C   UNL     1     -16.726  -8.387  -2.518  1.00  0.00     0.000 C 
BRANCH   6   7
ATOM      7  C   UNL     1     -15.954  -8.621  -3.822  1.00  0.00    -0.003 C 
ATOM      8  C   UNL     1     -16.637  -7.930  -4.998  1.00  0.00     0.004 C 
ENDBRANCH   6   7
ENDBRANCH   1   6
TORSDOF 4
ENDMDL
MODEL 4
REMARK VINA RESULT:    -4.125      3.213      4.709
REMARK INTER + INTRA:          -5.201
REMARK INTER:                  -5.112
REMARK INTRA:                  -0.089
REMARK UNBOUND:                -0.111
REMARK SMILES CCCCCC(=O)[O-]
REMARK SMILES IDX 4 1 5 2 6 3 7 4 8 5 3 6 2 7 1 8
REMARK H PARENT
REMARK Flexibility Score: inf
ROOT
ATOM      1  C   UNL     1     -17.444  -8.930  -1.580  1.00  0.00     0.006 C 
ENDROOT
BRANCH   1   2
ATOM      2  C   UNL     1     -16.915  -9.426  -0.232  1.00  0.00     0.053 C 
BRANCH   2   3
ATOM      3  C   UNL     1     -17.070  -8.367   0.813  1.00  0.00     0.041 C 
ATOM      4  O   UNL     1     -16.067  -7.716   1.208  1.00  0.00    -0.550 OA
ATOM      5  O   UNL     1     -18.313  -8.133   1.387  1.00  0.00    -0.550 OA
ENDBRANCH   2   3
ENDBRANCH   1   2
BRANCH   1   6
ATOM      6  C   UNL     1     -16.405  -8.057  -2.293  1.00  0.00     0.000 C 
BRANCH   6   7
ATOM      7  C   UNL     1     -15.946  -8.706  -3.604  1.00  0.00    -0.003 C 
ATOM      8  C   UNL     1     -16.599  -8.035  -4.809  1.00  0.00     0.004 C 
ENDBRANCH   6   7
ENDBRANCH   1   6
TORSDOF 4
ENDMDL
MODEL 5
REMARK VINA RESULT:    -4.104      1.207      1.705
REMARK INTER + INTRA:          -5.175
REMARK INTER:                  -5.076
REMARK INTRA:                  -0.099
REMARK UNBOUND:                -0.111
REMARK SMILES CCCCCC(=O)[O-]
REMARK SMILES IDX 4 1 5 2 6 3 7 4 8 5 3 6 2 7 1 8
REMARK H PARENT
REMARK Flexibility Score: inf
ROOT
ATOM      1  C   UNL     1     -17.216  -9.672  -2.006  1.00  0.00     0.006 C 
ENDROOT
BRANCH   1   2
ATOM      2  C   UNL     1     -16.759  -8.349  -2.628  1.00  0.00     0.053 C 
BRANCH   2   3
ATOM      3  C   UNL     1     -16.271  -8.568  -4.025  1.00  0.00     0.041 C 
ATOM      4  O   UNL     1     -16.819  -7.969  -4.988  1.00  0.00    -0.550 OA
ATOM      5  O   UNL     1     -15.243  -9.469  -4.270  1.00  0.00    -0.550 OA
ENDBRANCH   2   3
ENDBRANCH   1   2
BRANCH   1   6
ATOM      6  C   UNL     1     -18.477  -9.475  -1.157  1.00  0.00     0.000 C 
BRANCH   6   7
ATOM      7  C   UNL     1     -18.182  -9.708   0.329  1.00  0.00    -0.003 C 
ATOM      8  C   UNL     1     -18.060  -8.387   1.082  1.00  0.00     0.004 C 
ENDBRANCH   6   7
ENDBRANCH   1   6
TORSDOF 4
ENDMDL
MODEL 6
REMARK VINA RESULT:    -4.089      5.130      5.910
REMARK INTER + INTRA:          -5.156
REMARK INTER:                  -5.037
REMARK INTRA:                  -0.118
REMARK UNBOUND:                -0.111
REMARK SMILES CCCCCC(=O)[O-]
REMARK SMILES IDX 4 1 5 2 6 3 7 4 8 5 3 6 2 7 1 8
REMARK H PARENT
REMARK Flexibility Score: inf
ROOT
ATOM      1  C   UNL     1     -18.364 -12.946  -1.308  1.00  0.00     0.006 C 
ENDROOT
BRANCH   1   2
ATOM      2  C   UNL     1     -19.108 -12.079  -0.289  1.00  0.00     0.053 C 
BRANCH   2   3
ATOM      3  C   UNL     1     -18.630 -10.664  -0.358  1.00  0.00     0.041 C 
ATOM      4  O   UNL     1     -19.192  -9.842  -1.129  1.00  0.00    -0.550 OA
ATOM      5  O   UNL     1     -17.532 -10.263   0.394  1.00  0.00    -0.550 OA
ENDBRANCH   2   3
ENDBRANCH   1   2
BRANCH   1   6
ATOM      6  C   UNL     1     -17.165 -13.650  -0.662  1.00  0.00     0.000 C 
BRANCH   6   7
ATOM      7  C   UNL     1     -16.547 -14.676  -1.618  1.00  0.00    -0.003 C 
ATOM      8  C   UNL     1     -17.377 -14.816  -2.890  1.00  0.00     0.004 C 
ENDBRANCH   6   7
ENDBRANCH   1   6
TORSDOF 4
ENDMDL
MODEL 7
REMARK VINA RESULT:    -4.045      5.735      6.045
REMARK INTER + INTRA:          -5.101
REMARK INTER:                  -4.960
REMARK INTRA:                  -0.141
REMARK UNBOUND:                -0.111
REMARK SMILES CCCCCC(=O)[O-]
REMARK SMILES IDX 4 1 5 2 6 3 7 4 8 5 3 6 2 7 1 8
REMARK H PARENT
REMARK Flexibility Score: inf
ROOT
ATOM      1  C   UNL     1     -16.179 -13.678  -2.234  1.00  0.00     0.006 C 
ENDROOT
BRANCH   1   2
ATOM      2  C   UNL     1     -17.321 -14.385  -2.969  1.00  0.00     0.053 C 
BRANCH   2   3
ATOM      3  C   UNL     1     -18.594 -13.614  -2.823  1.00  0.00     0.041 C 
ATOM      4  O   UNL     1     -18.572 -12.428  -2.400  1.00  0.00    -0.550 OA
ATOM      5  O   UNL     1     -19.811 -14.221  -3.107  1.00  0.00    -0.550 OA
ENDBRANCH   2   3
ENDBRANCH   1   2
BRANCH   1   6
ATOM      6  C   UNL     1     -15.830 -14.406  -0.930  1.00  0.00     0.000 C 
BRANCH   6   7
ATOM      7  C   UNL     1     -16.373 -13.648   0.287  1.00  0.00    -0.003 C 
ATOM      8  C   UNL     1     -15.543 -13.937   1.533  1.00  0.00     0.004 C 
ENDBRANCH   6   7
ENDBRANCH   1   6
TORSDOF 4
ENDMDL
MODEL 8
REMARK VINA RESULT:    -4.039      3.166      4.586
REMARK INTER + INTRA:          -5.094
REMARK INTER:                  -5.013
REMARK INTRA:                  -0.081
REMARK UNBOUND:                -0.111
REMARK SMILES CCCCCC(=O)[O-]
REMARK SMILES IDX 4 1 5 2 6 3 7 4 8 5 3 6 2 7 1 8
REMARK H PARENT
REMARK Flexibility Score: inf
ROOT
ATOM      1  C   UNL     1     -17.630  -9.130  -1.994  1.00  0.00     0.006 C 
ENDROOT
BRANCH   1   2
ATOM      2  C   UNL     1     -17.986  -9.191  -0.507  1.00  0.00     0.053 C 
BRANCH   2   3
ATOM      3  C   UNL     1     -17.828 -10.584   0.013  1.00  0.00     0.041 C 
ATOM      4  O   UNL     1     -16.701 -10.991   0.402  1.00  0.00    -0.550 OA
ATOM      5  O   UNL     1     -18.914 -11.450   0.023  1.00  0.00    -0.550 OA
ENDBRANCH   2   3
ENDBRANCH   1   2
BRANCH   1   6
ATOM      6  C   UNL     1     -16.459  -8.172  -2.241  1.00  0.00     0.000 C 
BRANCH   6   7
ATOM      7  C   UNL     1     -15.762  -8.485  -3.571  1.00  0.00    -0.003 C 
ATOM      8  C   UNL     1     -16.606  -8.029  -4.757  1.00  0.00     0.004 C 
ENDBRANCH   6   7
ENDBRANCH   1   6
TORSDOF 4
ENDMDL
MODEL 9
REMARK VINA RESULT:    -4.001      1.918      2.465
REMARK INTER + INTRA:          -5.048
REMARK INTER:                  -4.901
REMARK INTRA:                  -0.146
REMARK UNBOUND:                -0.111
REMARK SMILES CCCCCC(=O)[O-]
REMARK SMILES IDX 4 1 5 2 6 3 7 4 8 5 3 6 2 7 1 8
REMARK H PARENT
REMARK Flexibility Score: inf
ROOT
ATOM      1  C   UNL     1     -16.733  -8.362  -2.618  1.00  0.00     0.006 C 
ENDROOT
BRANCH   1   2
ATOM      2  C   UNL     1     -17.562  -9.477  -1.977  1.00  0.00     0.053 C 
BRANCH   2   3
ATOM      3  C   UNL     1     -17.149 -10.811  -2.512  1.00  0.00     0.041 C 
ATOM      4  O   UNL     1     -16.015 -10.959  -3.041  1.00  0.00    -0.550 OA
ATOM      5  O   UNL     1     -18.034 -11.881  -2.471  1.00  0.00    -0.550 OA
ENDBRANCH   2   3
ENDBRANCH   1   2
BRANCH   1   6
ATOM      6  C   UNL     1     -15.900  -7.620  -1.566  1.00  0.00     0.000 C 
BRANCH   6   7
ATOM      7  C   UNL     1     -16.021  -8.292  -0.194  1.00  0.00    -0.003 C 
ATOM      8  C   UNL     1     -16.417  -7.285   0.881  1.00  0.00     0.004 C 
ENDBRANCH   6   7
ENDBRANCH   1   6
TORSDOF 4
ENDMDL
