MODEL 1
REMARK VINA RESULT:    -3.428      0.000      0.000
REMARK INTER + INTRA:          -4.168
REMARK INTER:                  -4.831
REMARK INTRA:                   0.663
REMARK UNBOUND:                 0.663
REMARK SMILES CC1=CCC(=C(C)C)C(=O)CC(C)=CCC1
REMARK SMILES IDX 12 1 14 2 13 3 15 4 16 5 2 6 1 7 3 8 11 10 9 11 10 12 5 13
REMARK SMILES IDX 6 14 7 15 8 16 4 17
REMARK H PARENT
REMARK Flexibility Score: 60.00
ROOT
ATOM      1  C   UNL     1      25.335  37.110  20.972  1.00  0.00    -0.070 C 
ATOM      2  C   UNL     1      26.134  36.339  21.745  1.00  0.00    -0.027 C 
ATOM      3  C   UNL     1      24.228  36.436  20.201  1.00  0.00     0.039 C 
ENDROOT
BRANCH   2   4
ATOM      4  C   UNL     1      27.369  36.822  22.462  1.00  0.00     0.032 C 
BRANCH   4   5
ATOM      5  C   UNL     1      28.580  35.986  22.031  1.00  0.00     0.034 C 
BRANCH   5   6
ATOM      6  C   UNL     1      28.901  36.147  20.559  1.00  0.00    -0.077 C 
ATOM      7  C   UNL     1      28.975  34.913  19.696  1.00  0.00     0.039 C 
ATOM      8  C   UNL     1      29.057  37.351  19.953  1.00  0.00    -0.023 CG0
ATOM      9  G   UNL     1      29.084  38.718  20.611  1.00  0.00     0.000 G0
ENDBRANCH   5   6
ENDBRANCH   4   5
ENDBRANCH   2   4
BRANCH   1  10
ATOM     10  C   UNL     1      25.483  38.614  20.858  1.00  0.00     0.111 C 
BRANCH  10  11
ATOM     11  C   UNL     1      26.615  39.001  19.937  1.00  0.00     0.163 C 
ATOM     12  O   UNL     1      26.448  38.792  18.704  1.00  0.00    -0.294 OA
BRANCH  11  13
ATOM     13  C   UNL     1      27.895  39.629  20.405  1.00  0.00    -0.002 C 
ATOM     14  C   UNL     1      27.924  40.942  20.791  1.00  0.00    -0.069 C 
ATOM     15  C   UNL     1      29.124  41.547  21.483  1.00  0.00     0.039 C 
ATOM     16  C   UNL     1      26.772  41.876  20.500  1.00  0.00     0.039 C 
BRANCH  13  17
ATOM     17  C   UNL     1      29.102  38.720  20.608  1.00  0.00     0.066 CG0
ATOM     18  G   UNL     1      29.040  37.355  19.947  1.00  0.00     0.000 G0
ENDBRANCH  13  17
ENDBRANCH  11  13
ENDBRANCH  10  11
ENDBRANCH   1  10
TORSDOF 0
ENDMDL
MODEL 2
REMARK VINA RESULT:    -3.132     11.589     13.804
REMARK INTER + INTRA:          -3.750
REMARK INTER:                  -3.794
REMARK INTRA:                   0.044
REMARK UNBOUND:                 0.663
REMARK SMILES CC1=CCC(=C(C)C)C(=O)CC(C)=CCC1
REMARK SMILES IDX 12 1 14 2 13 3 15 4 16 5 2 6 1 7 3 8 11 10 9 11 10 12 5 13
REMARK SMILES IDX 6 14 7 15 8 16 4 17
REMARK H PARENT
REMARK Flexibility Score: 60.00
ROOT
ATOM      1  C   UNL     1      28.317  24.773  27.855  1.00  0.00    -0.070 C 
ATOM      2  C   UNL     1      29.111  25.550  27.082  1.00  0.00    -0.027 C 
ATOM      3  C   UNL     1      28.973  23.913  28.905  1.00  0.00     0.039 C 
ENDROOT
BRANCH   2   4
ATOM      4  C   UNL     1      28.641  26.355  25.897  1.00  0.00     0.032 C 
BRANCH   4   5
ATOM      5  C   UNL     1      28.864  27.849  26.163  1.00  0.00     0.034 C 
BRANCH   5   6
ATOM      6  C   UNL     1      27.634  28.681  25.863  1.00  0.00    -0.077 C 
ATOM      7  C   UNL     1      27.553  29.402  24.541  1.00  0.00     0.039 C 
ATOM      8  C   UNL     1      26.561  28.758  26.689  1.00  0.00    -0.023 CG0
ATOM      9  G   UNL     1      26.426  28.174  28.084  1.00  0.00     0.000 G0
ENDBRANCH   5   6
ENDBRANCH   4   5
ENDBRANCH   2   4
BRANCH   1  10
ATOM     10  C   UNL     1      26.807  24.740  27.732  1.00  0.00     0.111 C 
BRANCH  10  11
ATOM     11  C   UNL     1      26.142  25.687  28.702  1.00  0.00     0.163 C 
ATOM     12  O   UNL     1      26.137  25.353  29.918  1.00  0.00    -0.294 OA
BRANCH  11  13
ATOM     13  C   UNL     1      25.518  26.991  28.299  1.00  0.00    -0.002 C 
ATOM     14  C   UNL     1      24.157  27.132  28.275  1.00  0.00    -0.069 C 
ATOM     15  C   UNL     1      23.495  28.481  28.104  1.00  0.00     0.039 C 
ATOM     16  C   UNL     1      23.237  25.936  28.369  1.00  0.00     0.039 C 
BRANCH  13  17
ATOM     17  C   UNL     1      26.439  28.189  28.099  1.00  0.00     0.066 CG0
ATOM     18  G   UNL     1      26.532  28.743  26.688  1.00  0.00     0.000 G0
ENDBRANCH  13  17
ENDBRANCH  11  13
ENDBRANCH  10  11
ENDBRANCH   1  10
TORSDOF 0
ENDMDL
MODEL 3
REMARK VINA RESULT:    -3.094      1.671      3.186
REMARK INTER + INTRA:          -3.697
REMARK INTER:                  -4.085
REMARK INTRA:                   0.388
REMARK UNBOUND:                 0.663
REMARK SMILES CC1=CCC(=C(C)C)C(=O)CC(C)=CCC1
REMARK SMILES IDX 12 1 14 2 13 3 15 4 16 5 2 6 1 7 3 8 11 10 9 11 10 12 5 13
REMARK SMILES IDX 6 14 7 15 8 16 4 17
REMARK H PARENT
REMARK Flexibility Score: 60.00
ROOT
ATOM      1  C   UNL     1      28.737  37.563  19.581  1.00  0.00    -0.070 C 
ATOM      2  C   UNL     1      28.118  36.744  20.462  1.00  0.00    -0.027 C 
ATOM      3  C   UNL     1      29.125  36.998  18.239  1.00  0.00     0.039 C 
ENDROOT
BRANCH   2   4
ATOM      4  C   UNL     1      27.793  37.099  21.891  1.00  0.00     0.032 C 
BRANCH   4   5
ATOM      5  C   UNL     1      26.283  36.978  22.125  1.00  0.00     0.034 C 
BRANCH   5   6
ATOM      6  C   UNL     1      25.471  37.515  20.964  1.00  0.00    -0.077 C 
ATOM      7  C   UNL     1      24.679  36.545  20.125  1.00  0.00     0.039 C 
ATOM      8  C   UNL     1      25.357  38.836  20.677  1.00  0.00    -0.023 CG0
ATOM      9  G   UNL     1      26.093  39.990  21.332  1.00  0.00     0.000 G0
ENDBRANCH   5   6
ENDBRANCH   4   5
ENDBRANCH   2   4
BRANCH   1  10
ATOM     10  C   UNL     1      29.039  39.020  19.867  1.00  0.00     0.111 C 
BRANCH  10  11
ATOM     11  C   UNL     1      27.900  39.923  19.458  1.00  0.00     0.163 C 
ATOM     12  O   UNL     1      27.613  39.965  18.231  1.00  0.00    -0.294 OA
BRANCH  11  13
ATOM     13  C   UNL     1      27.094  40.740  20.425  1.00  0.00    -0.002 C 
ATOM     14  C   UNL     1      27.137  42.107  20.385  1.00  0.00    -0.069 C 
ATOM     15  C   UNL     1      26.174  42.963  21.177  1.00  0.00     0.039 C 
ATOM     16  C   UNL     1      28.187  42.841  19.582  1.00  0.00     0.039 C 
BRANCH  13  17
ATOM     17  C   UNL     1      26.100  40.008  21.320  1.00  0.00     0.066 CG0
ATOM     18  G   UNL     1      25.347  38.850  20.690  1.00  0.00     0.000 G0
ENDBRANCH  13  17
ENDBRANCH  11  13
ENDBRANCH  10  11
ENDBRANCH   1  10
TORSDOF 0
ENDMDL
MODEL 4
REMARK VINA RESULT:    -2.521     12.876     14.386
REMARK INTER + INTRA:          -2.889
REMARK INTER:                  -3.471
REMARK INTRA:                   0.582
REMARK UNBOUND:                 0.663
REMARK SMILES CC1=CCC(=C(C)C)C(=O)CC(C)=CCC1
REMARK SMILES IDX 12 1 14 2 13 3 15 4 16 5 2 6 1 7 3 8 11 10 9 11 10 12 5 13
REMARK SMILES IDX 6 14 7 15 8 16 4 17
REMARK H PARENT
REMARK Flexibility Score: 60.00
ROOT
ATOM      1  C   UNL     1      25.370  25.215  28.373  1.00  0.00    -0.070 C 
ATOM      2  C   UNL     1      24.428  26.147  28.098  1.00  0.00    -0.027 C 
ATOM      3  C   UNL     1      25.515  24.052  27.425  1.00  0.00     0.039 C 
ENDROOT
BRANCH   2   4
ATOM      4  C   UNL     1      24.051  27.288  29.008  1.00  0.00     0.032 C 
BRANCH   4   5
ATOM      5  C   UNL     1      24.916  28.514  28.689  1.00  0.00     0.034 C 
BRANCH   5   6
ATOM      6  C   UNL     1      25.991  28.750  29.730  1.00  0.00    -0.077 C 
ATOM      7  C   UNL     1      25.582  29.246  31.094  1.00  0.00     0.039 C 
ATOM      8  C   UNL     1      27.304  28.472  29.528  1.00  0.00    -0.023 CG0
ATOM      9  G   UNL     1      27.964  28.023  28.237  1.00  0.00     0.000 G0
ENDBRANCH   5   6
ENDBRANCH   4   5
ENDBRANCH   2   4
BRANCH   1  10
ATOM     10  C   UNL     1      26.296  25.293  29.569  1.00  0.00     0.111 C 
BRANCH  10  11
ATOM     11  C   UNL     1      27.716  25.611  29.163  1.00  0.00     0.163 C 
ATOM     12  O   UNL     1      28.638  25.063  29.825  1.00  0.00    -0.294 OA
BRANCH  11  13
ATOM     13  C   UNL     1      28.074  26.514  28.019  1.00  0.00    -0.002 C 
ATOM     14  C   UNL     1      28.340  25.996  26.781  1.00  0.00    -0.069 C 
ATOM     15  C   UNL     1      28.474  26.873  25.557  1.00  0.00     0.039 C 
ATOM     16  C   UNL     1      28.566  24.515  26.578  1.00  0.00     0.039 C 
BRANCH  13  17
ATOM     17  C   UNL     1      27.951  28.019  28.234  1.00  0.00     0.066 CG0
ATOM     18  G   UNL     1      27.312  28.467  29.536  1.00  0.00     0.000 G0
ENDBRANCH  13  17
ENDBRANCH  11  13
ENDBRANCH  10  11
ENDBRANCH   1  10
TORSDOF 0
ENDMDL
MODEL 5
REMARK VINA RESULT:    -2.398     12.219     14.357
REMARK INTER + INTRA:          -2.716
REMARK INTER:                  -3.208
REMARK INTRA:                   0.493
REMARK UNBOUND:                 0.663
REMARK SMILES CC1=CCC(=C(C)C)C(=O)CC(C)=CCC1
REMARK SMILES IDX 12 1 14 2 13 3 15 4 16 5 2 6 1 7 3 8 11 10 9 11 10 12 5 13
REMARK SMILES IDX 6 14 7 15 8 16 4 17
REMARK H PARENT
REMARK Flexibility Score: 60.00
ROOT
ATOM      1  C   UNL     1      27.511  27.402  26.652  1.00  0.00    -0.070 C 
ATOM      2  C   UNL     1      28.496  28.157  27.189  1.00  0.00    -0.027 C 
ATOM      3  C   UNL     1      27.904  26.257  25.754  1.00  0.00     0.039 C 
ENDROOT
BRANCH   2   4
ATOM      4  C   UNL     1      28.281  29.420  27.984  1.00  0.00     0.032 C 
BRANCH   4   5
ATOM      5  C   UNL     1      28.484  29.133  29.477  1.00  0.00     0.034 C 
BRANCH   5   6
ATOM      6  C   UNL     1      27.176  29.083  30.241  1.00  0.00    -0.077 C 
ATOM      7  C   UNL     1      26.554  30.378  30.698  1.00  0.00     0.039 C 
ATOM      8  C   UNL     1      26.489  27.936  30.476  1.00  0.00    -0.023 CG0
ATOM      9  G   UNL     1      26.930  26.517  30.169  1.00  0.00     0.000 G0
ENDBRANCH   5   6
ENDBRANCH   4   5
ENDBRANCH   2   4
BRANCH   1  10
ATOM     10  C   UNL     1      26.038  27.637  26.922  1.00  0.00     0.111 C 
BRANCH  10  11
ATOM     11  C   UNL     1      25.512  26.723  28.003  1.00  0.00     0.163 C 
ATOM     12  O   UNL     1      24.260  26.664  28.145  1.00  0.00    -0.294 OA
BRANCH  11  13
ATOM     13  C   UNL     1      26.388  25.883  28.885  1.00  0.00    -0.002 C 
ATOM     14  C   UNL     1      26.812  24.649  28.471  1.00  0.00    -0.069 C 
ATOM     15  C   UNL     1      27.874  23.875  29.219  1.00  0.00     0.039 C 
ATOM     16  C   UNL     1      26.203  23.968  27.267  1.00  0.00     0.039 C 
BRANCH  13  17
ATOM     17  C   UNL     1      26.932  26.517  30.160  1.00  0.00     0.066 CG0
ATOM     18  G   UNL     1      26.487  27.938  30.453  1.00  0.00     0.000 G0
ENDBRANCH  13  17
ENDBRANCH  11  13
ENDBRANCH  10  11
ENDBRANCH   1  10
TORSDOF 0
ENDMDL
MODEL 6
REMARK VINA RESULT:    -1.834     13.244     14.696
REMARK INTER + INTRA:          -1.921
REMARK INTER:                  -2.649
REMARK INTRA:                   0.728
REMARK UNBOUND:                 0.663
REMARK SMILES CC1=CCC(=C(C)C)C(=O)CC(C)=CCC1
REMARK SMILES IDX 12 1 14 2 13 3 15 4 16 5 2 6 1 7 3 8 11 10 9 11 10 12 5 13
REMARK SMILES IDX 6 14 7 15 8 16 4 17
REMARK H PARENT
REMARK Flexibility Score: 60.00
ROOT
ATOM      1  C   UNL     1      24.779  27.111  28.279  1.00  0.00    -0.070 C 
ATOM      2  C   UNL     1      24.276  25.855  28.254  1.00  0.00    -0.027 C 
ATOM      3  C   UNL     1      23.997  28.174  29.008  1.00  0.00     0.039 C 
ENDROOT
BRANCH   2   4
ATOM      4  C   UNL     1      24.847  24.712  27.455  1.00  0.00     0.032 C 
BRANCH   4   5
ATOM      5  C   UNL     1      26.217  24.317  28.020  1.00  0.00     0.034 C 
BRANCH   5   6
ATOM      6  C   UNL     1      27.326  24.452  26.996  1.00  0.00    -0.077 C 
ATOM      7  C   UNL     1      27.114  23.875  25.619  1.00  0.00     0.039 C 
ATOM      8  C   UNL     1      28.480  25.128  27.225  1.00  0.00    -0.023 CG0
ATOM      9  G   UNL     1      28.946  25.741  28.533  1.00  0.00     0.000 G0
ENDBRANCH   5   6
ENDBRANCH   4   5
ENDBRANCH   2   4
BRANCH   1  10
ATOM     10  C   UNL     1      26.094  27.496  27.632  1.00  0.00     0.111 C 
BRANCH  10  11
ATOM     11  C   UNL     1      27.196  27.662  28.651  1.00  0.00     0.163 C 
ATOM     12  O   UNL     1      27.528  28.841  28.950  1.00  0.00    -0.294 OA
BRANCH  11  13
ATOM     13  C   UNL     1      27.887  26.514  29.327  1.00  0.00    -0.002 C 
ATOM     14  C   UNL     1      27.459  26.067  30.548  1.00  0.00    -0.069 C 
ATOM     15  C   UNL     1      27.971  24.779  31.153  1.00  0.00     0.039 C 
ATOM     16  C   UNL     1      26.485  26.865  31.384  1.00  0.00     0.039 C 
BRANCH  13  17
ATOM     17  C   UNL     1      28.949  25.757  28.537  1.00  0.00     0.066 CG0
ATOM     18  G   UNL     1      28.499  25.124  27.233  1.00  0.00     0.000 G0
ENDBRANCH  13  17
ENDBRANCH  11  13
ENDBRANCH  10  11
ENDBRANCH   1  10
TORSDOF 0
ENDMDL
MODEL 7
REMARK VINA RESULT:    -1.734      2.058      4.697
REMARK INTER + INTRA:          -1.781
REMARK INTER:                  -2.334
REMARK INTRA:                   0.554
REMARK UNBOUND:                 0.663
REMARK SMILES CC1=CCC(=C(C)C)C(=O)CC(C)=CCC1
REMARK SMILES IDX 12 1 14 2 13 3 15 4 16 5 2 6 1 7 3 8 11 10 9 11 10 12 5 13
REMARK SMILES IDX 6 14 7 15 8 16 4 17
REMARK H PARENT
REMARK Flexibility Score: 60.00
ROOT
ATOM      1  C   UNL     1      27.776  38.446  18.820  1.00  0.00    -0.070 C 
ATOM      2  C   UNL     1      28.418  39.607  19.089  1.00  0.00    -0.027 C 
ATOM      3  C   UNL     1      26.989  38.352  17.538  1.00  0.00     0.039 C 
ENDROOT
BRANCH   2   4
ATOM      4  C   UNL     1      29.125  39.924  20.383  1.00  0.00     0.032 C 
BRANCH   4   5
ATOM      5  C   UNL     1      28.624  41.264  20.933  1.00  0.00     0.034 C 
BRANCH   5   6
ATOM      6  C   UNL     1      27.220  41.595  20.467  1.00  0.00    -0.077 C 
ATOM      7  C   UNL     1      27.028  42.741  19.506  1.00  0.00     0.039 C 
ATOM      8  C   UNL     1      26.127  40.869  20.809  1.00  0.00    -0.023 CG0
ATOM      9  G   UNL     1      26.054  39.718  21.796  1.00  0.00     0.000 G0
ENDBRANCH   5   6
ENDBRANCH   4   5
ENDBRANCH   2   4
BRANCH   1  10
ATOM     10  C   UNL     1      27.825  37.236  19.730  1.00  0.00     0.111 C 
BRANCH  10  11
ATOM     11  C   UNL     1      27.176  37.508  21.066  1.00  0.00     0.163 C 
ATOM     12  O   UNL     1      27.747  37.038  22.088  1.00  0.00    -0.294 OA
BRANCH  11  13
ATOM     13  C   UNL     1      25.921  38.314  21.235  1.00  0.00    -0.002 C 
ATOM     14  C   UNL     1      24.695  37.740  21.035  1.00  0.00    -0.069 C 
ATOM     15  C   UNL     1      23.411  38.442  21.417  1.00  0.00     0.039 C 
ATOM     16  C   UNL     1      24.554  36.389  20.372  1.00  0.00     0.039 C 
BRANCH  13  17
ATOM     17  C   UNL     1      26.050  39.721  21.808  1.00  0.00     0.066 CG0
ATOM     18  G   UNL     1      26.108  40.858  20.804  1.00  0.00     0.000 G0
ENDBRANCH  13  17
ENDBRANCH  11  13
ENDBRANCH  10  11
ENDBRANCH   1  10
TORSDOF 0
ENDMDL
MODEL 8
REMARK VINA RESULT:    -1.623      2.726      5.213
REMARK INTER + INTRA:          -1.624
REMARK INTER:                  -1.686
REMARK INTRA:                   0.062
REMARK UNBOUND:                 0.663
REMARK SMILES CC1=CCC(=C(C)C)C(=O)CC(C)=CCC1
REMARK SMILES IDX 12 1 14 2 13 3 15 4 16 5 2 6 1 7 3 8 11 10 9 11 10 12 5 13
REMARK SMILES IDX 6 14 7 15 8 16 4 17
REMARK H PARENT
REMARK Flexibility Score: 60.00
ROOT
ATOM      1  C   UNL     1      26.233  37.625  20.142  1.00  0.00    -0.070 C 
ATOM      2  C   UNL     1      25.053  37.627  20.804  1.00  0.00    -0.027 C 
ATOM      3  C   UNL     1      26.606  38.854  19.353  1.00  0.00     0.039 C 
ENDROOT
BRANCH   2   4
ATOM      4  C   UNL     1      24.461  36.438  21.516  1.00  0.00     0.032 C 
BRANCH   4   5
ATOM      5  C   UNL     1      24.318  36.747  23.011  1.00  0.00     0.034 C 
BRANCH   5   6
ATOM      6  C   UNL     1      24.642  35.552  23.884  1.00  0.00    -0.077 C 
ATOM      7  C   UNL     1      23.507  34.714  24.415  1.00  0.00     0.039 C 
ATOM      8  C   UNL     1      25.907  35.146  24.159  1.00  0.00    -0.023 CG0
ATOM      9  G   UNL     1      27.202  35.847  23.790  1.00  0.00     0.000 G0
ENDBRANCH   5   6
ENDBRANCH   4   5
ENDBRANCH   2   4
BRANCH   1  10
ATOM     10  C   UNL     1      27.204  36.462  20.170  1.00  0.00     0.111 C 
BRANCH  10  11
ATOM     11  C   UNL     1      28.031  36.449  21.434  1.00  0.00     0.163 C 
ATOM     12  O   UNL     1      28.867  37.381  21.582  1.00  0.00    -0.294 OA
BRANCH  11  13
ATOM     13  C   UNL     1      27.894  35.412  22.510  1.00  0.00    -0.002 C 
ATOM     14  C   UNL     1      28.491  34.188  22.377  1.00  0.00    -0.069 C 
ATOM     15  C   UNL     1      28.574  33.208  23.525  1.00  0.00     0.039 C 
ATOM     16  C   UNL     1      29.060  33.727  21.054  1.00  0.00     0.039 C 
BRANCH  13  17
ATOM     17  C   UNL     1      27.230  35.827  23.818  1.00  0.00     0.066 CG0
ATOM     18  G   UNL     1      25.912  35.152  24.153  1.00  0.00     0.000 G0
ENDBRANCH  13  17
ENDBRANCH  11  13
ENDBRANCH  10  11
ENDBRANCH   1  10
TORSDOF 0
ENDMDL
MODEL 9
REMARK VINA RESULT:    -1.236      1.812      4.455
REMARK INTER + INTRA:          -1.078
REMARK INTER:                  -2.118
REMARK INTRA:                   1.040
REMARK UNBOUND:                 0.663
REMARK SMILES CC1=CCC(=C(C)C)C(=O)CC(C)=CCC1
REMARK SMILES IDX 12 1 14 2 13 3 15 4 16 5 2 6 1 7 3 8 11 10 9 11 10 12 5 13
REMARK SMILES IDX 6 14 7 15 8 16 4 17
REMARK H PARENT
REMARK Flexibility Score: 60.00
ROOT
ATOM      1  C   UNL     1      28.407  37.491  20.818  1.00  0.00    -0.070 C 
ATOM      2  C   UNL     1      29.051  38.675  20.944  1.00  0.00    -0.027 C 
ATOM      3  C   UNL     1      28.562  36.478  21.924  1.00  0.00     0.039 C 
ENDROOT
BRANCH   2   4
ATOM      4  C   UNL     1      29.124  39.736  19.876  1.00  0.00     0.032 C 
BRANCH   4   5
ATOM      5  C   UNL     1      28.235  40.924  20.262  1.00  0.00     0.034 C 
BRANCH   5   6
ATOM      6  C   UNL     1      27.653  40.784  21.654  1.00  0.00    -0.077 C 
ATOM      7  C   UNL     1      28.518  41.133  22.839  1.00  0.00     0.039 C 
ATOM      8  C   UNL     1      26.366  40.429  21.896  1.00  0.00    -0.023 CG0
ATOM      9  G   UNL     1      25.327  39.979  20.886  1.00  0.00     0.000 G0
ENDBRANCH   5   6
ENDBRANCH   4   5
ENDBRANCH   2   4
BRANCH   1  10
ATOM     10  C   UNL     1      27.527  37.142  19.636  1.00  0.00     0.111 C 
BRANCH  10  11
ATOM     11  C   UNL     1      26.485  38.203  19.376  1.00  0.00     0.163 C 
ATOM     12  O   UNL     1      26.541  38.804  18.269  1.00  0.00    -0.294 OA
BRANCH  11  13
ATOM     13  C   UNL     1      25.394  38.556  20.344  1.00  0.00    -0.002 C 
ATOM     14  C   UNL     1      24.581  37.584  20.860  1.00  0.00    -0.069 C 
ATOM     15  C   UNL     1      23.631  37.858  22.005  1.00  0.00     0.039 C 
ATOM     16  C   UNL     1      24.551  36.189  20.279  1.00  0.00     0.039 C 
BRANCH  13  17
ATOM     17  C   UNL     1      25.342  39.987  20.868  1.00  0.00     0.066 CG0
ATOM     18  G   UNL     1      26.375  40.363  21.914  1.00  0.00     0.000 G0
ENDBRANCH  13  17
ENDBRANCH  11  13
ENDBRANCH  10  11
ENDBRANCH   1  10
TORSDOF 0
ENDMDL
