MODEL 1
REMARK VINA RESULT:    -5.417      0.000      0.000
REMARK INTER + INTRA:         -15.080
REMARK INTER:                 -12.385
REMARK INTRA:                  -2.695
REMARK UNBOUND:                -2.695
REMARK SMILES CCCCCCCCCCCCCCCCCCCCCCCC(=O)[O-]
REMARK SMILES IDX 13 1 14 2 15 3 16 4 17 5 18 6 19 7 20 8 21 9 22 10 23 11
REMARK SMILES IDX 24 12 25 13 26 14 12 15 11 16 10 17 9 18 8 19 7 20 6 21 5 22
REMARK SMILES IDX 4 23 3 24 2 25 1 26
REMARK H PARENT
REMARK Flexibility Score: inf
ROOT
ATOM      1  C   UNL     1      10.455  40.945  42.680  1.00  0.00     0.000 C 
ENDROOT
BRANCH   1   2
ATOM      2  C   UNL     1       9.386  39.953  43.167  1.00  0.00     0.000 C 
BRANCH   2   3
ATOM      3  C   UNL     1       9.182  39.996  44.693  1.00  0.00     0.000 C 
BRANCH   3   4
ATOM      4  C   UNL     1      10.475  39.927  45.532  1.00  0.00     0.000 C 
BRANCH   4   5
ATOM      5  C   UNL     1      10.970  38.507  45.859  1.00  0.00     0.000 C 
BRANCH   5   6
ATOM      6  C   UNL     1      12.054  38.016  44.887  1.00  0.00     0.000 C 
BRANCH   6   7
ATOM      7  C   UNL     1      11.480  36.995  43.894  1.00  0.00     0.000 C 
BRANCH   7   8
ATOM      8  C   UNL     1      10.291  36.210  44.472  1.00  0.00     0.000 C 
BRANCH   8   9
ATOM      9  C   UNL     1      10.554  34.697  44.532  1.00  0.00     0.000 C 
BRANCH   9  10
ATOM     10  C   UNL     1       9.735  33.954  43.467  1.00  0.00     0.006 C 
BRANCH  10  11
ATOM     11  C   UNL     1      10.620  33.358  42.363  1.00  0.00     0.053 C 
BRANCH  11  12
ATOM     12  C   UNL     1       9.807  32.841  41.216  1.00  0.00     0.041 C 
ATOM     13  O   UNL     1       8.820  32.088  41.427  1.00  0.00    -0.550 OA
ATOM     14  O   UNL     1      10.168  33.154  39.912  1.00  0.00    -0.550 OA
ENDBRANCH  11  12
ENDBRANCH  10  11
ENDBRANCH   9  10
ENDBRANCH   8   9
ENDBRANCH   7   8
ENDBRANCH   6   7
ENDBRANCH   5   6
ENDBRANCH   4   5
ENDBRANCH   3   4
ENDBRANCH   2   3
ENDBRANCH   1   2
BRANCH   1  15
ATOM     15  C   UNL     1       9.979  42.406  42.738  1.00  0.00     0.000 C 
BRANCH  15  16
ATOM     16  C   UNL     1       9.228  42.842  41.468  1.00  0.00     0.000 C 
BRANCH  16  17
ATOM     17  C   UNL     1       7.753  43.178  41.747  1.00  0.00     0.000 C 
BRANCH  17  18
ATOM     18  C   UNL     1       7.592  44.210  42.878  1.00  0.00    -0.000 C 
BRANCH  18  19
ATOM     19  C   UNL     1       6.481  43.832  43.872  1.00  0.00    -0.000 C 
BRANCH  19  20
ATOM     20  C   UNL     1       6.097  42.339  43.874  1.00  0.00    -0.000 C 
BRANCH  20  21
ATOM     21  C   UNL     1       6.047  41.715  45.285  1.00  0.00    -0.000 C 
BRANCH  21  22
ATOM     22  C   UNL     1       5.058  42.448  46.209  1.00  0.00    -0.000 C 
BRANCH  22  23
ATOM     23  C   UNL     1       5.160  41.988  47.671  1.00  0.00    -0.000 C 
BRANCH  23  24
ATOM     24  C   UNL     1       6.118  40.797  47.854  1.00  0.00    -0.000 C 
BRANCH  24  25
ATOM     25  C   UNL     1       7.221  41.081  48.885  1.00  0.00    -0.003 C 
ATOM     26  C   UNL     1       8.503  40.297  48.610  1.00  0.00     0.004 C 
ENDBRANCH  24  25
ENDBRANCH  23  24
ENDBRANCH  22  23
ENDBRANCH  21  22
ENDBRANCH  20  21
ENDBRANCH  19  20
ENDBRANCH  18  19
ENDBRANCH  17  18
ENDBRANCH  16  17
ENDBRANCH  15  16
ENDBRANCH   1  15
TORSDOF 22
ENDMDL
MODEL 2
REMARK VINA RESULT:    -5.352      1.683      4.446
REMARK INTER + INTRA:         -14.931
REMARK INTER:                 -12.049
REMARK INTRA:                  -2.882
REMARK UNBOUND:                -2.695
REMARK SMILES CCCCCCCCCCCCCCCCCCCCCCCC(=O)[O-]
REMARK SMILES IDX 13 1 14 2 15 3 16 4 17 5 18 6 19 7 20 8 21 9 22 10 23 11
REMARK SMILES IDX 24 12 25 13 26 14 12 15 11 16 10 17 9 18 8 19 7 20 6 21 5 22
REMARK SMILES IDX 4 23 3 24 2 25 1 26
REMARK H PARENT
REMARK Flexibility Score: inf
ROOT
ATOM      1  C   UNL     1       6.588  41.944  44.518  1.00  0.00     0.000 C 
ENDROOT
BRANCH   1   2
ATOM      2  C   UNL     1       7.109  40.535  44.845  1.00  0.00     0.000 C 
BRANCH   2   3
ATOM      3  C   UNL     1       8.505  40.263  44.255  1.00  0.00     0.000 C 
BRANCH   3   4
ATOM      4  C   UNL     1       9.338  39.198  44.999  1.00  0.00     0.000 C 
BRANCH   4   5
ATOM      5  C   UNL     1      10.291  38.374  44.113  1.00  0.00     0.000 C 
BRANCH   5   6
ATOM      6  C   UNL     1      11.201  37.441  44.926  1.00  0.00     0.000 C 
BRANCH   6   7
ATOM      7  C   UNL     1      10.397  36.683  45.994  1.00  0.00     0.000 C 
BRANCH   7   8
ATOM      8  C   UNL     1       9.941  35.294  45.518  1.00  0.00     0.000 C 
BRANCH   8   9
ATOM      9  C   UNL     1      10.807  34.747  44.373  1.00  0.00     0.000 C 
BRANCH   9  10
ATOM     10  C   UNL     1      10.011  33.763  43.504  1.00  0.00     0.006 C 
BRANCH  10  11
ATOM     11  C   UNL     1      10.715  33.460  42.173  1.00  0.00     0.053 C 
BRANCH  11  12
ATOM     12  C   UNL     1       9.736  33.309  41.049  1.00  0.00     0.041 C 
ATOM     13  O   UNL     1      10.142  33.036  39.888  1.00  0.00    -0.550 OA
ATOM     14  O   UNL     1       8.382  33.515  41.274  1.00  0.00    -0.550 OA
ENDBRANCH  11  12
ENDBRANCH  10  11
ENDBRANCH   9  10
ENDBRANCH   8   9
ENDBRANCH   7   8
ENDBRANCH   6   7
ENDBRANCH   5   6
ENDBRANCH   4   5
ENDBRANCH   3   4
ENDBRANCH   2   3
ENDBRANCH   1   2
BRANCH   1  15
ATOM     15  C   UNL     1       5.473  42.402  45.473  1.00  0.00     0.000 C 
BRANCH  15  16
ATOM     16  C   UNL     1       5.331  41.492  46.705  1.00  0.00     0.000 C 
BRANCH  16  17
ATOM     17  C   UNL     1       5.595  42.244  48.021  1.00  0.00     0.000 C 
BRANCH  17  18
ATOM     18  C   UNL     1       6.365  41.387  49.041  1.00  0.00    -0.000 C 
BRANCH  18  19
ATOM     19  C   UNL     1       7.163  40.251  48.378  1.00  0.00    -0.000 C 
BRANCH  19  20
ATOM     20  C   UNL     1       8.687  40.316  48.601  1.00  0.00    -0.000 C 
BRANCH  20  21
ATOM     21  C   UNL     1       9.381  38.940  48.536  1.00  0.00    -0.000 C 
BRANCH  21  22
ATOM     22  C   UNL     1      10.888  39.036  48.833  1.00  0.00    -0.000 C 
BRANCH  22  23
ATOM     23  C   UNL     1      11.375  40.487  48.969  1.00  0.00    -0.000 C 
BRANCH  23  24
ATOM     24  C   UNL     1      12.573  40.799  48.055  1.00  0.00    -0.000 C 
BRANCH  24  25
ATOM     25  C   UNL     1      12.204  40.759  46.564  1.00  0.00    -0.003 C 
ATOM     26  C   UNL     1      13.396  40.428  45.667  1.00  0.00     0.004 C 
ENDBRANCH  24  25
ENDBRANCH  23  24
ENDBRANCH  22  23
ENDBRANCH  21  22
ENDBRANCH  20  21
ENDBRANCH  19  20
ENDBRANCH  18  19
ENDBRANCH  17  18
ENDBRANCH  16  17
ENDBRANCH  15  16
ENDBRANCH   1  15
TORSDOF 22
ENDMDL
MODEL 3
REMARK VINA RESULT:    -5.318      4.218      5.474
REMARK INTER + INTRA:         -14.853
REMARK INTER:                 -11.298
REMARK INTRA:                  -3.555
REMARK UNBOUND:                -2.695
REMARK SMILES CCCCCCCCCCCCCCCCCCCCCCCC(=O)[O-]
REMARK SMILES IDX 13 1 14 2 15 3 16 4 17 5 18 6 19 7 20 8 21 9 22 10 23 11
REMARK SMILES IDX 24 12 25 13 26 14 12 15 11 16 10 17 9 18 8 19 7 20 6 21 5 22
REMARK SMILES IDX 4 23 3 24 2 25 1 26
REMARK H PARENT
REMARK Flexibility Score: inf
ROOT
ATOM      1  C   UNL     1       9.377  39.871  45.831  1.00  0.00     0.000 C 
ENDROOT
BRANCH   1   2
ATOM      2  C   UNL     1       9.569  38.597  46.671  1.00  0.00     0.000 C 
BRANCH   2   3
ATOM      3  C   UNL     1       9.066  38.755  48.118  1.00  0.00     0.000 C 
BRANCH   3   4
ATOM      4  C   UNL     1       9.369  40.118  48.776  1.00  0.00     0.000 C 
BRANCH   4   5
ATOM      5  C   UNL     1      10.863  40.454  48.931  1.00  0.00     0.000 C 
BRANCH   5   6
ATOM      6  C   UNL     1      11.654  39.340  49.634  1.00  0.00     0.000 C 
BRANCH   6   7
ATOM      7  C   UNL     1      12.785  38.818  48.735  1.00  0.00     0.000 C 
BRANCH   7   8
ATOM      8  C   UNL     1      13.123  39.784  47.587  1.00  0.00     0.000 C 
BRANCH   8   9
ATOM      9  C   UNL     1      13.234  39.075  46.229  1.00  0.00     0.000 C 
BRANCH   9  10
ATOM     10  C   UNL     1      13.002  40.061  45.074  1.00  0.00     0.006 C 
BRANCH  10  11
ATOM     11  C   UNL     1      12.702  41.481  45.573  1.00  0.00     0.053 C 
BRANCH  11  12
ATOM     12  C   UNL     1      13.533  42.507  44.865  1.00  0.00     0.041 C 
ATOM     13  O   UNL     1      14.474  43.087  45.469  1.00  0.00    -0.550 OA
ATOM     14  O   UNL     1      13.237  42.856  43.554  1.00  0.00    -0.550 OA
ENDBRANCH  11  12
ENDBRANCH  10  11
ENDBRANCH   9  10
ENDBRANCH   8   9
ENDBRANCH   7   8
ENDBRANCH   6   7
ENDBRANCH   5   6
ENDBRANCH   4   5
ENDBRANCH   3   4
ENDBRANCH   2   3
ENDBRANCH   1   2
BRANCH   1  15
ATOM     15  C   UNL     1       9.001  39.570  44.371  1.00  0.00     0.000 C 
BRANCH  15  16
ATOM     16  C   UNL     1       9.428  40.687  43.402  1.00  0.00     0.000 C 
BRANCH  16  17
ATOM     17  C   UNL     1       8.661  40.630  42.070  1.00  0.00     0.000 C 
BRANCH  17  18
ATOM     18  C   UNL     1       7.573  41.715  41.974  1.00  0.00    -0.000 C 
BRANCH  18  19
ATOM     19  C   UNL     1       7.883  42.943  42.847  1.00  0.00    -0.000 C 
BRANCH  19  20
ATOM     20  C   UNL     1       6.653  43.583  43.520  1.00  0.00    -0.000 C 
BRANCH  20  21
ATOM     21  C   UNL     1       5.616  42.556  44.021  1.00  0.00    -0.000 C 
BRANCH  21  22
ATOM     22  C   UNL     1       5.535  42.515  45.557  1.00  0.00    -0.000 C 
BRANCH  22  23
ATOM     23  C   UNL     1       6.219  41.275  46.154  1.00  0.00    -0.000 C 
BRANCH  23  24
ATOM     24  C   UNL     1       5.552  40.798  47.456  1.00  0.00    -0.000 C 
BRANCH  24  25
ATOM     25  C   UNL     1       5.117  41.965  48.357  1.00  0.00    -0.003 C 
ATOM     26  C   UNL     1       5.992  42.110  49.601  1.00  0.00     0.004 C 
ENDBRANCH  24  25
ENDBRANCH  23  24
ENDBRANCH  22  23
ENDBRANCH  21  22
ENDBRANCH  20  21
ENDBRANCH  19  20
ENDBRANCH  18  19
ENDBRANCH  17  18
ENDBRANCH  16  17
ENDBRANCH  15  16
ENDBRANCH   1  15
TORSDOF 22
ENDMDL
MODEL 4
REMARK VINA RESULT:    -5.271      3.401      5.927
REMARK INTER + INTRA:         -14.746
REMARK INTER:                 -11.592
REMARK INTRA:                  -3.154
REMARK UNBOUND:                -2.695
REMARK SMILES CCCCCCCCCCCCCCCCCCCCCCCC(=O)[O-]
REMARK SMILES IDX 13 1 14 2 15 3 16 4 17 5 18 6 19 7 20 8 21 9 22 10 23 11
REMARK SMILES IDX 24 12 25 13 26 14 12 15 11 16 10 17 9 18 8 19 7 20 6 21 5 22
REMARK SMILES IDX 4 23 3 24 2 25 1 26
REMARK H PARENT
REMARK Flexibility Score: inf
ROOT
ATOM      1  C   UNL     1       5.955  42.729  43.564  1.00  0.00     0.000 C 
ENDROOT
BRANCH   1   2
ATOM      2  C   UNL     1       6.800  44.005  43.721  1.00  0.00     0.000 C 
BRANCH   2   3
ATOM      3  C   UNL     1       7.790  44.212  42.560  1.00  0.00     0.000 C 
BRANCH   3   4
ATOM      4  C   UNL     1       7.887  43.042  41.559  1.00  0.00     0.000 C 
BRANCH   4   5
ATOM      5  C   UNL     1       9.121  42.136  41.726  1.00  0.00     0.000 C 
BRANCH   5   6
ATOM      6  C   UNL     1       8.767  40.743  42.268  1.00  0.00     0.000 C 
BRANCH   6   7
ATOM      7  C   UNL     1       9.225  40.588  43.726  1.00  0.00     0.000 C 
BRANCH   7   8
ATOM      8  C   UNL     1       9.289  39.118  44.173  1.00  0.00     0.000 C 
BRANCH   8   9
ATOM      9  C   UNL     1      10.730  38.599  44.296  1.00  0.00     0.000 C 
BRANCH   9  10
ATOM     10  C   UNL     1      11.743  39.721  44.025  1.00  0.00     0.006 C 
BRANCH  10  11
ATOM     11  C   UNL     1      12.528  39.493  42.725  1.00  0.00     0.053 C 
BRANCH  11  12
ATOM     12  C   UNL     1      12.715  40.767  41.958  1.00  0.00     0.041 C 
ATOM     13  O   UNL     1      12.560  41.879  42.528  1.00  0.00    -0.550 OA
ATOM     14  O   UNL     1      13.015  40.724  40.603  1.00  0.00    -0.550 OA
ENDBRANCH  11  12
ENDBRANCH  10  11
ENDBRANCH   9  10
ENDBRANCH   8   9
ENDBRANCH   7   8
ENDBRANCH   6   7
ENDBRANCH   5   6
ENDBRANCH   4   5
ENDBRANCH   3   4
ENDBRANCH   2   3
ENDBRANCH   1   2
BRANCH   1  15
ATOM     15  C   UNL     1       5.937  41.867  44.837  1.00  0.00     0.000 C 
BRANCH  15  16
ATOM     16  C   UNL     1       5.193  42.541  46.003  1.00  0.00     0.000 C 
BRANCH  16  17
ATOM     17  C   UNL     1       4.912  41.565  47.158  1.00  0.00     0.000 C 
BRANCH  17  18
ATOM     18  C   UNL     1       5.812  41.827  48.379  1.00  0.00    -0.000 C 
BRANCH  18  19
ATOM     19  C   UNL     1       6.778  40.665  48.664  1.00  0.00    -0.000 C 
BRANCH  19  20
ATOM     20  C   UNL     1       7.656  40.246  47.469  1.00  0.00    -0.000 C 
BRANCH  20  21
ATOM     21  C   UNL     1       9.019  39.651  47.881  1.00  0.00    -0.000 C 
BRANCH  21  22
ATOM     22  C   UNL     1       9.654  40.416  49.055  1.00  0.00    -0.000 C 
BRANCH  22  23
ATOM     23  C   UNL     1      11.128  40.043  49.279  1.00  0.00    -0.000 C 
BRANCH  23  24
ATOM     24  C   UNL     1      11.723  39.246  48.104  1.00  0.00    -0.000 C 
BRANCH  24  25
ATOM     25  C   UNL     1      13.091  39.785  47.658  1.00  0.00    -0.003 C 
ATOM     26  C   UNL     1      13.109  41.306  47.514  1.00  0.00     0.004 C 
ENDBRANCH  24  25
ENDBRANCH  23  24
ENDBRANCH  22  23
ENDBRANCH  21  22
ENDBRANCH  20  21
ENDBRANCH  19  20
ENDBRANCH  18  19
ENDBRANCH  17  18
ENDBRANCH  16  17
ENDBRANCH  15  16
ENDBRANCH   1  15
TORSDOF 22
ENDMDL
MODEL 5
REMARK VINA RESULT:    -5.250      3.313      8.113
REMARK INTER + INTRA:         -14.698
REMARK INTER:                 -12.572
REMARK INTRA:                  -2.126
REMARK UNBOUND:                -2.695
REMARK SMILES CCCCCCCCCCCCCCCCCCCCCCCC(=O)[O-]
REMARK SMILES IDX 13 1 14 2 15 3 16 4 17 5 18 6 19 7 20 8 21 9 22 10 23 11
REMARK SMILES IDX 24 12 25 13 26 14 12 15 11 16 10 17 9 18 8 19 7 20 6 21 5 22
REMARK SMILES IDX 4 23 3 24 2 25 1 26
REMARK H PARENT
REMARK Flexibility Score: inf
ROOT
ATOM      1  C   UNL     1      12.752  40.773  47.333  1.00  0.00     0.000 C 
ENDROOT
BRANCH   1   2
ATOM      2  C   UNL     1      12.313  39.392  47.847  1.00  0.00     0.000 C 
BRANCH   2   3
ATOM      3  C   UNL     1      11.417  39.477  49.097  1.00  0.00     0.000 C 
BRANCH   3   4
ATOM      4  C   UNL     1      10.115  40.286  48.920  1.00  0.00     0.000 C 
BRANCH   4   5
ATOM      5  C   UNL     1       9.236  39.862  47.729  1.00  0.00     0.000 C 
BRANCH   5   6
ATOM      6  C   UNL     1       8.120  38.886  48.131  1.00  0.00     0.000 C 
BRANCH   6   7
ATOM      7  C   UNL     1       6.755  39.591  48.155  1.00  0.00     0.000 C 
BRANCH   7   8
ATOM      8  C   UNL     1       6.850  41.049  48.633  1.00  0.00     0.000 C 
BRANCH   8   9
ATOM      9  C   UNL     1       5.508  41.792  48.539  1.00  0.00     0.000 C 
BRANCH   9  10
ATOM     10  C   UNL     1       4.886  41.628  47.144  1.00  0.00     0.006 C 
BRANCH  10  11
ATOM     11  C   UNL     1       5.485  42.604  46.121  1.00  0.00     0.053 C 
BRANCH  11  12
ATOM     12  C   UNL     1       5.850  41.916  44.842  1.00  0.00     0.041 C 
ATOM     13  O   UNL     1       6.576  40.886  44.860  1.00  0.00    -0.550 OA
ATOM     14  O   UNL     1       5.426  42.437  43.626  1.00  0.00    -0.550 OA
ENDBRANCH  11  12
ENDBRANCH  10  11
ENDBRANCH   9  10
ENDBRANCH   8   9
ENDBRANCH   7   8
ENDBRANCH   6   7
ENDBRANCH   5   6
ENDBRANCH   4   5
ENDBRANCH   3   4
ENDBRANCH   2   3
ENDBRANCH   1   2
BRANCH   1  15
ATOM     15  C   UNL     1      12.201  41.088  45.932  1.00  0.00     0.000 C 
BRANCH  15  16
ATOM     16  C   UNL     1      13.112  40.574  44.803  1.00  0.00     0.000 C 
BRANCH  16  17
ATOM     17  C   UNL     1      12.318  40.170  43.550  1.00  0.00     0.000 C 
BRANCH  17  18
ATOM     18  C   UNL     1      11.113  39.272  43.884  1.00  0.00    -0.000 C 
BRANCH  18  19
ATOM     19  C   UNL     1      11.533  37.883  44.394  1.00  0.00    -0.000 C 
BRANCH  19  20
ATOM     20  C   UNL     1      10.415  37.087  45.096  1.00  0.00    -0.000 C 
BRANCH  20  21
ATOM     21  C   UNL     1      10.499  35.564  44.860  1.00  0.00    -0.000 C 
BRANCH  21  22
ATOM     22  C   UNL     1      10.721  35.218  43.377  1.00  0.00    -0.000 C 
BRANCH  22  23
ATOM     23  C   UNL     1      10.293  33.783  43.033  1.00  0.00    -0.000 C 
BRANCH  23  24
ATOM     24  C   UNL     1      10.414  33.473  41.530  1.00  0.00    -0.000 C 
BRANCH  24  25
ATOM     25  C   UNL     1       9.106  32.930  40.933  1.00  0.00    -0.003 C 
ATOM     26  C   UNL     1       8.033  32.678  41.990  1.00  0.00     0.004 C 
ENDBRANCH  24  25
ENDBRANCH  23  24
ENDBRANCH  22  23
ENDBRANCH  21  22
ENDBRANCH  20  21
ENDBRANCH  19  20
ENDBRANCH  18  19
ENDBRANCH  17  18
ENDBRANCH  16  17
ENDBRANCH  15  16
ENDBRANCH   1  15
TORSDOF 22
ENDMDL
MODEL 6
REMARK VINA RESULT:    -5.240      1.507      2.549
REMARK INTER + INTRA:         -14.675
REMARK INTER:                 -11.899
REMARK INTRA:                  -2.776
REMARK UNBOUND:                -2.695
REMARK SMILES CCCCCCCCCCCCCCCCCCCCCCCC(=O)[O-]
REMARK SMILES IDX 13 1 14 2 15 3 16 4 17 5 18 6 19 7 20 8 21 9 22 10 23 11
REMARK SMILES IDX 24 12 25 13 26 14 12 15 11 16 10 17 9 18 8 19 7 20 6 21 5 22
REMARK SMILES IDX 4 23 3 24 2 25 1 26
REMARK H PARENT
REMARK Flexibility Score: inf
ROOT
ATOM      1  C   UNL     1       8.628  40.698  42.225  1.00  0.00     0.000 C 
ENDROOT
BRANCH   1   2
ATOM      2  C   UNL     1       9.785  41.288  43.049  1.00  0.00     0.000 C 
BRANCH   2   3
ATOM      3  C   UNL     1      11.165  41.012  42.423  1.00  0.00     0.000 C 
BRANCH   3   4
ATOM      4  C   UNL     1      12.096  40.105  43.253  1.00  0.00     0.000 C 
BRANCH   4   5
ATOM      5  C   UNL     1      11.448  39.453  44.488  1.00  0.00     0.000 C 
BRANCH   5   6
ATOM      6  C   UNL     1      11.532  37.920  44.465  1.00  0.00     0.000 C 
BRANCH   6   7
ATOM      7  C   UNL     1      10.131  37.292  44.423  1.00  0.00     0.000 C 
BRANCH   7   8
ATOM      8  C   UNL     1      10.162  35.763  44.582  1.00  0.00     0.000 C 
BRANCH   8   9
ATOM      9  C   UNL     1      10.638  35.045  43.311  1.00  0.00     0.000 C 
BRANCH   9  10
ATOM     10  C   UNL     1      10.431  33.528  43.426  1.00  0.00     0.006 C 
BRANCH  10  11
ATOM     11  C   UNL     1       9.238  33.170  44.325  1.00  0.00     0.053 C 
BRANCH  11  12
ATOM     12  C   UNL     1       8.115  32.560  43.543  1.00  0.00     0.041 C 
ATOM     13  O   UNL     1       8.206  32.439  42.292  1.00  0.00    -0.550 OA
ATOM     14  O   UNL     1       6.951  32.168  44.190  1.00  0.00    -0.550 OA
ENDBRANCH  11  12
ENDBRANCH  10  11
ENDBRANCH   9  10
ENDBRANCH   8   9
ENDBRANCH   7   8
ENDBRANCH   6   7
ENDBRANCH   5   6
ENDBRANCH   4   5
ENDBRANCH   3   4
ENDBRANCH   2   3
ENDBRANCH   1   2
BRANCH   1  15
ATOM     15  C   UNL     1       7.513  41.720  41.950  1.00  0.00     0.000 C 
BRANCH  15  16
ATOM     16  C   UNL     1       7.829  43.116  42.517  1.00  0.00     0.000 C 
BRANCH  16  17
ATOM     17  C   UNL     1       6.729  43.625  43.465  1.00  0.00     0.000 C 
BRANCH  17  18
ATOM     18  C   UNL     1       5.781  42.501  43.918  1.00  0.00    -0.000 C 
BRANCH  18  19
ATOM     19  C   UNL     1       5.403  42.607  45.405  1.00  0.00    -0.000 C 
BRANCH  19  20
ATOM     20  C   UNL     1       5.975  41.489  46.298  1.00  0.00    -0.000 C 
BRANCH  20  21
ATOM     21  C   UNL     1       6.901  40.509  45.547  1.00  0.00    -0.000 C 
BRANCH  21  22
ATOM     22  C   UNL     1       7.979  39.909  46.466  1.00  0.00    -0.000 C 
BRANCH  22  23
ATOM     23  C   UNL     1       7.777  40.286  47.942  1.00  0.00    -0.000 C 
BRANCH  23  24
ATOM     24  C   UNL     1       9.097  40.318  48.733  1.00  0.00    -0.000 C 
BRANCH  24  25
ATOM     25  C   UNL     1      10.287  39.791  47.915  1.00  0.00    -0.003 C 
ATOM     26  C   UNL     1      11.632  40.284  48.444  1.00  0.00     0.004 C 
ENDBRANCH  24  25
ENDBRANCH  23  24
ENDBRANCH  22  23
ENDBRANCH  21  22
ENDBRANCH  20  21
ENDBRANCH  19  20
ENDBRANCH  18  19
ENDBRANCH  17  18
ENDBRANCH  16  17
ENDBRANCH  15  16
ENDBRANCH   1  15
TORSDOF 22
ENDMDL
MODEL 7
REMARK VINA RESULT:    -5.240      1.480      3.550
REMARK INTER + INTRA:         -14.674
REMARK INTER:                 -11.825
REMARK INTRA:                  -2.850
REMARK UNBOUND:                -2.695
REMARK SMILES CCCCCCCCCCCCCCCCCCCCCCCC(=O)[O-]
REMARK SMILES IDX 13 1 14 2 15 3 16 4 17 5 18 6 19 7 20 8 21 9 22 10 23 11
REMARK SMILES IDX 24 12 25 13 26 14 12 15 11 16 10 17 9 18 8 19 7 20 6 21 5 22
REMARK SMILES IDX 4 23 3 24 2 25 1 26
REMARK H PARENT
REMARK Flexibility Score: inf
ROOT
ATOM      1  C   UNL     1       7.180  42.107  43.125  1.00  0.00     0.000 C 
ENDROOT
BRANCH   1   2
ATOM      2  C   UNL     1       7.871  40.891  43.763  1.00  0.00     0.000 C 
BRANCH   2   3
ATOM      3  C   UNL     1       9.171  40.495  43.039  1.00  0.00     0.000 C 
BRANCH   3   4
ATOM      4  C   UNL     1      10.402  40.306  43.950  1.00  0.00     0.000 C 
BRANCH   4   5
ATOM      5  C   UNL     1      11.202  39.013  43.712  1.00  0.00     0.000 C 
BRANCH   5   6
ATOM      6  C   UNL     1      12.201  38.715  44.841  1.00  0.00     0.000 C 
BRANCH   6   7
ATOM      7  C   UNL     1      11.978  37.307  45.414  1.00  0.00     0.000 C 
BRANCH   7   8
ATOM      8  C   UNL     1      10.618  36.713  45.014  1.00  0.00     0.000 C 
BRANCH   8   9
ATOM      9  C   UNL     1      10.714  35.235  44.604  1.00  0.00     0.000 C 
BRANCH   9  10
ATOM     10  C   UNL     1       9.916  34.968  43.320  1.00  0.00     0.006 C 
BRANCH  10  11
ATOM     11  C   UNL     1      10.566  33.886  42.445  1.00  0.00     0.053 C 
BRANCH  11  12
ATOM     12  C   UNL     1       9.671  33.470  41.318  1.00  0.00     0.041 C 
ATOM     13  O   UNL     1       8.421  33.462  41.470  1.00  0.00    -0.550 OA
ATOM     14  O   UNL     1      10.220  33.048  40.114  1.00  0.00    -0.550 OA
ENDBRANCH  11  12
ENDBRANCH  10  11
ENDBRANCH   9  10
ENDBRANCH   8   9
ENDBRANCH   7   8
ENDBRANCH   6   7
ENDBRANCH   5   6
ENDBRANCH   4   5
ENDBRANCH   3   4
ENDBRANCH   2   3
ENDBRANCH   1   2
BRANCH   1  15
ATOM     15  C   UNL     1       6.113  42.732  44.039  1.00  0.00     0.000 C 
BRANCH  15  16
ATOM     16  C   UNL     1       5.634  41.772  45.141  1.00  0.00     0.000 C 
BRANCH  16  17
ATOM     17  C   UNL     1       5.261  42.510  46.438  1.00  0.00     0.000 C 
BRANCH  17  18
ATOM     18  C   UNL     1       5.241  41.574  47.660  1.00  0.00    -0.000 C 
BRANCH  18  19
ATOM     19  C   UNL     1       5.481  40.102  47.282  1.00  0.00    -0.000 C 
BRANCH  19  20
ATOM     20  C   UNL     1       6.737  39.470  47.913  1.00  0.00    -0.000 C 
BRANCH  20  21
ATOM     21  C   UNL     1       8.013  40.320  47.736  1.00  0.00    -0.000 C 
BRANCH  21  22
ATOM     22  C   UNL     1       9.213  39.476  47.273  1.00  0.00    -0.000 C 
BRANCH  22  23
ATOM     23  C   UNL     1       9.611  38.399  48.295  1.00  0.00    -0.000 C 
BRANCH  23  24
ATOM     24  C   UNL     1      11.099  38.468  48.681  1.00  0.00    -0.000 C 
BRANCH  24  25
ATOM     25  C   UNL     1      11.614  39.912  48.789  1.00  0.00    -0.003 C 
ATOM     26  C   UNL     1      11.211  40.588  50.098  1.00  0.00     0.004 C 
ENDBRANCH  24  25
ENDBRANCH  23  24
ENDBRANCH  22  23
ENDBRANCH  21  22
ENDBRANCH  20  21
ENDBRANCH  19  20
ENDBRANCH  18  19
ENDBRANCH  17  18
ENDBRANCH  16  17
ENDBRANCH  15  16
ENDBRANCH   1  15
TORSDOF 22
ENDMDL
MODEL 8
REMARK VINA RESULT:    -5.225      4.158      8.455
REMARK INTER + INTRA:         -14.639
REMARK INTER:                 -11.298
REMARK INTRA:                  -3.341
REMARK UNBOUND:                -2.695
REMARK SMILES CCCCCCCCCCCCCCCCCCCCCCCC(=O)[O-]
REMARK SMILES IDX 13 1 14 2 15 3 16 4 17 5 18 6 19 7 20 8 21 9 22 10 23 11
REMARK SMILES IDX 24 12 25 13 26 14 12 15 11 16 10 17 9 18 8 19 7 20 6 21 5 22
REMARK SMILES IDX 4 23 3 24 2 25 1 26
REMARK H PARENT
REMARK Flexibility Score: inf
ROOT
ATOM      1  C   UNL     1       9.880  39.323  48.837  1.00  0.00     0.000 C 
ENDROOT
BRANCH   1   2
ATOM      2  C   UNL     1       8.975  40.218  47.975  1.00  0.00     0.000 C 
BRANCH   2   3
ATOM      3  C   UNL     1       7.693  40.654  48.708  1.00  0.00     0.000 C 
BRANCH   3   4
ATOM      4  C   UNL     1       6.390  40.525  47.892  1.00  0.00     0.000 C 
BRANCH   4   5
ATOM      5  C   UNL     1       5.566  41.819  47.761  1.00  0.00     0.000 C 
BRANCH   5   6
ATOM      6  C   UNL     1       5.170  42.128  46.310  1.00  0.00     0.000 C 
BRANCH   6   7
ATOM      7  C   UNL     1       6.095  41.403  45.321  1.00  0.00     0.000 C 
BRANCH   7   8
ATOM      8  C   UNL     1       6.175  42.109  43.958  1.00  0.00     0.000 C 
BRANCH   8   9
ATOM      9  C   UNL     1       6.367  43.628  44.088  1.00  0.00     0.000 C 
BRANCH   9  10
ATOM     10  C   UNL     1       7.648  44.083  43.372  1.00  0.00     0.006 C 
BRANCH  10  11
ATOM     11  C   UNL     1       7.374  45.177  42.330  1.00  0.00     0.053 C 
BRANCH  11  12
ATOM     12  C   UNL     1       8.638  45.833  41.866  1.00  0.00     0.041 C 
ATOM     13  O   UNL     1       9.722  45.191  41.865  1.00  0.00    -0.550 OA
ATOM     14  O   UNL     1       8.628  47.167  41.480  1.00  0.00    -0.550 OA
ENDBRANCH  11  12
ENDBRANCH  10  11
ENDBRANCH   9  10
ENDBRANCH   8   9
ENDBRANCH   7   8
ENDBRANCH   6   7
ENDBRANCH   5   6
ENDBRANCH   4   5
ENDBRANCH   3   4
ENDBRANCH   2   3
ENDBRANCH   1   2
BRANCH   1  15
ATOM     15  C   UNL     1      11.245  39.967  49.133  1.00  0.00     0.000 C 
BRANCH  15  16
ATOM     16  C   UNL     1      12.423  39.007  48.892  1.00  0.00     0.000 C 
BRANCH  16  17
ATOM     17  C   UNL     1      13.407  39.543  47.838  1.00  0.00     0.000 C 
BRANCH  17  18
ATOM     18  C   UNL     1      12.837  40.745  47.063  1.00  0.00    -0.000 C 
BRANCH  18  19
ATOM     19  C   UNL     1      12.938  40.569  45.538  1.00  0.00    -0.000 C 
BRANCH  19  20
ATOM     20  C   UNL     1      13.398  39.172  45.078  1.00  0.00    -0.000 C 
BRANCH  20  21
ATOM     21  C   UNL     1      12.308  38.376  44.330  1.00  0.00    -0.000 C 
BRANCH  21  22
ATOM     22  C   UNL     1      11.087  38.087  45.221  1.00  0.00    -0.000 C 
BRANCH  22  23
ATOM     23  C   UNL     1       9.754  38.377  44.514  1.00  0.00    -0.000 C 
BRANCH  23  24
ATOM     24  C   UNL     1       9.439  39.882  44.435  1.00  0.00    -0.000 C 
BRANCH  24  25
ATOM     25  C   UNL     1       9.539  40.431  43.003  1.00  0.00    -0.003 C 
ATOM     26  C   UNL     1      10.373  41.708  42.916  1.00  0.00     0.004 C 
ENDBRANCH  24  25
ENDBRANCH  23  24
ENDBRANCH  22  23
ENDBRANCH  21  22
ENDBRANCH  20  21
ENDBRANCH  19  20
ENDBRANCH  18  19
ENDBRANCH  17  18
ENDBRANCH  16  17
ENDBRANCH  15  16
ENDBRANCH   1  15
TORSDOF 22
ENDMDL
MODEL 9
REMARK VINA RESULT:    -5.186      3.870      7.956
REMARK INTER + INTRA:         -14.552
REMARK INTER:                 -11.577
REMARK INTRA:                  -2.975
REMARK UNBOUND:                -2.695
REMARK SMILES CCCCCCCCCCCCCCCCCCCCCCCC(=O)[O-]
REMARK SMILES IDX 13 1 14 2 15 3 16 4 17 5 18 6 19 7 20 8 21 9 22 10 23 11
REMARK SMILES IDX 24 12 25 13 26 14 12 15 11 16 10 17 9 18 8 19 7 20 6 21 5 22
REMARK SMILES IDX 4 23 3 24 2 25 1 26
REMARK H PARENT
REMARK Flexibility Score: inf
ROOT
ATOM      1  C   UNL     1       9.928  40.246  49.010  1.00  0.00     0.000 C 
ENDROOT
BRANCH   1   2
ATOM      2  C   UNL     1       9.094  39.097  48.419  1.00  0.00     0.000 C 
BRANCH   2   3
ATOM      3  C   UNL     1       7.723  39.563  47.894  1.00  0.00     0.000 C 
BRANCH   3   4
ATOM      4  C   UNL     1       7.155  40.830  48.568  1.00  0.00     0.000 C 
BRANCH   4   5
ATOM      5  C   UNL     1       5.894  41.415  47.908  1.00  0.00     0.000 C 
BRANCH   5   6
ATOM      6  C   UNL     1       5.920  41.310  46.376  1.00  0.00     0.000 C 
BRANCH   6   7
ATOM      7  C   UNL     1       5.265  42.539  45.729  1.00  0.00     0.000 C 
BRANCH   7   8
ATOM      8  C   UNL     1       5.431  42.564  44.200  1.00  0.00     0.000 C 
BRANCH   8   9
ATOM      9  C   UNL     1       6.706  41.845  43.732  1.00  0.00     0.000 C 
BRANCH   9  10
ATOM     10  C   UNL     1       7.625  42.804  42.961  1.00  0.00     0.006 C 
BRANCH  10  11
ATOM     11  C   UNL     1       7.143  44.260  43.036  1.00  0.00     0.053 C 
BRANCH  11  12
ATOM     12  C   UNL     1       7.514  45.033  41.808  1.00  0.00     0.041 C 
ATOM     13  O   UNL     1       7.153  46.233  41.682  1.00  0.00    -0.550 OA
ATOM     14  O   UNL     1       8.218  44.415  40.784  1.00  0.00    -0.550 OA
ENDBRANCH  11  12
ENDBRANCH  10  11
ENDBRANCH   9  10
ENDBRANCH   8   9
ENDBRANCH   7   8
ENDBRANCH   6   7
ENDBRANCH   5   6
ENDBRANCH   4   5
ENDBRANCH   3   4
ENDBRANCH   2   3
ENDBRANCH   1   2
BRANCH   1  15
ATOM     15  C   UNL     1      11.366  39.823  49.349  1.00  0.00     0.000 C 
BRANCH  15  16
ATOM     16  C   UNL     1      12.424  40.622  48.567  1.00  0.00     0.000 C 
BRANCH  16  17
ATOM     17  C   UNL     1      12.296  40.430  47.047  1.00  0.00     0.000 C 
BRANCH  17  18
ATOM     18  C   UNL     1      12.894  41.606  46.255  1.00  0.00    -0.000 C 
BRANCH  18  19
ATOM     19  C   UNL     1      13.502  41.168  44.911  1.00  0.00    -0.000 C 
BRANCH  19  20
ATOM     20  C   UNL     1      12.865  39.908  44.294  1.00  0.00    -0.000 C 
BRANCH  20  21
ATOM     21  C   UNL     1      11.921  40.209  43.111  1.00  0.00    -0.000 C 
BRANCH  21  22
ATOM     22  C   UNL     1      10.627  40.907  43.564  1.00  0.00    -0.000 C 
BRANCH  22  23
ATOM     23  C   UNL     1       9.866  40.110  44.634  1.00  0.00    -0.000 C 
BRANCH  23  24
ATOM     24  C   UNL     1       9.564  38.666  44.195  1.00  0.00    -0.000 C 
BRANCH  24  25
ATOM     25  C   UNL     1      10.118  37.623  45.178  1.00  0.00    -0.003 C 
ATOM     26  C   UNL     1      10.801  36.451  44.475  1.00  0.00     0.004 C 
ENDBRANCH  24  25
ENDBRANCH  23  24
ENDBRANCH  22  23
ENDBRANCH  21  22
ENDBRANCH  20  21
ENDBRANCH  19  20
ENDBRANCH  18  19
ENDBRANCH  17  18
ENDBRANCH  16  17
ENDBRANCH  15  16
ENDBRANCH   1  15
TORSDOF 22
ENDMDL
