MODEL 1
REMARK VINA RESULT:    -3.877      0.000      0.000
REMARK INTER + INTRA:          -4.285
REMARK INTER:                  -4.103
REMARK INTRA:                  -0.182
REMARK UNBOUND:                -0.182
REMARK SMILES C=C(C)[C@H]1CC[C@]2(C)CCCC(=C)[C@@H]2C1
REMARK SMILES IDX 4 1 5 2 6 3 7 4 9 5 10 6 11 7 12 8 13 9 14 10 15 11 8 12
REMARK SMILES IDX 2 13 3 14 1 15
REMARK H PARENT
REMARK Flexibility Score: inf
ROOT
ATOM      1  C   UNL     1     146.901 147.380 131.753  1.00  0.00     0.015 C 
ATOM      2  C   UNL     1     146.088 148.000 132.903  1.00  0.00     0.008 C 
ATOM      3  C   UNL     1     145.335 146.920 133.694  1.00  0.00     0.008 C 
ATOM      4  C   UNL     1     144.420 146.027 132.799  1.00  0.00    -0.026 C 
ATOM      5  C   UNL     1     143.775 144.899 133.661  1.00  0.00     0.008 C 
ATOM      6  C   UNL     1     144.762 143.823 134.125  1.00  0.00     0.005 C 
ATOM      7  C   UNL     1     145.477 143.189 132.938  1.00  0.00     0.031 C 
ATOM      8  C   UNL     1     146.136 144.250 132.089  1.00  0.00    -0.074 C 
ATOM      9  C   UNL     1     147.389 144.022 131.647  1.00  0.00     0.008 C 
ATOM     10  C   UNL     1     145.251 145.415 131.613  1.00  0.00     0.021 C 
ATOM     11  C   UNL     1     146.002 146.529 130.831  1.00  0.00     0.016 C 
ATOM     12  C   UNL     1     143.239 146.876 132.254  1.00  0.00     0.012 C 
ENDROOT
BRANCH   1  13
ATOM     13  C   UNL     1     147.638 148.451 130.960  1.00  0.00    -0.077 C 
ATOM     14  C   UNL     1     148.803 149.205 131.552  1.00  0.00     0.039 C 
ATOM     15  C   UNL     1     147.250 148.750 129.709  1.00  0.00     0.008 C 
ENDBRANCH   1  13
TORSDOF 1
ENDMDL
MODEL 2
REMARK VINA RESULT:    -3.828      1.990      5.166
REMARK INTER + INTRA:          -4.233
REMARK INTER:                  -4.052
REMARK INTRA:                  -0.181
REMARK UNBOUND:                -0.182
REMARK SMILES C=C(C)[C@H]1CC[C@]2(C)CCCC(=C)[C@@H]2C1
REMARK SMILES IDX 4 1 5 2 6 3 7 4 9 5 10 6 11 7 12 8 13 9 14 10 15 11 8 12
REMARK SMILES IDX 2 13 3 14 1 15
REMARK H PARENT
REMARK Flexibility Score: inf
ROOT
ATOM      1  C   UNL     1     143.824 143.376 131.730  1.00  0.00     0.015 C 
ATOM      2  C   UNL     1     144.632 142.754 132.882  1.00  0.00     0.008 C 
ATOM      3  C   UNL     1     145.379 143.833 133.680  1.00  0.00     0.008 C 
ATOM      4  C   UNL     1     146.296 144.732 132.793  1.00  0.00    -0.026 C 
ATOM      5  C   UNL     1     146.934 145.859 133.662  1.00  0.00     0.008 C 
ATOM      6  C   UNL     1     145.942 146.930 134.125  1.00  0.00     0.005 C 
ATOM      7  C   UNL     1     145.230 147.566 132.937  1.00  0.00     0.031 C 
ATOM      8  C   UNL     1     144.578 146.507 132.080  1.00  0.00    -0.074 C 
ATOM      9  C   UNL     1     143.327 146.733 131.633  1.00  0.00     0.008 C 
ATOM     10  C   UNL     1     145.469 145.346 131.605  1.00  0.00     0.021 C 
ATOM     11  C   UNL     1     144.724 144.233 130.816  1.00  0.00     0.016 C 
ATOM     12  C   UNL     1     147.482 143.888 132.251  1.00  0.00     0.012 C 
ENDROOT
BRANCH   1  13
ATOM     13  C   UNL     1     143.093 142.306 130.929  1.00  0.00    -0.077 C 
ATOM     14  C   UNL     1     141.916 141.560 131.506  1.00  0.00     0.039 C 
ATOM     15  C   UNL     1     143.499 142.000 129.686  1.00  0.00     0.008 C 
ENDBRANCH   1  13
TORSDOF 1
ENDMDL
MODEL 3
REMARK VINA RESULT:    -3.076      1.605      3.706
REMARK INTER + INTRA:          -3.438
REMARK INTER:                  -3.256
REMARK INTRA:                  -0.181
REMARK UNBOUND:                -0.182
REMARK SMILES C=C(C)[C@H]1CC[C@]2(C)CCCC(=C)[C@@H]2C1
REMARK SMILES IDX 4 1 5 2 6 3 7 4 9 5 10 6 11 7 12 8 13 9 14 10 15 11 8 12
REMARK SMILES IDX 2 13 3 14 1 15
REMARK H PARENT
REMARK Flexibility Score: inf
ROOT
ATOM      1  C   UNL     1     147.315 143.812 131.942  1.00  0.00     0.015 C 
ATOM      2  C   UNL     1     147.924 144.671 133.064  1.00  0.00     0.008 C 
ATOM      3  C   UNL     1     146.841 145.481 133.791  1.00  0.00     0.008 C 
ATOM      4  C   UNL     1     145.983 146.364 132.833  1.00  0.00    -0.026 C 
ATOM      5  C   UNL     1     144.848 147.070 133.637  1.00  0.00     0.008 C 
ATOM      6  C   UNL     1     143.746 146.125 134.125  1.00  0.00     0.005 C 
ATOM      7  C   UNL     1     143.125 145.362 132.961  1.00  0.00     0.031 C 
ATOM      8  C   UNL     1     144.192 144.644 132.170  1.00  0.00    -0.074 C 
ATOM      9  C   UNL     1     143.952 143.374 131.786  1.00  0.00     0.008 C 
ATOM     10  C   UNL     1     145.382 145.485 131.676  1.00  0.00     0.021 C 
ATOM     11  C   UNL     1     146.499 144.677 130.958  1.00  0.00     0.016 C 
ATOM     12  C   UNL     1     146.864 147.502 132.249  1.00  0.00     0.012 C 
ENDROOT
BRANCH   1  13
ATOM     13  C   UNL     1     148.389 143.018 131.210  1.00  0.00    -0.077 C 
ATOM     14  C   UNL     1     149.089 141.853 131.866  1.00  0.00     0.039 C 
ATOM     15  C   UNL     1     148.741 143.355 129.959  1.00  0.00     0.008 C 
ENDBRANCH   1  13
TORSDOF 1
ENDMDL
MODEL 4
REMARK VINA RESULT:    -3.070      1.560      3.628
REMARK INTER + INTRA:          -3.432
REMARK INTER:                  -3.251
REMARK INTRA:                  -0.181
REMARK UNBOUND:                -0.182
REMARK SMILES C=C(C)[C@H]1CC[C@]2(C)CCCC(=C)[C@@H]2C1
REMARK SMILES IDX 4 1 5 2 6 3 7 4 9 5 10 6 11 7 12 8 13 9 14 10 15 11 8 12
REMARK SMILES IDX 2 13 3 14 1 15
REMARK H PARENT
REMARK Flexibility Score: inf
ROOT
ATOM      1  C   UNL     1     143.426 146.928 131.937  1.00  0.00     0.015 C 
ATOM      2  C   UNL     1     142.801 146.027 133.016  1.00  0.00     0.008 C 
ATOM      3  C   UNL     1     143.878 145.205 133.741  1.00  0.00     0.008 C 
ATOM      4  C   UNL     1     144.767 144.363 132.774  1.00  0.00    -0.026 C 
ATOM      5  C   UNL     1     145.892 143.643 133.580  1.00  0.00     0.008 C 
ATOM      6  C   UNL     1     146.972 144.584 134.124  1.00  0.00     0.005 C 
ATOM      7  C   UNL     1     147.609 145.392 133.000  1.00  0.00     0.031 C 
ATOM      8  C   UNL     1     146.552 146.124 132.208  1.00  0.00    -0.074 C 
ATOM      9  C   UNL     1     146.786 147.408 131.871  1.00  0.00     0.008 C 
ATOM     10  C   UNL     1     145.383 145.287 131.661  1.00  0.00     0.021 C 
ATOM     11  C   UNL     1     144.273 146.106 130.944  1.00  0.00     0.016 C 
ATOM     12  C   UNL     1     143.912 143.235 132.133  1.00  0.00     0.012 C 
ENDROOT
BRANCH   1  13
ATOM     13  C   UNL     1     142.359 147.734 131.208  1.00  0.00    -0.077 C 
ATOM     14  C   UNL     1     141.656 148.892 131.873  1.00  0.00     0.039 C 
ATOM     15  C   UNL     1     142.016 147.415 129.949  1.00  0.00     0.008 C 
ENDBRANCH   1  13
TORSDOF 1
ENDMDL
MODEL 5
REMARK VINA RESULT:    -2.327      0.996      2.709
REMARK INTER + INTRA:          -2.645
REMARK INTER:                  -2.468
REMARK INTRA:                  -0.176
REMARK UNBOUND:                -0.182
REMARK SMILES C=C(C)[C@H]1CC[C@]2(C)CCCC(=C)[C@@H]2C1
REMARK SMILES IDX 4 1 5 2 6 3 7 4 9 5 10 6 11 7 12 8 13 9 14 10 15 11 8 12
REMARK SMILES IDX 2 13 3 14 1 15
REMARK H PARENT
REMARK Flexibility Score: inf
ROOT
ATOM      1  C   UNL     1     146.522 147.178 131.408  1.00  0.00     0.015 C 
ATOM      2  C   UNL     1     147.234 145.831 131.198  1.00  0.00     0.008 C 
ATOM      3  C   UNL     1     146.383 144.666 131.724  1.00  0.00     0.008 C 
ATOM      4  C   UNL     1     145.963 144.834 133.218  1.00  0.00    -0.026 C 
ATOM      5  C   UNL     1     145.022 143.665 133.639  1.00  0.00     0.008 C 
ATOM      6  C   UNL     1     143.630 143.722 133.003  1.00  0.00     0.005 C 
ATOM      7  C   UNL     1     142.941 145.046 133.313  1.00  0.00     0.031 C 
ATOM      8  C   UNL     1     143.814 146.206 132.897  1.00  0.00    -0.074 C 
ATOM      9  C   UNL     1     143.234 147.238 132.252  1.00  0.00     0.008 C 
ATOM     10  C   UNL     1     145.257 146.223 133.430  1.00  0.00     0.021 C 
ATOM     11  C   UNL     1     146.140 147.382 132.889  1.00  0.00     0.016 C 
ATOM     12  C   UNL     1     147.220 144.719 134.125  1.00  0.00     0.012 C 
ENDROOT
BRANCH   1  13
ATOM     13  C   UNL     1     147.370 148.335 130.899  1.00  0.00    -0.077 C 
ATOM     14  C   UNL     1     148.348 149.050 131.799  1.00  0.00     0.039 C 
ATOM     15  C   UNL     1     147.252 148.749 129.627  1.00  0.00     0.008 C 
ENDBRANCH   1  13
TORSDOF 1
ENDMDL
MODEL 6
REMARK VINA RESULT:    -2.277      2.278      4.936
REMARK INTER + INTRA:          -2.592
REMARK INTER:                  -2.408
REMARK INTRA:                  -0.185
REMARK UNBOUND:                -0.182
REMARK SMILES C=C(C)[C@H]1CC[C@]2(C)CCCC(=C)[C@@H]2C1
REMARK SMILES IDX 4 1 5 2 6 3 7 4 9 5 10 6 11 7 12 8 13 9 14 10 15 11 8 12
REMARK SMILES IDX 2 13 3 14 1 15
REMARK H PARENT
REMARK Flexibility Score: inf
ROOT
ATOM      1  C   UNL     1     144.066 143.129 131.163  1.00  0.00     0.015 C 
ATOM      2  C   UNL     1     144.521 144.056 130.023  1.00  0.00     0.008 C 
ATOM      3  C   UNL     1     145.522 145.106 130.529  1.00  0.00     0.008 C 
ATOM      4  C   UNL     1     144.984 145.942 131.731  1.00  0.00    -0.026 C 
ATOM      5  C   UNL     1     146.095 146.908 132.245  1.00  0.00     0.008 C 
ATOM      6  C   UNL     1     147.255 146.205 132.957  1.00  0.00     0.005 C 
ATOM      7  C   UNL     1     146.752 145.366 134.125  1.00  0.00     0.031 C 
ATOM      8  C   UNL     1     145.687 144.400 133.663  1.00  0.00    -0.074 C 
ATOM      9  C   UNL     1     145.742 143.131 134.115  1.00  0.00     0.008 C 
ATOM     10  C   UNL     1     144.499 144.988 132.883  1.00  0.00     0.021 C 
ATOM     11  C   UNL     1     143.488 143.938 132.343  1.00  0.00     0.016 C 
ATOM     12  C   UNL     1     143.818 146.850 131.250  1.00  0.00     0.012 C 
ENDROOT
BRANCH   1  13
ATOM     13  C   UNL     1     143.063 142.096 130.665  1.00  0.00    -0.077 C 
ATOM     14  C   UNL     1     141.979 141.556 131.565  1.00  0.00     0.039 C 
ATOM     15  C   UNL     1     143.136 141.639 129.405  1.00  0.00     0.008 C 
ENDBRANCH   1  13
TORSDOF 1
ENDMDL
MODEL 7
REMARK VINA RESULT:    -2.033      1.804      3.585
REMARK INTER + INTRA:          -2.334
REMARK INTER:                  -2.157
REMARK INTRA:                  -0.177
REMARK UNBOUND:                -0.182
REMARK SMILES C=C(C)[C@H]1CC[C@]2(C)CCCC(=C)[C@@H]2C1
REMARK SMILES IDX 4 1 5 2 6 3 7 4 9 5 10 6 11 7 12 8 13 9 14 10 15 11 8 12
REMARK SMILES IDX 2 13 3 14 1 15
REMARK H PARENT
REMARK Flexibility Score: inf
ROOT
ATOM      1  C   UNL     1     143.662 146.499 131.399  1.00  0.00     0.015 C 
ATOM      2  C   UNL     1     145.027 147.178 131.194  1.00  0.00     0.008 C 
ATOM      3  C   UNL     1     146.169 146.296 131.722  1.00  0.00     0.008 C 
ATOM      4  C   UNL     1     145.985 145.877 133.214  1.00  0.00    -0.026 C 
ATOM      5  C   UNL     1     147.129 144.905 133.636  1.00  0.00     0.008 C 
ATOM      6  C   UNL     1     147.039 143.516 132.997  1.00  0.00     0.005 C 
ATOM      7  C   UNL     1     145.697 142.861 133.300  1.00  0.00     0.031 C 
ATOM      8  C   UNL     1     144.560 143.763 132.884  1.00  0.00    -0.074 C 
ATOM      9  C   UNL     1     143.516 143.212 132.233  1.00  0.00     0.008 C 
ATOM     10  C   UNL     1     144.579 145.205 133.421  1.00  0.00     0.021 C 
ATOM     11  C   UNL     1     143.444 146.119 132.878  1.00  0.00     0.016 C 
ATOM     12  C   UNL     1     146.129 147.127 134.125  1.00  0.00     0.012 C 
ENDROOT
BRANCH   1  13
ATOM     13  C   UNL     1     142.528 147.378 130.888  1.00  0.00    -0.077 C 
ATOM     14  C   UNL     1     141.854 148.390 131.782  1.00  0.00     0.039 C 
ATOM     15  C   UNL     1     142.099 147.257 129.621  1.00  0.00     0.008 C 
ENDBRANCH   1  13
TORSDOF 1
ENDMDL
MODEL 8
REMARK VINA RESULT:    -1.967      1.397      3.954
REMARK INTER + INTRA:          -2.264
REMARK INTER:                  -2.086
REMARK INTRA:                  -0.179
REMARK UNBOUND:                -0.182
REMARK SMILES C=C(C)[C@H]1CC[C@]2(C)CCCC(=C)[C@@H]2C1
REMARK SMILES IDX 4 1 5 2 6 3 7 4 9 5 10 6 11 7 12 8 13 9 14 10 15 11 8 12
REMARK SMILES IDX 2 13 3 14 1 15
REMARK H PARENT
REMARK Flexibility Score: inf
ROOT
ATOM      1  C   UNL     1     146.993 144.268 131.339  1.00  0.00     0.015 C 
ATOM      2  C   UNL     1     145.650 143.534 131.180  1.00  0.00     0.008 C 
ATOM      3  C   UNL     1     144.481 144.410 131.656  1.00  0.00     0.008 C 
ATOM      4  C   UNL     1     144.652 144.925 133.119  1.00  0.00    -0.026 C 
ATOM      5  C   UNL     1     143.477 145.884 133.484  1.00  0.00     0.008 C 
ATOM      6  C   UNL     1     143.522 147.233 132.760  1.00  0.00     0.005 C 
ATOM      7  C   UNL     1     144.843 147.948 133.019  1.00  0.00     0.031 C 
ATOM      8  C   UNL     1     146.008 147.059 132.656  1.00  0.00    -0.074 C 
ATOM      9  C   UNL     1     147.033 147.603 131.970  1.00  0.00     0.008 C 
ATOM     10  C   UNL     1     146.036 145.653 133.280  1.00  0.00     0.021 C 
ATOM     11  C   UNL     1     147.199 144.745 132.792  1.00  0.00     0.016 C 
ATOM     12  C   UNL     1     144.549 143.729 134.105  1.00  0.00     0.012 C 
ENDROOT
BRANCH   1  13
ATOM     13  C   UNL     1     148.154 143.396 130.881  1.00  0.00    -0.077 C 
ATOM     14  C   UNL     1     148.800 142.395 131.807  1.00  0.00     0.039 C 
ATOM     15  C   UNL     1     148.633 143.514 129.632  1.00  0.00     0.008 C 
ENDBRANCH   1  13
TORSDOF 1
ENDMDL
