MODEL 1
REMARK VINA RESULT:    -2.344      0.000      0.000
REMARK INTER + INTRA:          -2.970
REMARK INTER:                  -2.892
REMARK INTRA:                  -0.077
REMARK UNBOUND:                -0.077
REMARK SMILES CCCCCC(=O)[O-]
REMARK SMILES IDX 4 1 5 2 6 3 7 4 8 5 3 6 2 7 1 8
REMARK H PARENT
REMARK Flexibility Score: inf
ROOT
ATOM      1  C   UNL     1     -19.582   4.847  -2.889  1.00  0.00     0.006 C 
ENDROOT
BRANCH   1   2
ATOM      2  C   UNL     1     -18.121   5.332  -2.875  1.00  0.00     0.053 C 
BRANCH   2   3
ATOM      3  C   UNL     1     -18.005   6.823  -2.963  1.00  0.00     0.041 C 
ATOM      4  O   UNL     1     -19.038   7.542  -2.958  1.00  0.00    -0.550 OA
ATOM      5  O   UNL     1     -16.753   7.421  -3.020  1.00  0.00    -0.550 OA
ENDBRANCH   2   3
ENDBRANCH   1   2
BRANCH   1   6
ATOM      6  C   UNL     1     -19.736   3.333  -3.119  1.00  0.00     0.000 C 
BRANCH   6   7
ATOM      7  C   UNL     1     -21.201   2.875  -3.154  1.00  0.00    -0.003 C 
ATOM      8  C   UNL     1     -22.072   3.877  -3.907  1.00  0.00     0.004 C 
ENDBRANCH   6   7
ENDBRANCH   1   6
TORSDOF 4
ENDMDL
MODEL 2
REMARK VINA RESULT:    -1.921      2.714      4.645
REMARK INTER + INTRA:          -2.447
REMARK INTER:                  -2.386
REMARK INTRA:                  -0.061
REMARK UNBOUND:                -0.077
REMARK SMILES CCCCCC(=O)[O-]
REMARK SMILES IDX 4 1 5 2 6 3 7 4 8 5 3 6 2 7 1 8
REMARK H PARENT
REMARK Flexibility Score: inf
ROOT
ATOM      1  C   UNL     1     -19.245   5.649  -2.875  1.00  0.00     0.006 C 
ENDROOT
BRANCH   1   2
ATOM      2  C   UNL     1     -20.718   5.201  -2.898  1.00  0.00     0.053 C 
BRANCH   2   3
ATOM      3  C   UNL     1     -20.873   3.733  -3.147  1.00  0.00     0.041 C 
ATOM      4  O   UNL     1     -22.018   3.232  -3.303  1.00  0.00    -0.550 OA
ATOM      5  O   UNL     1     -19.750   2.920  -3.235  1.00  0.00    -0.550 OA
ENDBRANCH   2   3
ENDBRANCH   1   2
BRANCH   1   6
ATOM      6  C   UNL     1     -19.044   7.153  -3.131  1.00  0.00     0.000 C 
BRANCH   6   7
ATOM      7  C   UNL     1     -17.711   7.473  -3.821  1.00  0.00    -0.003 C 
ATOM      8  C   UNL     1     -16.527   7.030  -2.966  1.00  0.00     0.004 C 
ENDBRANCH   6   7
ENDBRANCH   1   6
TORSDOF 4
ENDMDL
MODEL 3
REMARK VINA RESULT:    -1.593     21.772     22.438
REMARK INTER + INTRA:          -2.042
REMARK INTER:                  -2.220
REMARK INTRA:                   0.178
REMARK UNBOUND:                -0.077
REMARK SMILES CCCCCC(=O)[O-]
REMARK SMILES IDX 4 1 5 2 6 3 7 4 8 5 3 6 2 7 1 8
REMARK H PARENT
REMARK Flexibility Score: inf
ROOT
ATOM      1  C   UNL     1      -7.452   4.268 -20.836  1.00  0.00     0.006 C 
ENDROOT
BRANCH   1   2
ATOM      2  C   UNL     1      -8.948   4.596 -20.988  1.00  0.00     0.053 C 
BRANCH   2   3
ATOM      3  C   UNL     1      -9.374   4.705 -22.420  1.00  0.00     0.041 C 
ATOM      4  O   UNL     1      -9.507   3.670 -23.124  1.00  0.00    -0.550 OA
ATOM      5  O   UNL     1      -9.654   5.950 -22.970  1.00  0.00    -0.550 OA
ENDBRANCH   2   3
ENDBRANCH   1   2
BRANCH   1   6
ATOM      6  C   UNL     1      -7.060   2.876 -21.366  1.00  0.00     0.000 C 
BRANCH   6   7
ATOM      7  C   UNL     1      -6.239   2.936 -22.661  1.00  0.00    -0.003 C 
ATOM      8  C   UNL     1      -6.022   4.378 -23.110  1.00  0.00     0.004 C 
ENDBRANCH   6   7
ENDBRANCH   1   6
TORSDOF 4
ENDMDL
MODEL 4
REMARK VINA RESULT:    -1.123     17.014     17.913
REMARK INTER + INTRA:          -1.463
REMARK INTER:                  -1.396
REMARK INTRA:                  -0.067
REMARK UNBOUND:                -0.077
REMARK SMILES CCCCCC(=O)[O-]
REMARK SMILES IDX 4 1 5 2 6 3 7 4 8 5 3 6 2 7 1 8
REMARK H PARENT
REMARK Flexibility Score: inf
ROOT
ATOM      1  C   UNL     1     -13.166  19.424 -10.586  1.00  0.00     0.006 C 
ENDROOT
BRANCH   1   2
ATOM      2  C   UNL     1     -12.896  18.547 -11.822  1.00  0.00     0.053 C 
BRANCH   2   3
ATOM      3  C   UNL     1     -12.622  19.353 -13.054  1.00  0.00     0.041 C 
ATOM      4  O   UNL     1     -11.594  20.077 -13.125  1.00  0.00    -0.550 OA
ATOM      5  O   UNL     1     -13.486  19.281 -14.139  1.00  0.00    -0.550 OA
ENDBRANCH   2   3
ENDBRANCH   1   2
BRANCH   1   6
ATOM      6  C   UNL     1     -12.862  18.727  -9.247  1.00  0.00     0.000 C 
BRANCH   6   7
ATOM      7  C   UNL     1     -13.135  19.620  -8.029  1.00  0.00    -0.003 C 
ATOM      8  C   UNL     1     -12.270  20.877  -8.063  1.00  0.00     0.004 C 
ENDBRANCH   6   7
ENDBRANCH   1   6
TORSDOF 4
ENDMDL
MODEL 5
REMARK VINA RESULT:    -1.022     22.180     22.807
REMARK INTER + INTRA:          -1.338
REMARK INTER:                  -1.569
REMARK INTRA:                   0.231
REMARK UNBOUND:                -0.077
REMARK SMILES CCCCCC(=O)[O-]
REMARK SMILES IDX 4 1 5 2 6 3 7 4 8 5 3 6 2 7 1 8
REMARK H PARENT
REMARK Flexibility Score: inf
ROOT
ATOM      1  C   UNL     1      -8.425   3.974 -21.313  1.00  0.00     0.006 C 
ENDROOT
BRANCH   1   2
ATOM      2  C   UNL     1      -6.933   3.607 -21.224  1.00  0.00     0.053 C 
BRANCH   2   3
ATOM      3  C   UNL     1      -6.204   3.825 -22.513  1.00  0.00     0.041 C 
ATOM      4  O   UNL     1      -5.588   2.875 -23.064  1.00  0.00    -0.550 OA
ATOM      5  O   UNL     1      -6.230   5.073 -23.124  1.00  0.00    -0.550 OA
ENDBRANCH   2   3
ENDBRANCH   1   2
BRANCH   1   6
ATOM      6  C   UNL     1      -8.999   3.916 -22.741  1.00  0.00     0.000 C 
BRANCH   6   7
ATOM      7  C   UNL     1      -9.863   5.136 -23.092  1.00  0.00    -0.003 C 
ATOM      8  C   UNL     1      -9.046   6.423 -23.035  1.00  0.00     0.004 C 
ENDBRANCH   6   7
ENDBRANCH   1   6
TORSDOF 4
ENDMDL
MODEL 6
REMARK VINA RESULT:    -0.994     16.466     17.550
REMARK INTER + INTRA:          -1.304
REMARK INTER:                  -1.253
REMARK INTRA:                  -0.051
REMARK UNBOUND:                -0.077
REMARK SMILES CCCCCC(=O)[O-]
REMARK SMILES IDX 4 1 5 2 6 3 7 4 8 5 3 6 2 7 1 8
REMARK H PARENT
REMARK Flexibility Score: inf
ROOT
ATOM      1  C   UNL     1     -13.390  19.398 -10.257  1.00  0.00     0.006 C 
ENDROOT
BRANCH   1   2
ATOM      2  C   UNL     1     -12.746  18.985  -8.921  1.00  0.00     0.053 C 
BRANCH   2   3
ATOM      3  C   UNL     1     -12.664  20.117  -7.944  1.00  0.00     0.041 C 
ATOM      4  O   UNL     1     -13.256  20.043  -6.835  1.00  0.00    -0.550 OA
ATOM      5  O   UNL     1     -11.908  21.242  -8.244  1.00  0.00    -0.550 OA
ENDBRANCH   2   3
ENDBRANCH   1   2
BRANCH   1   6
ATOM      6  C   UNL     1     -12.778  18.704 -11.487  1.00  0.00     0.000 C 
BRANCH   6   7
ATOM      7  C   UNL     1     -13.050  19.454 -12.799  1.00  0.00    -0.003 C 
ATOM      8  C   UNL     1     -11.838  19.402 -13.724  1.00  0.00     0.004 C 
ENDBRANCH   6   7
ENDBRANCH   1   6
TORSDOF 4
ENDMDL
MODEL 7
REMARK VINA RESULT:    -0.216     21.554     22.270
REMARK INTER + INTRA:          -0.344
REMARK INTER:                  -0.374
REMARK INTRA:                   0.031
REMARK UNBOUND:                -0.077
REMARK SMILES CCCCCC(=O)[O-]
REMARK SMILES IDX 4 1 5 2 6 3 7 4 8 5 3 6 2 7 1 8
REMARK H PARENT
REMARK Flexibility Score: inf
ROOT
ATOM      1  C   UNL     1      -9.110   4.213 -22.221  1.00  0.00     0.006 C 
ENDROOT
BRANCH   1   2
ATOM      2  C   UNL     1      -8.137   4.991 -23.124  1.00  0.00     0.053 C 
BRANCH   2   3
ATOM      3  C   UNL     1      -6.741   4.451 -23.073  1.00  0.00     0.041 C 
ATOM      4  O   UNL     1      -5.755   5.232 -23.125  1.00  0.00    -0.550 OA
ATOM      5  O   UNL     1      -6.529   3.085 -22.938  1.00  0.00    -0.550 OA
ENDBRANCH   2   3
ENDBRANCH   1   2
BRANCH   1   6
ATOM      6  C   UNL     1      -8.581   3.968 -20.796  1.00  0.00     0.000 C 
BRANCH   6   7
ATOM      7  C   UNL     1      -8.716   5.196 -19.884  1.00  0.00    -0.003 C 
ATOM      8  C   UNL     1      -7.407   5.488 -19.158  1.00  0.00     0.004 C 
ENDBRANCH   6   7
ENDBRANCH   1   6
TORSDOF 4
ENDMDL
MODEL 8
REMARK VINA RESULT:     0.327     21.029     21.624
REMARK INTER + INTRA:           0.327
REMARK INTER:                  -0.523
REMARK INTRA:                   0.850
REMARK UNBOUND:                -0.077
REMARK SMILES CCCCCC(=O)[O-]
REMARK SMILES IDX 4 1 5 2 6 3 7 4 8 5 3 6 2 7 1 8
REMARK H PARENT
REMARK Flexibility Score: inf
ROOT
ATOM      1  C   UNL     1      -7.271   3.139 -22.203  1.00  0.00     0.006 C 
ENDROOT
BRANCH   1   2
ATOM      2  C   UNL     1      -7.039   3.582 -20.747  1.00  0.00     0.053 C 
BRANCH   2   3
ATOM      3  C   UNL     1      -8.179   4.381 -20.196  1.00  0.00     0.041 C 
ATOM      4  O   UNL     1      -9.359   3.950 -20.284  1.00  0.00    -0.550 OA
ATOM      5  O   UNL     1      -7.936   5.591 -19.558  1.00  0.00    -0.550 OA
ENDBRANCH   2   3
ENDBRANCH   1   2
BRANCH   1   6
ATOM      6  C   UNL     1      -7.811   4.253 -23.117  1.00  0.00     0.000 C 
BRANCH   6   7
ATOM      7  C   UNL     1      -9.341   4.378 -23.074  1.00  0.00    -0.003 C 
ATOM      8  C   UNL     1      -9.775   5.840 -23.125  1.00  0.00     0.004 C 
ENDBRANCH   6   7
ENDBRANCH   1   6
TORSDOF 4
ENDMDL
