MODEL 1
REMARK VINA RESULT:    -4.408      0.000      0.000
REMARK INTER + INTRA:          -5.143
REMARK INTER:                  -4.924
REMARK INTRA:                  -0.219
REMARK UNBOUND:                -0.219
REMARK SMILES CC(C)c1ccc(C(=O)[O-])cc1
REMARK SMILES IDX 7 1 6 2 11 3 5 4 12 5 4 6 8 7 9 8 10 9 2 10 1 11 3 12
REMARK H PARENT
REMARK Flexibility Score: inf
ROOT
ATOM      1  C   UNL     1      63.016  31.206  60.873  1.00  0.00    -0.003 A 
ATOM      2  C   UNL     1      61.709  31.693  60.712  1.00  0.00     0.010 A 
ATOM      3  C   UNL     1      64.093  32.106  60.803  1.00  0.00     0.010 A 
ATOM      4  C   UNL     1      61.481  33.053  60.486  1.00  0.00     0.004 A 
ATOM      5  C   UNL     1      63.865  33.467  60.578  1.00  0.00     0.004 A 
ATOM      6  C   UNL     1      62.556  33.956  60.416  1.00  0.00    -0.045 A 
ENDROOT
BRANCH   1   7
ATOM      7  C   UNL     1      63.252  29.764  61.111  1.00  0.00     0.071 C 
ATOM      8  O   UNL     1      64.391  29.261  60.920  1.00  0.00    -0.545 OA
ATOM      9  O   UNL     1      62.219  28.945  61.552  1.00  0.00    -0.545 OA
ENDBRANCH   1   7
BRANCH   6  10
ATOM     10  C   UNL     1      62.295  35.431  60.170  1.00  0.00     0.013 C 
ATOM     11  C   UNL     1      60.793  35.739  60.210  1.00  0.00     0.012 C 
ATOM     12  C   UNL     1      63.064  36.303  61.169  1.00  0.00     0.012 C 
ENDBRANCH   6  10
TORSDOF 2
ENDMDL
MODEL 2
REMARK VINA RESULT:    -4.403     12.491     13.317
REMARK INTER + INTRA:          -5.136
REMARK INTER:                  -4.917
REMARK INTRA:                  -0.219
REMARK UNBOUND:                -0.219
REMARK SMILES CC(C)c1ccc(C(=O)[O-])cc1
REMARK SMILES IDX 7 1 6 2 11 3 5 4 12 5 4 6 8 7 9 8 10 9 2 10 1 11 3 12
REMARK H PARENT
REMARK Flexibility Score: inf
ROOT
ATOM      1  C   UNL     1      58.558  27.253  50.000  1.00  0.00    -0.003 A 
ATOM      2  C   UNL     1      57.575  26.250  50.018  1.00  0.00     0.010 A 
ATOM      3  C   UNL     1      58.173  28.588  50.205  1.00  0.00     0.010 A 
ATOM      4  C   UNL     1      56.233  26.575  50.234  1.00  0.00     0.004 A 
ATOM      5  C   UNL     1      56.831  28.913  50.423  1.00  0.00     0.004 A 
ATOM      6  C   UNL     1      55.845  27.909  50.439  1.00  0.00    -0.045 A 
ENDROOT
BRANCH   1   7
ATOM      7  C   UNL     1      59.978  26.904  49.770  1.00  0.00     0.071 C 
ATOM      8  O   UNL     1      60.376  25.716  49.904  1.00  0.00    -0.545 OA
ATOM      9  O   UNL     1      60.893  27.884  49.400  1.00  0.00    -0.545 OA
ENDBRANCH   1   7
BRANCH   6  10
ATOM     10  C   UNL     1      54.385  28.249  50.674  1.00  0.00     0.013 C 
ATOM     11  C   UNL     1      54.160  29.765  50.651  1.00  0.00     0.012 C 
ATOM     12  C   UNL     1      53.483  27.541  49.656  1.00  0.00     0.012 C 
ENDBRANCH   6  10
TORSDOF 2
ENDMDL
MODEL 3
REMARK VINA RESULT:    -4.400     12.523     13.367
REMARK INTER + INTRA:          -5.133
REMARK INTER:                  -4.915
REMARK INTRA:                  -0.218
REMARK UNBOUND:                -0.219
REMARK SMILES CC(C)c1ccc(C(=O)[O-])cc1
REMARK SMILES IDX 7 1 6 2 11 3 5 4 12 5 4 6 8 7 9 8 10 9 2 10 1 11 3 12
REMARK H PARENT
REMARK Flexibility Score: inf
ROOT
ATOM      1  C   UNL     1      58.505  27.227  49.977  1.00  0.00    -0.003 A 
ATOM      2  C   UNL     1      58.115  28.562  50.169  1.00  0.00     0.010 A 
ATOM      3  C   UNL     1      57.527  26.219  50.015  1.00  0.00     0.010 A 
ATOM      4  C   UNL     1      56.774  28.884  50.396  1.00  0.00     0.004 A 
ATOM      5  C   UNL     1      56.186  26.541  50.240  1.00  0.00     0.004 A 
ATOM      6  C   UNL     1      55.794  27.879  50.434  1.00  0.00    -0.045 A 
ENDROOT
BRANCH   1   7
ATOM      7  C   UNL     1      59.927  26.890  49.738  1.00  0.00     0.071 C 
ATOM      8  O   UNL     1      60.732  27.766  49.324  1.00  0.00    -0.545 OA
ATOM      9  O   UNL     1      60.393  25.601  49.969  1.00  0.00    -0.545 OA
ENDBRANCH   1   7
BRANCH   6  10
ATOM     10  C   UNL     1      54.341  28.242  50.681  1.00  0.00     0.013 C 
ATOM     11  C   UNL     1      54.154  29.763  50.731  1.00  0.00     0.012 C 
ATOM     12  C   UNL     1      53.426  27.608  49.628  1.00  0.00     0.012 C 
ENDBRANCH   6  10
TORSDOF 2
ENDMDL
MODEL 4
REMARK VINA RESULT:    -4.397      0.133      1.402
REMARK INTER + INTRA:          -5.130
REMARK INTER:                  -4.910
REMARK INTRA:                  -0.219
REMARK UNBOUND:                -0.219
REMARK SMILES CC(C)c1ccc(C(=O)[O-])cc1
REMARK SMILES IDX 7 1 6 2 11 3 5 4 12 5 4 6 8 7 9 8 10 9 2 10 1 11 3 12
REMARK H PARENT
REMARK Flexibility Score: inf
ROOT
ATOM      1  C   UNL     1      62.924  31.286  60.890  1.00  0.00    -0.003 A 
ATOM      2  C   UNL     1      63.986  32.206  60.899  1.00  0.00     0.010 A 
ATOM      3  C   UNL     1      61.623  31.750  60.637  1.00  0.00     0.010 A 
ATOM      4  C   UNL     1      63.751  33.563  60.661  1.00  0.00     0.004 A 
ATOM      5  C   UNL     1      61.388  33.107  60.397  1.00  0.00     0.004 A 
ATOM      6  C   UNL     1      62.451  34.029  60.407  1.00  0.00    -0.045 A 
ENDROOT
BRANCH   1   7
ATOM      7  C   UNL     1      63.177  29.850  61.144  1.00  0.00     0.071 C 
ATOM      8  O   UNL     1      64.330  29.365  60.988  1.00  0.00    -0.545 OA
ATOM      9  O   UNL     1      62.146  29.016  61.559  1.00  0.00    -0.545 OA
ENDBRANCH   1   7
BRANCH   6  10
ATOM     10  C   UNL     1      62.210  35.506  60.149  1.00  0.00     0.013 C 
ATOM     11  C   UNL     1      60.713  35.836  60.191  1.00  0.00     0.012 C 
ATOM     12  C   UNL     1      62.996  36.375  61.138  1.00  0.00     0.012 C 
ENDBRANCH   6  10
TORSDOF 2
ENDMDL
MODEL 5
REMARK VINA RESULT:    -4.234     12.564     13.535
REMARK INTER + INTRA:          -4.948
REMARK INTER:                  -4.728
REMARK INTRA:                  -0.220
REMARK UNBOUND:                -0.219
REMARK SMILES CC(C)c1ccc(C(=O)[O-])cc1
REMARK SMILES IDX 7 1 6 2 11 3 5 4 12 5 4 6 8 7 9 8 10 9 2 10 1 11 3 12
REMARK H PARENT
REMARK Flexibility Score: inf
ROOT
ATOM      1  C   UNL     1      58.607  28.074  50.107  1.00  0.00    -0.003 A 
ATOM      2  C   UNL     1      57.599  29.033  50.298  1.00  0.00     0.010 A 
ATOM      3  C   UNL     1      58.245  26.723  49.966  1.00  0.00     0.010 A 
ATOM      4  C   UNL     1      56.255  28.651  50.349  1.00  0.00     0.004 A 
ATOM      5  C   UNL     1      56.901  26.341  50.015  1.00  0.00     0.004 A 
ATOM      6  C   UNL     1      55.891  27.301  50.208  1.00  0.00    -0.045 A 
ENDROOT
BRANCH   1   7
ATOM      7  C   UNL     1      60.028  28.483  50.055  1.00  0.00     0.071 C 
ATOM      8  O   UNL     1      60.389  29.603  50.506  1.00  0.00    -0.545 OA
ATOM      9  O   UNL     1      60.985  27.636  49.508  1.00  0.00    -0.545 OA
ENDBRANCH   1   7
BRANCH   6  10
ATOM     10  C   UNL     1      54.428  26.900  50.264  1.00  0.00     0.013 C 
ATOM     11  C   UNL     1      53.514  28.111  50.043  1.00  0.00     0.012 C 
ATOM     12  C   UNL     1      54.121  25.786  49.257  1.00  0.00     0.012 C 
ENDBRANCH   6  10
TORSDOF 2
ENDMDL
MODEL 6
REMARK VINA RESULT:    -4.052      3.380      5.184
REMARK INTER + INTRA:          -4.745
REMARK INTER:                  -4.531
REMARK INTRA:                  -0.214
REMARK UNBOUND:                -0.219
REMARK SMILES CC(C)c1ccc(C(=O)[O-])cc1
REMARK SMILES IDX 7 1 6 2 11 3 5 4 12 5 4 6 8 7 9 8 10 9 2 10 1 11 3 12
REMARK H PARENT
REMARK Flexibility Score: inf
ROOT
ATOM      1  C   UNL     1      62.660  34.883  60.573  1.00  0.00    -0.003 A 
ATOM      2  C   UNL     1      61.523  34.102  60.309  1.00  0.00     0.010 A 
ATOM      3  C   UNL     1      63.878  34.239  60.850  1.00  0.00     0.010 A 
ATOM      4  C   UNL     1      61.600  32.707  60.322  1.00  0.00     0.004 A 
ATOM      5  C   UNL     1      63.956  32.844  60.862  1.00  0.00     0.004 A 
ATOM      6  C   UNL     1      62.817  32.061  60.599  1.00  0.00    -0.045 A 
ENDROOT
BRANCH   1   7
ATOM      7  C   UNL     1      62.573  36.360  60.558  1.00  0.00     0.071 C 
ATOM      8  O   UNL     1      61.521  36.943  60.935  1.00  0.00    -0.545 OA
ATOM      9  O   UNL     1      63.651  37.125  60.129  1.00  0.00    -0.545 OA
ENDBRANCH   1   7
BRANCH   6  10
ATOM     10  C   UNL     1      62.887  30.545  60.610  1.00  0.00     0.013 C 
ATOM     11  C   UNL     1      64.324  30.061  60.838  1.00  0.00     0.012 C 
ATOM     12  C   UNL     1      61.934  29.955  61.654  1.00  0.00     0.012 C 
ENDBRANCH   6  10
TORSDOF 2
ENDMDL
MODEL 7
REMARK VINA RESULT:    -4.041     12.932     13.799
REMARK INTER + INTRA:          -4.732
REMARK INTER:                  -4.532
REMARK INTRA:                  -0.200
REMARK UNBOUND:                -0.219
REMARK SMILES CC(C)c1ccc(C(=O)[O-])cc1
REMARK SMILES IDX 7 1 6 2 11 3 5 4 12 5 4 6 8 7 9 8 10 9 2 10 1 11 3 12
REMARK H PARENT
REMARK Flexibility Score: inf
ROOT
ATOM      1  C   UNL     1      54.784  26.634  50.120  1.00  0.00    -0.003 A 
ATOM      2  C   UNL     1      54.507  27.993  50.343  1.00  0.00     0.010 A 
ATOM      3  C   UNL     1      56.123  26.217  50.035  1.00  0.00     0.010 A 
ATOM      4  C   UNL     1      55.547  28.916  50.478  1.00  0.00     0.004 A 
ATOM      5  C   UNL     1      57.163  27.140  50.172  1.00  0.00     0.004 A 
ATOM      6  C   UNL     1      56.886  28.502  50.395  1.00  0.00    -0.045 A 
ENDROOT
BRANCH   1   7
ATOM      7  C   UNL     1      53.679  25.660  49.976  1.00  0.00     0.071 C 
ATOM      8  O   UNL     1      53.119  25.486  48.861  1.00  0.00    -0.545 OA
ATOM      9  O   UNL     1      53.245  24.922  51.071  1.00  0.00    -0.545 OA
ENDBRANCH   1   7
BRANCH   6  10
ATOM     10  C   UNL     1      58.007  29.515  50.544  1.00  0.00     0.013 C 
ATOM     11  C   UNL     1      58.598  29.480  51.958  1.00  0.00     0.012 C 
ATOM     12  C   UNL     1      59.094  29.298  49.485  1.00  0.00     0.012 C 
ENDBRANCH   6  10
TORSDOF 2
ENDMDL
MODEL 8
REMARK VINA RESULT:    -4.031     12.845     13.958
REMARK INTER + INTRA:          -4.721
REMARK INTER:                  -4.509
REMARK INTRA:                  -0.212
REMARK UNBOUND:                -0.219
REMARK SMILES CC(C)c1ccc(C(=O)[O-])cc1
REMARK SMILES IDX 7 1 6 2 11 3 5 4 12 5 4 6 8 7 9 8 10 9 2 10 1 11 3 12
REMARK H PARENT
REMARK Flexibility Score: inf
ROOT
ATOM      1  C   UNL     1      55.059  27.768  50.296  1.00  0.00    -0.003 A 
ATOM      2  C   UNL     1      55.955  28.834  50.477  1.00  0.00     0.010 A 
ATOM      3  C   UNL     1      55.569  26.470  50.123  1.00  0.00     0.010 A 
ATOM      4  C   UNL     1      57.334  28.608  50.485  1.00  0.00     0.004 A 
ATOM      5  C   UNL     1      56.948  26.244  50.131  1.00  0.00     0.004 A 
ATOM      6  C   UNL     1      57.847  27.312  50.312  1.00  0.00    -0.045 A 
ENDROOT
BRANCH   1   7
ATOM      7  C   UNL     1      53.599  28.012  50.288  1.00  0.00     0.071 C 
ATOM      8  O   UNL     1      52.906  27.722  49.277  1.00  0.00    -0.545 OA
ATOM      9  O   UNL     1      52.972  28.566  51.399  1.00  0.00    -0.545 OA
ENDBRANCH   1   7
BRANCH   6  10
ATOM     10  C   UNL     1      59.347  27.080  50.322  1.00  0.00     0.013 C 
ATOM     11  C   UNL     1      59.682  25.620  49.994  1.00  0.00     0.012 C 
ATOM     12  C   UNL     1      60.061  28.040  49.363  1.00  0.00     0.012 C 
ENDBRANCH   6  10
TORSDOF 2
ENDMDL
MODEL 9
REMARK VINA RESULT:    -3.898      2.999      5.189
REMARK INTER + INTRA:          -4.573
REMARK INTER:                  -4.358
REMARK INTRA:                  -0.215
REMARK UNBOUND:                -0.219
REMARK SMILES CC(C)c1ccc(C(=O)[O-])cc1
REMARK SMILES IDX 7 1 6 2 11 3 5 4 12 5 4 6 8 7 9 8 10 9 2 10 1 11 3 12
REMARK H PARENT
REMARK Flexibility Score: inf
ROOT
ATOM      1  C   UNL     1      62.270  33.783  60.429  1.00  0.00    -0.003 A 
ATOM      2  C   UNL     1      63.652  33.575  60.566  1.00  0.00     0.010 A 
ATOM      3  C   UNL     1      61.402  32.682  60.529  1.00  0.00     0.010 A 
ATOM      4  C   UNL     1      64.158  32.292  60.798  1.00  0.00     0.004 A 
ATOM      5  C   UNL     1      61.907  31.400  60.762  1.00  0.00     0.004 A 
ATOM      6  C   UNL     1      63.292  31.191  60.899  1.00  0.00    -0.045 A 
ENDROOT
BRANCH   1   7
ATOM      7  C   UNL     1      61.740  35.142  60.183  1.00  0.00     0.071 C 
ATOM      8  O   UNL     1      60.921  35.351  59.249  1.00  0.00    -0.545 OA
ATOM      9  O   UNL     1      62.138  36.208  60.982  1.00  0.00    -0.545 OA
ENDBRANCH   1   7
BRANCH   6  10
ATOM     10  C   UNL     1      63.854  29.803  61.151  1.00  0.00     0.013 C 
ATOM     11  C   UNL     1      62.792  28.725  60.903  1.00  0.00     0.012 C 
ATOM     12  C   UNL     1      65.105  29.551  60.302  1.00  0.00     0.012 C 
ENDBRANCH   6  10
TORSDOF 2
ENDMDL
