MODEL 1
REMARK VINA RESULT:    -4.115      0.000      0.000
REMARK INTER + INTRA:          -8.689
REMARK INTER:                  -6.279
REMARK INTRA:                  -2.410
REMARK UNBOUND:                -2.410
REMARK SMILES CC(=O)CCC=C(C)CCC=C(C)CCC=C(C)C
REMARK SMILES IDX 10 1 11 2 12 3 13 4 14 5 15 6 16 7 18 8 17 9 19 10 9 11 7 12
REMARK SMILES IDX 6 13 8 14 5 15 4 16 2 17 3 18 1 19
REMARK H PARENT
REMARK Flexibility Score: inf
ROOT
ATOM      1  C   UNL     1       0.563  -3.804  16.478  1.00  0.00     0.032 C 
ENDROOT
BRANCH   1   2
ATOM      2  C   UNL     1       1.892  -3.318  15.956  1.00  0.00    -0.028 C 
ATOM      3  C   UNL     1       2.087  -2.195  15.226  1.00  0.00    -0.077 C 
ATOM      4  C   UNL     1       3.490  -1.879  14.771  1.00  0.00     0.039 C 
BRANCH   3   5
ATOM      5  C   UNL     1       0.981  -1.219  14.869  1.00  0.00     0.034 C 
BRANCH   5   6
ATOM      6  C   UNL     1       0.909  -0.041  15.849  1.00  0.00     0.032 C 
BRANCH   6   7
ATOM      7  C   UNL     1      -0.257  -0.183  16.798  1.00  0.00    -0.028 C 
ATOM      8  C   UNL     1       1.176  -0.711  18.783  1.00  0.00     0.039 C 
ATOM      9  C   UNL     1      -0.157  -0.512  18.105  1.00  0.00    -0.080 C 
ATOM     10  C   UNL     1      -1.427  -0.682  18.899  1.00  0.00     0.039 C 
ENDBRANCH   6   7
ENDBRANCH   5   6
ENDBRANCH   3   5
ENDBRANCH   1   2
BRANCH   1  11
ATOM     11  C   UNL     1       0.658  -4.207  17.955  1.00  0.00     0.034 C 
BRANCH  11  12
ATOM     12  C   UNL     1      -0.722  -4.437  18.543  1.00  0.00    -0.077 C 
ATOM     13  C   UNL     1      -1.030  -4.173  19.834  1.00  0.00    -0.028 C 
ATOM     14  C   UNL     1      -1.791  -5.032  17.663  1.00  0.00     0.039 C 
BRANCH  13  15
ATOM     15  C   UNL     1      -0.085  -3.574  20.845  1.00  0.00     0.035 C 
BRANCH  15  16
ATOM     16  C   UNL     1      -0.107  -4.364  22.157  1.00  0.00     0.079 C 
BRANCH  16  17
ATOM     17  C   UNL     1       1.052  -5.323  22.217  1.00  0.00     0.130 C 
ATOM     18  O   UNL     1       0.935  -6.369  22.837  1.00  0.00    -0.300 OA
ATOM     19  C   UNL     1       2.349  -5.028  21.524  1.00  0.00     0.087 C 
ENDBRANCH  16  17
ENDBRANCH  15  16
ENDBRANCH  13  15
ENDBRANCH  11  12
ENDBRANCH   1  11
TORSDOF 9
ENDMDL
MODEL 2
REMARK VINA RESULT:    -4.078      2.762      6.334
REMARK INTER + INTRA:          -8.633
REMARK INTER:                  -5.869
REMARK INTRA:                  -2.764
REMARK UNBOUND:                -2.410
REMARK SMILES CC(=O)CCC=C(C)CCC=C(C)CCC=C(C)C
REMARK SMILES IDX 10 1 11 2 12 3 13 4 14 5 15 6 16 7 18 8 17 9 19 10 9 11 7 12
REMARK SMILES IDX 6 13 8 14 5 15 4 16 2 17 3 18 1 19
REMARK H PARENT
REMARK Flexibility Score: inf
ROOT
ATOM      1  C   UNL     1      -1.418  -1.959  19.050  1.00  0.00     0.032 C 
ENDROOT
BRANCH   1   2
ATOM      2  C   UNL     1      -1.258  -1.375  20.432  1.00  0.00    -0.028 C 
ATOM      3  C   UNL     1      -1.391  -2.057  21.594  1.00  0.00    -0.077 C 
ATOM      4  C   UNL     1      -1.215  -1.298  22.886  1.00  0.00     0.039 C 
BRANCH   3   5
ATOM      5  C   UNL     1      -1.672  -3.546  21.669  1.00  0.00     0.034 C 
BRANCH   5   6
ATOM      6  C   UNL     1      -0.531  -4.318  22.346  1.00  0.00     0.032 C 
BRANCH   6   7
ATOM      7  C   UNL     1       0.454  -4.847  21.332  1.00  0.00    -0.028 C 
ATOM      8  C   UNL     1       2.119  -3.015  21.710  1.00  0.00     0.039 C 
ATOM      9  C   UNL     1       1.629  -4.262  21.014  1.00  0.00    -0.080 C 
ATOM     10  C   UNL     1       2.468  -4.883  19.927  1.00  0.00     0.039 C 
ENDBRANCH   6   7
ENDBRANCH   5   6
ENDBRANCH   3   5
ENDBRANCH   1   2
BRANCH   1  11
ATOM     11  C   UNL     1      -0.059  -2.301  18.428  1.00  0.00     0.034 C 
BRANCH  11  12
ATOM     12  C   UNL     1      -0.122  -3.620  17.680  1.00  0.00    -0.077 C 
ATOM     13  C   UNL     1       0.701  -3.927  16.650  1.00  0.00    -0.028 C 
ATOM     14  C   UNL     1      -1.181  -4.620  18.068  1.00  0.00     0.039 C 
BRANCH  13  15
ATOM     15  C   UNL     1       1.813  -3.047  16.138  1.00  0.00     0.035 C 
BRANCH  15  16
ATOM     16  C   UNL     1       1.401  -2.330  14.849  1.00  0.00     0.079 C 
BRANCH  16  17
ATOM     17  C   UNL     1       1.063  -0.890  15.128  1.00  0.00     0.130 C 
ATOM     18  O   UNL     1       0.140  -0.361  14.527  1.00  0.00    -0.300 OA
ATOM     19  C   UNL     1       1.829  -0.087  16.138  1.00  0.00     0.087 C 
ENDBRANCH  16  17
ENDBRANCH  15  16
ENDBRANCH  13  15
ENDBRANCH  11  12
ENDBRANCH   1  11
TORSDOF 9
ENDMDL
MODEL 3
REMARK VINA RESULT:    -4.042      5.270      7.381
REMARK INTER + INTRA:          -8.579
REMARK INTER:                  -5.987
REMARK INTRA:                  -2.591
REMARK UNBOUND:                -2.410
REMARK SMILES CC(=O)CCC=C(C)CCC=C(C)CCC=C(C)C
REMARK SMILES IDX 10 1 11 2 12 3 13 4 14 5 15 6 16 7 18 8 17 9 19 10 9 11 7 12
REMARK SMILES IDX 6 13 8 14 5 15 4 16 2 17 3 18 1 19
REMARK H PARENT
REMARK Flexibility Score: inf
ROOT
ATOM      1  C   UNL     1       3.445   2.661  23.630  1.00  0.00     0.032 C 
ENDROOT
BRANCH   1   2
ATOM      2  C   UNL     1       2.189   3.484  23.485  1.00  0.00    -0.028 C 
ATOM      3  C   UNL     1       1.498   3.671  22.336  1.00  0.00    -0.077 C 
ATOM      4  C   UNL     1       0.272   4.547  22.380  1.00  0.00     0.039 C 
BRANCH   3   5
ATOM      5  C   UNL     1       1.869   3.020  21.016  1.00  0.00     0.034 C 
BRANCH   5   6
ATOM      6  C   UNL     1       0.644   2.451  20.287  1.00  0.00     0.032 C 
BRANCH   6   7
ATOM      7  C   UNL     1       0.570   0.949  20.422  1.00  0.00    -0.028 C 
ATOM      8  C   UNL     1      -0.979   1.011  22.389  1.00  0.00     0.039 C 
ATOM      9  C   UNL     1      -0.126   0.290  21.374  1.00  0.00    -0.080 C 
ATOM     10  C   UNL     1      -0.038  -1.215  21.412  1.00  0.00     0.039 C 
ENDBRANCH   6   7
ENDBRANCH   5   6
ENDBRANCH   3   5
ENDBRANCH   1   2
BRANCH   1  11
ATOM     11  C   UNL     1       3.254   1.526  24.643  1.00  0.00     0.034 C 
BRANCH  11  12
ATOM     12  C   UNL     1       2.768   0.263  23.956  1.00  0.00    -0.077 C 
ATOM     13  C   UNL     1       1.853  -0.571  24.502  1.00  0.00    -0.028 C 
ATOM     14  C   UNL     1       3.363  -0.108  22.622  1.00  0.00     0.039 C 
BRANCH  13  15
ATOM     15  C   UNL     1       1.157  -0.348  25.821  1.00  0.00     0.035 C 
BRANCH  15  16
ATOM     16  C   UNL     1      -0.363  -0.461  25.669  1.00  0.00     0.079 C 
BRANCH  16  17
ATOM     17  C   UNL     1      -0.987  -0.970  26.941  1.00  0.00     0.130 C 
ATOM     18  O   UNL     1      -0.966  -2.167  27.184  1.00  0.00    -0.300 OA
ATOM     19  C   UNL     1      -1.627  -0.039  27.927  1.00  0.00     0.087 C 
ENDBRANCH  16  17
ENDBRANCH  15  16
ENDBRANCH  13  15
ENDBRANCH  11  12
ENDBRANCH   1  11
TORSDOF 9
ENDMDL
MODEL 4
REMARK VINA RESULT:    -4.040      2.972      6.086
REMARK INTER + INTRA:          -8.575
REMARK INTER:                  -5.659
REMARK INTRA:                  -2.916
REMARK UNBOUND:                -2.410
REMARK SMILES CC(=O)CCC=C(C)CCC=C(C)CCC=C(C)C
REMARK SMILES IDX 10 1 11 2 12 3 13 4 14 5 15 6 16 7 18 8 17 9 19 10 9 11 7 12
REMARK SMILES IDX 6 13 8 14 5 15 4 16 2 17 3 18 1 19
REMARK H PARENT
REMARK Flexibility Score: inf
ROOT
ATOM      1  C   UNL     1      -0.340  -4.706  18.108  1.00  0.00     0.032 C 
ENDROOT
BRANCH   1   2
ATOM      2  C   UNL     1      -1.690  -4.251  18.605  1.00  0.00    -0.028 C 
ATOM      3  C   UNL     1      -1.914  -3.542  19.736  1.00  0.00    -0.077 C 
ATOM      4  C   UNL     1      -3.339  -3.194  20.084  1.00  0.00     0.039 C 
BRANCH   3   5
ATOM      5  C   UNL     1      -0.810  -3.047  20.652  1.00  0.00     0.034 C 
BRANCH   5   6
ATOM      6  C   UNL     1      -0.832  -1.522  20.815  1.00  0.00     0.032 C 
BRANCH   6   7
ATOM      7  C   UNL     1       0.335  -0.875  20.108  1.00  0.00    -0.028 C 
ATOM      8  C   UNL     1      -0.943  -0.430  18.000  1.00  0.00     0.039 C 
ATOM      9  C   UNL     1       0.311  -0.409  18.840  1.00  0.00    -0.080 C 
ATOM     10  C   UNL     1       1.585   0.147  18.257  1.00  0.00     0.039 C 
ENDBRANCH   6   7
ENDBRANCH   5   6
ENDBRANCH   3   5
ENDBRANCH   1   2
BRANCH   1  11
ATOM     11  C   UNL     1       0.153  -3.830  16.950  1.00  0.00     0.034 C 
BRANCH  11  12
ATOM     12  C   UNL     1       1.605  -3.436  17.149  1.00  0.00    -0.077 C 
ATOM     13  C   UNL     1       2.338  -2.810  16.199  1.00  0.00    -0.028 C 
ATOM     14  C   UNL     1       2.280  -3.798  18.446  1.00  0.00     0.039 C 
BRANCH  13  15
ATOM     15  C   UNL     1       1.820  -2.373  14.852  1.00  0.00     0.035 C 
BRANCH  15  16
ATOM     16  C   UNL     1       2.524  -1.099  14.377  1.00  0.00     0.079 C 
BRANCH  16  17
ATOM     17  C   UNL     1       1.628   0.098  14.550  1.00  0.00     0.130 C 
ATOM     18  O   UNL     1       2.124   1.199  14.733  1.00  0.00    -0.300 OA
ATOM     19  C   UNL     1       0.134  -0.028  14.494  1.00  0.00     0.087 C 
ENDBRANCH  16  17
ENDBRANCH  15  16
ENDBRANCH  13  15
ENDBRANCH  11  12
ENDBRANCH   1  11
TORSDOF 9
ENDMDL
MODEL 5
REMARK VINA RESULT:    -4.039      2.978      5.747
REMARK INTER + INTRA:          -8.574
REMARK INTER:                  -5.834
REMARK INTRA:                  -2.740
REMARK UNBOUND:                -2.410
REMARK SMILES CC(=O)CCC=C(C)CCC=C(C)CCC=C(C)C
REMARK SMILES IDX 10 1 11 2 12 3 13 4 14 5 15 6 16 7 18 8 17 9 19 10 9 11 7 12
REMARK SMILES IDX 6 13 8 14 5 15 4 16 2 17 3 18 1 19
REMARK H PARENT
REMARK Flexibility Score: inf
ROOT
ATOM      1  C   UNL     1       1.978  -1.687  18.828  1.00  0.00     0.032 C 
ENDROOT
BRANCH   1   2
ATOM      2  C   UNL     1       1.481  -1.258  17.469  1.00  0.00    -0.028 C 
ATOM      3  C   UNL     1       1.107  -2.091  16.470  1.00  0.00    -0.077 C 
ATOM      4  C   UNL     1       0.655  -1.479  15.168  1.00  0.00     0.039 C 
BRANCH   3   5
ATOM      5  C   UNL     1       1.084  -3.603  16.598  1.00  0.00     0.034 C 
BRANCH   5   6
ATOM      6  C   UNL     1      -0.261  -4.119  17.129  1.00  0.00     0.032 C 
BRANCH   6   7
ATOM      7  C   UNL     1      -0.146  -4.583  18.561  1.00  0.00    -0.028 C 
ATOM      8  C   UNL     1      -1.563  -2.730  19.475  1.00  0.00     0.039 C 
ATOM      9  C   UNL     1      -0.697  -3.958  19.625  1.00  0.00    -0.080 C 
ATOM     10  C   UNL     1      -0.429  -4.514  21.000  1.00  0.00     0.039 C 
ENDBRANCH   6   7
ENDBRANCH   5   6
ENDBRANCH   3   5
ENDBRANCH   1   2
BRANCH   1  11
ATOM     11  C   UNL     1       3.505  -1.838  18.840  1.00  0.00     0.034 C 
BRANCH  11  12
ATOM     12  C   UNL     1       3.906  -3.292  18.670  1.00  0.00    -0.077 C 
ATOM     13  C   UNL     1       4.660  -3.735  17.637  1.00  0.00    -0.028 C 
ATOM     14  C   UNL     1       3.404  -4.301  19.670  1.00  0.00     0.039 C 
BRANCH  13  15
ATOM     15  C   UNL     1       5.246  -2.863  16.556  1.00  0.00     0.035 C 
BRANCH  15  16
ATOM     16  C   UNL     1       4.410  -2.936  15.275  1.00  0.00     0.079 C 
BRANCH  16  17
ATOM     17  C   UNL     1       4.426  -1.613  14.556  1.00  0.00     0.130 C 
ATOM     18  O   UNL     1       5.000  -0.661  15.062  1.00  0.00    -0.300 OA
ATOM     19  C   UNL     1       3.759  -1.437  13.224  1.00  0.00     0.087 C 
ENDBRANCH  16  17
ENDBRANCH  15  16
ENDBRANCH  13  15
ENDBRANCH  11  12
ENDBRANCH   1  11
TORSDOF 9
ENDMDL
MODEL 6
REMARK VINA RESULT:    -3.974      1.937      4.286
REMARK INTER + INTRA:          -8.474
REMARK INTER:                  -5.945
REMARK INTRA:                  -2.529
REMARK UNBOUND:                -2.410
REMARK SMILES CC(=O)CCC=C(C)CCC=C(C)CCC=C(C)C
REMARK SMILES IDX 10 1 11 2 12 3 13 4 14 5 15 6 16 7 18 8 17 9 19 10 9 11 7 12
REMARK SMILES IDX 6 13 8 14 5 15 4 16 2 17 3 18 1 19
REMARK H PARENT
REMARK Flexibility Score: inf
ROOT
ATOM      1  C   UNL     1       2.277  -0.844  17.655  1.00  0.00     0.032 C 
ENDROOT
BRANCH   1   2
ATOM      2  C   UNL     1       1.499  -0.735  18.943  1.00  0.00    -0.028 C 
ATOM      3  C   UNL     1       0.152  -0.641  19.044  1.00  0.00    -0.077 C 
ATOM      4  C   UNL     1      -0.450  -0.517  20.421  1.00  0.00     0.039 C 
BRANCH   3   5
ATOM      5  C   UNL     1      -0.786  -0.687  17.852  1.00  0.00     0.034 C 
BRANCH   5   6
ATOM      6  C   UNL     1      -0.984   0.695  17.216  1.00  0.00     0.032 C 
BRANCH   6   7
ATOM      7  C   UNL     1      -0.342   0.772  15.852  1.00  0.00    -0.028 C 
ATOM      8  C   UNL     1      -2.515   1.013  14.631  1.00  0.00     0.039 C 
ATOM      9  C   UNL     1      -1.012   0.884  14.685  1.00  0.00    -0.080 C 
ATOM     10  C   UNL     1      -0.221   0.878  13.401  1.00  0.00     0.039 C 
ENDBRANCH   6   7
ENDBRANCH   5   6
ENDBRANCH   3   5
ENDBRANCH   1   2
BRANCH   1  11
ATOM     11  C   UNL     1       2.545  -2.309  17.288  1.00  0.00     0.034 C 
BRANCH  11  12
ATOM     12  C   UNL     1       1.590  -2.779  16.206  1.00  0.00    -0.077 C 
ATOM     13  C   UNL     1       0.671  -3.754  16.402  1.00  0.00    -0.028 C 
ATOM     14  C   UNL     1       1.697  -2.167  14.833  1.00  0.00     0.039 C 
BRANCH  13  15
ATOM     15  C   UNL     1       0.429  -4.465  17.710  1.00  0.00     0.035 C 
BRANCH  15  16
ATOM     16  C   UNL     1      -1.069  -4.562  18.016  1.00  0.00     0.079 C 
BRANCH  16  17
ATOM     17  C   UNL     1      -1.359  -4.055  19.403  1.00  0.00     0.130 C 
ATOM     18  O   UNL     1      -2.407  -3.467  19.621  1.00  0.00    -0.300 OA
ATOM     19  C   UNL     1      -0.392  -4.263  20.531  1.00  0.00     0.087 C 
ENDBRANCH  16  17
ENDBRANCH  15  16
ENDBRANCH  13  15
ENDBRANCH  11  12
ENDBRANCH   1  11
TORSDOF 9
ENDMDL
MODEL 7
REMARK VINA RESULT:    -3.941      3.275      6.579
REMARK INTER + INTRA:          -8.424
REMARK INTER:                  -5.698
REMARK INTRA:                  -2.726
REMARK UNBOUND:                -2.410
REMARK SMILES CC(=O)CCC=C(C)CCC=C(C)CCC=C(C)C
REMARK SMILES IDX 10 1 11 2 12 3 13 4 14 5 15 6 16 7 18 8 17 9 19 10 9 11 7 12
REMARK SMILES IDX 6 13 8 14 5 15 4 16 2 17 3 18 1 19
REMARK H PARENT
REMARK Flexibility Score: inf
ROOT
ATOM      1  C   UNL     1       1.590  -3.385  15.773  1.00  0.00     0.032 C 
ENDROOT
BRANCH   1   2
ATOM      2  C   UNL     1       0.304  -3.835  16.421  1.00  0.00    -0.028 C 
ATOM      3  C   UNL     1       0.154  -4.167  17.725  1.00  0.00    -0.077 C 
ATOM      4  C   UNL     1      -1.209  -4.617  18.190  1.00  0.00     0.039 C 
BRANCH   3   5
ATOM      5  C   UNL     1       1.269  -4.079  18.750  1.00  0.00     0.034 C 
BRANCH   5   6
ATOM      6  C   UNL     1       1.192  -2.790  19.580  1.00  0.00     0.032 C 
BRANCH   6   7
ATOM      7  C   UNL     1       2.128  -1.732  19.044  1.00  0.00    -0.028 C 
ATOM      8  C   UNL     1       0.310  -0.411  17.940  1.00  0.00     0.039 C 
ATOM      9  C   UNL     1       1.754  -0.680  18.285  1.00  0.00    -0.080 C 
ATOM     10  C   UNL     1       2.825   0.249  17.771  1.00  0.00     0.039 C 
ENDBRANCH   6   7
ENDBRANCH   5   6
ENDBRANCH   3   5
ENDBRANCH   1   2
BRANCH   1  11
ATOM     11  C   UNL     1       1.361  -2.171  14.864  1.00  0.00     0.034 C 
BRANCH  11  12
ATOM     12  C   UNL     1       2.678  -1.509  14.503  1.00  0.00    -0.077 C 
ATOM     13  C   UNL     1       2.758  -0.293  13.914  1.00  0.00    -0.028 C 
ATOM     14  C   UNL     1       3.959  -2.257  14.771  1.00  0.00     0.039 C 
BRANCH  13  15
ATOM     15  C   UNL     1       1.581   0.588  13.582  1.00  0.00     0.035 C 
BRANCH  15  16
ATOM     16  C   UNL     1       1.318   1.601  14.700  1.00  0.00     0.079 C 
BRANCH  16  17
ATOM     17  C   UNL     1      -0.159   1.849  14.853  1.00  0.00     0.130 C 
ATOM     18  O   UNL     1      -0.555   2.968  15.142  1.00  0.00    -0.300 OA
ATOM     19  C   UNL     1      -1.162   0.752  14.651  1.00  0.00     0.087 C 
ENDBRANCH  16  17
ENDBRANCH  15  16
ENDBRANCH  13  15
ENDBRANCH  11  12
ENDBRANCH   1  11
TORSDOF 9
ENDMDL
MODEL 8
REMARK VINA RESULT:    -3.925      6.228      8.780
REMARK INTER + INTRA:          -8.399
REMARK INTER:                  -6.310
REMARK INTRA:                  -2.089
REMARK UNBOUND:                -2.410
REMARK SMILES CC(=O)CCC=C(C)CCC=C(C)CCC=C(C)C
REMARK SMILES IDX 10 1 11 2 12 3 13 4 14 5 15 6 16 7 18 8 17 9 19 10 9 11 7 12
REMARK SMILES IDX 6 13 8 14 5 15 4 16 2 17 3 18 1 19
REMARK H PARENT
REMARK Flexibility Score: inf
ROOT
ATOM      1  C   UNL     1      -0.074   1.210  22.784  1.00  0.00     0.032 C 
ENDROOT
BRANCH   1   2
ATOM      2  C   UNL     1       0.480  -0.186  22.930  1.00  0.00    -0.028 C 
ATOM      3  C   UNL     1       0.997  -0.713  24.065  1.00  0.00    -0.077 C 
ATOM      4  C   UNL     1       1.526  -2.124  24.015  1.00  0.00     0.039 C 
BRANCH   3   5
ATOM      5  C   UNL     1       1.041   0.024  25.391  1.00  0.00     0.034 C 
BRANCH   5   6
ATOM      6  C   UNL     1       0.541  -0.844  26.553  1.00  0.00     0.032 C 
BRANCH   6   7
ATOM      7  C   UNL     1      -0.738  -0.296  27.140  1.00  0.00    -0.028 C 
ATOM      8  C   UNL     1      -2.227  -1.627  25.629  1.00  0.00     0.039 C 
ATOM      9  C   UNL     1      -1.982  -0.613  26.719  1.00  0.00    -0.080 C 
ATOM     10  C   UNL     1      -3.154   0.078  27.368  1.00  0.00     0.039 C 
ENDBRANCH   6   7
ENDBRANCH   5   6
ENDBRANCH   3   5
ENDBRANCH   1   2
BRANCH   1  11
ATOM     11  C   UNL     1       0.767   2.045  21.811  1.00  0.00     0.034 C 
BRANCH  11  12
ATOM     12  C   UNL     1       1.289   3.300  22.486  1.00  0.00    -0.077 C 
ATOM     13  C   UNL     1       2.509   3.375  23.067  1.00  0.00    -0.028 C 
ATOM     14  C   UNL     1       0.391   4.509  22.555  1.00  0.00     0.039 C 
BRANCH  13  15
ATOM     15  C   UNL     1       3.529   2.266  23.085  1.00  0.00     0.035 C 
BRANCH  15  16
ATOM     16  C   UNL     1       3.839   1.823  24.518  1.00  0.00     0.079 C 
BRANCH  16  17
ATOM     17  C   UNL     1       4.900   0.755  24.525  1.00  0.00     0.130 C 
ATOM     18  O   UNL     1       5.937   0.933  23.904  1.00  0.00    -0.300 OA
ATOM     19  C   UNL     1       4.718  -0.525  25.286  1.00  0.00     0.087 C 
ENDBRANCH  16  17
ENDBRANCH  15  16
ENDBRANCH  13  15
ENDBRANCH  11  12
ENDBRANCH   1  11
TORSDOF 9
ENDMDL
MODEL 9
REMARK VINA RESULT:    -3.880      2.222      4.831
REMARK INTER + INTRA:          -8.332
REMARK INTER:                  -5.533
REMARK INTRA:                  -2.799
REMARK UNBOUND:                -2.410
REMARK SMILES CC(=O)CCC=C(C)CCC=C(C)CCC=C(C)C
REMARK SMILES IDX 10 1 11 2 12 3 13 4 14 5 15 6 16 7 18 8 17 9 19 10 9 11 7 12
REMARK SMILES IDX 6 13 8 14 5 15 4 16 2 17 3 18 1 19
REMARK H PARENT
REMARK Flexibility Score: inf
ROOT
ATOM      1  C   UNL     1       0.205  -3.143  20.407  1.00  0.00     0.032 C 
ENDROOT
BRANCH   1   2
ATOM      2  C   UNL     1      -0.869  -3.871  19.636  1.00  0.00    -0.028 C 
ATOM      3  C   UNL     1      -0.706  -4.468  18.432  1.00  0.00    -0.077 C 
ATOM      4  C   UNL     1      -1.905  -5.131  17.801  1.00  0.00     0.039 C 
BRANCH   3   5
ATOM      5  C   UNL     1       0.621  -4.537  17.699  1.00  0.00     0.034 C 
BRANCH   5   6
ATOM      6  C   UNL     1       0.595  -3.753  16.380  1.00  0.00     0.032 C 
BRANCH   6   7
ATOM      7  C   UNL     1       1.985  -3.345  15.954  1.00  0.00    -0.028 C 
ATOM      8  C   UNL     1       1.235  -1.219  14.864  1.00  0.00     0.039 C 
ATOM      9  C   UNL     1       2.285  -2.232  15.250  1.00  0.00    -0.080 C 
ATOM     10  C   UNL     1       3.719  -2.007  14.843  1.00  0.00     0.039 C 
ENDBRANCH   6   7
ENDBRANCH   5   6
ENDBRANCH   3   5
ENDBRANCH   1   2
BRANCH   1  11
ATOM     11  C   UNL     1      -0.006  -1.625  20.359  1.00  0.00     0.034 C 
BRANCH  11  12
ATOM     12  C   UNL     1       0.387  -1.066  19.004  1.00  0.00    -0.077 C 
ATOM     13  C   UNL     1       1.673  -0.890  18.621  1.00  0.00    -0.028 C 
ATOM     14  C   UNL     1      -0.704  -0.641  18.055  1.00  0.00     0.039 C 
BRANCH  13  15
ATOM     15  C   UNL     1       2.880  -1.264  19.443  1.00  0.00     0.035 C 
BRANCH  15  16
ATOM     16  C   UNL     1       4.071  -1.614  18.546  1.00  0.00     0.079 C 
BRANCH  16  17
ATOM     17  C   UNL     1       4.666  -2.938  18.948  1.00  0.00     0.130 C 
ATOM     18  O   UNL     1       5.880  -3.057  19.012  1.00  0.00    -0.300 OA
ATOM     19  C   UNL     1       3.800  -4.116  19.281  1.00  0.00     0.087 C 
ENDBRANCH  16  17
ENDBRANCH  15  16
ENDBRANCH  13  15
ENDBRANCH  11  12
ENDBRANCH   1  11
TORSDOF 9
ENDMDL
