MODEL 1
REMARK VINA RESULT:    -5.698      0.000      0.000
REMARK INTER + INTRA:          -8.870
REMARK INTER:                  -7.697
REMARK INTRA:                  -1.173
REMARK UNBOUND:                -1.173
REMARK SMILES CC(=O)CCC=C(C)CCC=C(C)C
REMARK SMILES IDX 7 1 6 2 8 3 9 4 10 5 11 6 13 7 12 8 14 9 5 10 4 11 2 12 3 13
REMARK SMILES IDX 1 14
REMARK H PARENT
REMARK Flexibility Score: inf
ROOT
ATOM      1  C   UNL     1       3.864  10.529  29.461  1.00  0.00    -0.077 C 
ATOM      2  C   UNL     1       3.140  10.443  30.602  1.00  0.00    -0.028 C 
ATOM      3  C   UNL     1       5.291  10.045  29.487  1.00  0.00     0.039 C 
ENDROOT
BRANCH   1   4
ATOM      4  C   UNL     1       3.296  11.039  28.147  1.00  0.00     0.034 C 
BRANCH   4   5
ATOM      5  C   UNL     1       3.000  12.546  28.194  1.00  0.00     0.032 C 
BRANCH   5   6
ATOM      6  C   UNL     1       4.235  13.378  27.946  1.00  0.00    -0.028 C 
ATOM      7  C   UNL     1       4.466  14.062  30.346  1.00  0.00     0.039 C 
ATOM      8  C   UNL     1       4.893  14.077  28.896  1.00  0.00    -0.080 C 
ATOM      9  C   UNL     1       6.091  14.894  28.485  1.00  0.00     0.039 C 
ENDBRANCH   5   6
ENDBRANCH   4   5
ENDBRANCH   1   4
BRANCH   2  10
ATOM     10  C   UNL     1       1.705  10.881  30.752  1.00  0.00     0.035 C 
BRANCH  10  11
ATOM     11  C   UNL     1       1.575  12.019  31.770  1.00  0.00     0.079 C 
BRANCH  11  12
ATOM     12  C   UNL     1       0.360  12.855  31.466  1.00  0.00     0.130 C 
ATOM     13  O   UNL     1      -0.665  12.679  32.105  1.00  0.00    -0.300 OA
ATOM     14  C   UNL     1       0.381  13.896  30.386  1.00  0.00     0.087 C 
ENDBRANCH  11  12
ENDBRANCH  10  11
ENDBRANCH   2  10
TORSDOF 6
ENDMDL
MODEL 2
REMARK VINA RESULT:    -5.592      2.750      4.946
REMARK INTER + INTRA:          -8.726
REMARK INTER:                  -7.660
REMARK INTRA:                  -1.066
REMARK UNBOUND:                -1.173
REMARK SMILES CC(=O)CCC=C(C)CCC=C(C)C
REMARK SMILES IDX 7 1 6 2 8 3 9 4 10 5 11 6 13 7 12 8 14 9 5 10 4 11 2 12 3 13
REMARK SMILES IDX 1 14
REMARK H PARENT
REMARK Flexibility Score: inf
ROOT
ATOM      1  C   UNL     1       1.326  13.426  28.970  1.00  0.00    -0.077 C 
ATOM      2  C   UNL     1       2.321  13.739  28.107  1.00  0.00    -0.028 C 
ATOM      3  C   UNL     1       0.110  14.316  29.003  1.00  0.00     0.039 C 
ENDROOT
BRANCH   1   4
ATOM      4  C   UNL     1       1.350  12.199  29.866  1.00  0.00     0.034 C 
BRANCH   4   5
ATOM      5  C   UNL     1       1.291  12.572  31.355  1.00  0.00     0.032 C 
BRANCH   5   6
ATOM      6  C   UNL     1       2.355  13.573  31.735  1.00  0.00    -0.028 C 
ATOM      7  C   UNL     1       4.109  11.824  32.117  1.00  0.00     0.039 C 
ATOM      8  C   UNL     1       3.617  13.253  32.095  1.00  0.00    -0.080 C 
ATOM      9  C   UNL     1       4.555  14.365  32.486  1.00  0.00     0.039 C 
ENDBRANCH   5   6
ENDBRANCH   4   5
ENDBRANCH   1   4
BRANCH   2  10
ATOM     10  C   UNL     1       3.603  12.960  27.946  1.00  0.00     0.035 C 
BRANCH  10  11
ATOM     11  C   UNL     1       4.721  13.546  28.815  1.00  0.00     0.079 C 
BRANCH  11  12
ATOM     12  C   UNL     1       5.447  14.633  28.069  1.00  0.00     0.130 C 
ATOM     13  O   UNL     1       5.193  14.826  26.890  1.00  0.00    -0.300 OA
ATOM     14  C   UNL     1       6.484  15.481  28.744  1.00  0.00     0.087 C 
ENDBRANCH  11  12
ENDBRANCH  10  11
ENDBRANCH   2  10
TORSDOF 6
ENDMDL
MODEL 3
REMARK VINA RESULT:    -5.563      1.426      2.447
REMARK INTER + INTRA:          -8.687
REMARK INTER:                  -7.884
REMARK INTRA:                  -0.803
REMARK UNBOUND:                -1.173
REMARK SMILES CC(=O)CCC=C(C)CCC=C(C)C
REMARK SMILES IDX 7 1 6 2 8 3 9 4 10 5 11 6 13 7 12 8 14 9 5 10 4 11 2 12 3 13
REMARK SMILES IDX 1 14
REMARK H PARENT
REMARK Flexibility Score: inf
ROOT
ATOM      1  C   UNL     1       3.220  12.027  27.522  1.00  0.00    -0.077 C 
ATOM      2  C   UNL     1       3.017  11.066  28.453  1.00  0.00    -0.028 C 
ATOM      3  C   UNL     1       3.167  11.631  26.069  1.00  0.00     0.039 C 
ENDROOT
BRANCH   1   4
ATOM      4  C   UNL     1       3.447  13.490  27.865  1.00  0.00     0.034 C 
BRANCH   4   5
ATOM      5  C   UNL     1       4.883  13.753  28.344  1.00  0.00     0.032 C 
BRANCH   5   6
ATOM      6  C   UNL     1       4.933  14.170  29.795  1.00  0.00    -0.028 C 
ATOM      7  C   UNL     1       6.698  15.908  29.414  1.00  0.00     0.039 C 
ATOM      8  C   UNL     1       5.753  15.121  30.292  1.00  0.00    -0.080 C 
ATOM      9  C   UNL     1       5.715  15.398  31.773  1.00  0.00     0.039 C 
ENDBRANCH   5   6
ENDBRANCH   4   5
ENDBRANCH   1   4
BRANCH   2  10
ATOM     10  C   UNL     1       3.037  11.288  29.945  1.00  0.00     0.035 C 
BRANCH  10  11
ATOM     11  C   UNL     1       1.621  11.483  30.496  1.00  0.00     0.079 C 
BRANCH  11  12
ATOM     12  C   UNL     1       1.400  12.924  30.869  1.00  0.00     0.130 C 
ATOM     13  O   UNL     1       1.999  13.397  31.822  1.00  0.00    -0.300 OA
ATOM     14  C   UNL     1       0.448  13.791  30.099  1.00  0.00     0.087 C 
ENDBRANCH  11  12
ENDBRANCH  10  11
ENDBRANCH   2  10
TORSDOF 6
ENDMDL
MODEL 4
REMARK VINA RESULT:    -5.539      2.323      4.052
REMARK INTER + INTRA:          -8.655
REMARK INTER:                  -7.586
REMARK INTRA:                  -1.068
REMARK UNBOUND:                -1.173
REMARK SMILES CC(=O)CCC=C(C)CCC=C(C)C
REMARK SMILES IDX 7 1 6 2 8 3 9 4 10 5 11 6 13 7 12 8 14 9 5 10 4 11 2 12 3 13
REMARK SMILES IDX 1 14
REMARK H PARENT
REMARK Flexibility Score: inf
ROOT
ATOM      1  C   UNL     1       0.832  12.916  31.447  1.00  0.00    -0.077 C 
ATOM      2  C   UNL     1       1.882  12.176  31.874  1.00  0.00    -0.028 C 
ATOM      3  C   UNL     1      -0.529  12.616  32.022  1.00  0.00     0.039 C 
ENDROOT
BRANCH   1   4
ATOM      4  C   UNL     1       0.964  14.063  30.459  1.00  0.00     0.034 C 
BRANCH   4   5
ATOM      5  C   UNL     1       0.950  13.573  29.002  1.00  0.00     0.032 C 
BRANCH   5   6
ATOM      6  C   UNL     1       2.115  14.112  28.208  1.00  0.00    -0.028 C 
ATOM      7  C   UNL     1       3.064  11.841  27.734  1.00  0.00     0.039 C 
ATOM      8  C   UNL     1       3.080  13.350  27.648  1.00  0.00    -0.080 C 
ATOM      9  C   UNL     1       4.203  14.039  26.918  1.00  0.00     0.039 C 
ENDBRANCH   5   6
ENDBRANCH   4   5
ENDBRANCH   1   4
BRANCH   2  10
ATOM     10  C   UNL     1       3.306  12.341  31.404  1.00  0.00     0.035 C 
BRANCH  10  11
ATOM     11  C   UNL     1       4.127  13.164  32.402  1.00  0.00     0.079 C 
BRANCH  11  12
ATOM     12  C   UNL     1       4.732  14.360  31.717  1.00  0.00     0.130 C 
ATOM     13  O   UNL     1       4.739  14.416  30.498  1.00  0.00    -0.300 OA
ATOM     14  C   UNL     1       5.338  15.484  32.505  1.00  0.00     0.087 C 
ENDBRANCH  11  12
ENDBRANCH  10  11
ENDBRANCH   2  10
TORSDOF 6
ENDMDL
MODEL 5
REMARK VINA RESULT:    -5.529      2.357      4.980
REMARK INTER + INTRA:          -8.641
REMARK INTER:                  -7.729
REMARK INTRA:                  -0.912
REMARK UNBOUND:                -1.173
REMARK SMILES CC(=O)CCC=C(C)CCC=C(C)C
REMARK SMILES IDX 7 1 6 2 8 3 9 4 10 5 11 6 13 7 12 8 14 9 5 10 4 11 2 12 3 13
REMARK SMILES IDX 1 14
REMARK H PARENT
REMARK Flexibility Score: inf
ROOT
ATOM      1  C   UNL     1       3.625  12.112  27.538  1.00  0.00    -0.077 C 
ATOM      2  C   UNL     1       3.773  13.456  27.482  1.00  0.00    -0.028 C 
ATOM      3  C   UNL     1       2.924  11.425  26.394  1.00  0.00     0.039 C 
ENDROOT
BRANCH   1   4
ATOM      4  C   UNL     1       4.173  11.256  28.669  1.00  0.00     0.034 C 
BRANCH   4   5
ATOM      5  C   UNL     1       3.055  10.697  29.563  1.00  0.00     0.032 C 
BRANCH   5   6
ATOM      6  C   UNL     1       2.071  11.764  29.980  1.00  0.00    -0.028 C 
ATOM      7  C   UNL     1       3.490  12.570  31.883  1.00  0.00     0.039 C 
ATOM      8  C   UNL     1       2.244  12.599  31.028  1.00  0.00    -0.080 C 
ATOM      9  C   UNL     1       1.151  13.587  31.344  1.00  0.00     0.039 C 
ENDBRANCH   5   6
ENDBRANCH   4   5
ENDBRANCH   1   4
BRANCH   2  10
ATOM     10  C   UNL     1       4.446  14.298  28.537  1.00  0.00     0.035 C 
BRANCH  10  11
ATOM     11  C   UNL     1       5.802  14.820  28.049  1.00  0.00     0.079 C 
BRANCH  11  12
ATOM     12  C   UNL     1       6.534  15.503  29.173  1.00  0.00     0.130 C 
ATOM     13  O   UNL     1       6.095  15.426  30.310  1.00  0.00    -0.300 OA
ATOM     14  C   UNL     1       7.789  16.286  28.923  1.00  0.00     0.087 C 
ENDBRANCH  11  12
ENDBRANCH  10  11
ENDBRANCH   2  10
TORSDOF 6
ENDMDL
MODEL 6
REMARK VINA RESULT:    -5.521      2.278      4.469
REMARK INTER + INTRA:          -8.631
REMARK INTER:                  -7.218
REMARK INTRA:                  -1.414
REMARK UNBOUND:                -1.173
REMARK SMILES CC(=O)CCC=C(C)CCC=C(C)C
REMARK SMILES IDX 7 1 6 2 8 3 9 4 10 5 11 6 13 7 12 8 14 9 5 10 4 11 2 12 3 13
REMARK SMILES IDX 1 14
REMARK H PARENT
REMARK Flexibility Score: inf
ROOT
ATOM      1  C   UNL     1       3.540  11.045  31.092  1.00  0.00    -0.077 C 
ATOM      2  C   UNL     1       3.792  10.583  29.845  1.00  0.00    -0.028 C 
ATOM      3  C   UNL     1       2.767  10.159  32.035  1.00  0.00     0.039 C 
ENDROOT
BRANCH   1   4
ATOM      4  C   UNL     1       4.039  12.386  31.605  1.00  0.00     0.034 C 
BRANCH   4   5
ATOM      5  C   UNL     1       2.889  13.377  31.842  1.00  0.00     0.032 C 
BRANCH   5   6
ATOM      6  C   UNL     1       2.086  13.629  30.588  1.00  0.00    -0.028 C 
ATOM      7  C   UNL     1      -0.077  12.896  31.620  1.00  0.00     0.039 C 
ATOM      8  C   UNL     1       0.760  13.402  30.468  1.00  0.00    -0.080 C 
ATOM      9  C   UNL     1       0.106  13.667  29.136  1.00  0.00     0.039 C 
ENDBRANCH   5   6
ENDBRANCH   4   5
ENDBRANCH   1   4
BRANCH   2  10
ATOM     10  C   UNL     1       4.547  11.336  28.779  1.00  0.00     0.035 C 
BRANCH  10  11
ATOM     11  C   UNL     1       3.592  12.114  27.867  1.00  0.00     0.079 C 
BRANCH  11  12
ATOM     12  C   UNL     1       4.162  13.470  27.548  1.00  0.00     0.130 C 
ATOM     13  O   UNL     1       3.836  14.031  26.514  1.00  0.00    -0.300 OA
ATOM     14  C   UNL     1       5.133  14.143  28.473  1.00  0.00     0.087 C 
ENDBRANCH  11  12
ENDBRANCH  10  11
ENDBRANCH   2  10
TORSDOF 6
ENDMDL
MODEL 7
REMARK VINA RESULT:    -5.473      1.504      2.127
REMARK INTER + INTRA:          -8.566
REMARK INTER:                  -7.660
REMARK INTRA:                  -0.907
REMARK UNBOUND:                -1.173
REMARK SMILES CC(=O)CCC=C(C)CCC=C(C)C
REMARK SMILES IDX 7 1 6 2 8 3 9 4 10 5 11 6 13 7 12 8 14 9 5 10 4 11 2 12 3 13
REMARK SMILES IDX 1 14
REMARK H PARENT
REMARK Flexibility Score: inf
ROOT
ATOM      1  C   UNL     1       3.488  11.597  28.411  1.00  0.00    -0.077 C 
ATOM      2  C   UNL     1       2.772  10.914  29.335  1.00  0.00    -0.028 C 
ATOM      3  C   UNL     1       3.005  11.579  26.984  1.00  0.00     0.039 C 
ENDROOT
BRANCH   1   4
ATOM      4  C   UNL     1       4.721  12.420  28.748  1.00  0.00     0.034 C 
BRANCH   4   5
ATOM      5  C   UNL     1       4.457  13.928  28.629  1.00  0.00     0.032 C 
BRANCH   5   6
ATOM      6  C   UNL     1       5.722  14.710  28.366  1.00  0.00    -0.028 C 
ATOM      7  C   UNL     1       5.980  15.427  30.753  1.00  0.00     0.039 C 
ATOM      8  C   UNL     1       6.406  15.401  29.303  1.00  0.00    -0.080 C 
ATOM      9  C   UNL     1       7.632  16.166  28.877  1.00  0.00     0.039 C 
ENDBRANCH   5   6
ENDBRANCH   4   5
ENDBRANCH   1   4
BRANCH   2  10
ATOM     10  C   UNL     1       3.114  10.826  30.802  1.00  0.00     0.035 C 
BRANCH  10  11
ATOM     11  C   UNL     1       1.997  11.418  31.668  1.00  0.00     0.079 C 
BRANCH  11  12
ATOM     12  C   UNL     1       1.976  12.917  31.539  1.00  0.00     0.130 C 
ATOM     13  O   UNL     1       2.964  13.561  31.854  1.00  0.00    -0.300 OA
ATOM     14  C   UNL     1       0.759  13.639  31.041  1.00  0.00     0.087 C 
ENDBRANCH  11  12
ENDBRANCH  10  11
ENDBRANCH   2  10
TORSDOF 6
ENDMDL
MODEL 8
REMARK VINA RESULT:    -5.438      1.320      2.911
REMARK INTER + INTRA:          -8.519
REMARK INTER:                  -7.174
REMARK INTRA:                  -1.345
REMARK UNBOUND:                -1.173
REMARK SMILES CC(=O)CCC=C(C)CCC=C(C)C
REMARK SMILES IDX 7 1 6 2 8 3 9 4 10 5 11 6 13 7 12 8 14 9 5 10 4 11 2 12 3 13
REMARK SMILES IDX 1 14
REMARK H PARENT
REMARK Flexibility Score: inf
ROOT
ATOM      1  C   UNL     1       2.850  13.452  27.786  1.00  0.00    -0.077 C 
ATOM      2  C   UNL     1       1.707  14.000  28.261  1.00  0.00    -0.028 C 
ATOM      3  C   UNL     1       3.754  14.313  26.942  1.00  0.00     0.039 C 
ENDROOT
BRANCH   1   4
ATOM      4  C   UNL     1       3.290  12.031  28.101  1.00  0.00     0.034 C 
BRANCH   4   5
ATOM      5  C   UNL     1       4.485  11.999  29.066  1.00  0.00     0.032 C 
BRANCH   5   6
ATOM      6  C   UNL     1       4.130  12.538  30.431  1.00  0.00    -0.028 C 
ATOM      7  C   UNL     1       5.352  14.699  30.087  1.00  0.00     0.039 C 
ATOM      8  C   UNL     1       4.525  13.738  30.910  1.00  0.00    -0.080 C 
ATOM      9  C   UNL     1       4.122  14.119  32.311  1.00  0.00     0.039 C 
ENDBRANCH   5   6
ENDBRANCH   4   5
ENDBRANCH   1   4
BRANCH   2  10
ATOM     10  C   UNL     1       0.693  13.282  29.116  1.00  0.00     0.035 C 
BRANCH  10  11
ATOM     11  C   UNL     1       0.632  13.881  30.526  1.00  0.00     0.079 C 
BRANCH  11  12
ATOM     12  C   UNL     1       0.264  12.820  31.528  1.00  0.00     0.130 C 
ATOM     13  O   UNL     1      -0.851  12.824  32.025  1.00  0.00    -0.300 OA
ATOM     14  C   UNL     1       1.244  11.760  31.936  1.00  0.00     0.087 C 
ENDBRANCH  11  12
ENDBRANCH  10  11
ENDBRANCH   2  10
TORSDOF 6
ENDMDL
MODEL 9
REMARK VINA RESULT:    -5.329      1.465      2.439
REMARK INTER + INTRA:          -8.371
REMARK INTER:                  -7.291
REMARK INTRA:                  -1.079
REMARK UNBOUND:                -1.173
REMARK SMILES CC(=O)CCC=C(C)CCC=C(C)C
REMARK SMILES IDX 7 1 6 2 8 3 9 4 10 5 11 6 13 7 12 8 14 9 5 10 4 11 2 12 3 13
REMARK SMILES IDX 1 14
REMARK H PARENT
REMARK Flexibility Score: inf
ROOT
ATOM      1  C   UNL     1       3.871  11.217  31.570  1.00  0.00    -0.077 C 
ATOM      2  C   UNL     1       3.666  12.472  32.034  1.00  0.00    -0.028 C 
ATOM      3  C   UNL     1       4.568  10.231  32.472  1.00  0.00     0.039 C 
ENDROOT
BRANCH   1   4
ATOM      4  C   UNL     1       3.390  10.738  30.210  1.00  0.00     0.034 C 
BRANCH   4   5
ATOM      5  C   UNL     1       4.465  10.911  29.125  1.00  0.00     0.032 C 
BRANCH   5   6
ATOM      6  C   UNL     1       4.444  12.294  28.517  1.00  0.00    -0.028 C 
ATOM      7  C   UNL     1       2.993  11.612  26.590  1.00  0.00     0.039 C 
ATOM      8  C   UNL     1       3.804  12.619  27.373  1.00  0.00    -0.080 C 
ATOM      9  C   UNL     1       3.910  14.036  26.871  1.00  0.00     0.039 C 
ENDBRANCH   5   6
ENDBRANCH   4   5
ENDBRANCH   1   4
BRANCH   2  10
ATOM     10  C   UNL     1       2.988  13.579  31.265  1.00  0.00     0.035 C 
BRANCH  10  11
ATOM     11  C   UNL     1       1.600  13.883  31.839  1.00  0.00     0.079 C 
BRANCH  11  12
ATOM     12  C   UNL     1       0.534  13.239  30.994  1.00  0.00     0.130 C 
ATOM     13  O   UNL     1      -0.447  12.750  31.533  1.00  0.00    -0.300 OA
ATOM     14  C   UNL     1       0.656  13.177  29.500  1.00  0.00     0.087 C 
ENDBRANCH  11  12
ENDBRANCH  10  11
ENDBRANCH   2  10
TORSDOF 6
ENDMDL
