MODEL 1
REMARK VINA RESULT:    -4.449      0.000      0.000
REMARK INTER + INTRA:          -6.024
REMARK INTER:                  -5.750
REMARK INTRA:                  -0.274
REMARK UNBOUND:                -0.274
REMARK SMILES CCCCCCC(=O)[O-]
REMARK SMILES IDX 5 1 6 2 7 3 8 4 9 5 4 6 3 7 2 8 1 9
REMARK H PARENT
REMARK Flexibility Score: inf
ROOT
ATOM      1  C   UNL     1      52.238  53.647  21.497  1.00  0.00     0.006 C 
ENDROOT
BRANCH   1   2
ATOM      2  C   UNL     1      52.891  54.346  22.696  1.00  0.00     0.053 C 
BRANCH   2   3
ATOM      3  C   UNL     1      52.542  53.638  23.967  1.00  0.00     0.041 C 
ATOM      4  O   UNL     1      51.380  53.728  24.445  1.00  0.00    -0.550 OA
ATOM      5  O   UNL     1      53.513  52.918  24.651  1.00  0.00    -0.550 OA
ENDBRANCH   2   3
ENDBRANCH   1   2
BRANCH   1   6
ATOM      6  C   UNL     1      52.707  52.191  21.323  1.00  0.00     0.000 C 
BRANCH   6   7
ATOM      7  C   UNL     1      51.585  51.175  21.042  1.00  0.00    -0.000 C 
BRANCH   7   8
ATOM      8  C   UNL     1      50.737  50.862  22.283  1.00  0.00    -0.003 C 
ATOM      9  C   UNL     1      50.320  49.394  22.307  1.00  0.00     0.004 C 
ENDBRANCH   7   8
ENDBRANCH   6   7
ENDBRANCH   1   6
TORSDOF 5
ENDMDL
MODEL 2
REMARK VINA RESULT:    -4.343      2.427      4.121
REMARK INTER + INTRA:          -5.886
REMARK INTER:                  -5.617
REMARK INTRA:                  -0.269
REMARK UNBOUND:                -0.274
REMARK SMILES CCCCCCC(=O)[O-]
REMARK SMILES IDX 5 1 6 2 7 3 8 4 9 5 4 6 3 7 2 8 1 9
REMARK H PARENT
REMARK Flexibility Score: inf
ROOT
ATOM      1  C   UNL     1      51.537  51.086  21.133  1.00  0.00     0.006 C 
ENDROOT
BRANCH   1   2
ATOM      2  C   UNL     1      50.488  51.257  22.239  1.00  0.00     0.053 C 
BRANCH   2   3
ATOM      3  C   UNL     1      50.098  49.926  22.800  1.00  0.00     0.041 C 
ATOM      4  O   UNL     1      50.742  48.891  22.484  1.00  0.00    -0.550 OA
ATOM      5  O   UNL     1      48.992  49.821  23.634  1.00  0.00    -0.550 OA
ENDBRANCH   2   3
ENDBRANCH   1   2
BRANCH   1   6
ATOM      6  C   UNL     1      52.645  52.152  21.188  1.00  0.00     0.000 C 
BRANCH   6   7
ATOM      7  C   UNL     1      52.156  53.585  21.472  1.00  0.00    -0.000 C 
BRANCH   7   8
ATOM      8  C   UNL     1      52.901  54.250  22.638  1.00  0.00    -0.003 C 
ATOM      9  C   UNL     1      53.745  53.235  23.402  1.00  0.00     0.004 C 
ENDBRANCH   7   8
ENDBRANCH   6   7
ENDBRANCH   1   6
TORSDOF 5
ENDMDL
MODEL 3
REMARK VINA RESULT:    -4.315      2.727      4.549
REMARK INTER + INTRA:          -5.850
REMARK INTER:                  -5.710
REMARK INTRA:                  -0.140
REMARK UNBOUND:                -0.274
REMARK SMILES CCCCCCC(=O)[O-]
REMARK SMILES IDX 5 1 6 2 7 3 8 4 9 5 4 6 3 7 2 8 1 9
REMARK H PARENT
REMARK Flexibility Score: inf
ROOT
ATOM      1  C   UNL     1      50.820  50.938  22.339  1.00  0.00     0.006 C 
ENDROOT
BRANCH   1   2
ATOM      2  C   UNL     1      50.307  49.521  22.051  1.00  0.00     0.053 C 
BRANCH   2   3
ATOM      3  C   UNL     1      50.071  48.781  23.330  1.00  0.00     0.041 C 
ATOM      4  O   UNL     1      50.892  47.908  23.719  1.00  0.00    -0.550 OA
ATOM      5  O   UNL     1      48.919  49.020  24.068  1.00  0.00    -0.550 OA
ENDBRANCH   2   3
ENDBRANCH   1   2
BRANCH   1   6
ATOM      6  C   UNL     1      51.542  51.570  21.136  1.00  0.00     0.000 C 
BRANCH   6   7
ATOM      7  C   UNL     1      52.886  52.246  21.465  1.00  0.00    -0.000 C 
BRANCH   7   8
ATOM      8  C   UNL     1      52.789  53.230  22.640  1.00  0.00    -0.003 C 
ATOM      9  C   UNL     1      54.046  53.181  23.504  1.00  0.00     0.004 C 
ENDBRANCH   7   8
ENDBRANCH   6   7
ENDBRANCH   1   6
TORSDOF 5
ENDMDL
MODEL 4
REMARK VINA RESULT:    -4.309      1.032      1.410
REMARK INTER + INTRA:          -5.843
REMARK INTER:                  -5.599
REMARK INTRA:                  -0.244
REMARK UNBOUND:                -0.274
REMARK SMILES CCCCCCC(=O)[O-]
REMARK SMILES IDX 5 1 6 2 7 3 8 4 9 5 4 6 3 7 2 8 1 9
REMARK H PARENT
REMARK Flexibility Score: inf
ROOT
ATOM      1  C   UNL     1      52.774  52.145  21.130  1.00  0.00     0.006 C 
ENDROOT
BRANCH   1   2
ATOM      2  C   UNL     1      52.326  53.425  21.848  1.00  0.00     0.053 C 
BRANCH   2   3
ATOM      3  C   UNL     1      53.184  53.679  23.046  1.00  0.00     0.041 C 
ATOM      4  O   UNL     1      52.966  54.676  23.784  1.00  0.00    -0.550 OA
ATOM      5  O   UNL     1      54.258  52.841  23.322  1.00  0.00    -0.550 OA
ENDBRANCH   2   3
ENDBRANCH   1   2
BRANCH   1   6
ATOM      6  C   UNL     1      51.675  51.069  21.081  1.00  0.00     0.000 C 
BRANCH   6   7
ATOM      7  C   UNL     1      50.299  51.520  21.606  1.00  0.00    -0.000 C 
BRANCH   7   8
ATOM      8  C   UNL     1      49.681  50.522  22.596  1.00  0.00    -0.003 C 
ATOM      9  C   UNL     1      50.364  49.160  22.502  1.00  0.00     0.004 C 
ENDBRANCH   7   8
ENDBRANCH   6   7
ENDBRANCH   1   6
TORSDOF 5
ENDMDL
MODEL 5
REMARK VINA RESULT:    -4.259      1.591      3.572
REMARK INTER + INTRA:          -5.777
REMARK INTER:                  -5.457
REMARK INTRA:                  -0.320
REMARK UNBOUND:                -0.274
REMARK SMILES CCCCCCC(=O)[O-]
REMARK SMILES IDX 5 1 6 2 7 3 8 4 9 5 4 6 3 7 2 8 1 9
REMARK H PARENT
REMARK Flexibility Score: inf
ROOT
ATOM      1  C   UNL     1      51.398  51.239  21.134  1.00  0.00     0.006 C 
ENDROOT
BRANCH   1   2
ATOM      2  C   UNL     1      50.737  50.936  22.484  1.00  0.00     0.053 C 
BRANCH   2   3
ATOM      3  C   UNL     1      49.733  51.991  22.824  1.00  0.00     0.041 C 
ATOM      4  O   UNL     1      48.877  52.350  21.972  1.00  0.00    -0.550 OA
ATOM      5  O   UNL     1      49.773  52.615  24.064  1.00  0.00    -0.550 OA
ENDBRANCH   2   3
ENDBRANCH   1   2
BRANCH   1   6
ATOM      6  C   UNL     1      52.628  52.155  21.260  1.00  0.00     0.000 C 
BRANCH   6   7
ATOM      7  C   UNL     1      52.313  53.660  21.344  1.00  0.00    -0.000 C 
BRANCH   7   8
ATOM      8  C   UNL     1      52.844  54.310  22.630  1.00  0.00    -0.003 C 
ATOM      9  C   UNL     1      53.682  53.325  23.439  1.00  0.00     0.004 C 
ENDBRANCH   7   8
ENDBRANCH   6   7
ENDBRANCH   1   6
TORSDOF 5
ENDMDL
MODEL 6
REMARK VINA RESULT:    -4.232      1.780      3.798
REMARK INTER + INTRA:          -5.743
REMARK INTER:                  -5.361
REMARK INTRA:                  -0.383
REMARK UNBOUND:                -0.274
REMARK SMILES CCCCCCC(=O)[O-]
REMARK SMILES IDX 5 1 6 2 7 3 8 4 9 5 4 6 3 7 2 8 1 9
REMARK H PARENT
REMARK Flexibility Score: inf
ROOT
ATOM      1  C   UNL     1      51.261  51.242  21.109  1.00  0.00     0.006 C 
ENDROOT
BRANCH   1   2
ATOM      2  C   UNL     1      50.714  50.712  22.441  1.00  0.00     0.053 C 
BRANCH   2   3
ATOM      3  C   UNL     1      49.560  51.546  22.900  1.00  0.00     0.041 C 
ATOM      4  O   UNL     1      49.750  52.525  23.669  1.00  0.00    -0.550 OA
ATOM      5  O   UNL     1      48.266  51.212  22.519  1.00  0.00    -0.550 OA
ENDBRANCH   2   3
ENDBRANCH   1   2
BRANCH   1   6
ATOM      6  C   UNL     1      52.496  52.143  21.285  1.00  0.00     0.000 C 
BRANCH   6   7
ATOM      7  C   UNL     1      52.198  53.653  21.336  1.00  0.00    -0.000 C 
BRANCH   7   8
ATOM      8  C   UNL     1      52.774  54.334  22.586  1.00  0.00    -0.003 C 
ATOM      9  C   UNL     1      53.631  53.364  23.395  1.00  0.00     0.004 C 
ENDBRANCH   7   8
ENDBRANCH   6   7
ENDBRANCH   1   6
TORSDOF 5
ENDMDL
MODEL 7
REMARK VINA RESULT:    -3.932      1.525      2.239
REMARK INTER + INTRA:          -5.355
REMARK INTER:                  -5.059
REMARK INTRA:                  -0.297
REMARK UNBOUND:                -0.274
REMARK SMILES CCCCCCC(=O)[O-]
REMARK SMILES IDX 5 1 6 2 7 3 8 4 9 5 4 6 3 7 2 8 1 9
REMARK H PARENT
REMARK Flexibility Score: inf
ROOT
ATOM      1  C   UNL     1      50.383  52.905  23.946  1.00  0.00     0.006 C 
ENDROOT
BRANCH   1   2
ATOM      2  C   UNL     1      51.268  54.062  24.425  1.00  0.00     0.053 C 
BRANCH   2   3
ATOM      3  C   UNL     1      52.672  53.881  23.943  1.00  0.00     0.041 C 
ATOM      4  O   UNL     1      53.095  54.538  22.955  1.00  0.00    -0.550 OA
ATOM      5  O   UNL     1      53.502  52.949  24.555  1.00  0.00    -0.550 OA
ENDBRANCH   2   3
ENDBRANCH   1   2
BRANCH   1   6
ATOM      6  C   UNL     1      50.048  52.987  22.446  1.00  0.00     0.000 C 
BRANCH   6   7
ATOM      7  C   UNL     1      49.738  51.637  21.774  1.00  0.00    -0.000 C 
BRANCH   7   8
ATOM      8  C   UNL     1      50.988  50.768  21.572  1.00  0.00    -0.003 C 
ATOM      9  C   UNL     1      52.162  51.604  21.070  1.00  0.00     0.004 C 
ENDBRANCH   7   8
ENDBRANCH   6   7
ENDBRANCH   1   6
TORSDOF 5
ENDMDL
MODEL 8
REMARK VINA RESULT:    -3.903      2.303      3.515
REMARK INTER + INTRA:          -5.318
REMARK INTER:                  -4.894
REMARK INTRA:                  -0.423
REMARK UNBOUND:                -0.274
REMARK SMILES CCCCCCC(=O)[O-]
REMARK SMILES IDX 5 1 6 2 7 3 8 4 9 5 4 6 3 7 2 8 1 9
REMARK H PARENT
REMARK Flexibility Score: inf
ROOT
ATOM      1  C   UNL     1      51.150  53.969  24.322  1.00  0.00     0.006 C 
ENDROOT
BRANCH   1   2
ATOM      2  C   UNL     1      49.887  53.111  24.473  1.00  0.00     0.053 C 
BRANCH   2   3
ATOM      3  C   UNL     1      49.654  52.302  23.236  1.00  0.00     0.041 C 
ATOM      4  O   UNL     1      49.289  52.864  22.169  1.00  0.00    -0.550 OA
ATOM      5  O   UNL     1      49.792  50.920  23.273  1.00  0.00    -0.550 OA
ENDBRANCH   2   3
ENDBRANCH   1   2
BRANCH   1   6
ATOM      6  C   UNL     1      52.434  53.129  24.202  1.00  0.00     0.000 C 
BRANCH   6   7
ATOM      7  C   UNL     1      53.380  53.548  23.062  1.00  0.00    -0.000 C 
BRANCH   7   8
ATOM      8  C   UNL     1      52.719  53.475  21.678  1.00  0.00    -0.003 C 
ATOM      9  C   UNL     1      52.737  52.049  21.135  1.00  0.00     0.004 C 
ENDBRANCH   7   8
ENDBRANCH   6   7
ENDBRANCH   1   6
TORSDOF 5
ENDMDL
MODEL 9
REMARK VINA RESULT:    -3.794      2.594      3.657
REMARK INTER + INTRA:          -5.177
REMARK INTER:                  -4.938
REMARK INTRA:                  -0.239
REMARK UNBOUND:                -0.274
REMARK SMILES CCCCCCC(=O)[O-]
REMARK SMILES IDX 5 1 6 2 7 3 8 4 9 5 4 6 3 7 2 8 1 9
REMARK H PARENT
REMARK Flexibility Score: inf
ROOT
ATOM      1  C   UNL     1      50.342  53.278  23.948  1.00  0.00     0.006 C 
ENDROOT
BRANCH   1   2
ATOM      2  C   UNL     1      49.302  52.158  23.818  1.00  0.00     0.053 C 
BRANCH   2   3
ATOM      3  C   UNL     1      48.338  52.206  24.960  1.00  0.00     0.041 C 
ATOM      4  O   UNL     1      47.244  51.585  24.894  1.00  0.00    -0.550 OA
ATOM      5  O   UNL     1      48.625  52.976  26.081  1.00  0.00    -0.550 OA
ENDBRANCH   2   3
ENDBRANCH   1   2
BRANCH   1   6
ATOM      6  C   UNL     1      51.738  52.862  23.452  1.00  0.00     0.000 C 
BRANCH   6   7
ATOM      7  C   UNL     1      52.070  53.288  22.010  1.00  0.00    -0.000 C 
BRANCH   7   8
ATOM      8  C   UNL     1      52.562  52.123  21.140  1.00  0.00    -0.003 C 
ATOM      9  C   UNL     1      51.562  50.970  21.148  1.00  0.00     0.004 C 
ENDBRANCH   7   8
ENDBRANCH   6   7
ENDBRANCH   1   6
TORSDOF 5
ENDMDL
