MODEL 1
REMARK VINA RESULT:    -4.357      0.000      0.000
REMARK INTER + INTRA:          -6.631
REMARK INTER:                  -6.649
REMARK INTRA:                   0.018
REMARK UNBOUND:                 0.018
REMARK SMILES CC1=CCC[C@@H](C)C(=O)C[C@H](C(C)C)C(=O)C1
REMARK SMILES IDX 8 1 9 2 6 3 7 4 5 5 4 6 3 7 2 8 1 9 10 11 11 12 15 13 16 14
REMARK SMILES IDX 17 15 12 17 13 18 14 19
REMARK H PARENT
REMARK Flexibility Score: 70.00
ROOT
ATOM      1  C   UNL     1     251.235 258.423 247.249  1.00  0.00     0.136 C 
ATOM      2  O   UNL     1     250.629 259.416 246.872  1.00  0.00    -0.299 OA
ENDROOT
BRANCH   1   3
ATOM      3  C   UNL     1     252.724 258.507 247.521  1.00  0.00     0.053 C 
ATOM      4  C   UNL     1     253.484 258.467 246.192  1.00  0.00     0.016 C 
BRANCH   3   5
ATOM      5  C   UNL     1     253.203 257.366 248.448  1.00  0.00     0.015 C 
BRANCH   5   6
ATOM      6  C   UNL     1     254.160 256.383 247.755  1.00  0.00     0.028 C 
BRANCH   6   7
ATOM      7  C   UNL     1     253.666 254.960 247.873  1.00  0.00    -0.028 C 
ATOM      8  C   UNL     1     252.834 254.340 247.006  1.00  0.00    -0.070 CG0
ATOM      9  C   UNL     1     252.451 252.910 247.295  1.00  0.00     0.039 C 
ATOM     10  G   UNL     1     252.247 255.020 245.785  1.00  0.00     0.000 G0
ENDBRANCH   6   7
ENDBRANCH   5   6
ENDBRANCH   3   5
ENDBRANCH   1   3
BRANCH   1  11
ATOM     11  C   UNL     1     250.477 257.137 247.455  1.00  0.00     0.087 C 
BRANCH  11  12
ATOM     12  C   UNL     1     250.053 256.494 246.112  1.00  0.00     0.066 C 
BRANCH  12  13
ATOM     13  C   UNL     1     250.732 255.149 245.911  1.00  0.00     0.140 C 
ATOM     14  O   UNL     1     250.056 254.133 245.825  1.00  0.00    -0.299 OA
BRANCH  13  15
ATOM     15  C   UNL     1     252.229 255.040 245.770  1.00  0.00     0.106 CG0
ATOM     16  G   UNL     1     252.834 254.331 246.965  1.00  0.00     0.000 G0
ENDBRANCH  13  15
ENDBRANCH  12  13
BRANCH  12  17
ATOM     17  C   UNL     1     248.502 256.396 245.980  1.00  0.00    -0.006 C 
ATOM     18  C   UNL     1     247.858 257.602 245.274  1.00  0.00     0.008 C 
ATOM     19  C   UNL     1     247.836 256.165 247.344  1.00  0.00     0.008 C 
ENDBRANCH  12  17
ENDBRANCH  11  12
ENDBRANCH   1  11
TORSDOF 1
ENDMDL
MODEL 2
REMARK VINA RESULT:    -4.239      2.477      3.659
REMARK INTER + INTRA:          -6.452
REMARK INTER:                  -6.191
REMARK INTRA:                  -0.261
REMARK UNBOUND:                 0.018
REMARK SMILES CC1=CCC[C@@H](C)C(=O)C[C@H](C(C)C)C(=O)C1
REMARK SMILES IDX 8 1 9 2 6 3 7 4 5 5 4 6 3 7 2 8 1 9 10 11 11 12 15 13 16 14
REMARK SMILES IDX 17 15 12 17 13 18 14 19
REMARK H PARENT
REMARK Flexibility Score: 70.00
ROOT
ATOM      1  C   UNL     1     254.513 257.524 249.466  1.00  0.00     0.136 C 
ATOM      2  O   UNL     1     255.036 258.593 249.749  1.00  0.00    -0.299 OA
ENDROOT
BRANCH   1   3
ATOM      3  C   UNL     1     255.175 256.227 249.886  1.00  0.00     0.053 C 
ATOM      4  C   UNL     1     255.565 256.313 251.365  1.00  0.00     0.016 C 
BRANCH   3   5
ATOM      5  C   UNL     1     256.417 255.911 249.021  1.00  0.00     0.015 C 
BRANCH   5   6
ATOM      6  C   UNL     1     256.154 254.841 247.950  1.00  0.00     0.028 C 
BRANCH   6   7
ATOM      7  C   UNL     1     255.021 253.927 248.354  1.00  0.00    -0.028 C 
ATOM      8  C   UNL     1     253.832 253.815 247.720  1.00  0.00    -0.070 CG0
ATOM      9  C   UNL     1     252.822 252.843 248.277  1.00  0.00     0.039 C 
ATOM     10  G   UNL     1     253.458 254.640 246.504  1.00  0.00     0.000 G0
ENDBRANCH   6   7
ENDBRANCH   5   6
ENDBRANCH   3   5
ENDBRANCH   1   3
BRANCH   1  11
ATOM     11  C   UNL     1     253.205 257.525 248.719  1.00  0.00     0.087 C 
BRANCH  11  12
ATOM     12  C   UNL     1     253.391 257.170 247.223  1.00  0.00     0.066 C 
BRANCH  12  13
ATOM     13  C   UNL     1     252.678 255.873 246.876  1.00  0.00     0.140 C 
ATOM     14  O   UNL     1     251.456 255.834 246.868  1.00  0.00    -0.299 OA
BRANCH  13  15
ATOM     15  C   UNL     1     253.448 254.634 246.496  1.00  0.00     0.106 CG0
ATOM     16  G   UNL     1     253.841 253.842 247.728  1.00  0.00     0.000 G0
ENDBRANCH  13  15
ENDBRANCH  12  13
BRANCH  12  17
ATOM     17  C   UNL     1     252.965 258.344 246.291  1.00  0.00    -0.006 C 
ATOM     18  C   UNL     1     254.141 259.182 245.764  1.00  0.00     0.008 C 
ATOM     19  C   UNL     1     251.930 259.254 246.971  1.00  0.00     0.008 C 
ENDBRANCH  12  17
ENDBRANCH  11  12
ENDBRANCH   1  11
TORSDOF 1
ENDMDL
MODEL 3
REMARK VINA RESULT:    -4.222      2.163      4.203
REMARK INTER + INTRA:          -6.426
REMARK INTER:                  -6.189
REMARK INTRA:                  -0.237
REMARK UNBOUND:                 0.018
REMARK SMILES CC1=CCC[C@@H](C)C(=O)C[C@H](C(C)C)C(=O)C1
REMARK SMILES IDX 8 1 9 2 6 3 7 4 5 5 4 6 3 7 2 8 1 9 10 11 11 12 15 13 16 14
REMARK SMILES IDX 17 15 12 17 13 18 14 19
REMARK H PARENT
REMARK Flexibility Score: 70.00
ROOT
ATOM      1  C   UNL     1     254.843 257.640 248.904  1.00  0.00     0.136 C 
ATOM      2  O   UNL     1     255.953 258.155 248.907  1.00  0.00    -0.299 OA
ENDROOT
BRANCH   1   3
ATOM      3  C   UNL     1     254.698 256.161 249.198  1.00  0.00     0.053 C 
ATOM      4  C   UNL     1     255.607 255.785 250.372  1.00  0.00     0.016 C 
BRANCH   3   5
ATOM      5  C   UNL     1     255.034 255.295 247.961  1.00  0.00     0.015 C 
BRANCH   5   6
ATOM      6  C   UNL     1     253.804 254.603 247.353  1.00  0.00     0.028 C 
BRANCH   6   7
ATOM      7  C   UNL     1     252.586 254.780 248.230  1.00  0.00    -0.028 C 
ATOM      8  C   UNL     1     251.532 255.583 247.963  1.00  0.00    -0.070 CG0
ATOM      9  C   UNL     1     250.405 255.626 248.964  1.00  0.00     0.039 C 
ATOM     10  G   UNL     1     251.447 256.461 246.730  1.00  0.00     0.000 G0
ENDBRANCH   6   7
ENDBRANCH   5   6
ENDBRANCH   3   5
ENDBRANCH   1   3
BRANCH   1  11
ATOM     11  C   UNL     1     253.639 258.501 248.627  1.00  0.00     0.087 C 
BRANCH  11  12
ATOM     12  C   UNL     1     253.189 258.409 247.148  1.00  0.00     0.066 C 
BRANCH  12  13
ATOM     13  C   UNL     1     251.758 257.905 247.042  1.00  0.00     0.140 C 
ATOM     14  O   UNL     1     250.827 258.683 247.188  1.00  0.00    -0.299 OA
BRANCH  13  15
ATOM     15  C   UNL     1     251.459 256.464 246.716  1.00  0.00     0.106 CG0
ATOM     16  G   UNL     1     251.554 255.597 247.956  1.00  0.00     0.000 G0
ENDBRANCH  13  15
ENDBRANCH  12  13
BRANCH  12  17
ATOM     17  C   UNL     1     253.395 259.758 246.394  1.00  0.00    -0.006 C 
ATOM     18  C   UNL     1     254.552 259.736 245.381  1.00  0.00     0.008 C 
ATOM     19  C   UNL     1     253.571 260.928 247.373  1.00  0.00     0.008 C 
ENDBRANCH  12  17
ENDBRANCH  11  12
ENDBRANCH   1  11
TORSDOF 1
ENDMDL
MODEL 4
REMARK VINA RESULT:    -4.192      3.765      6.253
REMARK INTER + INTRA:          -6.380
REMARK INTER:                  -6.463
REMARK INTRA:                   0.083
REMARK UNBOUND:                 0.018
REMARK SMILES CC1=CCC[C@@H](C)C(=O)C[C@H](C(C)C)C(=O)C1
REMARK SMILES IDX 8 1 9 2 6 3 7 4 5 5 4 6 3 7 2 8 1 9 10 11 11 12 15 13 16 14
REMARK SMILES IDX 17 15 12 17 13 18 14 19
REMARK H PARENT
REMARK Flexibility Score: 70.00
ROOT
ATOM      1  C   UNL     1     256.044 260.830 246.604  1.00  0.00     0.136 C 
ATOM      2  O   UNL     1     256.613 261.750 246.032  1.00  0.00    -0.299 OA
ENDROOT
BRANCH   1   3
ATOM      3  C   UNL     1     254.769 260.255 246.021  1.00  0.00     0.053 C 
ATOM      4  C   UNL     1     254.880 260.220 244.494  1.00  0.00     0.016 C 
BRANCH   3   5
ATOM      5  C   UNL     1     253.525 261.066 246.450  1.00  0.00     0.015 C 
BRANCH   5   6
ATOM      6  C   UNL     1     252.490 260.230 247.218  1.00  0.00     0.028 C 
BRANCH   6   7
ATOM      7  C   UNL     1     252.650 258.756 246.926  1.00  0.00    -0.028 C 
ATOM      8  C   UNL     1     253.178 257.837 247.765  1.00  0.00    -0.070 CG0
ATOM      9  C   UNL     1     253.254 256.407 247.291  1.00  0.00     0.039 C 
ATOM     10  G   UNL     1     253.726 258.181 249.136  1.00  0.00     0.000 G0
ENDBRANCH   6   7
ENDBRANCH   5   6
ENDBRANCH   3   5
ENDBRANCH   1   3
BRANCH   1  11
ATOM     11  C   UNL     1     256.641 260.277 247.871  1.00  0.00     0.087 C 
BRANCH  11  12
ATOM     12  C   UNL     1     255.570 260.058 248.968  1.00  0.00     0.066 C 
BRANCH  12  13
ATOM     13  C   UNL     1     255.181 258.592 249.069  1.00  0.00     0.140 C 
ATOM     14  O   UNL     1     256.051 257.734 249.123  1.00  0.00    -0.299 OA
BRANCH  13  15
ATOM     15  C   UNL     1     253.736 258.169 249.146  1.00  0.00     0.106 CG0
ATOM     16  G   UNL     1     253.193 257.844 247.769  1.00  0.00     0.000 G0
ENDBRANCH  13  15
ENDBRANCH  12  13
BRANCH  12  17
ATOM     17  C   UNL     1     256.019 260.644 250.342  1.00  0.00    -0.006 C 
ATOM     18  C   UNL     1     254.867 261.223 251.180  1.00  0.00     0.008 C 
ATOM     19  C   UNL     1     257.127 261.694 250.170  1.00  0.00     0.008 C 
ENDBRANCH  12  17
ENDBRANCH  11  12
ENDBRANCH   1  11
TORSDOF 1
ENDMDL
MODEL 5
REMARK VINA RESULT:    -4.123      1.851      2.555
REMARK INTER + INTRA:          -6.274
REMARK INTER:                  -6.123
REMARK INTRA:                  -0.151
REMARK UNBOUND:                 0.018
REMARK SMILES CC1=CCC[C@@H](C)C(=O)C[C@H](C(C)C)C(=O)C1
REMARK SMILES IDX 8 1 9 2 6 3 7 4 5 5 4 6 3 7 2 8 1 9 10 11 11 12 15 13 16 14
REMARK SMILES IDX 17 15 12 17 13 18 14 19
REMARK H PARENT
REMARK Flexibility Score: 70.00
ROOT
ATOM      1  C   UNL     1     250.804 258.240 247.246  1.00  0.00     0.136 C 
ATOM      2  O   UNL     1     251.125 259.359 246.869  1.00  0.00    -0.299 OA
ENDROOT
BRANCH   1   3
ATOM      3  C   UNL     1     251.848 257.145 247.328  1.00  0.00     0.053 C 
ATOM      4  C   UNL     1     253.092 257.682 248.043  1.00  0.00     0.016 C 
BRANCH   3   5
ATOM      5  C   UNL     1     252.225 256.605 245.929  1.00  0.00     0.015 C 
BRANCH   5   6
ATOM      6  C   UNL     1     251.734 255.171 245.680  1.00  0.00     0.028 C 
BRANCH   6   7
ATOM      7  C   UNL     1     251.460 254.451 246.980  1.00  0.00    -0.028 C 
ATOM      8  C   UNL     1     250.240 254.105 247.449  1.00  0.00    -0.070 CG0
ATOM      9  C   UNL     1     250.169 253.388 248.773  1.00  0.00     0.039 C 
ATOM     10  G   UNL     1     248.948 254.433 246.726  1.00  0.00     0.000 G0
ENDBRANCH   6   7
ENDBRANCH   5   6
ENDBRANCH   3   5
ENDBRANCH   1   3
BRANCH   1  11
ATOM     11  C   UNL     1     249.373 257.984 247.640  1.00  0.00     0.087 C 
BRANCH  11  12
ATOM     12  C   UNL     1     248.651 257.059 246.630  1.00  0.00     0.066 C 
BRANCH  12  13
ATOM     13  C   UNL     1     248.322 255.714 247.257  1.00  0.00     0.140 C 
ATOM     14  O   UNL     1     247.533 255.654 248.190  1.00  0.00    -0.299 OA
BRANCH  13  15
ATOM     15  C   UNL     1     248.918 254.435 246.725  1.00  0.00     0.106 CG0
ATOM     16  G   UNL     1     250.216 254.107 247.435  1.00  0.00     0.000 G0
ENDBRANCH  13  15
ENDBRANCH  12  13
BRANCH  12  17
ATOM     17  C   UNL     1     247.393 257.744 246.013  1.00  0.00    -0.006 C 
ATOM     18  C   UNL     1     246.412 256.765 245.346  1.00  0.00     0.008 C 
ATOM     19  C   UNL     1     247.786 258.854 245.027  1.00  0.00     0.008 C 
ENDBRANCH  12  17
ENDBRANCH  11  12
ENDBRANCH   1  11
TORSDOF 1
ENDMDL
MODEL 6
REMARK VINA RESULT:    -4.096      2.376      4.759
REMARK INTER + INTRA:          -6.234
REMARK INTER:                  -6.399
REMARK INTRA:                   0.166
REMARK UNBOUND:                 0.018
REMARK SMILES CC1=CCC[C@@H](C)C(=O)C[C@H](C(C)C)C(=O)C1
REMARK SMILES IDX 8 1 9 2 6 3 7 4 5 5 4 6 3 7 2 8 1 9 10 11 11 12 15 13 16 14
REMARK SMILES IDX 17 15 12 17 13 18 14 19
REMARK H PARENT
REMARK Flexibility Score: 70.00
ROOT
ATOM      1  C   UNL     1     252.400 256.667 246.529  1.00  0.00     0.136 C 
ATOM      2  O   UNL     1     251.460 257.277 247.020  1.00  0.00    -0.299 OA
ENDROOT
BRANCH   1   3
ATOM      3  C   UNL     1     252.190 255.264 245.994  1.00  0.00     0.053 C 
ATOM      4  C   UNL     1     250.784 255.154 245.396  1.00  0.00     0.016 C 
BRANCH   3   5
ATOM      5  C   UNL     1     252.391 254.196 247.094  1.00  0.00     0.015 C 
BRANCH   5   6
ATOM      6  C   UNL     1     253.868 253.878 247.368  1.00  0.00     0.028 C 
BRANCH   6   7
ATOM      7  C   UNL     1     254.222 254.121 248.817  1.00  0.00    -0.028 C 
ATOM      8  C   UNL     1     254.948 255.159 249.289  1.00  0.00    -0.070 CG0
ATOM      9  C   UNL     1     255.198 255.230 250.774  1.00  0.00     0.039 C 
ATOM     10  G   UNL     1     255.546 256.229 248.396  1.00  0.00     0.000 G0
ENDBRANCH   6   7
ENDBRANCH   5   6
ENDBRANCH   3   5
ENDBRANCH   1   3
BRANCH   1  11
ATOM     11  C   UNL     1     253.746 257.338 246.449  1.00  0.00     0.087 C 
BRANCH  11  12
ATOM     12  C   UNL     1     254.007 258.258 247.668  1.00  0.00     0.066 C 
BRANCH  12  13
ATOM     13  C   UNL     1     254.944 257.594 248.664  1.00  0.00     0.140 C 
ATOM     14  O   UNL     1     255.189 258.143 249.729  1.00  0.00    -0.299 OA
BRANCH  13  15
ATOM     15  C   UNL     1     255.550 256.242 248.387  1.00  0.00     0.106 CG0
ATOM     16  G   UNL     1     254.933 255.180 249.277  1.00  0.00     0.000 G0
ENDBRANCH  13  15
ENDBRANCH  12  13
BRANCH  12  17
ATOM     17  C   UNL     1     254.514 259.667 247.232  1.00  0.00    -0.006 C 
ATOM     18  C   UNL     1     253.749 260.833 247.880  1.00  0.00     0.008 C 
ATOM     19  C   UNL     1     254.512 259.817 245.703  1.00  0.00     0.008 C 
ENDBRANCH  12  17
ENDBRANCH  11  12
ENDBRANCH   1  11
TORSDOF 1
ENDMDL
MODEL 7
REMARK VINA RESULT:    -4.033      2.880      5.244
REMARK INTER + INTRA:          -6.137
REMARK INTER:                  -6.283
REMARK INTRA:                   0.145
REMARK UNBOUND:                 0.018
REMARK SMILES CC1=CCC[C@@H](C)C(=O)C[C@H](C(C)C)C(=O)C1
REMARK SMILES IDX 8 1 9 2 6 3 7 4 5 5 4 6 3 7 2 8 1 9 10 11 11 12 15 13 16 14
REMARK SMILES IDX 17 15 12 17 13 18 14 19
REMARK H PARENT
REMARK Flexibility Score: 70.00
ROOT
ATOM      1  C   UNL     1     255.478 258.850 249.230  1.00  0.00     0.136 C 
ATOM      2  O   UNL     1     255.207 258.702 250.414  1.00  0.00    -0.299 OA
ENDROOT
BRANCH   1   3
ATOM      3  C   UNL     1     255.578 260.245 248.648  1.00  0.00     0.053 C 
ATOM      4  C   UNL     1     256.521 261.089 249.512  1.00  0.00     0.016 C 
BRANCH   3   5
ATOM      5  C   UNL     1     254.193 260.924 248.546  1.00  0.00     0.015 C 
BRANCH   5   6
ATOM      6  C   UNL     1     253.538 260.763 247.166  1.00  0.00     0.028 C 
BRANCH   6   7
ATOM      7  C   UNL     1     252.324 259.866 247.236  1.00  0.00    -0.028 C 
ATOM      8  C   UNL     1     252.293 258.553 246.915  1.00  0.00    -0.070 CG0
ATOM      9  C   UNL     1     250.981 257.822 247.050  1.00  0.00     0.039 C 
ATOM     10  G   UNL     1     253.500 257.795 246.397  1.00  0.00     0.000 G0
ENDBRANCH   6   7
ENDBRANCH   5   6
ENDBRANCH   3   5
ENDBRANCH   1   3
BRANCH   1  11
ATOM     11  C   UNL     1     255.727 257.631 248.380  1.00  0.00     0.087 C 
BRANCH  11  12
ATOM     12  C   UNL     1     254.588 256.590 248.512  1.00  0.00     0.066 C 
BRANCH  12  13
ATOM     13  C   UNL     1     253.740 256.545 247.251  1.00  0.00     0.140 C 
ATOM     14  O   UNL     1     253.211 255.496 246.912  1.00  0.00    -0.299 OA
BRANCH  13  15
ATOM     15  C   UNL     1     253.499 257.782 246.425  1.00  0.00     0.106 CG0
ATOM     16  G   UNL     1     252.293 258.546 246.935  1.00  0.00     0.000 G0
ENDBRANCH  13  15
ENDBRANCH  12  13
BRANCH  12  17
ATOM     17  C   UNL     1     255.132 255.183 248.907  1.00  0.00    -0.006 C 
ATOM     18  C   UNL     1     254.136 254.333 249.714  1.00  0.00     0.008 C 
ATOM     19  C   UNL     1     256.468 255.288 249.658  1.00  0.00     0.008 C 
ENDBRANCH  12  17
ENDBRANCH  11  12
ENDBRANCH   1  11
TORSDOF 1
ENDMDL
MODEL 8
REMARK VINA RESULT:    -3.936      3.149      5.348
REMARK INTER + INTRA:          -5.990
REMARK INTER:                  -5.871
REMARK INTRA:                  -0.118
REMARK UNBOUND:                 0.018
REMARK SMILES CC1=CCC[C@@H](C)C(=O)C[C@H](C(C)C)C(=O)C1
REMARK SMILES IDX 8 1 9 2 6 3 7 4 5 5 4 6 3 7 2 8 1 9 10 11 11 12 15 13 16 14
REMARK SMILES IDX 17 15 12 17 13 18 14 19
REMARK H PARENT
REMARK Flexibility Score: 70.00
ROOT
ATOM      1  C   UNL     1     254.618 259.948 247.521  1.00  0.00     0.136 C 
ATOM      2  O   UNL     1     254.102 261.026 247.780  1.00  0.00    -0.299 OA
ENDROOT
BRANCH   1   3
ATOM      3  C   UNL     1     254.212 259.199 246.268  1.00  0.00     0.053 C 
ATOM      4  C   UNL     1     254.531 260.056 245.039  1.00  0.00     0.016 C 
BRANCH   3   5
ATOM      5  C   UNL     1     252.711 258.825 246.285  1.00  0.00     0.015 C 
BRANCH   5   6
ATOM      6  C   UNL     1     252.344 257.841 247.407  1.00  0.00     0.028 C 
BRANCH   6   7
ATOM      7  C   UNL     1     252.910 256.466 247.137  1.00  0.00    -0.028 C 
ATOM      8  C   UNL     1     253.621 255.719 248.012  1.00  0.00    -0.070 CG0
ATOM      9  C   UNL     1     254.104 254.365 247.557  1.00  0.00     0.039 C 
ATOM     10  G   UNL     1     253.982 256.192 249.407  1.00  0.00     0.000 G0
ENDBRANCH   6   7
ENDBRANCH   5   6
ENDBRANCH   3   5
ENDBRANCH   1   3
BRANCH   1  11
ATOM     11  C   UNL     1     255.667 259.398 248.452  1.00  0.00     0.087 C 
BRANCH  11  12
ATOM     12  C   UNL     1     255.042 258.599 249.623  1.00  0.00     0.066 C 
BRANCH  12  13
ATOM     13  C   UNL     1     255.187 257.102 249.403  1.00  0.00     0.140 C 
ATOM     14  O   UNL     1     256.297 256.615 249.243  1.00  0.00    -0.299 OA
BRANCH  13  15
ATOM     15  C   UNL     1     253.988 256.189 249.420  1.00  0.00     0.106 CG0
ATOM     16  G   UNL     1     253.636 255.731 248.018  1.00  0.00     0.000 G0
ENDBRANCH  13  15
ENDBRANCH  12  13
BRANCH  12  17
ATOM     17  C   UNL     1     255.613 259.050 251.002  1.00  0.00    -0.006 C 
ATOM     18  C   UNL     1     255.233 258.123 252.168  1.00  0.00     0.008 C 
ATOM     19  C   UNL     1     255.219 260.499 251.327  1.00  0.00     0.008 C 
ENDBRANCH  12  17
ENDBRANCH  11  12
ENDBRANCH   1  11
TORSDOF 1
ENDMDL
MODEL 9
REMARK VINA RESULT:    -3.853      2.296      4.472
REMARK INTER + INTRA:          -5.863
REMARK INTER:                  -5.671
REMARK INTRA:                  -0.192
REMARK UNBOUND:                 0.018
REMARK SMILES CC1=CCC[C@@H](C)C(=O)C[C@H](C(C)C)C(=O)C1
REMARK SMILES IDX 8 1 9 2 6 3 7 4 5 5 4 6 3 7 2 8 1 9 10 11 11 12 15 13 16 14
REMARK SMILES IDX 17 15 12 17 13 18 14 19
REMARK H PARENT
REMARK Flexibility Score: 70.00
ROOT
ATOM      1  C   UNL     1     251.506 257.400 246.896  1.00  0.00     0.136 C 
ATOM      2  O   UNL     1     250.795 258.391 246.989  1.00  0.00    -0.299 OA
ENDROOT
BRANCH   1   3
ATOM      3  C   UNL     1     250.878 256.020 246.883  1.00  0.00     0.053 C 
ATOM      4  C   UNL     1     250.092 255.833 245.582  1.00  0.00     0.016 C 
BRANCH   3   5
ATOM      5  C   UNL     1     249.955 255.799 248.104  1.00  0.00     0.015 C 
BRANCH   5   6
ATOM      6  C   UNL     1     250.716 255.392 249.374  1.00  0.00     0.028 C 
BRANCH   6   7
ATOM      7  C   UNL     1     251.666 254.249 249.102  1.00  0.00    -0.028 C 
ATOM      8  C   UNL     1     253.008 254.282 249.266  1.00  0.00    -0.070 CG0
ATOM      9  C   UNL     1     253.790 253.035 248.939  1.00  0.00     0.039 C 
ATOM     10  G   UNL     1     253.760 255.516 249.725  1.00  0.00     0.000 G0
ENDBRANCH   6   7
ENDBRANCH   5   6
ENDBRANCH   3   5
ENDBRANCH   1   3
BRANCH   1  11
ATOM     11  C   UNL     1     252.996 257.578 246.776  1.00  0.00     0.087 C 
BRANCH  11  12
ATOM     12  C   UNL     1     253.685 257.650 248.162  1.00  0.00     0.066 C 
BRANCH  12  13
ATOM     13  C   UNL     1     254.288 256.308 248.544  1.00  0.00     0.140 C 
ATOM     14  O   UNL     1     255.231 255.862 247.907  1.00  0.00    -0.299 OA
BRANCH  13  15
ATOM     15  C   UNL     1     253.774 255.527 249.726  1.00  0.00     0.106 CG0
ATOM     16  G   UNL     1     253.010 254.298 249.272  1.00  0.00     0.000 G0
ENDBRANCH  13  15
ENDBRANCH  12  13
BRANCH  12  17
ATOM     17  C   UNL     1     254.729 258.806 248.231  1.00  0.00    -0.006 C 
ATOM     18  C   UNL     1     255.333 259.019 249.629  1.00  0.00     0.008 C 
ATOM     19  C   UNL     1     254.143 260.124 247.702  1.00  0.00     0.008 C 
ENDBRANCH  12  17
ENDBRANCH  11  12
ENDBRANCH   1  11
TORSDOF 1
ENDMDL
