MODEL 1
REMARK VINA RESULT:    -5.573      0.000      0.000
REMARK INTER + INTRA:          -6.047
REMARK INTER:                  -5.898
REMARK INTRA:                  -0.149
REMARK UNBOUND:                -0.149
REMARK SMILES CC1=CCC(C(C)C)=CC1
REMARK SMILES IDX 1 1 2 2 3 3 4 4 5 5 9 6 10 7 6 8 7 9 8 10
REMARK H PARENT
REMARK Flexibility Score: inf
ROOT
ATOM      1  C   UNL     1       4.149  12.872   3.497  1.00  0.00     0.039 C 
ATOM      2  C   UNL     1       2.936  13.312   4.268  1.00  0.00    -0.073 C 
ATOM      3  C   UNL     1       2.918  13.205   5.610  1.00  0.00    -0.023 C 
ATOM      4  C   UNL     1       1.733  13.685   6.409  1.00  0.00     0.058 C 
ATOM      5  C   UNL     1       0.439  13.541   5.632  1.00  0.00    -0.068 C 
ATOM      6  C   UNL     1       0.462  13.649   4.284  1.00  0.00    -0.023 C 
ATOM      7  C   UNL     1       1.751  13.917   3.546  1.00  0.00     0.057 C 
ENDROOT
BRANCH   5   8
ATOM      8  C   UNL     1      -0.863  13.318   6.385  1.00  0.00     0.009 C 
ATOM      9  C   UNL     1      -1.988  14.200   5.830  1.00  0.00     0.012 C 
ATOM     10  C   UNL     1      -1.263  11.838   6.374  1.00  0.00     0.012 C 
ENDBRANCH   5   8
TORSDOF 1
ENDMDL
MODEL 2
REMARK VINA RESULT:    -5.523      0.932      4.562
REMARK INTER + INTRA:          -5.995
REMARK INTER:                  -5.847
REMARK INTRA:                  -0.148
REMARK UNBOUND:                -0.149
REMARK SMILES CC1=CCC(C(C)C)=CC1
REMARK SMILES IDX 1 1 2 2 3 3 4 4 5 5 9 6 10 7 6 8 7 9 8 10
REMARK H PARENT
REMARK Flexibility Score: inf
ROOT
ATOM      1  C   UNL     1      -1.811  13.099   6.184  1.00  0.00     0.039 C 
ATOM      2  C   UNL     1      -0.424  13.412   5.696  1.00  0.00    -0.073 C 
ATOM      3  C   UNL     1      -0.183  13.500   4.374  1.00  0.00    -0.023 C 
ATOM      4  C   UNL     1       1.188  13.861   3.861  1.00  0.00     0.058 C 
ATOM      5  C   UNL     1       2.281  13.366   4.788  1.00  0.00    -0.068 C 
ATOM      6  C   UNL     1       2.033  13.279   6.115  1.00  0.00    -0.023 C 
ATOM      7  C   UNL     1       0.693  13.673   6.683  1.00  0.00     0.057 C 
ENDROOT
BRANCH   5   8
ATOM      8  C   UNL     1       3.645  13.015   4.214  1.00  0.00     0.009 C 
ATOM      9  C   UNL     1       3.562  11.811   3.268  1.00  0.00     0.012 C 
ATOM     10  C   UNL     1       4.281  14.225   3.518  1.00  0.00     0.012 C 
ENDBRANCH   5   8
TORSDOF 1
ENDMDL
MODEL 3
REMARK VINA RESULT:    -5.435      1.177      4.322
REMARK INTER + INTRA:          -5.902
REMARK INTER:                  -5.767
REMARK INTRA:                  -0.135
REMARK UNBOUND:                -0.149
REMARK SMILES CC1=CCC(C(C)C)=CC1
REMARK SMILES IDX 1 1 2 2 3 3 4 4 5 5 9 6 10 7 6 8 7 9 8 10
REMARK H PARENT
REMARK Flexibility Score: inf
ROOT
ATOM      1  C   UNL     1      -2.021  14.803   6.150  1.00  0.00     0.039 C 
ATOM      2  C   UNL     1      -0.793  14.103   5.640  1.00  0.00    -0.073 C 
ATOM      3  C   UNL     1       0.172  13.727   6.501  1.00  0.00    -0.023 C 
ATOM      4  C   UNL     1       1.390  12.980   6.020  1.00  0.00     0.058 C 
ATOM      5  C   UNL     1       1.766  13.376   4.605  1.00  0.00    -0.068 C 
ATOM      6  C   UNL     1       0.793  13.753   3.744  1.00  0.00    -0.023 C 
ATOM      7  C   UNL     1      -0.655  13.779   4.168  1.00  0.00     0.057 C 
ENDROOT
BRANCH   5   8
ATOM      8  C   UNL     1       3.221  13.301   4.169  1.00  0.00     0.009 C 
ATOM      9  C   UNL     1       3.579  11.902   3.652  1.00  0.00     0.012 C 
ATOM     10  C   UNL     1       3.543  14.377   3.126  1.00  0.00     0.012 C 
ENDBRANCH   5   8
TORSDOF 1
ENDMDL
MODEL 4
REMARK VINA RESULT:    -5.412      1.111      4.406
REMARK INTER + INTRA:          -5.877
REMARK INTER:                  -5.738
REMARK INTRA:                  -0.140
REMARK UNBOUND:                -0.149
REMARK SMILES CC1=CCC(C(C)C)=CC1
REMARK SMILES IDX 1 1 2 2 3 3 4 4 5 5 9 6 10 7 6 8 7 9 8 10
REMARK H PARENT
REMARK Flexibility Score: inf
ROOT
ATOM      1  C   UNL     1      -0.817  11.854   6.883  1.00  0.00     0.039 C 
ATOM      2  C   UNL     1       0.081  12.687   6.013  1.00  0.00    -0.073 C 
ATOM      3  C   UNL     1      -0.340  13.083   4.797  1.00  0.00    -0.023 C 
ATOM      4  C   UNL     1       0.524  13.960   3.926  1.00  0.00     0.058 C 
ATOM      5  C   UNL     1       1.999  13.696   4.155  1.00  0.00    -0.068 C 
ATOM      6  C   UNL     1       2.417  13.299   5.379  1.00  0.00    -0.023 C 
ATOM      7  C   UNL     1       1.442  13.122   6.516  1.00  0.00     0.057 C 
ENDROOT
BRANCH   5   8
ATOM      8  C   UNL     1       2.984  13.922   3.019  1.00  0.00     0.009 C 
ATOM      9  C   UNL     1       2.492  15.013   2.060  1.00  0.00     0.012 C 
ATOM     10  C   UNL     1       4.384  14.245   3.554  1.00  0.00     0.012 C 
ENDBRANCH   5   8
TORSDOF 1
ENDMDL
MODEL 5
REMARK VINA RESULT:    -5.260      1.649      3.032
REMARK INTER + INTRA:          -5.716
REMARK INTER:                  -5.550
REMARK INTRA:                  -0.166
REMARK UNBOUND:                -0.149
REMARK SMILES CC1=CCC(C(C)C)=CC1
REMARK SMILES IDX 1 1 2 2 3 3 4 4 5 5 9 6 10 7 6 8 7 9 8 10
REMARK H PARENT
REMARK Flexibility Score: inf
ROOT
ATOM      1  C   UNL     1       3.569  16.355   1.596  1.00  0.00     0.039 C 
ATOM      2  C   UNL     1       3.044  15.172   2.360  1.00  0.00    -0.073 C 
ATOM      3  C   UNL     1       1.733  14.871   2.313  1.00  0.00    -0.023 C 
ATOM      4  C   UNL     1       1.191  13.660   3.031  1.00  0.00     0.058 C 
ATOM      5  C   UNL     1       1.983  13.353   4.287  1.00  0.00    -0.068 C 
ATOM      6  C   UNL     1       3.301  13.658   4.328  1.00  0.00    -0.023 C 
ATOM      7  C   UNL     1       3.991  14.289   3.145  1.00  0.00     0.057 C 
ENDROOT
BRANCH   5   8
ATOM      8  C   UNL     1       1.292  12.673   5.458  1.00  0.00     0.009 C 
ATOM      9  C   UNL     1       1.717  13.293   6.795  1.00  0.00     0.012 C 
ATOM     10  C   UNL     1      -0.232  12.701   5.294  1.00  0.00     0.012 C 
ENDBRANCH   5   8
TORSDOF 1
ENDMDL
MODEL 6
REMARK VINA RESULT:    -5.259      1.848      4.324
REMARK INTER + INTRA:          -5.715
REMARK INTER:                  -5.548
REMARK INTRA:                  -0.167
REMARK UNBOUND:                -0.149
REMARK SMILES CC1=CCC(C(C)C)=CC1
REMARK SMILES IDX 1 1 2 2 3 3 4 4 5 5 9 6 10 7 6 8 7 9 8 10
REMARK H PARENT
REMARK Flexibility Score: inf
ROOT
ATOM      1  C   UNL     1       1.726  13.240   6.869  1.00  0.00     0.039 C 
ATOM      2  C   UNL     1       1.906  13.402   5.385  1.00  0.00    -0.073 C 
ATOM      3  C   UNL     1       3.142  13.542   4.870  1.00  0.00    -0.023 C 
ATOM      4  C   UNL     1       3.351  13.657   3.381  1.00  0.00     0.058 C 
ATOM      5  C   UNL     1       2.179  14.338   2.703  1.00  0.00    -0.068 C 
ATOM      6  C   UNL     1       0.939  14.195   3.224  1.00  0.00    -0.023 C 
ATOM      7  C   UNL     1       0.706  13.365   4.462  1.00  0.00     0.057 C 
ENDROOT
BRANCH   5   8
ATOM      8  C   UNL     1       2.413  15.134   1.428  1.00  0.00     0.009 C 
ATOM      9  C   UNL     1       1.089  15.595   0.805  1.00  0.00     0.012 C 
ATOM     10  C   UNL     1       3.350  16.322   1.681  1.00  0.00     0.012 C 
ENDBRANCH   5   8
TORSDOF 1
ENDMDL
MODEL 7
REMARK VINA RESULT:    -5.157      1.663      2.771
REMARK INTER + INTRA:          -5.608
REMARK INTER:                  -5.448
REMARK INTRA:                  -0.159
REMARK UNBOUND:                -0.149
REMARK SMILES CC1=CCC(C(C)C)=CC1
REMARK SMILES IDX 1 1 2 2 3 3 4 4 5 5 9 6 10 7 6 8 7 9 8 10
REMARK H PARENT
REMARK Flexibility Score: inf
ROOT
ATOM      1  C   UNL     1       1.281  13.396   0.058  1.00  0.00     0.039 C 
ATOM      2  C   UNL     1       1.171  13.690   1.527  1.00  0.00    -0.073 C 
ATOM      3  C   UNL     1       2.141  13.283   2.367  1.00  0.00    -0.023 C 
ATOM      4  C   UNL     1       2.079  13.609   3.838  1.00  0.00     0.058 C 
ATOM      5  C   UNL     1       0.648  13.687   4.333  1.00  0.00    -0.068 C 
ATOM      6  C   UNL     1      -0.323  14.097   3.485  1.00  0.00    -0.023 C 
ATOM      7  C   UNL     1      -0.003  14.482   2.062  1.00  0.00     0.057 C 
ENDROOT
BRANCH   5   8
ATOM      8  C   UNL     1       0.339  13.343   5.782  1.00  0.00     0.009 C 
ATOM      9  C   UNL     1      -0.488  12.055   5.887  1.00  0.00     0.012 C 
ATOM     10  C   UNL     1       1.622  13.248   6.615  1.00  0.00     0.012 C 
ENDBRANCH   5   8
TORSDOF 1
ENDMDL
MODEL 8
REMARK VINA RESULT:    -5.058      1.056      2.203
REMARK INTER + INTRA:          -5.503
REMARK INTER:                  -5.361
REMARK INTRA:                  -0.142
REMARK UNBOUND:                -0.149
REMARK SMILES CC1=CCC(C(C)C)=CC1
REMARK SMILES IDX 1 1 2 2 3 3 4 4 5 5 9 6 10 7 6 8 7 9 8 10
REMARK H PARENT
REMARK Flexibility Score: inf
ROOT
ATOM      1  C   UNL     1       4.658  14.737   3.495  1.00  0.00     0.039 C 
ATOM      2  C   UNL     1       3.381  14.010   3.810  1.00  0.00    -0.073 C 
ATOM      3  C   UNL     1       2.340  14.082   2.959  1.00  0.00    -0.023 C 
ATOM      4  C   UNL     1       1.066  13.322   3.228  1.00  0.00     0.058 C 
ATOM      5  C   UNL     1       0.806  13.175   4.715  1.00  0.00    -0.068 C 
ATOM      6  C   UNL     1       1.855  13.103   5.565  1.00  0.00    -0.023 C 
ATOM      7  C   UNL     1       3.275  13.159   5.058  1.00  0.00     0.057 C 
ENDROOT
BRANCH   5   8
ATOM      8  C   UNL     1      -0.626  13.072   5.216  1.00  0.00     0.009 C 
ATOM      9  C   UNL     1      -0.857  11.764   5.983  1.00  0.00     0.012 C 
ATOM     10  C   UNL     1      -1.005  14.289   6.068  1.00  0.00     0.012 C 
ENDBRANCH   5   8
TORSDOF 1
ENDMDL
MODEL 9
REMARK VINA RESULT:    -4.935      1.902      4.676
REMARK INTER + INTRA:          -5.373
REMARK INTER:                  -5.216
REMARK INTRA:                  -0.157
REMARK UNBOUND:                -0.149
REMARK SMILES CC1=CCC(C(C)C)=CC1
REMARK SMILES IDX 1 1 2 2 3 3 4 4 5 5 9 6 10 7 6 8 7 9 8 10
REMARK H PARENT
REMARK Flexibility Score: inf
ROOT
ATOM      1  C   UNL     1      -1.936  14.444   1.588  1.00  0.00     0.039 C 
ATOM      2  C   UNL     1      -0.637  14.434   2.343  1.00  0.00    -0.073 C 
ATOM      3  C   UNL     1       0.509  14.750   1.711  1.00  0.00    -0.023 C 
ATOM      4  C   UNL     1       1.818  14.795   2.458  1.00  0.00     0.058 C 
ATOM      5  C   UNL     1       1.846  13.796   3.598  1.00  0.00    -0.068 C 
ATOM      6  C   UNL     1       0.692  13.482   4.230  1.00  0.00    -0.023 C 
ATOM      7  C   UNL     1      -0.616  14.114   3.823  1.00  0.00     0.057 C 
ENDROOT
BRANCH   5   8
ATOM      8  C   UNL     1       3.174  13.198   4.035  1.00  0.00     0.009 C 
ATOM      9  C   UNL     1       3.316  11.745   3.563  1.00  0.00     0.012 C 
ATOM     10  C   UNL     1       4.352  14.054   3.554  1.00  0.00     0.012 C 
ENDBRANCH   5   8
TORSDOF 1
ENDMDL
