MODEL 1
REMARK VINA RESULT:    -2.204      0.000      0.000
REMARK INTER + INTRA:          -2.204
REMARK INTER:                  -2.204
REMARK INTRA:                   0.000
REMARK UNBOUND:                 0.000
REMARK SMILES c1cc[nH]c1
REMARK SMILES IDX 1 1 5 2 4 3 3 4 2 5
REMARK H PARENT 4 6
REMARK Flexibility Score: inf
ROOT
ATOM      1  C   UNL     1     127.722  28.309 -18.006  1.00  0.00     0.019 A 
ATOM      2  C   UNL     1     127.493  29.310 -18.930  1.00  0.00     0.082 A 
ATOM      3  N   UNL     1     127.739  30.510 -18.376  1.00  0.00    -0.368 N 
ATOM      4  C   UNL     1     128.124  30.289 -17.107  1.00  0.00     0.082 A 
ATOM      5  C   UNL     1     128.125  28.935 -16.843  1.00  0.00     0.019 A 
ATOM      6  H   UNL     1     127.649  31.439 -18.845  1.00  0.00     0.165 HD
ENDROOT
TORSDOF 0
ENDMDL
MODEL 2
REMARK VINA RESULT:    -2.181      1.214      1.651
REMARK INTER + INTRA:          -2.181
REMARK INTER:                  -2.181
REMARK INTRA:                   0.000
REMARK UNBOUND:                 0.000
REMARK SMILES c1cc[nH]c1
REMARK SMILES IDX 1 1 5 2 4 3 3 4 2 5
REMARK H PARENT 4 6
REMARK Flexibility Score: inf
ROOT
ATOM      1  C   UNL     1     127.678  29.365 -18.969  1.00  0.00     0.019 A 
ATOM      2  C   UNL     1     127.422  28.285 -18.147  1.00  0.00     0.082 A 
ATOM      3  N   UNL     1     127.695  28.605 -16.870  1.00  0.00    -0.368 N 
ATOM      4  C   UNL     1     128.123  29.880 -16.864  1.00  0.00     0.082 A 
ATOM      5  C   UNL     1     128.125  30.382 -18.150  1.00  0.00     0.019 A 
ATOM      6  H   UNL     1     127.593  27.980 -16.039  1.00  0.00     0.165 HD
ENDROOT
TORSDOF 0
ENDMDL
