MODEL 1
REMARK VINA RESULT:    -5.474      0.000      0.000
REMARK INTER + INTRA:          -8.597
REMARK INTER:                  -7.874
REMARK INTRA:                  -0.723
REMARK UNBOUND:                -0.723
REMARK SMILES O=C(CO)[C@@H](O)[C@H](O)[C@@H](O)CO
REMARK SMILES IDX 7 1 9 2 11 3 12 4 10 6 5 8 2 9 1 10 3 11 4 12 6 14 8 16
REMARK H PARENT 12 5 10 7 4 13 6 15 8 17
REMARK Flexibility Score: inf
ROOT
ATOM      1  C   UNL     1    -142.782 103.152  33.774  1.00  0.00     0.181 C 
ENDROOT
BRANCH   1   2
ATOM      2  C   UNL     1    -142.526 104.554  33.160  1.00  0.00     0.171 C 
BRANCH   2   3
ATOM      3  C   UNL     1    -142.458 105.644  34.244  1.00  0.00     0.190 C 
BRANCH   3   4
ATOM      4  O   UNL     1    -141.322 105.448  35.040  1.00  0.00    -0.394 OA
ATOM      5  H   UNL     1    -141.556 105.789  35.943  1.00  0.00     0.210 HD
ENDBRANCH   3   4
ENDBRANCH   2   3
BRANCH   2   6
ATOM      6  O   UNL     1    -143.481 104.877  32.178  1.00  0.00    -0.388 OA
ATOM      7  H   UNL     1    -144.322 105.132  32.639  1.00  0.00     0.211 HD
ENDBRANCH   2   6
ENDBRANCH   1   2
BRANCH   1   8
ATOM      8  C   UNL     1    -143.350 102.146  32.741  1.00  0.00     0.214 C 
BRANCH   8   9
ATOM      9  C   UNL     1    -143.283 100.731  33.280  1.00  0.00     0.189 C 
ATOM     10  O   UNL     1    -143.541 100.533  34.459  1.00  0.00    -0.294 OA
BRANCH   9  11
ATOM     11  C   UNL     1    -142.903  99.563  32.412  1.00  0.00     0.234 C 
BRANCH  11  12
ATOM     12  O   UNL     1    -143.596  99.635  31.197  1.00  0.00    -0.388 OA
ATOM     13  H   UNL     1    -142.957 100.012  30.538  1.00  0.00     0.211 HD
ENDBRANCH  11  12
ENDBRANCH   9  11
ENDBRANCH   8   9
BRANCH   8  14
ATOM     14  O   UNL     1    -144.671 102.491  32.400  1.00  0.00    -0.382 OA
ATOM     15  H   UNL     1    -144.619 103.287  31.809  1.00  0.00     0.211 HD
ENDBRANCH   8  14
ENDBRANCH   1   8
BRANCH   1  16
ATOM     16  O   UNL     1    -143.587 103.229  34.926  1.00  0.00    -0.387 OA
ATOM     17  H   UNL     1    -144.532 103.310  34.638  1.00  0.00     0.211 HD
ENDBRANCH   1  16
TORSDOF 10
ENDMDL
MODEL 2
REMARK VINA RESULT:    -5.269      0.861      4.981
REMARK INTER + INTRA:          -8.302
REMARK INTER:                  -7.742
REMARK INTRA:                  -0.560
REMARK UNBOUND:                -0.723
REMARK SMILES O=C(CO)[C@@H](O)[C@H](O)[C@@H](O)CO
REMARK SMILES IDX 7 1 9 2 11 3 12 4 10 6 5 8 2 9 1 10 3 11 4 12 6 14 8 16
REMARK H PARENT 12 5 10 7 4 13 6 15 8 17
REMARK Flexibility Score: inf
ROOT
ATOM      1  C   UNL     1    -143.137 102.260  32.923  1.00  0.00     0.181 C 
ENDROOT
BRANCH   1   2
ATOM      2  C   UNL     1    -142.942 100.720  32.888  1.00  0.00     0.171 C 
BRANCH   2   3
ATOM      3  C   UNL     1    -142.877 100.189  31.445  1.00  0.00     0.190 C 
BRANCH   3   4
ATOM      4  O   UNL     1    -143.953  99.323  31.212  1.00  0.00    -0.394 OA
ATOM      5  H   UNL     1    -144.138  98.874  32.078  1.00  0.00     0.210 HD
ENDBRANCH   3   4
ENDBRANCH   2   3
BRANCH   2   6
ATOM      6  O   UNL     1    -143.933 100.051  33.629  1.00  0.00    -0.388 OA
ATOM      7  H   UNL     1    -143.481  99.434  34.261  1.00  0.00     0.211 HD
ENDBRANCH   2   6
ENDBRANCH   1   2
BRANCH   1   8
ATOM      8  C   UNL     1    -142.847 102.863  34.321  1.00  0.00     0.214 C 
BRANCH   8   9
ATOM      9  C   UNL     1    -142.602 104.356  34.217  1.00  0.00     0.189 C 
ATOM     10  O   UNL     1    -142.713 104.901  33.129  1.00  0.00    -0.294 OA
BRANCH   9  11
ATOM     11  C   UNL     1    -142.220 105.186  35.412  1.00  0.00     0.234 C 
BRANCH  11  12
ATOM     12  O   UNL     1    -141.325 106.189  35.021  1.00  0.00    -0.388 OA
ATOM     13  H   UNL     1    -141.883 106.960  34.738  1.00  0.00     0.211 HD
ENDBRANCH  11  12
ENDBRANCH   9  11
ENDBRANCH   8   9
BRANCH   8  14
ATOM     14  O   UNL     1    -143.910 102.589  35.200  1.00  0.00    -0.382 OA
ATOM     15  H   UNL     1    -144.315 103.461  35.446  1.00  0.00     0.211 HD
ENDBRANCH   8  14
ENDBRANCH   1   8
BRANCH   1  16
ATOM     16  O   UNL     1    -144.408 102.632  32.446  1.00  0.00    -0.387 OA
ATOM     17  H   UNL     1    -144.391 102.590  31.455  1.00  0.00     0.211 HD
ENDBRANCH   1  16
TORSDOF 10
ENDMDL
MODEL 3
REMARK VINA RESULT:    -5.043      1.239      2.154
REMARK INTER + INTRA:          -7.977
REMARK INTER:                  -7.554
REMARK INTRA:                  -0.422
REMARK UNBOUND:                -0.723
REMARK SMILES O=C(CO)[C@@H](O)[C@H](O)[C@@H](O)CO
REMARK SMILES IDX 7 1 9 2 11 3 12 4 10 6 5 8 2 9 1 10 3 11 4 12 6 14 8 16
REMARK H PARENT 12 5 10 7 4 13 6 15 8 17
REMARK Flexibility Score: inf
ROOT
ATOM      1  C   UNL     1    -142.906 102.461  33.993  1.00  0.00     0.181 C 
ENDROOT
BRANCH   1   2
ATOM      2  C   UNL     1    -143.290 103.059  32.613  1.00  0.00     0.171 C 
BRANCH   2   3
ATOM      3  C   UNL     1    -143.116 104.587  32.588  1.00  0.00     0.190 C 
BRANCH   3   4
ATOM      4  O   UNL     1    -143.964 105.144  31.623  1.00  0.00    -0.394 OA
ATOM      5  H   UNL     1    -144.340 105.968  32.028  1.00  0.00     0.210 HD
ENDBRANCH   3   4
ENDBRANCH   2   3
BRANCH   2   6
ATOM      6  O   UNL     1    -144.594 102.692  32.230  1.00  0.00    -0.388 OA
ATOM      7  H   UNL     1    -145.222 103.373  32.585  1.00  0.00     0.211 HD
ENDBRANCH   2   6
ENDBRANCH   1   2
BRANCH   1   8
ATOM      8  C   UNL     1    -143.600 101.103  34.266  1.00  0.00     0.214 C 
BRANCH   8   9
ATOM      9  C   UNL     1    -142.707  99.953  33.841  1.00  0.00     0.189 C 
ATOM     10  O   UNL     1    -141.640  99.788  34.415  1.00  0.00    -0.294 OA
BRANCH   9  11
ATOM     11  C   UNL     1    -143.091  99.013  32.731  1.00  0.00     0.234 C 
BRANCH  11  12
ATOM     12  O   UNL     1    -143.568  99.746  31.638  1.00  0.00    -0.388 OA
ATOM     13  H   UNL     1    -142.929 100.495  31.510  1.00  0.00     0.211 HD
ENDBRANCH  11  12
ENDBRANCH   9  11
ENDBRANCH   8   9
BRANCH   8  14
ATOM     14  O   UNL     1    -143.944 100.994  35.625  1.00  0.00    -0.382 OA
ATOM     15  H   UNL     1    -143.162 100.599  36.092  1.00  0.00     0.211 HD
ENDBRANCH   8  14
ENDBRANCH   1   8
BRANCH   1  16
ATOM     16  O   UNL     1    -143.130 103.381  35.036  1.00  0.00    -0.387 OA
ATOM     17  H   UNL     1    -142.360 103.334  35.659  1.00  0.00     0.211 HD
ENDBRANCH   1  16
TORSDOF 10
ENDMDL
MODEL 4
REMARK VINA RESULT:    -4.839      1.461      4.321
REMARK INTER + INTRA:          -7.683
REMARK INTER:                  -6.831
REMARK INTRA:                  -0.852
REMARK UNBOUND:                -0.723
REMARK SMILES O=C(CO)[C@@H](O)[C@H](O)[C@@H](O)CO
REMARK SMILES IDX 7 1 9 2 11 3 12 4 10 6 5 8 2 9 1 10 3 11 4 12 6 14 8 16
REMARK H PARENT 12 5 10 7 4 13 6 15 8 17
REMARK Flexibility Score: inf
ROOT
ATOM      1  C   UNL     1    -144.026 101.274  34.053  1.00  0.00     0.181 C 
ENDROOT
BRANCH   1   2
ATOM      2  C   UNL     1    -143.148 100.007  33.874  1.00  0.00     0.171 C 
BRANCH   2   3
ATOM      3  C   UNL     1    -143.584  98.875  34.821  1.00  0.00     0.190 C 
BRANCH   3   4
ATOM      4  O   UNL     1    -143.289  99.226  36.144  1.00  0.00    -0.394 OA
ATOM      5  H   UNL     1    -144.055  98.912  36.691  1.00  0.00     0.210 HD
ENDBRANCH   3   4
ENDBRANCH   2   3
BRANCH   2   6
ATOM      6  O   UNL     1    -141.779 100.294  34.027  1.00  0.00    -0.388 OA
ATOM      7  H   UNL     1    -141.667 100.833  34.852  1.00  0.00     0.211 HD
ENDBRANCH   2   6
ENDBRANCH   1   2
BRANCH   1   8
ATOM      8  C   UNL     1    -143.763 102.338  32.958  1.00  0.00     0.214 C 
BRANCH   8   9
ATOM      9  C   UNL     1    -142.802 103.398  33.462  1.00  0.00     0.189 C 
ATOM     10  O   UNL     1    -141.906 103.070  34.226  1.00  0.00    -0.294 OA
BRANCH   9  11
ATOM     11  C   UNL     1    -142.921 104.841  33.056  1.00  0.00     0.234 C 
BRANCH  11  12
ATOM     12  O   UNL     1    -143.637 104.934  31.855  1.00  0.00    -0.388 OA
ATOM     13  H   UNL     1    -144.554 105.221  32.104  1.00  0.00     0.211 HD
ENDBRANCH  11  12
ENDBRANCH   9  11
ENDBRANCH   8   9
BRANCH   8  14
ATOM     14  O   UNL     1    -143.269 101.726  31.792  1.00  0.00    -0.382 OA
ATOM     15  H   UNL     1    -143.640 100.806  31.768  1.00  0.00     0.211 HD
ENDBRANCH   8  14
ENDBRANCH   1   8
BRANCH   1  16
ATOM     16  O   UNL     1    -143.898 101.814  35.348  1.00  0.00    -0.387 OA
ATOM     17  H   UNL     1    -144.686 101.531  35.880  1.00  0.00     0.211 HD
ENDBRANCH   1  16
TORSDOF 10
ENDMDL
MODEL 5
REMARK VINA RESULT:    -4.727     19.296     21.714
REMARK INTER + INTRA:          -7.522
REMARK INTER:                  -7.016
REMARK INTRA:                  -0.505
REMARK UNBOUND:                -0.723
REMARK SMILES O=C(CO)[C@@H](O)[C@H](O)[C@@H](O)CO
REMARK SMILES IDX 7 1 9 2 11 3 12 4 10 6 5 8 2 9 1 10 3 11 4 12 6 14 8 16
REMARK H PARENT 12 5 10 7 4 13 6 15 8 17
REMARK Flexibility Score: inf
ROOT
ATOM      1  C   UNL     1    -129.736 115.171  43.408  1.00  0.00     0.181 C 
ENDROOT
BRANCH   1   2
ATOM      2  C   UNL     1    -130.197 113.705  43.184  1.00  0.00     0.171 C 
BRANCH   2   3
ATOM      3  C   UNL     1    -129.083 112.701  43.530  1.00  0.00     0.190 C 
BRANCH   3   4
ATOM      4  O   UNL     1    -129.425 111.432  43.047  1.00  0.00    -0.394 OA
ATOM      5  H   UNL     1    -128.898 110.782  43.582  1.00  0.00     0.210 HD
ENDBRANCH   3   4
ENDBRANCH   2   3
BRANCH   2   6
ATOM      6  O   UNL     1    -130.673 113.501  41.876  1.00  0.00    -0.388 OA
ATOM      7  H   UNL     1    -131.517 112.983  41.933  1.00  0.00     0.211 HD
ENDBRANCH   2   6
ENDBRANCH   1   2
BRANCH   1   8
ATOM      8  C   UNL     1    -129.621 115.534  44.910  1.00  0.00     0.214 C 
BRANCH   8   9
ATOM      9  C   UNL     1    -129.752 117.032  45.108  1.00  0.00     0.189 C 
ATOM     10  O   UNL     1    -129.046 117.781  44.449  1.00  0.00    -0.294 OA
BRANCH   9  11
ATOM     11  C   UNL     1    -130.718 117.624  46.097  1.00  0.00     0.234 C 
BRANCH  11  12
ATOM     12  O   UNL     1    -130.595 116.966  47.327  1.00  0.00    -0.388 OA
ATOM     13  H   UNL     1    -131.515 116.704  47.591  1.00  0.00     0.211 HD
ENDBRANCH  11  12
ENDBRANCH   9  11
ENDBRANCH   8   9
BRANCH   8  14
ATOM     14  O   UNL     1    -130.593 114.843  45.655  1.00  0.00    -0.382 OA
ATOM     15  H   UNL     1    -130.299 113.897  45.708  1.00  0.00     0.211 HD
ENDBRANCH   8  14
ENDBRANCH   1   8
BRANCH   1  16
ATOM     16  O   UNL     1    -130.552 116.082  42.710  1.00  0.00    -0.387 OA
ATOM     17  H   UNL     1    -130.284 117.000  42.973  1.00  0.00     0.211 HD
ENDBRANCH   1  16
TORSDOF 10
ENDMDL
MODEL 6
REMARK VINA RESULT:    -4.718     19.483     21.425
REMARK INTER + INTRA:          -7.510
REMARK INTER:                  -6.730
REMARK INTRA:                  -0.780
REMARK UNBOUND:                -0.723
REMARK SMILES O=C(CO)[C@@H](O)[C@H](O)[C@@H](O)CO
REMARK SMILES IDX 7 1 9 2 11 3 12 4 10 6 5 8 2 9 1 10 3 11 4 12 6 14 8 16
REMARK H PARENT 12 5 10 7 4 13 6 15 8 17
REMARK Flexibility Score: inf
ROOT
ATOM      1  C   UNL     1    -129.881 116.030  43.439  1.00  0.00     0.181 C 
ENDROOT
BRANCH   1   2
ATOM      2  C   UNL     1    -130.107 117.270  44.344  1.00  0.00     0.171 C 
BRANCH   2   3
ATOM      3  C   UNL     1    -128.869 118.183  44.376  1.00  0.00     0.190 C 
BRANCH   3   4
ATOM      4  O   UNL     1    -128.823 118.958  43.210  1.00  0.00    -0.394 OA
ATOM      5  H   UNL     1    -128.952 118.328  42.455  1.00  0.00     0.210 HD
ENDBRANCH   3   4
ENDBRANCH   2   3
BRANCH   2   6
ATOM      6  O   UNL     1    -130.500 116.904  45.645  1.00  0.00    -0.388 OA
ATOM      7  H   UNL     1    -130.015 116.073  45.889  1.00  0.00     0.211 HD
ENDBRANCH   2   6
ENDBRANCH   1   2
BRANCH   1   8
ATOM      8  C   UNL     1    -129.806 114.710  44.248  1.00  0.00     0.214 C 
BRANCH   8   9
ATOM      9  C   UNL     1    -129.696 113.518  43.318  1.00  0.00     0.189 C 
ATOM     10  O   UNL     1    -130.111 113.621  42.172  1.00  0.00    -0.294 OA
BRANCH   9  11
ATOM     11  C   UNL     1    -129.099 112.211  43.762  1.00  0.00     0.234 C 
BRANCH  11  12
ATOM     12  O   UNL     1    -129.446 111.203  42.854  1.00  0.00    -0.388 OA
ATOM     13  H   UNL     1    -129.358 110.347  43.348  1.00  0.00     0.211 HD
ENDBRANCH  11  12
ENDBRANCH   9  11
ENDBRANCH   8   9
BRANCH   8  14
ATOM     14  O   UNL     1    -128.722 114.749  45.144  1.00  0.00    -0.382 OA
ATOM     15  H   UNL     1    -127.896 114.634  44.605  1.00  0.00     0.211 HD
ENDBRANCH   8  14
ENDBRANCH   1   8
BRANCH   1  16
ATOM     16  O   UNL     1    -128.759 116.195  42.604  1.00  0.00    -0.387 OA
ATOM     17  H   UNL     1    -127.944 116.039  43.146  1.00  0.00     0.211 HD
ENDBRANCH   1  16
TORSDOF 10
ENDMDL
MODEL 7
REMARK VINA RESULT:    -4.687     19.591     21.958
REMARK INTER + INTRA:          -7.464
REMARK INTER:                  -6.818
REMARK INTRA:                  -0.647
REMARK UNBOUND:                -0.723
REMARK SMILES O=C(CO)[C@@H](O)[C@H](O)[C@@H](O)CO
REMARK SMILES IDX 7 1 9 2 11 3 12 4 10 6 5 8 2 9 1 10 3 11 4 12 6 14 8 16
REMARK H PARENT 12 5 10 7 4 13 6 15 8 17
REMARK Flexibility Score: inf
ROOT
ATOM      1  C   UNL     1    -129.868 115.094  44.291  1.00  0.00     0.181 C 
ENDROOT
BRANCH   1   2
ATOM      2  C   UNL     1    -130.178 113.807  43.480  1.00  0.00     0.171 C 
BRANCH   2   3
ATOM      3  C   UNL     1    -129.056 112.764  43.621  1.00  0.00     0.190 C 
BRANCH   3   4
ATOM      4  O   UNL     1    -129.441 111.570  42.996  1.00  0.00    -0.394 OA
ATOM      5  H   UNL     1    -128.618 111.196  42.585  1.00  0.00     0.210 HD
ENDBRANCH   3   4
ENDBRANCH   2   3
BRANCH   2   6
ATOM      6  O   UNL     1    -130.437 114.092  42.127  1.00  0.00    -0.388 OA
ATOM      7  H   UNL     1    -130.642 115.060  42.050  1.00  0.00     0.211 HD
ENDBRANCH   2   6
ENDBRANCH   1   2
BRANCH   1   8
ATOM      8  C   UNL     1    -129.708 116.342  43.386  1.00  0.00     0.214 C 
BRANCH   8   9
ATOM      9  C   UNL     1    -129.457 117.580  44.224  1.00  0.00     0.189 C 
ATOM     10  O   UNL     1    -129.933 117.642  45.349  1.00  0.00    -0.294 OA
BRANCH   9  11
ATOM     11  C   UNL     1    -128.646 118.739  43.712  1.00  0.00     0.234 C 
BRANCH  11  12
ATOM     12  O   UNL     1    -128.703 118.770  42.313  1.00  0.00    -0.388 OA
ATOM     13  H   UNL     1    -129.279 119.543  42.079  1.00  0.00     0.211 HD
ENDBRANCH  11  12
ENDBRANCH   9  11
ENDBRANCH   8   9
BRANCH   8  14
ATOM     14  O   UNL     1    -128.667 116.143  42.461  1.00  0.00    -0.382 OA
ATOM     15  H   UNL     1    -127.834 116.013  42.985  1.00  0.00     0.211 HD
ENDBRANCH   8  14
ENDBRANCH   1   8
BRANCH   1  16
ATOM     16  O   UNL     1    -128.758 114.917  45.139  1.00  0.00    -0.387 OA
ATOM     17  H   UNL     1    -129.093 114.770  46.060  1.00  0.00     0.211 HD
ENDBRANCH   1  16
TORSDOF 10
ENDMDL
MODEL 8
REMARK VINA RESULT:    -4.641     14.693     15.786
REMARK INTER + INTRA:          -7.399
REMARK INTER:                  -6.685
REMARK INTRA:                  -0.714
REMARK UNBOUND:                -0.723
REMARK SMILES O=C(CO)[C@@H](O)[C@H](O)[C@@H](O)CO
REMARK SMILES IDX 7 1 9 2 11 3 12 4 10 6 5 8 2 9 1 10 3 11 4 12 6 14 8 16
REMARK H PARENT 12 5 10 7 4 13 6 15 8 17
REMARK Flexibility Score: inf
ROOT
ATOM      1  C   UNL     1    -129.641 108.526  40.154  1.00  0.00     0.181 C 
ENDROOT
BRANCH   1   2
ATOM      2  C   UNL     1    -130.355 109.753  39.528  1.00  0.00     0.171 C 
BRANCH   2   3
ATOM      3  C   UNL     1    -129.710 111.076  39.978  1.00  0.00     0.190 C 
BRANCH   3   4
ATOM      4  O   UNL     1    -129.756 111.173  41.374  1.00  0.00    -0.394 OA
ATOM      5  H   UNL     1    -129.014 110.607  41.714  1.00  0.00     0.210 HD
ENDBRANCH   3   4
ENDBRANCH   2   3
BRANCH   2   6
ATOM      6  O   UNL     1    -131.737 109.747  39.797  1.00  0.00    -0.388 OA
ATOM      7  H   UNL     1    -131.900 110.332  40.582  1.00  0.00     0.211 HD
ENDBRANCH   2   6
ENDBRANCH   1   2
BRANCH   1   8
ATOM      8  C   UNL     1    -129.662 107.287  39.224  1.00  0.00     0.214 C 
BRANCH   8   9
ATOM      9  C   UNL     1    -129.248 106.041  39.983  1.00  0.00     0.189 C 
ATOM     10  O   UNL     1    -128.503 106.154  40.945  1.00  0.00    -0.294 OA
BRANCH   9  11
ATOM     11  C   UNL     1    -129.721 104.670  39.583  1.00  0.00     0.234 C 
BRANCH  11  12
ATOM     12  O   UNL     1    -129.392 103.750  40.586  1.00  0.00    -0.388 OA
ATOM     13  H   UNL     1    -130.222 103.240  40.774  1.00  0.00     0.211 HD
ENDBRANCH  11  12
ENDBRANCH   9  11
ENDBRANCH   8   9
BRANCH   8  14
ATOM     14  O   UNL     1    -130.938 107.127  38.654  1.00  0.00    -0.382 OA
ATOM     15  H   UNL     1    -130.830 106.541  37.860  1.00  0.00     0.211 HD
ENDBRANCH   8  14
ENDBRANCH   1   8
BRANCH   1  16
ATOM     16  O   UNL     1    -130.149 108.227  41.434  1.00  0.00    -0.387 OA
ATOM     17  H   UNL     1    -129.718 107.393  41.751  1.00  0.00     0.211 HD
ENDBRANCH   1  16
TORSDOF 10
ENDMDL
MODEL 9
REMARK VINA RESULT:    -4.581     15.452     16.904
REMARK INTER + INTRA:          -7.313
REMARK INTER:                  -6.783
REMARK INTRA:                  -0.530
REMARK UNBOUND:                -0.723
REMARK SMILES O=C(CO)[C@@H](O)[C@H](O)[C@@H](O)CO
REMARK SMILES IDX 7 1 9 2 11 3 12 4 10 6 5 8 2 9 1 10 3 11 4 12 6 14 8 16
REMARK H PARENT 12 5 10 7 4 13 6 15 8 17
REMARK Flexibility Score: inf
ROOT
ATOM      1  C   UNL     1    -129.481 108.533  41.432  1.00  0.00     0.181 C 
ENDROOT
BRANCH   1   2
ATOM      2  C   UNL     1    -129.450 109.029  42.902  1.00  0.00     0.171 C 
BRANCH   2   3
ATOM      3  C   UNL     1    -130.573 108.391  43.739  1.00  0.00     0.190 C 
BRANCH   3   4
ATOM      4  O   UNL     1    -130.645 109.019  44.989  1.00  0.00    -0.394 OA
ATOM      5  H   UNL     1    -131.093 109.891  44.835  1.00  0.00     0.210 HD
ENDBRANCH   3   4
ENDBRANCH   2   3
BRANCH   2   6
ATOM      6  O   UNL     1    -129.496 110.433  42.981  1.00  0.00    -0.388 OA
ATOM      7  H   UNL     1    -129.344 110.797  42.071  1.00  0.00     0.211 HD
ENDBRANCH   2   6
ENDBRANCH   1   2
BRANCH   1   8
ATOM      8  C   UNL     1    -129.241 107.007  41.314  1.00  0.00     0.214 C 
BRANCH   8   9
ATOM      9  C   UNL     1    -129.479 106.537  39.892  1.00  0.00     0.189 C 
ATOM     10  O   UNL     1    -129.895 107.336  39.065  1.00  0.00    -0.294 OA
BRANCH   9  11
ATOM     11  C   UNL     1    -129.226 105.116  39.469  1.00  0.00     0.234 C 
BRANCH  11  12
ATOM     12  O   UNL     1    -129.510 104.251  40.533  1.00  0.00    -0.388 OA
ATOM     13  H   UNL     1    -129.822 103.403  40.121  1.00  0.00     0.211 HD
ENDBRANCH  11  12
ENDBRANCH   9  11
ENDBRANCH   8   9
BRANCH   8  14
ATOM     14  O   UNL     1    -127.940 106.683  41.738  1.00  0.00    -0.382 OA
ATOM     15  H   UNL     1    -127.550 106.086  41.047  1.00  0.00     0.211 HD
ENDBRANCH   8  14
ENDBRANCH   1   8
BRANCH   1  16
ATOM     16  O   UNL     1    -128.593 109.266  40.620  1.00  0.00    -0.387 OA
ATOM     17  H   UNL     1    -127.707 108.821  40.651  1.00  0.00     0.211 HD
ENDBRANCH   1  16
TORSDOF 10
ENDMDL
