MODEL 1
REMARK VINA RESULT:    -5.141      0.000      0.000
REMARK INTER + INTRA:          -8.119
REMARK INTER:                  -7.396
REMARK INTRA:                  -0.723
REMARK UNBOUND:                -0.723
REMARK SMILES O=C(CO)[C@H](O)[C@@H](O)[C@@H](O)CO
REMARK SMILES IDX 7 1 9 2 11 3 12 4 10 6 5 8 2 9 1 10 3 11 4 12 6 14 8 16
REMARK H PARENT 12 5 10 7 4 13 6 15 8 17
REMARK Flexibility Score: inf
ROOT
ATOM      1  C   UNL     1       1.815   4.425  19.643  1.00  0.00     0.181 C 
ENDROOT
BRANCH   1   2
ATOM      2  C   UNL     1       1.598   5.286  18.369  1.00  0.00     0.171 C 
BRANCH   2   3
ATOM      3  C   UNL     1       2.206   6.692  18.501  1.00  0.00     0.190 C 
BRANCH   3   4
ATOM      4  O   UNL     1       1.801   7.268  19.712  1.00  0.00    -0.394 OA
ATOM      5  H   UNL     1       1.795   8.250  19.562  1.00  0.00     0.210 HD
ENDBRANCH   3   4
ENDBRANCH   2   3
BRANCH   2   6
ATOM      6  O   UNL     1       0.229   5.380  18.067  1.00  0.00    -0.388 OA
ATOM      7  H   UNL     1      -0.181   5.964  18.757  1.00  0.00     0.211 HD
ENDBRANCH   2   6
ENDBRANCH   1   2
BRANCH   1   8
ATOM      8  C   UNL     1       1.840   2.893  19.387  1.00  0.00     0.214 C 
BRANCH   8   9
ATOM      9  C   UNL     1       3.093   2.504  18.628  1.00  0.00     0.189 C 
ATOM     10  O   UNL     1       4.006   1.960  19.230  1.00  0.00    -0.294 OA
BRANCH   9  11
ATOM     11  C   UNL     1       3.245   2.758  17.150  1.00  0.00     0.234 C 
BRANCH  11  12
ATOM     12  O   UNL     1       2.374   1.936  16.421  1.00  0.00    -0.388 OA
ATOM     13  H   UNL     1       2.198   1.139  16.986  1.00  0.00     0.211 HD
ENDBRANCH  11  12
ENDBRANCH   9  11
ENDBRANCH   8   9
BRANCH   8  14
ATOM     14  O   UNL     1       0.687   2.499  18.685  1.00  0.00    -0.382 OA
ATOM     15  H   UNL     1       0.409   1.620  19.056  1.00  0.00     0.211 HD
ENDBRANCH   8  14
ENDBRANCH   1   8
BRANCH   1  16
ATOM     16  O   UNL     1       2.978   4.841  20.317  1.00  0.00    -0.387 OA
ATOM     17  H   UNL     1       3.400   4.039  20.720  1.00  0.00     0.211 HD
ENDBRANCH   1  16
TORSDOF 10
ENDMDL
MODEL 2
REMARK VINA RESULT:    -5.006      1.581      3.198
REMARK INTER + INTRA:          -7.924
REMARK INTER:                  -6.687
REMARK INTRA:                  -1.236
REMARK UNBOUND:                -0.723
REMARK SMILES O=C(CO)[C@H](O)[C@@H](O)[C@@H](O)CO
REMARK SMILES IDX 7 1 9 2 11 3 12 4 10 6 5 8 2 9 1 10 3 11 4 12 6 14 8 16
REMARK H PARENT 12 5 10 7 4 13 6 15 8 17
REMARK Flexibility Score: inf
ROOT
ATOM      1  C   UNL     1       2.965   4.152  17.971  1.00  0.00     0.181 C 
ENDROOT
BRANCH   1   2
ATOM      2  C   UNL     1       2.590   3.836  19.445  1.00  0.00     0.171 C 
BRANCH   2   3
ATOM      3  C   UNL     1       1.097   3.510  19.612  1.00  0.00     0.190 C 
BRANCH   3   4
ATOM      4  O   UNL     1       0.729   2.504  18.709  1.00  0.00    -0.394 OA
ATOM      5  H   UNL     1       0.423   1.737  19.259  1.00  0.00     0.210 HD
ENDBRANCH   3   4
ENDBRANCH   2   3
BRANCH   2   6
ATOM      6  O   UNL     1       2.945   4.907  20.282  1.00  0.00    -0.388 OA
ATOM      7  H   UNL     1       2.971   4.555  21.210  1.00  0.00     0.211 HD
ENDBRANCH   2   6
ENDBRANCH   1   2
BRANCH   1   8
ATOM      8  C   UNL     1       3.676   2.990  17.226  1.00  0.00     0.214 C 
BRANCH   8   9
ATOM      9  C   UNL     1       3.123   2.845  15.821  1.00  0.00     0.189 C 
ATOM     10  O   UNL     1       3.183   3.797  15.059  1.00  0.00    -0.294 OA
BRANCH   9  11
ATOM     11  C   UNL     1       2.510   1.557  15.333  1.00  0.00     0.234 C 
BRANCH  11  12
ATOM     12  O   UNL     1       1.328   1.282  16.034  1.00  0.00    -0.388 OA
ATOM     13  H   UNL     1       0.652   1.936  15.717  1.00  0.00     0.211 HD
ENDBRANCH  11  12
ENDBRANCH   9  11
ENDBRANCH   8   9
BRANCH   8  14
ATOM     14  O   UNL     1       3.533   1.791  17.946  1.00  0.00    -0.382 OA
ATOM     15  H   UNL     1       4.339   1.700  18.520  1.00  0.00     0.211 HD
ENDBRANCH   8  14
ENDBRANCH   1   8
BRANCH   1  16
ATOM     16  O   UNL     1       1.828   4.583  17.263  1.00  0.00    -0.387 OA
ATOM     17  H   UNL     1       2.064   4.617  16.300  1.00  0.00     0.211 HD
ENDBRANCH   1  16
TORSDOF 10
ENDMDL
MODEL 3
REMARK VINA RESULT:    -4.947      1.130      2.300
REMARK INTER + INTRA:          -7.838
REMARK INTER:                  -7.246
REMARK INTRA:                  -0.593
REMARK UNBOUND:                -0.723
REMARK SMILES O=C(CO)[C@H](O)[C@@H](O)[C@@H](O)CO
REMARK SMILES IDX 7 1 9 2 11 3 12 4 10 6 5 8 2 9 1 10 3 11 4 12 6 14 8 16
REMARK H PARENT 12 5 10 7 4 13 6 15 8 17
REMARK Flexibility Score: inf
ROOT
ATOM      1  C   UNL     1       1.867   3.839  18.363  1.00  0.00     0.181 C 
ENDROOT
BRANCH   1   2
ATOM      2  C   UNL     1       1.931   5.024  19.365  1.00  0.00     0.171 C 
BRANCH   2   3
ATOM      3  C   UNL     1       2.225   6.364  18.669  1.00  0.00     0.190 C 
BRANCH   3   4
ATOM      4  O   UNL     1       1.866   7.422  19.513  1.00  0.00    -0.394 OA
ATOM      5  H   UNL     1       2.710   7.743  19.928  1.00  0.00     0.210 HD
ENDBRANCH   3   4
ENDBRANCH   2   3
BRANCH   2   6
ATOM      6  O   UNL     1       2.895   4.777  20.357  1.00  0.00    -0.388 OA
ATOM      7  H   UNL     1       2.406   4.634  21.209  1.00  0.00     0.211 HD
ENDBRANCH   2   6
ENDBRANCH   1   2
BRANCH   1   8
ATOM      8  C   UNL     1       3.251   3.262  17.961  1.00  0.00     0.214 C 
BRANCH   8   9
ATOM      9  C   UNL     1       3.335   3.089  16.457  1.00  0.00     0.189 C 
ATOM     10  O   UNL     1       3.691   4.035  15.770  1.00  0.00    -0.294 OA
BRANCH   9  11
ATOM     11  C   UNL     1       3.002   1.783  15.782  1.00  0.00     0.234 C 
BRANCH  11  12
ATOM     12  O   UNL     1       1.698   1.385  16.106  1.00  0.00    -0.388 OA
ATOM     13  H   UNL     1       1.086   2.020  15.649  1.00  0.00     0.211 HD
ENDBRANCH  11  12
ENDBRANCH   9  11
ENDBRANCH   8   9
BRANCH   8  14
ATOM     14  O   UNL     1       3.479   2.041  18.618  1.00  0.00    -0.382 OA
ATOM     15  H   UNL     1       4.285   2.163  19.186  1.00  0.00     0.211 HD
ENDBRANCH   8  14
ENDBRANCH   1   8
BRANCH   1  16
ATOM     16  O   UNL     1       1.025   2.828  18.863  1.00  0.00    -0.387 OA
ATOM     17  H   UNL     1       1.130   2.031  18.282  1.00  0.00     0.211 HD
ENDBRANCH   1  16
TORSDOF 10
ENDMDL
MODEL 4
REMARK VINA RESULT:    -4.878      1.290      3.912
REMARK INTER + INTRA:          -7.739
REMARK INTER:                  -7.197
REMARK INTRA:                  -0.543
REMARK UNBOUND:                -0.723
REMARK SMILES O=C(CO)[C@H](O)[C@@H](O)[C@@H](O)CO
REMARK SMILES IDX 7 1 9 2 11 3 12 4 10 6 5 8 2 9 1 10 3 11 4 12 6 14 8 16
REMARK H PARENT 12 5 10 7 4 13 6 15 8 17
REMARK Flexibility Score: inf
ROOT
ATOM      1  C   UNL     1       3.294   2.883  17.670  1.00  0.00     0.181 C 
ENDROOT
BRANCH   1   2
ATOM      2  C   UNL     1       3.154   2.240  16.263  1.00  0.00     0.171 C 
BRANCH   2   3
ATOM      3  C   UNL     1       3.402   3.248  15.130  1.00  0.00     0.190 C 
BRANCH   3   4
ATOM      4  O   UNL     1       4.272   4.253  15.575  1.00  0.00    -0.394 OA
ATOM      5  H   UNL     1       3.801   4.718  16.314  1.00  0.00     0.210 HD
ENDBRANCH   3   4
ENDBRANCH   2   3
BRANCH   2   6
ATOM      6  O   UNL     1       1.884   1.654  16.116  1.00  0.00    -0.388 OA
ATOM      7  H   UNL     1       1.464   2.068  15.318  1.00  0.00     0.211 HD
ENDBRANCH   2   6
ENDBRANCH   1   2
BRANCH   1   8
ATOM      8  C   UNL     1       2.032   3.645  18.157  1.00  0.00     0.214 C 
BRANCH   8   9
ATOM      9  C   UNL     1       2.427   4.807  19.048  1.00  0.00     0.189 C 
ATOM     10  O   UNL     1       2.923   4.575  20.140  1.00  0.00    -0.294 OA
BRANCH   9  11
ATOM     11  C   UNL     1       2.234   6.241  18.625  1.00  0.00     0.234 C 
BRANCH  11  12
ATOM     12  O   UNL     1       1.863   7.029  19.723  1.00  0.00    -0.388 OA
ATOM     13  H   UNL     1       2.242   7.933  19.563  1.00  0.00     0.211 HD
ENDBRANCH  11  12
ENDBRANCH   9  11
ENDBRANCH   8   9
BRANCH   8  14
ATOM     14  O   UNL     1       1.165   2.769  18.831  1.00  0.00    -0.382 OA
ATOM     15  H   UNL     1       0.609   3.324  19.440  1.00  0.00     0.211 HD
ENDBRANCH   8  14
ENDBRANCH   1   8
BRANCH   1  16
ATOM     16  O   UNL     1       3.691   1.913  18.609  1.00  0.00    -0.387 OA
ATOM     17  H   UNL     1       3.533   1.019  18.209  1.00  0.00     0.211 HD
ENDBRANCH   1  16
TORSDOF 10
ENDMDL
MODEL 5
REMARK VINA RESULT:    -4.875      1.792      3.060
REMARK INTER + INTRA:          -7.736
REMARK INTER:                  -7.047
REMARK INTRA:                  -0.689
REMARK UNBOUND:                -0.723
REMARK SMILES O=C(CO)[C@H](O)[C@@H](O)[C@@H](O)CO
REMARK SMILES IDX 7 1 9 2 11 3 12 4 10 6 5 8 2 9 1 10 3 11 4 12 6 14 8 16
REMARK H PARENT 12 5 10 7 4 13 6 15 8 17
REMARK Flexibility Score: inf
ROOT
ATOM      1  C   UNL     1       2.697   4.348  18.084  1.00  0.00     0.181 C 
ENDROOT
BRANCH   1   2
ATOM      2  C   UNL     1       2.723   3.999  19.598  1.00  0.00     0.171 C 
BRANCH   2   3
ATOM      3  C   UNL     1       1.477   3.215  20.040  1.00  0.00     0.190 C 
BRANCH   3   4
ATOM      4  O   UNL     1       0.417   4.103  20.266  1.00  0.00    -0.394 OA
ATOM      5  H   UNL     1       0.793   4.852  20.798  1.00  0.00     0.210 HD
ENDBRANCH   3   4
ENDBRANCH   2   3
BRANCH   2   6
ATOM      6  O   UNL     1       2.855   5.167  20.368  1.00  0.00    -0.388 OA
ATOM      7  H   UNL     1       3.827   5.334  20.480  1.00  0.00     0.211 HD
ENDBRANCH   2   6
ENDBRANCH   1   2
BRANCH   1   8
ATOM      8  C   UNL     1       3.177   3.202  17.153  1.00  0.00     0.214 C 
BRANCH   8   9
ATOM      9  C   UNL     1       3.661   3.763  15.830  1.00  0.00     0.189 C 
ATOM     10  O   UNL     1       3.705   4.974  15.679  1.00  0.00    -0.294 OA
BRANCH   9  11
ATOM     11  C   UNL     1       4.097   2.871  14.695  1.00  0.00     0.234 C 
BRANCH  11  12
ATOM     12  O   UNL     1       4.365   1.578  15.166  1.00  0.00    -0.388 OA
ATOM     13  H   UNL     1       4.296   1.617  16.156  1.00  0.00     0.211 HD
ENDBRANCH  11  12
ENDBRANCH   9  11
ENDBRANCH   8   9
BRANCH   8  14
ATOM     14  O   UNL     1       2.143   2.271  16.954  1.00  0.00    -0.382 OA
ATOM     15  H   UNL     1       1.494   2.689  16.329  1.00  0.00     0.211 HD
ENDBRANCH   8  14
ENDBRANCH   1   8
BRANCH   1  16
ATOM     16  O   UNL     1       1.417   4.796  17.712  1.00  0.00    -0.387 OA
ATOM     17  H   UNL     1       1.528   5.622  17.173  1.00  0.00     0.211 HD
ENDBRANCH   1  16
TORSDOF 10
ENDMDL
MODEL 6
REMARK VINA RESULT:    -4.828      1.751      3.367
REMARK INTER + INTRA:          -7.668
REMARK INTER:                  -6.580
REMARK INTRA:                  -1.088
REMARK UNBOUND:                -0.723
REMARK SMILES O=C(CO)[C@H](O)[C@@H](O)[C@@H](O)CO
REMARK SMILES IDX 7 1 9 2 11 3 12 4 10 6 5 8 2 9 1 10 3 11 4 12 6 14 8 16
REMARK H PARENT 12 5 10 7 4 13 6 15 8 17
REMARK Flexibility Score: inf
ROOT
ATOM      1  C   UNL     1       3.105   3.609  17.217  1.00  0.00     0.181 C 
ENDROOT
BRANCH   1   2
ATOM      2  C   UNL     1       2.449   3.380  18.606  1.00  0.00     0.171 C 
BRANCH   2   3
ATOM      3  C   UNL     1       1.637   4.597  19.077  1.00  0.00     0.190 C 
BRANCH   3   4
ATOM      4  O   UNL     1       0.273   4.371  18.852  1.00  0.00    -0.394 OA
ATOM      5  H   UNL     1      -0.171   4.457  19.736  1.00  0.00     0.210 HD
ENDBRANCH   3   4
ENDBRANCH   2   3
BRANCH   2   6
ATOM      6  O   UNL     1       3.425   3.053  19.562  1.00  0.00    -0.388 OA
ATOM      7  H   UNL     1       3.788   3.908  19.912  1.00  0.00     0.211 HD
ENDBRANCH   2   6
ENDBRANCH   1   2
BRANCH   1   8
ATOM      8  C   UNL     1       3.833   2.365  16.638  1.00  0.00     0.214 C 
BRANCH   8   9
ATOM      9  C   UNL     1       3.299   2.035  15.257  1.00  0.00     0.189 C 
ATOM     10  O   UNL     1       3.659   2.709  14.305  1.00  0.00    -0.294 OA
BRANCH   9  11
ATOM     11  C   UNL     1       2.344   0.892  15.022  1.00  0.00     0.234 C 
BRANCH  11  12
ATOM     12  O   UNL     1       1.157   1.092  15.740  1.00  0.00    -0.388 OA
ATOM     13  H   UNL     1       1.216   0.519  16.548  1.00  0.00     0.211 HD
ENDBRANCH  11  12
ENDBRANCH   9  11
ENDBRANCH   8   9
BRANCH   8  14
ATOM     14  O   UNL     1       3.689   1.269  17.505  1.00  0.00    -0.382 OA
ATOM     15  H   UNL     1       4.479   1.270  18.107  1.00  0.00     0.211 HD
ENDBRANCH   8  14
ENDBRANCH   1   8
BRANCH   1  16
ATOM     16  O   UNL     1       2.153   4.104  16.306  1.00  0.00    -0.387 OA
ATOM     17  H   UNL     1       1.352   3.522  16.357  1.00  0.00     0.211 HD
ENDBRANCH   1  16
TORSDOF 10
ENDMDL
MODEL 7
REMARK VINA RESULT:    -4.691      2.184      3.687
REMARK INTER + INTRA:          -7.471
REMARK INTER:                  -6.462
REMARK INTRA:                  -1.008
REMARK UNBOUND:                -0.723
REMARK SMILES O=C(CO)[C@H](O)[C@@H](O)[C@@H](O)CO
REMARK SMILES IDX 7 1 9 2 11 3 12 4 10 6 5 8 2 9 1 10 3 11 4 12 6 14 8 16
REMARK H PARENT 12 5 10 7 4 13 6 15 8 17
REMARK Flexibility Score: inf
ROOT
ATOM      1  C   UNL     1       3.172   2.665  17.106  1.00  0.00     0.181 C 
ENDROOT
BRANCH   1   2
ATOM      2  C   UNL     1       2.934   3.734  18.208  1.00  0.00     0.171 C 
BRANCH   2   3
ATOM      3  C   UNL     1       1.540   3.618  18.845  1.00  0.00     0.190 C 
BRANCH   3   4
ATOM      4  O   UNL     1       1.452   2.427  19.577  1.00  0.00    -0.394 OA
ATOM      5  H   UNL     1       2.083   2.524  20.338  1.00  0.00     0.210 HD
ENDBRANCH   3   4
ENDBRANCH   2   3
BRANCH   2   6
ATOM      6  O   UNL     1       3.119   5.025  17.686  1.00  0.00    -0.388 OA
ATOM      7  H   UNL     1       4.051   5.294  17.898  1.00  0.00     0.211 HD
ENDBRANCH   2   6
ENDBRANCH   1   2
BRANCH   1   8
ATOM      8  C   UNL     1       4.266   1.619  17.452  1.00  0.00     0.214 C 
BRANCH   8   9
ATOM      9  C   UNL     1       4.316   0.535  16.392  1.00  0.00     0.189 C 
ATOM     10  O   UNL     1       3.889   0.778  15.274  1.00  0.00    -0.294 OA
BRANCH   9  11
ATOM     11  C   UNL     1       4.885  -0.832  16.674  1.00  0.00     0.234 C 
BRANCH  11  12
ATOM     12  O   UNL     1       4.053  -1.536  17.555  1.00  0.00    -0.388 OA
ATOM     13  H   UNL     1       4.643  -1.922  18.254  1.00  0.00     0.211 HD
ENDBRANCH  11  12
ENDBRANCH   9  11
ENDBRANCH   8   9
BRANCH   8  14
ATOM     14  O   UNL     1       4.028   1.066  18.722  1.00  0.00    -0.382 OA
ATOM     15  H   UNL     1       4.373   1.716  19.390  1.00  0.00     0.211 HD
ENDBRANCH   8  14
ENDBRANCH   1   8
BRANCH   1  16
ATOM     16  O   UNL     1       1.959   2.033  16.774  1.00  0.00    -0.387 OA
ATOM     17  H   UNL     1       1.773   1.347  17.465  1.00  0.00     0.211 HD
ENDBRANCH   1  16
TORSDOF 10
ENDMDL
MODEL 8
REMARK VINA RESULT:    -4.684      1.952      4.201
REMARK INTER + INTRA:          -7.460
REMARK INTER:                  -6.753
REMARK INTRA:                  -0.707
REMARK UNBOUND:                -0.723
REMARK SMILES O=C(CO)[C@H](O)[C@@H](O)[C@@H](O)CO
REMARK SMILES IDX 7 1 9 2 11 3 12 4 10 6 5 8 2 9 1 10 3 11 4 12 6 14 8 16
REMARK H PARENT 12 5 10 7 4 13 6 15 8 17
REMARK Flexibility Score: inf
ROOT
ATOM      1  C   UNL     1       3.247   3.011  16.604  1.00  0.00     0.181 C 
ENDROOT
BRANCH   1   2
ATOM      2  C   UNL     1       3.425   3.807  15.282  1.00  0.00     0.171 C 
BRANCH   2   3
ATOM      3  C   UNL     1       4.170   2.998  14.207  1.00  0.00     0.190 C 
BRANCH   3   4
ATOM      4  O   UNL     1       4.773   1.878  14.793  1.00  0.00    -0.394 OA
ATOM      5  H   UNL     1       4.402   1.813  15.711  1.00  0.00     0.210 HD
ENDBRANCH   3   4
ENDBRANCH   2   3
BRANCH   2   6
ATOM      6  O   UNL     1       4.096   5.018  15.524  1.00  0.00    -0.388 OA
ATOM      7  H   UNL     1       4.243   5.450  14.642  1.00  0.00     0.211 HD
ENDBRANCH   2   6
ENDBRANCH   1   2
BRANCH   1   8
ATOM      8  C   UNL     1       2.944   3.891  17.847  1.00  0.00     0.214 C 
BRANCH   8   9
ATOM      9  C   UNL     1       2.835   3.030  19.090  1.00  0.00     0.189 C 
ATOM     10  O   UNL     1       3.673   2.164  19.288  1.00  0.00    -0.294 OA
BRANCH   9  11
ATOM     11  C   UNL     1       1.727   3.215  20.096  1.00  0.00     0.234 C 
BRANCH  11  12
ATOM     12  O   UNL     1       1.089   1.994  20.351  1.00  0.00    -0.388 OA
ATOM     13  H   UNL     1       1.656   1.511  21.008  1.00  0.00     0.211 HD
ENDBRANCH  11  12
ENDBRANCH   9  11
ENDBRANCH   8   9
BRANCH   8  14
ATOM     14  O   UNL     1       1.766   4.630  17.645  1.00  0.00    -0.382 OA
ATOM     15  H   UNL     1       1.906   5.181  16.830  1.00  0.00     0.211 HD
ENDBRANCH   8  14
ENDBRANCH   1   8
BRANCH   1  16
ATOM     16  O   UNL     1       2.267   2.014  16.442  1.00  0.00    -0.387 OA
ATOM     17  H   UNL     1       2.185   1.823  15.472  1.00  0.00     0.211 HD
ENDBRANCH   1  16
TORSDOF 10
ENDMDL
MODEL 9
REMARK VINA RESULT:    -4.562      1.953      3.240
REMARK INTER + INTRA:          -7.285
REMARK INTER:                  -6.401
REMARK INTRA:                  -0.884
REMARK UNBOUND:                -0.723
REMARK SMILES O=C(CO)[C@H](O)[C@@H](O)[C@@H](O)CO
REMARK SMILES IDX 7 1 9 2 11 3 12 4 10 6 5 8 2 9 1 10 3 11 4 12 6 14 8 16
REMARK H PARENT 12 5 10 7 4 13 6 15 8 17
REMARK Flexibility Score: inf
ROOT
ATOM      1  C   UNL     1       2.992   3.784  17.421  1.00  0.00     0.181 C 
ENDROOT
BRANCH   1   2
ATOM      2  C   UNL     1       2.458   3.439  18.838  1.00  0.00     0.171 C 
BRANCH   2   3
ATOM      3  C   UNL     1       2.747   4.550  19.860  1.00  0.00     0.190 C 
BRANCH   3   4
ATOM      4  O   UNL     1       1.907   5.645  19.618  1.00  0.00    -0.394 OA
ATOM      5  H   UNL     1       1.126   5.532  20.220  1.00  0.00     0.210 HD
ENDBRANCH   3   4
ENDBRANCH   2   3
BRANCH   2   6
ATOM      6  O   UNL     1       3.000   2.222  19.285  1.00  0.00    -0.388 OA
ATOM      7  H   UNL     1       3.392   2.389  20.181  1.00  0.00     0.211 HD
ENDBRANCH   2   6
ENDBRANCH   1   2
BRANCH   1   8
ATOM      8  C   UNL     1       3.344   2.549  16.549  1.00  0.00     0.214 C 
BRANCH   8   9
ATOM      9  C   UNL     1       4.007   2.985  15.257  1.00  0.00     0.189 C 
ATOM     10  O   UNL     1       4.130   4.178  15.027  1.00  0.00    -0.294 OA
BRANCH   9  11
ATOM     11  C   UNL     1       4.527   1.991  14.250  1.00  0.00     0.234 C 
BRANCH  11  12
ATOM     12  O   UNL     1       3.561   1.009  13.990  1.00  0.00    -0.388 OA
ATOM     13  H   UNL     1       4.006   0.314  13.437  1.00  0.00     0.211 HD
ENDBRANCH  11  12
ENDBRANCH   9  11
ENDBRANCH   8   9
BRANCH   8  14
ATOM     14  O   UNL     1       2.189   1.792  16.288  1.00  0.00    -0.382 OA
ATOM     15  H   UNL     1       2.469   0.840  16.251  1.00  0.00     0.211 HD
ENDBRANCH   8  14
ENDBRANCH   1   8
BRANCH   1  16
ATOM     16  O   UNL     1       2.087   4.630  16.755  1.00  0.00    -0.387 OA
ATOM     17  H   UNL     1       2.545   5.494  16.586  1.00  0.00     0.211 HD
ENDBRANCH   1  16
TORSDOF 10
ENDMDL
