MODEL 1
REMARK VINA RESULT:    -4.881      0.000      0.000
REMARK INTER + INTRA:          -7.526
REMARK INTER:                  -6.878
REMARK INTRA:                  -0.648
REMARK UNBOUND:                -0.648
REMARK SMILES CC(=O)OCC[C@@H](C)CCC=C(C)C
REMARK SMILES IDX 8 1 7 2 9 3 10 4 11 5 12 6 13 7 14 8 6 9 5 10 4 11 2 12 3 13
REMARK SMILES IDX 1 14
REMARK H PARENT
REMARK Flexibility Score: inf
ROOT
ATOM      1  C   UNL     1      14.199 -10.418  34.012  1.00  0.00     0.008 C 
ATOM      2  C   UNL     1      13.506  -9.410  33.076  1.00  0.00    -0.011 C 
ENDROOT
BRANCH   2   3
ATOM      3  C   UNL     1      14.500  -8.845  32.031  1.00  0.00     0.007 C 
BRANCH   3   4
ATOM      4  C   UNL     1      14.888  -7.381  32.300  1.00  0.00     0.027 C 
BRANCH   4   5
ATOM      5  C   UNL     1      13.766  -6.451  31.909  1.00  0.00    -0.028 C 
ATOM      6  C   UNL     1      13.747  -5.126  32.180  1.00  0.00    -0.080 C 
ATOM      7  C   UNL     1      14.903  -4.429  32.856  1.00  0.00     0.039 C 
ATOM      8  C   UNL     1      12.561  -4.293  31.768  1.00  0.00     0.039 C 
ENDBRANCH   4   5
ENDBRANCH   3   4
ENDBRANCH   2   3
BRANCH   2   9
ATOM      9  C   UNL     1      12.305 -10.062  32.348  1.00  0.00     0.045 C 
BRANCH   9  10
ATOM     10  C   UNL     1      12.111  -9.541  30.917  1.00  0.00     0.233 C 
BRANCH  10  11
ATOM     11  O   UNL     1      11.836 -10.621  30.027  1.00  0.00    -0.466 OA
BRANCH  11  12
ATOM     12  C   UNL     1      12.687 -10.990  28.979  1.00  0.00     0.302 C 
ATOM     13  O   UNL     1      12.240 -11.160  27.813  1.00  0.00    -0.253 OA
ATOM     14  C   UNL     1      14.149 -11.125  29.236  1.00  0.00     0.139 C 
ENDBRANCH  11  12
ENDBRANCH  10  11
ENDBRANCH   9  10
ENDBRANCH   2   9
TORSDOF 7
ENDMDL
MODEL 2
REMARK VINA RESULT:    -4.787     13.006     14.973
REMARK INTER + INTRA:          -7.394
REMARK INTER:                  -6.855
REMARK INTRA:                  -0.538
REMARK UNBOUND:                -0.648
REMARK SMILES CC(=O)OCC[C@@H](C)CCC=C(C)C
REMARK SMILES IDX 8 1 7 2 9 3 10 4 11 5 12 6 13 7 14 8 6 9 5 10 4 11 2 12 3 13
REMARK SMILES IDX 1 14
REMARK H PARENT
REMARK Flexibility Score: inf
ROOT
ATOM      1  C   UNL     1       1.589 -16.023  33.289  1.00  0.00     0.008 C 
ATOM      2  C   UNL     1       0.564 -16.877  32.521  1.00  0.00    -0.011 C 
ENDROOT
BRANCH   2   3
ATOM      3  C   UNL     1       0.670 -16.638  30.995  1.00  0.00     0.007 C 
BRANCH   3   4
ATOM      4  C   UNL     1       1.085 -15.201  30.638  1.00  0.00     0.027 C 
BRANCH   4   5
ATOM      5  C   UNL     1       1.649 -15.139  29.240  1.00  0.00    -0.028 C 
ATOM      6  C   UNL     1       2.956 -15.315  28.939  1.00  0.00    -0.080 C 
ATOM      7  C   UNL     1       3.982 -15.663  29.989  1.00  0.00     0.039 C 
ATOM      8  C   UNL     1       3.418 -15.203  27.508  1.00  0.00     0.039 C 
ENDBRANCH   4   5
ENDBRANCH   3   4
ENDBRANCH   2   3
BRANCH   2   9
ATOM      9  C   UNL     1       0.756 -18.383  32.824  1.00  0.00     0.045 C 
BRANCH   9  10
ATOM     10  C   UNL     1       1.566 -19.117  31.747  1.00  0.00     0.233 C 
BRANCH  10  11
ATOM     11  O   UNL     1       1.762 -20.482  32.115  1.00  0.00    -0.466 OA
BRANCH  11  12
ATOM     12  C   UNL     1       2.521 -21.381  31.358  1.00  0.00     0.302 C 
ATOM     13  O   UNL     1       2.613 -22.593  31.694  1.00  0.00    -0.253 OA
ATOM     14  C   UNL     1       3.182 -20.912  30.107  1.00  0.00     0.139 C 
ENDBRANCH  11  12
ENDBRANCH  10  11
ENDBRANCH   9  10
ENDBRANCH   2   9
TORSDOF 7
ENDMDL
MODEL 3
REMARK VINA RESULT:    -4.765      2.879      5.606
REMARK INTER + INTRA:          -7.363
REMARK INTER:                  -6.724
REMARK INTRA:                  -0.639
REMARK UNBOUND:                -0.648
REMARK SMILES CC(=O)OCC[C@@H](C)CCC=C(C)C
REMARK SMILES IDX 8 1 7 2 9 3 10 4 11 5 12 6 13 7 14 8 6 9 5 10 4 11 2 12 3 13
REMARK SMILES IDX 1 14
REMARK H PARENT
REMARK Flexibility Score: inf
ROOT
ATOM      1  C   UNL     1      14.952  -9.752  33.607  1.00  0.00     0.008 C 
ATOM      2  C   UNL     1      14.864  -8.546  32.653  1.00  0.00    -0.011 C 
ENDROOT
BRANCH   2   3
ATOM      3  C   UNL     1      13.550  -8.577  31.835  1.00  0.00     0.007 C 
BRANCH   3   4
ATOM      4  C   UNL     1      12.852  -9.947  31.867  1.00  0.00     0.027 C 
BRANCH   4   5
ATOM      5  C   UNL     1      12.303 -10.299  30.507  1.00  0.00    -0.028 C 
ATOM      6  C   UNL     1      13.050 -10.786  29.488  1.00  0.00    -0.080 C 
ATOM      7  C   UNL     1      14.519 -11.090  29.645  1.00  0.00     0.039 C 
ATOM      8  C   UNL     1      12.404 -11.078  28.158  1.00  0.00     0.039 C 
ENDBRANCH   4   5
ENDBRANCH   3   4
ENDBRANCH   2   3
BRANCH   2   9
ATOM      9  C   UNL     1      14.958  -7.212  33.432  1.00  0.00     0.045 C 
BRANCH   9  10
ATOM     10  C   UNL     1      14.808  -5.976  32.533  1.00  0.00     0.233 C 
BRANCH  10  11
ATOM     11  O   UNL     1      13.638  -5.242  32.888  1.00  0.00    -0.466 OA
BRANCH  11  12
ATOM     12  C   UNL     1      12.874  -4.518  31.966  1.00  0.00     0.302 C 
ATOM     13  O   UNL     1      12.694  -3.278  32.106  1.00  0.00    -0.253 OA
ATOM     14  C   UNL     1      12.317  -5.213  30.770  1.00  0.00     0.139 C 
ENDBRANCH  11  12
ENDBRANCH  10  11
ENDBRANCH   9  10
ENDBRANCH   2   9
TORSDOF 7
ENDMDL
MODEL 4
REMARK VINA RESULT:    -4.526     12.973     15.470
REMARK INTER + INTRA:          -7.025
REMARK INTER:                  -6.302
REMARK INTRA:                  -0.724
REMARK UNBOUND:                -0.648
REMARK SMILES CC(=O)OCC[C@@H](C)CCC=C(C)C
REMARK SMILES IDX 8 1 7 2 9 3 10 4 11 5 12 6 13 7 14 8 6 9 5 10 4 11 2 12 3 13
REMARK SMILES IDX 1 14
REMARK H PARENT
REMARK Flexibility Score: inf
ROOT
ATOM      1  C   UNL     1       2.116 -16.205  32.998  1.00  0.00     0.008 C 
ATOM      2  C   UNL     1       1.167 -16.946  32.038  1.00  0.00    -0.011 C 
ENDROOT
BRANCH   2   3
ATOM      3  C   UNL     1       0.288 -17.967  32.801  1.00  0.00     0.007 C 
BRANCH   3   4
ATOM      4  C   UNL     1       0.917 -19.368  32.873  1.00  0.00     0.027 C 
BRANCH   4   5
ATOM      5  C   UNL     1       1.692 -19.671  31.615  1.00  0.00    -0.028 C 
ATOM      6  C   UNL     1       2.410 -20.801  31.417  1.00  0.00    -0.080 C 
ATOM      7  C   UNL     1       2.447 -21.916  32.433  1.00  0.00     0.039 C 
ATOM      8  C   UNL     1       3.172 -20.989  30.130  1.00  0.00     0.039 C 
ENDBRANCH   4   5
ENDBRANCH   3   4
ENDBRANCH   2   3
BRANCH   2   9
ATOM      9  C   UNL     1       0.260 -15.951  31.274  1.00  0.00     0.045 C 
BRANCH   9  10
ATOM     10  C   UNL     1       0.640 -15.803  29.794  1.00  0.00     0.233 C 
BRANCH  10  11
ATOM     11  O   UNL     1       1.751 -14.920  29.651  1.00  0.00    -0.466 OA
BRANCH  11  12
ATOM     12  C   UNL     1       2.974 -15.306  29.091  1.00  0.00     0.302 C 
ATOM     13  O   UNL     1       3.166 -15.240  27.847  1.00  0.00    -0.253 OA
ATOM     14  C   UNL     1       4.083 -15.747  29.985  1.00  0.00     0.139 C 
ENDBRANCH  11  12
ENDBRANCH  10  11
ENDBRANCH   9  10
ENDBRANCH   2   9
TORSDOF 7
ENDMDL
MODEL 5
REMARK VINA RESULT:    -4.503     13.800     15.676
REMARK INTER + INTRA:          -6.993
REMARK INTER:                  -6.418
REMARK INTRA:                  -0.575
REMARK UNBOUND:                -0.648
REMARK SMILES CC(=O)OCC[C@@H](C)CCC=C(C)C
REMARK SMILES IDX 8 1 7 2 9 3 10 4 11 5 12 6 13 7 14 8 6 9 5 10 4 11 2 12 3 13
REMARK SMILES IDX 1 14
REMARK H PARENT
REMARK Flexibility Score: inf
ROOT
ATOM      1  C   UNL     1      -0.302 -17.287  33.764  1.00  0.00     0.008 C 
ATOM      2  C   UNL     1       0.137 -18.478  32.892  1.00  0.00    -0.011 C 
ENDROOT
BRANCH   2   3
ATOM      3  C   UNL     1       1.311 -18.085  31.962  1.00  0.00     0.007 C 
BRANCH   3   4
ATOM      4  C   UNL     1       1.941 -16.730  32.326  1.00  0.00     0.027 C 
BRANCH   4   5
ATOM      5  C   UNL     1       2.727 -16.178  31.163  1.00  0.00    -0.028 C 
ATOM      6  C   UNL     1       2.178 -15.507  30.124  1.00  0.00    -0.080 C 
ATOM      7  C   UNL     1       0.705 -15.184  30.065  1.00  0.00     0.039 C 
ATOM      8  C   UNL     1       3.055 -15.022  28.997  1.00  0.00     0.039 C 
ENDBRANCH   4   5
ENDBRANCH   3   4
ENDBRANCH   2   3
BRANCH   2   9
ATOM      9  C   UNL     1       0.551 -19.686  33.767  1.00  0.00     0.045 C 
BRANCH   9  10
ATOM     10  C   UNL     1       0.709 -20.986  32.966  1.00  0.00     0.233 C 
BRANCH  10  11
ATOM     11  O   UNL     1       2.090 -21.297  32.791  1.00  0.00    -0.466 OA
BRANCH  11  12
ATOM     12  C   UNL     1       2.619 -21.805  31.599  1.00  0.00     0.302 C 
ATOM     13  O   UNL     1       2.823 -23.041  31.457  1.00  0.00    -0.253 OA
ATOM     14  C   UNL     1       2.887 -20.879  30.462  1.00  0.00     0.139 C 
ENDBRANCH  11  12
ENDBRANCH  10  11
ENDBRANCH   9  10
ENDBRANCH   2   9
TORSDOF 7
ENDMDL
MODEL 6
REMARK VINA RESULT:    -4.309     18.688     21.635
REMARK INTER + INTRA:          -6.720
REMARK INTER:                  -5.764
REMARK INTRA:                  -0.955
REMARK UNBOUND:                -0.648
REMARK SMILES CC(=O)OCC[C@@H](C)CCC=C(C)C
REMARK SMILES IDX 8 1 7 2 9 3 10 4 11 5 12 6 13 7 14 8 6 9 5 10 4 11 2 12 3 13
REMARK SMILES IDX 1 14
REMARK H PARENT
REMARK Flexibility Score: inf
ROOT
ATOM      1  C   UNL     1       2.532 -15.285  18.696  1.00  0.00     0.008 C 
ATOM      2  C   UNL     1       1.953 -16.688  18.437  1.00  0.00    -0.011 C 
ENDROOT
BRANCH   2   3
ATOM      3  C   UNL     1       1.010 -17.123  19.586  1.00  0.00     0.007 C 
BRANCH   3   4
ATOM      4  C   UNL     1      -0.470 -17.163  19.168  1.00  0.00     0.027 C 
BRANCH   4   5
ATOM      5  C   UNL     1      -1.091 -18.490  19.529  1.00  0.00    -0.028 C 
ATOM      6  C   UNL     1      -1.585 -19.369  18.627  1.00  0.00    -0.080 C 
ATOM      7  C   UNL     1      -1.498 -19.126  17.140  1.00  0.00     0.039 C 
ATOM      8  C   UNL     1      -2.212 -20.656  19.099  1.00  0.00     0.039 C 
ENDBRANCH   4   5
ENDBRANCH   3   4
ENDBRANCH   2   3
BRANCH   2   9
ATOM      9  C   UNL     1       1.187 -16.735  17.093  1.00  0.00     0.045 C 
BRANCH   9  10
ATOM     10  C   UNL     1       1.160 -15.384  16.365  1.00  0.00     0.233 C 
BRANCH  10  11
ATOM     11  O   UNL     1      -0.149 -14.818  16.414  1.00  0.00    -0.466 OA
BRANCH  11  12
ATOM     12  C   UNL     1      -1.281 -15.454  15.893  1.00  0.00     0.302 C 
ATOM     13  O   UNL     1      -1.232 -16.061  14.789  1.00  0.00    -0.253 OA
ATOM     14  C   UNL     1      -2.546 -15.463  16.683  1.00  0.00     0.139 C 
ENDBRANCH  11  12
ENDBRANCH  10  11
ENDBRANCH   9  10
ENDBRANCH   2   9
TORSDOF 7
ENDMDL
MODEL 7
REMARK VINA RESULT:    -4.177     14.998     16.927
REMARK INTER + INTRA:          -6.534
REMARK INTER:                  -5.991
REMARK INTRA:                  -0.542
REMARK UNBOUND:                -0.648
REMARK SMILES CC(=O)OCC[C@@H](C)CCC=C(C)C
REMARK SMILES IDX 8 1 7 2 9 3 10 4 11 5 12 6 13 7 14 8 6 9 5 10 4 11 2 12 3 13
REMARK SMILES IDX 1 14
REMARK H PARENT
REMARK Flexibility Score: inf
ROOT
ATOM      1  C   UNL     1       2.857 -20.824  30.044  1.00  0.00     0.008 C 
ATOM      2  C   UNL     1       2.520 -20.589  31.528  1.00  0.00    -0.011 C 
ENDROOT
BRANCH   2   3
ATOM      3  C   UNL     1       1.523 -19.417  31.695  1.00  0.00     0.007 C 
BRANCH   3   4
ATOM      4  C   UNL     1       2.172 -18.039  31.481  1.00  0.00     0.027 C 
BRANCH   4   5
ATOM      5  C   UNL     1       1.143 -17.027  31.042  1.00  0.00    -0.028 C 
ATOM      6  C   UNL     1       1.428 -15.916  30.324  1.00  0.00    -0.080 C 
ATOM      7  C   UNL     1       2.821 -15.616  29.829  1.00  0.00     0.039 C 
ATOM      8  C   UNL     1       0.325 -14.954  29.963  1.00  0.00     0.039 C 
ENDBRANCH   4   5
ENDBRANCH   3   4
ENDBRANCH   2   3
BRANCH   2   9
ATOM      9  C   UNL     1       1.931 -21.867  32.174  1.00  0.00     0.045 C 
BRANCH   9  10
ATOM     10  C   UNL     1       1.015 -21.571  33.370  1.00  0.00     0.233 C 
BRANCH  10  11
ATOM     11  O   UNL     1      -0.237 -22.238  33.215  1.00  0.00    -0.466 OA
BRANCH  11  12
ATOM     12  C   UNL     1      -1.472 -21.606  33.397  1.00  0.00     0.302 C 
ATOM     13  O   UNL     1      -2.551 -22.219  33.174  1.00  0.00    -0.253 OA
ATOM     14  C   UNL     1      -1.511 -20.209  33.917  1.00  0.00     0.139 C 
ENDBRANCH  11  12
ENDBRANCH  10  11
ENDBRANCH   9  10
ENDBRANCH   2   9
TORSDOF 7
ENDMDL
MODEL 8
REMARK VINA RESULT:    -4.090     14.595     17.030
REMARK INTER + INTRA:          -6.412
REMARK INTER:                  -5.829
REMARK INTRA:                  -0.583
REMARK UNBOUND:                -0.648
REMARK SMILES CC(=O)OCC[C@@H](C)CCC=C(C)C
REMARK SMILES IDX 8 1 7 2 9 3 10 4 11 5 12 6 13 7 14 8 6 9 5 10 4 11 2 12 3 13
REMARK SMILES IDX 1 14
REMARK H PARENT
REMARK Flexibility Score: inf
ROOT
ATOM      1  C   UNL     1       3.257 -20.812  30.373  1.00  0.00     0.008 C 
ATOM      2  C   UNL     1       2.050 -20.829  31.329  1.00  0.00    -0.011 C 
ENDROOT
BRANCH   2   3
ATOM      3  C   UNL     1       2.271 -21.830  32.489  1.00  0.00     0.007 C 
BRANCH   3   4
ATOM      4  C   UNL     1       1.289 -21.627  33.655  1.00  0.00     0.027 C 
BRANCH   4   5
ATOM      5  C   UNL     1      -0.084 -22.134  33.291  1.00  0.00    -0.028 C 
ATOM      6  C   UNL     1      -1.227 -21.432  33.472  1.00  0.00    -0.080 C 
ATOM      7  C   UNL     1      -1.225 -20.021  34.006  1.00  0.00     0.039 C 
ATOM      8  C   UNL     1      -2.551 -22.047  33.099  1.00  0.00     0.039 C 
ENDBRANCH   4   5
ENDBRANCH   3   4
ENDBRANCH   2   3
BRANCH   2   9
ATOM      9  C   UNL     1       1.777 -19.418  31.906  1.00  0.00     0.045 C 
BRANCH   9  10
ATOM     10  C   UNL     1       1.891 -18.304  30.857  1.00  0.00     0.233 C 
BRANCH  10  11
ATOM     11  O   UNL     1       2.616 -17.194  31.387  1.00  0.00    -0.466 OA
BRANCH  11  12
ATOM     12  C   UNL     1       3.482 -16.405  30.623  1.00  0.00     0.302 C 
ATOM     13  O   UNL     1       4.732 -16.519  30.738  1.00  0.00    -0.253 OA
ATOM     14  C   UNL     1       2.917 -15.461  29.616  1.00  0.00     0.139 C 
ENDBRANCH  11  12
ENDBRANCH  10  11
ENDBRANCH   9  10
ENDBRANCH   2   9
TORSDOF 7
ENDMDL
MODEL 9
REMARK VINA RESULT:    -4.060     19.366     21.482
REMARK INTER + INTRA:          -6.369
REMARK INTER:                  -5.376
REMARK INTRA:                  -0.994
REMARK UNBOUND:                -0.648
REMARK SMILES CC(=O)OCC[C@@H](C)CCC=C(C)C
REMARK SMILES IDX 8 1 7 2 9 3 10 4 11 5 12 6 13 7 14 8 6 9 5 10 4 11 2 12 3 13
REMARK SMILES IDX 1 14
REMARK H PARENT
REMARK Flexibility Score: inf
ROOT
ATOM      1  C   UNL     1       2.721 -16.746  16.324  1.00  0.00     0.008 C 
ATOM      2  C   UNL     1       1.612 -16.213  17.248  1.00  0.00    -0.011 C 
ENDROOT
BRANCH   2   3
ATOM      3  C   UNL     1       2.040 -16.289  18.735  1.00  0.00     0.007 C 
BRANCH   3   4
ATOM      4  C   UNL     1       1.089 -17.140  19.592  1.00  0.00     0.027 C 
BRANCH   4   5
ATOM      5  C   UNL     1      -0.158 -17.490  18.819  1.00  0.00    -0.028 C 
ATOM      6  C   UNL     1      -1.214 -18.158  19.340  1.00  0.00    -0.080 C 
ATOM      7  C   UNL     1      -1.268 -18.564  20.792  1.00  0.00     0.039 C 
ATOM      8  C   UNL     1      -2.400 -18.482  18.469  1.00  0.00     0.039 C 
ENDBRANCH   4   5
ENDBRANCH   3   4
ENDBRANCH   2   3
BRANCH   2   9
ATOM      9  C   UNL     1       1.242 -14.753  16.890  1.00  0.00     0.045 C 
BRANCH   9  10
ATOM     10  C   UNL     1       0.130 -14.652  15.836  1.00  0.00     0.233 C 
BRANCH  10  11
ATOM     11  O   UNL     1      -1.101 -15.141  16.365  1.00  0.00    -0.466 OA
BRANCH  11  12
ATOM     12  C   UNL     1      -1.864 -16.136  15.744  1.00  0.00     0.302 C 
ATOM     13  O   UNL     1      -3.124 -16.090  15.760  1.00  0.00    -0.253 OA
ATOM     14  C   UNL     1      -1.176 -17.232  15.003  1.00  0.00     0.139 C 
ENDBRANCH  11  12
ENDBRANCH  10  11
ENDBRANCH   9  10
ENDBRANCH   2   9
TORSDOF 7
ENDMDL
