MODEL 1
REMARK VINA RESULT:    -5.319      0.000      0.000
REMARK INTER + INTRA:          -9.608
REMARK INTER:                  -8.118
REMARK INTRA:                  -1.491
REMARK UNBOUND:                -1.491
REMARK SMILES CC(=O)CCC=C(C)CCC=C(C)CCC=C(C)C
REMARK SMILES IDX 10 1 11 2 12 3 13 4 14 5 15 6 16 7 18 8 17 9 19 10 9 11 7 12
REMARK SMILES IDX 6 13 8 14 5 15 4 16 2 17 3 18 1 19
REMARK H PARENT
REMARK Flexibility Score: inf
ROOT
ATOM      1  C   UNL     1      16.992  43.581  18.894  1.00  0.00     0.032 C 
ENDROOT
BRANCH   1   2
ATOM      2  C   UNL     1      15.812  43.835  19.797  1.00  0.00    -0.028 C 
ATOM      3  C   UNL     1      15.285  45.065  19.991  1.00  0.00    -0.077 C 
ATOM      4  C   UNL     1      15.853  46.281  19.297  1.00  0.00     0.039 C 
BRANCH   3   5
ATOM      5  C   UNL     1      14.101  45.227  20.917  1.00  0.00     0.034 C 
BRANCH   5   6
ATOM      6  C   UNL     1      12.793  44.883  20.195  1.00  0.00     0.032 C 
BRANCH   6   7
ATOM      7  C   UNL     1      12.092  46.135  19.731  1.00  0.00    -0.028 C 
ATOM      8  C   UNL     1       9.843  45.038  19.641  1.00  0.00     0.039 C 
ATOM      9  C   UNL     1      10.764  46.227  19.502  1.00  0.00    -0.080 C 
ATOM     10  C   UNL     1      10.199  47.559  19.078  1.00  0.00     0.039 C 
ENDBRANCH   6   7
ENDBRANCH   5   6
ENDBRANCH   3   5
ENDBRANCH   1   2
BRANCH   1  11
ATOM     11  C   UNL     1      18.144  42.911  19.653  1.00  0.00     0.034 C 
BRANCH  11  12
ATOM     12  C   UNL     1      18.851  43.916  20.538  1.00  0.00    -0.077 C 
ATOM     13  C   UNL     1      19.354  45.040  19.978  1.00  0.00    -0.028 C 
ATOM     14  C   UNL     1      18.988  43.631  22.015  1.00  0.00     0.039 C 
BRANCH  13  15
ATOM     15  C   UNL     1      19.978  46.176  20.751  1.00  0.00     0.035 C 
BRANCH  15  16
ATOM     16  C   UNL     1      19.022  47.372  20.861  1.00  0.00     0.079 C 
BRANCH  16  17
ATOM     17  C   UNL     1      19.520  48.556  20.071  1.00  0.00     0.130 C 
ATOM     18  O   UNL     1      20.706  48.849  20.110  1.00  0.00    -0.300 OA
ATOM     19  C   UNL     1      18.588  49.380  19.233  1.00  0.00     0.087 C 
ENDBRANCH  16  17
ENDBRANCH  15  16
ENDBRANCH  13  15
ENDBRANCH  11  12
ENDBRANCH   1  11
TORSDOF 9
ENDMDL
MODEL 2
REMARK VINA RESULT:    -5.094      2.294      6.758
REMARK INTER + INTRA:          -9.264
REMARK INTER:                  -7.864
REMARK INTRA:                  -1.400
REMARK UNBOUND:                -1.491
REMARK SMILES CC(=O)CCC=C(C)CCC=C(C)CCC=C(C)C
REMARK SMILES IDX 10 1 11 2 12 3 13 4 14 5 15 6 16 7 18 8 17 9 19 10 9 11 7 12
REMARK SMILES IDX 6 13 8 14 5 15 4 16 2 17 3 18 1 19
REMARK H PARENT
REMARK Flexibility Score: inf
ROOT
ATOM      1  C   UNL     1      18.734  43.681  20.577  1.00  0.00     0.032 C 
ENDROOT
BRANCH   1   2
ATOM      2  C   UNL     1      19.586  44.902  20.340  1.00  0.00    -0.028 C 
ATOM      3  C   UNL     1      19.144  46.161  20.554  1.00  0.00    -0.077 C 
ATOM      4  C   UNL     1      17.745  46.427  21.060  1.00  0.00     0.039 C 
BRANCH   3   5
ATOM      5  C   UNL     1      20.069  47.327  20.287  1.00  0.00     0.034 C 
BRANCH   5   6
ATOM      6  C   UNL     1      19.367  48.658  20.585  1.00  0.00     0.032 C 
BRANCH   6   7
ATOM      7  C   UNL     1      19.286  49.510  19.343  1.00  0.00    -0.028 C 
ATOM      8  C   UNL     1      21.504  50.600  19.751  1.00  0.00     0.039 C 
ATOM      9  C   UNL     1      20.249  50.368  18.941  1.00  0.00    -0.080 C 
ATOM     10  C   UNL     1      20.045  51.125  17.654  1.00  0.00     0.039 C 
ENDBRANCH   6   7
ENDBRANCH   5   6
ENDBRANCH   3   5
ENDBRANCH   1   2
BRANCH   1  11
ATOM     11  C   UNL     1      18.164  43.132  19.263  1.00  0.00     0.034 C 
BRANCH  11  12
ATOM     12  C   UNL     1      16.674  43.391  19.182  1.00  0.00    -0.077 C 
ATOM     13  C   UNL     1      16.232  44.427  18.432  1.00  0.00    -0.028 C 
ATOM     14  C   UNL     1      15.726  42.499  19.947  1.00  0.00     0.039 C 
BRANCH  13  15
ATOM     15  C   UNL     1      14.777  44.732  18.168  1.00  0.00     0.035 C 
BRANCH  15  16
ATOM     16  C   UNL     1      14.276  45.882  19.053  1.00  0.00     0.079 C 
BRANCH  16  17
ATOM     17  C   UNL     1      13.314  45.394  20.106  1.00  0.00     0.130 C 
ATOM     18  O   UNL     1      13.650  45.406  21.281  1.00  0.00    -0.300 OA
ATOM     19  C   UNL     1      11.947  44.895  19.741  1.00  0.00     0.087 C 
ENDBRANCH  16  17
ENDBRANCH  15  16
ENDBRANCH  13  15
ENDBRANCH  11  12
ENDBRANCH   1  11
TORSDOF 9
ENDMDL
MODEL 3
REMARK VINA RESULT:    -5.093      1.506      1.853
REMARK INTER + INTRA:          -9.263
REMARK INTER:                  -7.588
REMARK INTRA:                  -1.675
REMARK UNBOUND:                -1.491
REMARK SMILES CC(=O)CCC=C(C)CCC=C(C)CCC=C(C)C
REMARK SMILES IDX 10 1 11 2 12 3 13 4 14 5 15 6 16 7 18 8 17 9 19 10 9 11 7 12
REMARK SMILES IDX 6 13 8 14 5 15 4 16 2 17 3 18 1 19
REMARK H PARENT
REMARK Flexibility Score: inf
ROOT
ATOM      1  C   UNL     1      17.247  44.097  19.206  1.00  0.00     0.032 C 
ENDROOT
BRANCH   1   2
ATOM      2  C   UNL     1      15.856  44.116  19.790  1.00  0.00    -0.028 C 
ATOM      3  C   UNL     1      15.341  45.190  20.428  1.00  0.00    -0.077 C 
ATOM      4  C   UNL     1      16.138  46.463  20.595  1.00  0.00     0.039 C 
BRANCH   3   5
ATOM      5  C   UNL     1      13.936  45.118  20.984  1.00  0.00     0.034 C 
BRANCH   5   6
ATOM      6  C   UNL     1      12.911  44.955  19.856  1.00  0.00     0.032 C 
BRANCH   6   7
ATOM      7  C   UNL     1      12.982  46.117  18.897  1.00  0.00    -0.028 C 
ATOM      8  C   UNL     1      13.543  44.669  16.932  1.00  0.00     0.039 C 
ATOM      9  C   UNL     1      13.240  46.002  17.576  1.00  0.00    -0.080 C 
ATOM     10  C   UNL     1      13.239  47.252  16.733  1.00  0.00     0.039 C 
ENDBRANCH   6   7
ENDBRANCH   5   6
ENDBRANCH   3   5
ENDBRANCH   1   2
BRANCH   1  11
ATOM     11  C   UNL     1      18.207  43.272  20.073  1.00  0.00     0.034 C 
BRANCH  11  12
ATOM     12  C   UNL     1      19.193  44.177  20.781  1.00  0.00    -0.077 C 
ATOM     13  C   UNL     1      19.418  45.414  20.284  1.00  0.00    -0.028 C 
ATOM     14  C   UNL     1      19.907  43.670  22.012  1.00  0.00     0.039 C 
BRANCH  13  15
ATOM     15  C   UNL     1      20.282  46.459  20.947  1.00  0.00     0.035 C 
BRANCH  15  16
ATOM     16  C   UNL     1      20.240  47.790  20.181  1.00  0.00     0.079 C 
BRANCH  16  17
ATOM     17  C   UNL     1      19.880  48.940  21.087  1.00  0.00     0.130 C 
ATOM     18  O   UNL     1      20.590  49.935  21.108  1.00  0.00    -0.300 OA
ATOM     19  C   UNL     1      18.662  48.891  21.960  1.00  0.00     0.087 C 
ENDBRANCH  16  17
ENDBRANCH  15  16
ENDBRANCH  13  15
ENDBRANCH  11  12
ENDBRANCH   1  11
TORSDOF 9
ENDMDL
MODEL 4
REMARK VINA RESULT:    -5.086      2.886      7.130
REMARK INTER + INTRA:          -9.253
REMARK INTER:                  -8.295
REMARK INTRA:                  -0.959
REMARK UNBOUND:                -1.491
REMARK SMILES CC(=O)CCC=C(C)CCC=C(C)CCC=C(C)C
REMARK SMILES IDX 10 1 11 2 12 3 13 4 14 5 15 6 16 7 18 8 17 9 19 10 9 11 7 12
REMARK SMILES IDX 6 13 8 14 5 15 4 16 2 17 3 18 1 19
REMARK H PARENT
REMARK Flexibility Score: inf
ROOT
ATOM      1  C   UNL     1      16.695  43.385  19.189  1.00  0.00     0.032 C 
ENDROOT
BRANCH   1   2
ATOM      2  C   UNL     1      18.122  43.802  19.438  1.00  0.00    -0.028 C 
ATOM      3  C   UNL     1      18.474  44.690  20.394  1.00  0.00    -0.077 C 
ATOM      4  C   UNL     1      17.439  45.328  21.292  1.00  0.00     0.039 C 
BRANCH   3   5
ATOM      5  C   UNL     1      19.931  45.051  20.571  1.00  0.00     0.034 C 
BRANCH   5   6
ATOM      6  C   UNL     1      20.229  46.428  19.964  1.00  0.00     0.032 C 
BRANCH   6   7
ATOM      7  C   UNL     1      20.170  47.503  21.020  1.00  0.00    -0.028 C 
ATOM      8  C   UNL     1      18.861  49.075  19.575  1.00  0.00     0.039 C 
ATOM      9  C   UNL     1      19.538  48.687  20.869  1.00  0.00    -0.080 C 
ATOM     10  C   UNL     1      19.529  49.649  22.029  1.00  0.00     0.039 C 
ENDBRANCH   6   7
ENDBRANCH   5   6
ENDBRANCH   3   5
ENDBRANCH   1   2
BRANCH   1  11
ATOM     11  C   UNL     1      15.940  44.435  18.364  1.00  0.00     0.034 C 
BRANCH  11  12
ATOM     12  C   UNL     1      14.558  44.667  18.936  1.00  0.00    -0.077 C 
ATOM     13  C   UNL     1      14.177  45.931  19.230  1.00  0.00    -0.028 C 
ATOM     14  C   UNL     1      13.650  43.484  19.176  1.00  0.00     0.039 C 
BRANCH  13  15
ATOM     15  C   UNL     1      12.796  46.323  19.696  1.00  0.00     0.035 C 
BRANCH  15  16
ATOM     16  C   UNL     1      11.827  46.474  18.514  1.00  0.00     0.079 C 
BRANCH  16  17
ATOM     17  C   UNL     1      10.436  46.824  18.978  1.00  0.00     0.130 C 
ATOM     18  O   UNL     1       9.720  45.951  19.446  1.00  0.00    -0.300 OA
ATOM     19  C   UNL     1       9.913  48.226  18.881  1.00  0.00     0.087 C 
ENDBRANCH  16  17
ENDBRANCH  15  16
ENDBRANCH  13  15
ENDBRANCH  11  12
ENDBRANCH   1  11
TORSDOF 9
ENDMDL
MODEL 5
REMARK VINA RESULT:    -5.072      1.623      2.907
REMARK INTER + INTRA:          -9.232
REMARK INTER:                  -7.959
REMARK INTRA:                  -1.273
REMARK UNBOUND:                -1.491
REMARK SMILES CC(=O)CCC=C(C)CCC=C(C)CCC=C(C)C
REMARK SMILES IDX 10 1 11 2 12 3 13 4 14 5 15 6 16 7 18 8 17 9 19 10 9 11 7 12
REMARK SMILES IDX 6 13 8 14 5 15 4 16 2 17 3 18 1 19
REMARK H PARENT
REMARK Flexibility Score: inf
ROOT
ATOM      1  C   UNL     1      15.163  45.958  18.023  1.00  0.00     0.032 C 
ENDROOT
BRANCH   1   2
ATOM      2  C   UNL     1      13.670  46.087  17.852  1.00  0.00    -0.028 C 
ATOM      3  C   UNL     1      12.818  46.201  18.895  1.00  0.00    -0.077 C 
ATOM      4  C   UNL     1      13.318  46.212  20.321  1.00  0.00     0.039 C 
BRANCH   3   5
ATOM      5  C   UNL     1      11.334  46.324  18.630  1.00  0.00     0.034 C 
BRANCH   5   6
ATOM      6  C   UNL     1      10.526  45.981  19.888  1.00  0.00     0.032 C 
BRANCH   6   7
ATOM      7  C   UNL     1       9.495  44.921  19.589  1.00  0.00    -0.028 C 
ATOM      8  C   UNL     1      11.124  43.036  19.849  1.00  0.00     0.039 C 
ATOM      9  C   UNL     1       9.743  43.593  19.592  1.00  0.00    -0.080 C 
ATOM     10  C   UNL     1       8.601  42.649  19.312  1.00  0.00     0.039 C 
ENDBRANCH   6   7
ENDBRANCH   5   6
ENDBRANCH   3   5
ENDBRANCH   1   2
BRANCH   1  11
ATOM     11  C   UNL     1      15.586  44.490  18.157  1.00  0.00     0.034 C 
BRANCH  11  12
ATOM     12  C   UNL     1      16.804  44.368  19.048  1.00  0.00    -0.077 C 
ATOM     13  C   UNL     1      17.114  45.393  19.874  1.00  0.00    -0.028 C 
ATOM     14  C   UNL     1      17.646  43.116  18.981  1.00  0.00     0.039 C 
BRANCH  13  15
ATOM     15  C   UNL     1      18.225  45.364  20.895  1.00  0.00     0.035 C 
BRANCH  15  16
ATOM     16  C   UNL     1      19.209  46.524  20.687  1.00  0.00     0.079 C 
BRANCH  16  17
ATOM     17  C   UNL     1      18.508  47.859  20.716  1.00  0.00     0.130 C 
ATOM     18  O   UNL     1      17.886  48.191  21.714  1.00  0.00    -0.300 OA
ATOM     19  C   UNL     1      18.563  48.793  19.543  1.00  0.00     0.087 C 
ENDBRANCH  16  17
ENDBRANCH  15  16
ENDBRANCH  13  15
ENDBRANCH  11  12
ENDBRANCH   1  11
TORSDOF 9
ENDMDL
MODEL 6
REMARK VINA RESULT:    -5.018      2.816      7.153
REMARK INTER + INTRA:          -9.148
REMARK INTER:                  -7.977
REMARK INTRA:                  -1.171
REMARK UNBOUND:                -1.491
REMARK SMILES CC(=O)CCC=C(C)CCC=C(C)CCC=C(C)C
REMARK SMILES IDX 10 1 11 2 12 3 13 4 14 5 15 6 16 7 18 8 17 9 19 10 9 11 7 12
REMARK SMILES IDX 6 13 8 14 5 15 4 16 2 17 3 18 1 19
REMARK H PARENT
REMARK Flexibility Score: inf
ROOT
ATOM      1  C   UNL     1      17.019  43.139  19.614  1.00  0.00     0.032 C 
ENDROOT
BRANCH   1   2
ATOM      2  C   UNL     1      18.251  43.986  19.812  1.00  0.00    -0.028 C 
ATOM      3  C   UNL     1      19.047  43.883  20.899  1.00  0.00    -0.077 C 
ATOM      4  C   UNL     1      18.750  42.892  22.000  1.00  0.00     0.039 C 
BRANCH   3   5
ATOM      5  C   UNL     1      20.262  44.776  21.016  1.00  0.00     0.034 C 
BRANCH   5   6
ATOM      6  C   UNL     1      20.170  45.952  20.036  1.00  0.00     0.032 C 
BRANCH   6   7
ATOM      7  C   UNL     1      20.206  47.267  20.775  1.00  0.00    -0.028 C 
ATOM      8  C   UNL     1      17.712  47.492  20.824  1.00  0.00     0.039 C 
ATOM      9  C   UNL     1      19.110  47.958  21.158  1.00  0.00    -0.080 C 
ATOM     10  C   UNL     1      19.302  49.241  21.926  1.00  0.00     0.039 C 
ENDBRANCH   6   7
ENDBRANCH   5   6
ENDBRANCH   3   5
ENDBRANCH   1   2
BRANCH   1  11
ATOM     11  C   UNL     1      15.799  43.753  20.312  1.00  0.00     0.034 C 
BRANCH  11  12
ATOM     12  C   UNL     1      14.877  44.398  19.299  1.00  0.00    -0.077 C 
ATOM     13  C   UNL     1      13.543  44.206  19.414  1.00  0.00    -0.028 C 
ATOM     14  C   UNL     1      15.471  45.226  18.183  1.00  0.00     0.039 C 
BRANCH  13  15
ATOM     15  C   UNL     1      12.504  44.878  18.550  1.00  0.00     0.035 C 
BRANCH  15  16
ATOM     16  C   UNL     1      11.905  46.108  19.246  1.00  0.00     0.079 C 
BRANCH  16  17
ATOM     17  C   UNL     1      10.407  45.994  19.385  1.00  0.00     0.130 C 
ATOM     18  O   UNL     1       9.706  46.971  19.168  1.00  0.00    -0.300 OA
ATOM     19  C   UNL     1       9.759  44.700  19.781  1.00  0.00     0.087 C 
ENDBRANCH  16  17
ENDBRANCH  15  16
ENDBRANCH  13  15
ENDBRANCH  11  12
ENDBRANCH   1  11
TORSDOF 9
ENDMDL
MODEL 7
REMARK VINA RESULT:    -4.979      2.831      6.293
REMARK INTER + INTRA:          -9.089
REMARK INTER:                  -7.070
REMARK INTRA:                  -2.019
REMARK UNBOUND:                -1.491
REMARK SMILES CC(=O)CCC=C(C)CCC=C(C)CCC=C(C)C
REMARK SMILES IDX 10 1 11 2 12 3 13 4 14 5 15 6 16 7 18 8 17 9 19 10 9 11 7 12
REMARK SMILES IDX 6 13 8 14 5 15 4 16 2 17 3 18 1 19
REMARK H PARENT
REMARK Flexibility Score: inf
ROOT
ATOM      1  C   UNL     1      19.054  41.054  20.276  1.00  0.00     0.032 C 
ENDROOT
BRANCH   1   2
ATOM      2  C   UNL     1      19.956  42.254  20.419  1.00  0.00    -0.028 C 
ATOM      3  C   UNL     1      20.078  42.949  21.572  1.00  0.00    -0.077 C 
ATOM      4  C   UNL     1      19.307  42.557  22.811  1.00  0.00     0.039 C 
BRANCH   3   5
ATOM      5  C   UNL     1      21.006  44.142  21.624  1.00  0.00     0.034 C 
BRANCH   5   6
ATOM      6  C   UNL     1      20.590  45.201  20.596  1.00  0.00     0.032 C 
BRANCH   6   7
ATOM      7  C   UNL     1      19.208  45.724  20.896  1.00  0.00    -0.028 C 
ATOM      8  C   UNL     1      19.780  48.074  20.243  1.00  0.00     0.039 C 
ATOM      9  C   UNL     1      18.822  47.006  20.718  1.00  0.00    -0.080 C 
ATOM     10  C   UNL     1      17.392  47.375  21.025  1.00  0.00     0.039 C 
ENDBRANCH   6   7
ENDBRANCH   5   6
ENDBRANCH   3   5
ENDBRANCH   1   2
BRANCH   1  11
ATOM     11  C   UNL     1      17.996  41.276  19.188  1.00  0.00     0.034 C 
BRANCH  11  12
ATOM     12  C   UNL     1      17.107  42.450  19.543  1.00  0.00    -0.077 C 
ATOM     13  C   UNL     1      17.072  43.517  18.713  1.00  0.00    -0.028 C 
ATOM     14  C   UNL     1      16.297  42.403  20.817  1.00  0.00     0.039 C 
BRANCH  13  15
ATOM     15  C   UNL     1      16.151  44.701  18.879  1.00  0.00     0.035 C 
BRANCH  15  16
ATOM     16  C   UNL     1      14.760  44.417  18.296  1.00  0.00     0.079 C 
BRANCH  16  17
ATOM     17  C   UNL     1      13.673  44.637  19.318  1.00  0.00     0.130 C 
ATOM     18  O   UNL     1      12.842  43.762  19.511  1.00  0.00    -0.300 OA
ATOM     19  C   UNL     1      13.594  45.910  20.107  1.00  0.00     0.087 C 
ENDBRANCH  16  17
ENDBRANCH  15  16
ENDBRANCH  13  15
ENDBRANCH  11  12
ENDBRANCH   1  11
TORSDOF 9
ENDMDL
MODEL 8
REMARK VINA RESULT:    -4.907      2.536      3.754
REMARK INTER + INTRA:          -8.979
REMARK INTER:                  -7.403
REMARK INTRA:                  -1.575
REMARK UNBOUND:                -1.491
REMARK SMILES CC(=O)CCC=C(C)CCC=C(C)CCC=C(C)C
REMARK SMILES IDX 10 1 11 2 12 3 13 4 14 5 15 6 16 7 18 8 17 9 19 10 9 11 7 12
REMARK SMILES IDX 6 13 8 14 5 15 4 16 2 17 3 18 1 19
REMARK H PARENT
REMARK Flexibility Score: inf
ROOT
ATOM      1  C   UNL     1      16.264  43.482  19.351  1.00  0.00     0.032 C 
ENDROOT
BRANCH   1   2
ATOM      2  C   UNL     1      15.737  44.493  18.363  1.00  0.00    -0.028 C 
ATOM      3  C   UNL     1      15.339  45.734  18.722  1.00  0.00    -0.077 C 
ATOM      4  C   UNL     1      15.404  46.195  20.159  1.00  0.00     0.039 C 
BRANCH   3   5
ATOM      5  C   UNL     1      14.822  46.682  17.663  1.00  0.00     0.034 C 
BRANCH   5   6
ATOM      6  C   UNL     1      13.534  46.141  17.031  1.00  0.00     0.032 C 
BRANCH   6   7
ATOM      7  C   UNL     1      12.321  46.779  17.661  1.00  0.00    -0.028 C 
ATOM      8  C   UNL     1      11.823  44.789  19.099  1.00  0.00     0.039 C 
ATOM      9  C   UNL     1      11.557  46.194  18.609  1.00  0.00    -0.080 C 
ATOM     10  C   UNL     1      10.395  46.971  19.176  1.00  0.00     0.039 C 
ENDBRANCH   6   7
ENDBRANCH   5   6
ENDBRANCH   3   5
ENDBRANCH   1   2
BRANCH   1  11
ATOM     11  C   UNL     1      17.776  43.278  19.191  1.00  0.00     0.034 C 
BRANCH  11  12
ATOM     12  C   UNL     1      18.498  43.633  20.473  1.00  0.00    -0.077 C 
ATOM     13  C   UNL     1      18.349  42.829  21.550  1.00  0.00    -0.028 C 
ATOM     14  C   UNL     1      19.352  44.878  20.519  1.00  0.00     0.039 C 
BRANCH  13  15
ATOM     15  C   UNL     1      19.095  42.994  22.852  1.00  0.00     0.035 C 
BRANCH  15  16
ATOM     16  C   UNL     1      20.378  42.151  22.875  1.00  0.00     0.079 C 
BRANCH  16  17
ATOM     17  C   UNL     1      21.523  42.899  23.512  1.00  0.00     0.130 C 
ATOM     18  O   UNL     1      21.855  42.627  24.657  1.00  0.00    -0.300 OA
ATOM     19  C   UNL     1      22.266  43.967  22.767  1.00  0.00     0.087 C 
ENDBRANCH  16  17
ENDBRANCH  15  16
ENDBRANCH  13  15
ENDBRANCH  11  12
ENDBRANCH   1  11
TORSDOF 9
ENDMDL
MODEL 9
REMARK VINA RESULT:    -4.884      2.943      7.203
REMARK INTER + INTRA:          -8.945
REMARK INTER:                  -7.635
REMARK INTRA:                  -1.309
REMARK UNBOUND:                -1.491
REMARK SMILES CC(=O)CCC=C(C)CCC=C(C)CCC=C(C)C
REMARK SMILES IDX 10 1 11 2 12 3 13 4 14 5 15 6 16 7 18 8 17 9 19 10 9 11 7 12
REMARK SMILES IDX 6 13 8 14 5 15 4 16 2 17 3 18 1 19
REMARK H PARENT
REMARK Flexibility Score: inf
ROOT
ATOM      1  C   UNL     1      17.518  43.521  20.389  1.00  0.00     0.032 C 
ENDROOT
BRANCH   1   2
ATOM      2  C   UNL     1      18.721  44.403  20.164  1.00  0.00    -0.028 C 
ATOM      3  C   UNL     1      18.762  45.701  20.540  1.00  0.00    -0.077 C 
ATOM      4  C   UNL     1      17.586  46.358  21.226  1.00  0.00     0.039 C 
BRANCH   3   5
ATOM      5  C   UNL     1      20.010  46.511  20.273  1.00  0.00     0.034 C 
BRANCH   5   6
ATOM      6  C   UNL     1      19.920  47.887  20.944  1.00  0.00     0.032 C 
BRANCH   6   7
ATOM      7  C   UNL     1      19.689  48.969  19.917  1.00  0.00    -0.028 C 
ATOM      8  C   UNL     1      18.128  50.258  21.392  1.00  0.00     0.039 C 
ATOM      9  C   UNL     1      18.907  50.052  20.113  1.00  0.00    -0.080 C 
ATOM     10  C   UNL     1      18.803  51.072  19.007  1.00  0.00     0.039 C 
ENDBRANCH   6   7
ENDBRANCH   5   6
ENDBRANCH   3   5
ENDBRANCH   1   2
BRANCH   1  11
ATOM     11  C   UNL     1      16.732  43.306  19.090  1.00  0.00     0.034 C 
BRANCH  11  12
ATOM     12  C   UNL     1      15.495  44.179  19.067  1.00  0.00    -0.077 C 
ATOM     13  C   UNL     1      14.422  43.810  19.803  1.00  0.00    -0.028 C 
ATOM     14  C   UNL     1      15.488  45.427  18.216  1.00  0.00     0.039 C 
BRANCH  13  15
ATOM     15  C   UNL     1      13.170  44.638  19.966  1.00  0.00     0.035 C 
BRANCH  15  16
ATOM     16  C   UNL     1      12.015  44.082  19.120  1.00  0.00     0.079 C 
BRANCH  16  17
ATOM     17  C   UNL     1      10.749  43.950  19.928  1.00  0.00     0.130 C 
ATOM     18  O   UNL     1      10.359  44.896  20.595  1.00  0.00    -0.300 OA
ATOM     19  C   UNL     1       9.954  42.678  19.926  1.00  0.00     0.087 C 
ENDBRANCH  16  17
ENDBRANCH  15  16
ENDBRANCH  13  15
ENDBRANCH  11  12
ENDBRANCH   1  11
TORSDOF 9
ENDMDL
