MODEL 1
REMARK VINA RESULT:    -3.827      0.000      0.000
REMARK INTER + INTRA:          -9.092
REMARK INTER:                  -7.183
REMARK INTRA:                  -1.909
REMARK UNBOUND:                -1.909
REMARK SMILES O=C([O-])CCCCCCCCCCCCCCC(=O)[O-]
REMARK SMILES IDX 10 1 9 2 8 3 7 4 6 5 5 6 4 7 2 8 1 9 3 10 11 11 12 12 13 13
REMARK SMILES IDX 14 14 15 15 16 16 17 17 18 18 19 19 20 20
REMARK H PARENT
REMARK Flexibility Score: inf
ROOT
ATOM      1  C   UNL     1       5.517  -0.879  -5.627  1.00  0.00     0.000 C 
ENDROOT
BRANCH   1   2
ATOM      2  C   UNL     1       5.262   0.413  -4.836  1.00  0.00     0.000 C 
BRANCH   2   3
ATOM      3  C   UNL     1       5.107   1.645  -5.742  1.00  0.00     0.000 C 
BRANCH   3   4
ATOM      4  C   UNL     1       3.839   1.581  -6.613  1.00  0.00     0.000 C 
BRANCH   4   5
ATOM      5  C   UNL     1       4.021   2.281  -7.969  1.00  0.00     0.000 C 
BRANCH   5   6
ATOM      6  C   UNL     1       5.483   2.681  -8.241  1.00  0.00     0.006 C 
BRANCH   6   7
ATOM      7  C   UNL     1       5.651   4.200  -8.379  1.00  0.00     0.053 C 
BRANCH   7   8
ATOM      8  C   UNL     1       7.081   4.617  -8.224  1.00  0.00     0.041 C 
ATOM      9  O   UNL     1       7.944   3.786  -7.832  1.00  0.00    -0.550 OA
ATOM     10  O   UNL     1       7.457   5.929  -8.479  1.00  0.00    -0.550 OA
ENDBRANCH   7   8
ENDBRANCH   6   7
ENDBRANCH   5   6
ENDBRANCH   4   5
ENDBRANCH   3   4
ENDBRANCH   2   3
ENDBRANCH   1   2
BRANCH   1  11
ATOM     11  C   UNL     1       6.836  -0.790  -6.410  1.00  0.00     0.000 C 
BRANCH  11  12
ATOM     12  C   UNL     1       6.624  -0.796  -7.933  1.00  0.00     0.000 C 
BRANCH  12  13
ATOM     13  C   UNL     1       5.281  -1.420  -8.342  1.00  0.00     0.000 C 
BRANCH  13  14
ATOM     14  C   UNL     1       5.498  -2.663  -9.217  1.00  0.00     0.000 C 
BRANCH  14  15
ATOM     15  C   UNL     1       5.195  -3.972  -8.470  1.00  0.00     0.000 C 
BRANCH  15  16
ATOM     16  C   UNL     1       6.382  -4.458  -7.620  1.00  0.00     0.006 C 
BRANCH  16  17
ATOM     17  C   UNL     1       6.057  -4.464  -6.120  1.00  0.00     0.053 C 
BRANCH  17  18
ATOM     18  C   UNL     1       7.195  -4.999  -5.308  1.00  0.00     0.041 C 
ATOM     19  O   UNL     1       8.230  -5.434  -5.877  1.00  0.00    -0.550 OA
ATOM     20  O   UNL     1       7.098  -5.052  -3.922  1.00  0.00    -0.550 OA
ENDBRANCH  17  18
ENDBRANCH  16  17
ENDBRANCH  15  16
ENDBRANCH  14  15
ENDBRANCH  13  14
ENDBRANCH  12  13
ENDBRANCH  11  12
ENDBRANCH   1  11
TORSDOF 15
ENDMDL
MODEL 2
REMARK VINA RESULT:    -3.793      3.516      4.978
REMARK INTER + INTRA:          -9.029
REMARK INTER:                  -6.975
REMARK INTRA:                  -2.054
REMARK UNBOUND:                -1.909
REMARK SMILES O=C([O-])CCCCCCCCCCCCCCC(=O)[O-]
REMARK SMILES IDX 10 1 9 2 8 3 7 4 6 5 5 6 4 7 2 8 1 9 3 10 11 11 12 12 13 13
REMARK SMILES IDX 14 14 15 15 16 16 17 17 18 18 19 19 20 20
REMARK H PARENT
REMARK Flexibility Score: inf
ROOT
ATOM      1  C   UNL     1       4.005   1.531  -6.529  1.00  0.00     0.000 C 
ENDROOT
BRANCH   1   2
ATOM      2  C   UNL     1       4.297   2.403  -7.760  1.00  0.00     0.000 C 
BRANCH   2   3
ATOM      3  C   UNL     1       4.007   1.679  -9.085  1.00  0.00     0.000 C 
BRANCH   3   4
ATOM      4  C   UNL     1       3.823   0.162  -8.900  1.00  0.00     0.000 C 
BRANCH   4   5
ATOM      5  C   UNL     1       4.985  -0.649  -9.497  1.00  0.00     0.000 C 
BRANCH   5   6
ATOM      6  C   UNL     1       4.791  -2.168  -9.343  1.00  0.00     0.006 C 
BRANCH   6   7
ATOM      7  C   UNL     1       6.102  -2.941  -9.533  1.00  0.00     0.053 C 
BRANCH   7   8
ATOM      8  C   UNL     1       5.914  -4.414  -9.331  1.00  0.00     0.041 C 
ATOM      9  O   UNL     1       4.852  -4.850  -8.812  1.00  0.00    -0.550 OA
ATOM     10  O   UNL     1       6.923  -5.300  -9.683  1.00  0.00    -0.550 OA
ENDBRANCH   7   8
ENDBRANCH   6   7
ENDBRANCH   5   6
ENDBRANCH   4   5
ENDBRANCH   3   4
ENDBRANCH   2   3
ENDBRANCH   1   2
BRANCH   1  11
ATOM     11  C   UNL     1       5.231   1.459  -5.607  1.00  0.00     0.000 C 
BRANCH  11  12
ATOM     12  C   UNL     1       5.622   0.015  -5.250  1.00  0.00     0.000 C 
BRANCH  12  13
ATOM     13  C   UNL     1       6.835  -0.485  -6.049  1.00  0.00     0.000 C 
BRANCH  13  14
ATOM     14  C   UNL     1       6.867  -2.020  -6.092  1.00  0.00     0.000 C 
BRANCH  14  15
ATOM     15  C   UNL     1       5.487  -2.648  -5.836  1.00  0.00     0.000 C 
BRANCH  15  16
ATOM     16  C   UNL     1       5.574  -4.139  -5.465  1.00  0.00     0.006 C 
BRANCH  16  17
ATOM     17  C   UNL     1       6.889  -4.483  -4.754  1.00  0.00     0.053 C 
BRANCH  17  18
ATOM     18  C   UNL     1       7.462  -5.778  -5.243  1.00  0.00     0.041 C 
ATOM     19  O   UNL     1       8.026  -6.564  -4.438  1.00  0.00    -0.550 OA
ATOM     20  O   UNL     1       7.404  -6.100  -6.594  1.00  0.00    -0.550 OA
ENDBRANCH  17  18
ENDBRANCH  16  17
ENDBRANCH  15  16
ENDBRANCH  14  15
ENDBRANCH  13  14
ENDBRANCH  12  13
ENDBRANCH  11  12
ENDBRANCH   1  11
TORSDOF 15
ENDMDL
MODEL 3
REMARK VINA RESULT:    -3.781      2.156      6.899
REMARK INTER + INTRA:          -9.006
REMARK INTER:                  -7.365
REMARK INTRA:                  -1.641
REMARK UNBOUND:                -1.909
REMARK SMILES O=C([O-])CCCCCCCCCCCCCCC(=O)[O-]
REMARK SMILES IDX 10 1 9 2 8 3 7 4 6 5 5 6 4 7 2 8 1 9 3 10 11 11 12 12 13 13
REMARK SMILES IDX 14 14 15 15 16 16 17 17 18 18 19 19 20 20
REMARK H PARENT
REMARK Flexibility Score: inf
ROOT
ATOM      1  C   UNL     1       5.328  -1.996  -8.585  1.00  0.00     0.000 C 
ENDROOT
BRANCH   1   2
ATOM      2  C   UNL     1       6.798  -1.989  -8.138  1.00  0.00     0.000 C 
BRANCH   2   3
ATOM      3  C   UNL     1       6.965  -2.265  -6.636  1.00  0.00     0.000 C 
BRANCH   3   4
ATOM      4  C   UNL     1       5.635  -2.619  -5.949  1.00  0.00     0.000 C 
BRANCH   4   5
ATOM      5  C   UNL     1       5.600  -4.071  -5.445  1.00  0.00     0.000 C 
BRANCH   5   6
ATOM      6  C   UNL     1       6.914  -4.495  -4.763  1.00  0.00     0.006 C 
BRANCH   6   7
ATOM      7  C   UNL     1       7.416  -5.854  -5.270  1.00  0.00     0.053 C 
BRANCH   7   8
ATOM      8  C   UNL     1       8.145  -5.726  -6.572  1.00  0.00     0.041 C 
ATOM      9  O   UNL     1       7.539  -5.926  -7.659  1.00  0.00    -0.550 OA
ATOM     10  O   UNL     1       9.500  -5.423  -6.586  1.00  0.00    -0.550 OA
ENDBRANCH   7   8
ENDBRANCH   6   7
ENDBRANCH   5   6
ENDBRANCH   4   5
ENDBRANCH   3   4
ENDBRANCH   2   3
ENDBRANCH   1   2
BRANCH   1  11
ATOM     11  C   UNL     1       5.108  -1.033  -9.761  1.00  0.00     0.000 C 
BRANCH  11  12
ATOM     12  C   UNL     1       3.716  -0.382  -9.744  1.00  0.00     0.000 C 
BRANCH  12  13
ATOM     13  C   UNL     1       3.780   1.153  -9.719  1.00  0.00     0.000 C 
BRANCH  13  14
ATOM     14  C   UNL     1       5.053   1.637  -9.008  1.00  0.00     0.000 C 
BRANCH  14  15
ATOM     15  C   UNL     1       4.751   2.564  -7.819  1.00  0.00     0.000 C 
BRANCH  15  16
ATOM     16  C   UNL     1       3.773   1.935  -6.812  1.00  0.00     0.006 C 
BRANCH  16  17
ATOM     17  C   UNL     1       4.345   0.669  -6.162  1.00  0.00     0.053 C 
BRANCH  17  18
ATOM     18  C   UNL     1       5.544   0.972  -5.317  1.00  0.00     0.041 C 
ATOM     19  O   UNL     1       5.421   1.121  -4.073  1.00  0.00    -0.550 OA
ATOM     20  O   UNL     1       6.792   1.127  -5.908  1.00  0.00    -0.550 OA
ENDBRANCH  17  18
ENDBRANCH  16  17
ENDBRANCH  15  16
ENDBRANCH  14  15
ENDBRANCH  13  14
ENDBRANCH  12  13
ENDBRANCH  11  12
ENDBRANCH   1  11
TORSDOF 15
ENDMDL
MODEL 4
REMARK VINA RESULT:    -3.767      1.373      2.086
REMARK INTER + INTRA:          -8.980
REMARK INTER:                  -6.560
REMARK INTRA:                  -2.420
REMARK UNBOUND:                -1.909
REMARK SMILES O=C([O-])CCCCCCCCCCCCCCC(=O)[O-]
REMARK SMILES IDX 10 1 9 2 8 3 7 4 6 5 5 6 4 7 2 8 1 9 3 10 11 11 12 12 13 13
REMARK SMILES IDX 14 14 15 15 16 16 17 17 18 18 19 19 20 20
REMARK H PARENT
REMARK Flexibility Score: inf
ROOT
ATOM      1  C   UNL     1       7.504   0.283  -7.261  1.00  0.00     0.000 C 
ENDROOT
BRANCH   1   2
ATOM      2  C   UNL     1       7.046  -0.305  -5.918  1.00  0.00     0.000 C 
BRANCH   2   3
ATOM      3  C   UNL     1       5.981   0.558  -5.223  1.00  0.00     0.000 C 
BRANCH   3   4
ATOM      4  C   UNL     1       4.569  -0.043  -5.334  1.00  0.00     0.000 C 
BRANCH   4   5
ATOM      5  C   UNL     1       3.672   0.737  -6.309  1.00  0.00     0.000 C 
BRANCH   5   6
ATOM      6  C   UNL     1       4.227   2.135  -6.640  1.00  0.00     0.006 C 
BRANCH   6   7
ATOM      7  C   UNL     1       4.170   2.439  -8.142  1.00  0.00     0.053 C 
BRANCH   7   8
ATOM      8  C   UNL     1       5.449   3.044  -8.636  1.00  0.00     0.041 C 
ATOM      9  O   UNL     1       5.763   2.954  -9.853  1.00  0.00    -0.550 OA
ATOM     10  O   UNL     1       6.310   3.675  -7.747  1.00  0.00    -0.550 OA
ENDBRANCH   7   8
ENDBRANCH   6   7
ENDBRANCH   5   6
ENDBRANCH   4   5
ENDBRANCH   3   4
ENDBRANCH   2   3
ENDBRANCH   1   2
BRANCH   1  11
ATOM     11  C   UNL     1       7.375  -0.755  -8.386  1.00  0.00     0.000 C 
BRANCH  11  12
ATOM     12  C   UNL     1       5.967  -0.791  -9.002  1.00  0.00     0.000 C 
BRANCH  12  13
ATOM     13  C   UNL     1       5.139  -1.992  -8.521  1.00  0.00     0.000 C 
BRANCH  13  14
ATOM     14  C   UNL     1       6.051  -3.172  -8.150  1.00  0.00     0.000 C 
BRANCH  14  15
ATOM     15  C   UNL     1       5.528  -3.967  -6.943  1.00  0.00     0.000 C 
BRANCH  15  16
ATOM     16  C   UNL     1       6.326  -3.687  -5.658  1.00  0.00     0.006 C 
BRANCH  16  17
ATOM     17  C   UNL     1       6.863  -4.974  -5.017  1.00  0.00     0.053 C 
BRANCH  17  18
ATOM     18  C   UNL     1       7.859  -5.661  -5.901  1.00  0.00     0.041 C 
ATOM     19  O   UNL     1       7.807  -6.908  -6.063  1.00  0.00    -0.550 OA
ATOM     20  O   UNL     1       8.865  -4.927  -6.518  1.00  0.00    -0.550 OA
ENDBRANCH  17  18
ENDBRANCH  16  17
ENDBRANCH  15  16
ENDBRANCH  14  15
ENDBRANCH  13  14
ENDBRANCH  12  13
ENDBRANCH  11  12
ENDBRANCH   1  11
TORSDOF 15
ENDMDL
MODEL 5
REMARK VINA RESULT:    -3.766      0.824      7.312
REMARK INTER + INTRA:          -8.977
REMARK INTER:                  -6.858
REMARK INTRA:                  -2.119
REMARK UNBOUND:                -1.909
REMARK SMILES O=C([O-])CCCCCCCCCCCCCCC(=O)[O-]
REMARK SMILES IDX 10 1 9 2 8 3 7 4 6 5 5 6 4 7 2 8 1 9 3 10 11 11 12 12 13 13
REMARK SMILES IDX 14 14 15 15 16 16 17 17 18 18 19 19 20 20
REMARK H PARENT
REMARK Flexibility Score: inf
ROOT
ATOM      1  C   UNL     1       6.295  -0.596  -5.545  1.00  0.00     0.000 C 
ENDROOT
BRANCH   1   2
ATOM      2  C   UNL     1       7.201  -0.235  -6.733  1.00  0.00     0.000 C 
BRANCH   2   3
ATOM      3  C   UNL     1       6.932  -1.103  -7.972  1.00  0.00     0.000 C 
BRANCH   3   4
ATOM      4  C   UNL     1       5.637  -1.926  -7.846  1.00  0.00     0.000 C 
BRANCH   4   5
ATOM      5  C   UNL     1       5.719  -3.269  -8.590  1.00  0.00     0.000 C 
BRANCH   5   6
ATOM      6  C   UNL     1       6.342  -4.387  -7.734  1.00  0.00     0.006 C 
BRANCH   6   7
ATOM      7  C   UNL     1       5.982  -4.247  -6.249  1.00  0.00     0.053 C 
BRANCH   7   8
ATOM      8  C   UNL     1       7.045  -4.820  -5.363  1.00  0.00     0.041 C 
ATOM      9  O   UNL     1       6.835  -4.956  -4.128  1.00  0.00    -0.550 OA
ATOM     10  O   UNL     1       8.280  -5.170  -5.893  1.00  0.00    -0.550 OA
ENDBRANCH   7   8
ENDBRANCH   6   7
ENDBRANCH   5   6
ENDBRANCH   4   5
ENDBRANCH   3   4
ENDBRANCH   2   3
ENDBRANCH   1   2
BRANCH   1  11
ATOM     11  C   UNL     1       5.435   0.606  -5.128  1.00  0.00     0.000 C 
BRANCH  11  12
ATOM     12  C   UNL     1       4.076   0.641  -5.844  1.00  0.00     0.000 C 
BRANCH  12  13
ATOM     13  C   UNL     1       3.932   1.848  -6.783  1.00  0.00     0.000 C 
BRANCH  13  14
ATOM     14  C   UNL     1       4.164   1.436  -8.245  1.00  0.00     0.000 C 
BRANCH  14  15
ATOM     15  C   UNL     1       5.335   2.192  -8.893  1.00  0.00     0.000 C 
BRANCH  15  16
ATOM     16  C   UNL     1       5.883   3.316  -7.998  1.00  0.00     0.006 C 
BRANCH  16  17
ATOM     17  C   UNL     1       7.384   3.155  -7.719  1.00  0.00     0.053 C 
BRANCH  17  18
ATOM     18  C   UNL     1       8.149   4.394  -8.071  1.00  0.00     0.041 C 
ATOM     19  O   UNL     1       9.369   4.490  -7.777  1.00  0.00    -0.550 OA
ATOM     20  O   UNL     1       7.505   5.458  -8.692  1.00  0.00    -0.550 OA
ENDBRANCH  17  18
ENDBRANCH  16  17
ENDBRANCH  15  16
ENDBRANCH  14  15
ENDBRANCH  13  14
ENDBRANCH  12  13
ENDBRANCH  11  12
ENDBRANCH   1  11
TORSDOF 15
ENDMDL
MODEL 6
REMARK VINA RESULT:    -3.760      2.043      3.083
REMARK INTER + INTRA:          -8.967
REMARK INTER:                  -7.165
REMARK INTRA:                  -1.802
REMARK UNBOUND:                -1.909
REMARK SMILES O=C([O-])CCCCCCCCCCCCCCC(=O)[O-]
REMARK SMILES IDX 10 1 9 2 8 3 7 4 6 5 5 6 4 7 2 8 1 9 3 10 11 11 12 12 13 13
REMARK SMILES IDX 14 14 15 15 16 16 17 17 18 18 19 19 20 20
REMARK H PARENT
REMARK Flexibility Score: inf
ROOT
ATOM      1  C   UNL     1       3.984   0.824  -6.034  1.00  0.00     0.000 C 
ENDROOT
BRANCH   1   2
ATOM      2  C   UNL     1       3.870   2.160  -6.785  1.00  0.00     0.000 C 
BRANCH   2   3
ATOM      3  C   UNL     1       4.192   2.031  -8.282  1.00  0.00     0.000 C 
BRANCH   3   4
ATOM      4  C   UNL     1       5.294   3.005  -8.735  1.00  0.00     0.000 C 
BRANCH   4   5
ATOM      5  C   UNL     1       6.190   3.462  -7.572  1.00  0.00     0.000 C 
BRANCH   5   6
ATOM      6  C   UNL     1       7.684   3.196  -7.831  1.00  0.00     0.006 C 
BRANCH   6   7
ATOM      7  C   UNL     1       8.011   1.697  -7.846  1.00  0.00     0.053 C 
BRANCH   7   8
ATOM      8  C   UNL     1       9.173   1.374  -6.958  1.00  0.00     0.041 C 
ATOM      9  O   UNL     1       9.897   2.299  -6.500  1.00  0.00    -0.550 OA
ATOM     10  O   UNL     1       9.479   0.052  -6.664  1.00  0.00    -0.550 OA
ENDBRANCH   7   8
ENDBRANCH   6   7
ENDBRANCH   5   6
ENDBRANCH   4   5
ENDBRANCH   3   4
ENDBRANCH   2   3
ENDBRANCH   1   2
BRANCH   1  11
ATOM     11  C   UNL     1       5.152   0.854  -5.037  1.00  0.00     0.000 C 
BRANCH  11  12
ATOM     12  C   UNL     1       6.201  -0.234  -5.318  1.00  0.00     0.000 C 
BRANCH  12  13
ATOM     13  C   UNL     1       5.788  -1.174  -6.460  1.00  0.00     0.000 C 
BRANCH  13  14
ATOM     14  C   UNL     1       6.799  -2.319  -6.620  1.00  0.00     0.000 C 
BRANCH  14  15
ATOM     15  C   UNL     1       7.048  -3.076  -5.305  1.00  0.00     0.000 C 
BRANCH  15  16
ATOM     16  C   UNL     1       6.329  -4.435  -5.258  1.00  0.00     0.006 C 
BRANCH  16  17
ATOM     17  C   UNL     1       7.314  -5.609  -5.170  1.00  0.00     0.053 C 
BRANCH  17  18
ATOM     18  C   UNL     1       8.092  -5.777  -6.439  1.00  0.00     0.041 C 
ATOM     19  O   UNL     1       9.334  -5.576  -6.451  1.00  0.00    -0.550 OA
ATOM     20  O   UNL     1       7.439  -6.120  -7.617  1.00  0.00    -0.550 OA
ENDBRANCH  17  18
ENDBRANCH  16  17
ENDBRANCH  15  16
ENDBRANCH  14  15
ENDBRANCH  13  14
ENDBRANCH  12  13
ENDBRANCH  11  12
ENDBRANCH   1  11
TORSDOF 15
ENDMDL
MODEL 7
REMARK VINA RESULT:    -3.711      2.125      6.065
REMARK INTER + INTRA:          -8.875
REMARK INTER:                  -6.880
REMARK INTRA:                  -1.995
REMARK UNBOUND:                -1.909
REMARK SMILES O=C([O-])CCCCCCCCCCCCCCC(=O)[O-]
REMARK SMILES IDX 10 1 9 2 8 3 7 4 6 5 5 6 4 7 2 8 1 9 3 10 11 11 12 12 13 13
REMARK SMILES IDX 14 14 15 15 16 16 17 17 18 18 19 19 20 20
REMARK H PARENT
REMARK Flexibility Score: inf
ROOT
ATOM      1  C   UNL     1       3.768   1.871  -6.906  1.00  0.00     0.000 C 
ENDROOT
BRANCH   1   2
ATOM      2  C   UNL     1       5.012   2.015  -6.016  1.00  0.00     0.000 C 
BRANCH   2   3
ATOM      3  C   UNL     1       5.200   0.826  -5.060  1.00  0.00     0.000 C 
BRANCH   3   4
ATOM      4  C   UNL     1       6.229  -0.192  -5.580  1.00  0.00     0.000 C 
BRANCH   4   5
ATOM      5  C   UNL     1       5.631  -1.598  -5.753  1.00  0.00     0.000 C 
BRANCH   5   6
ATOM      6  C   UNL     1       6.700  -2.669  -6.039  1.00  0.00     0.006 C 
BRANCH   6   7
ATOM      7  C   UNL     1       6.170  -4.091  -5.810  1.00  0.00     0.053 C 
BRANCH   7   8
ATOM      8  C   UNL     1       7.158  -4.939  -5.069  1.00  0.00     0.041 C 
ATOM      9  O   UNL     1       7.100  -5.028  -3.813  1.00  0.00    -0.550 OA
ATOM     10  O   UNL     1       8.163  -5.602  -5.760  1.00  0.00    -0.550 OA
ENDBRANCH   7   8
ENDBRANCH   6   7
ENDBRANCH   5   6
ENDBRANCH   4   5
ENDBRANCH   3   4
ENDBRANCH   2   3
ENDBRANCH   1   2
BRANCH   1  11
ATOM     11  C   UNL     1       4.163   1.770  -8.387  1.00  0.00     0.000 C 
BRANCH  11  12
ATOM     12  C   UNL     1       3.798   0.412  -9.008  1.00  0.00     0.000 C 
BRANCH  12  13
ATOM     13  C   UNL     1       5.028  -0.472  -9.264  1.00  0.00     0.000 C 
BRANCH  13  14
ATOM     14  C   UNL     1       6.319   0.360  -9.225  1.00  0.00     0.000 C 
BRANCH  14  15
ATOM     15  C   UNL     1       7.575  -0.507  -9.039  1.00  0.00     0.000 C 
BRANCH  15  16
ATOM     16  C   UNL     1       8.855   0.193  -9.529  1.00  0.00     0.006 C 
BRANCH  16  17
ATOM     17  C   UNL     1      10.072  -0.152  -8.661  1.00  0.00     0.053 C 
BRANCH  17  18
ATOM     18  C   UNL     1       9.761  -0.042  -7.200  1.00  0.00     0.041 C 
ATOM     19  O   UNL     1       9.828  -1.058  -6.460  1.00  0.00    -0.550 OA
ATOM     20  O   UNL     1       9.361   1.176  -6.663  1.00  0.00    -0.550 OA
ENDBRANCH  17  18
ENDBRANCH  16  17
ENDBRANCH  15  16
ENDBRANCH  14  15
ENDBRANCH  13  14
ENDBRANCH  12  13
ENDBRANCH  11  12
ENDBRANCH   1  11
TORSDOF 15
ENDMDL
MODEL 8
REMARK VINA RESULT:    -3.683      2.099      6.494
REMARK INTER + INTRA:          -8.821
REMARK INTER:                  -6.919
REMARK INTRA:                  -1.903
REMARK UNBOUND:                -1.909
REMARK SMILES O=C([O-])CCCCCCCCCCCCCCC(=O)[O-]
REMARK SMILES IDX 10 1 9 2 8 3 7 4 6 5 5 6 4 7 2 8 1 9 3 10 11 11 12 12 13 13
REMARK SMILES IDX 14 14 15 15 16 16 17 17 18 18 19 19 20 20
REMARK H PARENT
REMARK Flexibility Score: inf
ROOT
ATOM      1  C   UNL     1       8.108   0.779  -8.132  1.00  0.00     0.000 C 
ENDROOT
BRANCH   1   2
ATOM      2  C   UNL     1       8.356  -0.546  -7.394  1.00  0.00     0.000 C 
BRANCH   2   3
ATOM      3  C   UNL     1       7.994  -1.776  -8.241  1.00  0.00     0.000 C 
BRANCH   3   4
ATOM      4  C   UNL     1       6.588  -1.676  -8.856  1.00  0.00     0.000 C 
BRANCH   4   5
ATOM      5  C   UNL     1       5.566  -2.573  -8.139  1.00  0.00     0.000 C 
BRANCH   5   6
ATOM      6  C   UNL     1       6.185  -3.882  -7.618  1.00  0.00     0.006 C 
BRANCH   6   7
ATOM      7  C   UNL     1       5.816  -4.155  -6.153  1.00  0.00     0.053 C 
BRANCH   7   8
ATOM      8  C   UNL     1       6.984  -4.677  -5.374  1.00  0.00     0.041 C 
ATOM      9  O   UNL     1       6.887  -4.853  -4.130  1.00  0.00    -0.550 OA
ATOM     10  O   UNL     1       8.189  -4.937  -6.014  1.00  0.00    -0.550 OA
ENDBRANCH   7   8
ENDBRANCH   6   7
ENDBRANCH   5   6
ENDBRANCH   4   5
ENDBRANCH   3   4
ENDBRANCH   2   3
ENDBRANCH   1   2
BRANCH   1  11
ATOM     11  C   UNL     1       7.988   1.945  -7.140  1.00  0.00     0.000 C 
BRANCH  11  12
ATOM     12  C   UNL     1       7.590   3.265  -7.820  1.00  0.00     0.000 C 
BRANCH  12  13
ATOM     13  C   UNL     1       6.119   3.635  -7.580  1.00  0.00     0.000 C 
BRANCH  13  14
ATOM     14  C   UNL     1       5.223   3.072  -8.694  1.00  0.00     0.000 C 
BRANCH  14  15
ATOM     15  C   UNL     1       4.000   2.319  -8.145  1.00  0.00     0.000 C 
BRANCH  15  16
ATOM     16  C   UNL     1       4.143   1.963  -6.655  1.00  0.00     0.006 C 
BRANCH  16  17
ATOM     17  C   UNL     1       4.502   0.486  -6.444  1.00  0.00     0.053 C 
BRANCH  17  18
ATOM     18  C   UNL     1       5.349   0.291  -5.223  1.00  0.00     0.041 C 
ATOM     19  O   UNL     1       5.374   1.170  -4.323  1.00  0.00    -0.550 OA
ATOM     20  O   UNL     1       6.138  -0.846  -5.097  1.00  0.00    -0.550 OA
ENDBRANCH  17  18
ENDBRANCH  16  17
ENDBRANCH  15  16
ENDBRANCH  14  15
ENDBRANCH  13  14
ENDBRANCH  12  13
ENDBRANCH  11  12
ENDBRANCH   1  11
TORSDOF 15
ENDMDL
MODEL 9
REMARK VINA RESULT:    -3.631      0.855      7.553
REMARK INTER + INTRA:          -8.725
REMARK INTER:                  -6.671
REMARK INTRA:                  -2.054
REMARK UNBOUND:                -1.909
REMARK SMILES O=C([O-])CCCCCCCCCCCCCCC(=O)[O-]
REMARK SMILES IDX 10 1 9 2 8 3 7 4 6 5 5 6 4 7 2 8 1 9 3 10 11 11 12 12 13 13
REMARK SMILES IDX 14 14 15 15 16 16 17 17 18 18 19 19 20 20
REMARK H PARENT
REMARK Flexibility Score: inf
ROOT
ATOM      1  C   UNL     1       7.261  -0.812  -7.594  1.00  0.00     0.000 C 
ENDROOT
BRANCH   1   2
ATOM      2  C   UNL     1       6.021  -1.225  -8.402  1.00  0.00     0.000 C 
BRANCH   2   3
ATOM      3  C   UNL     1       6.283  -2.427  -9.322  1.00  0.00     0.000 C 
BRANCH   3   4
ATOM      4  C   UNL     1       6.508  -3.732  -8.539  1.00  0.00     0.000 C 
BRANCH   4   5
ATOM      5  C   UNL     1       5.283  -4.136  -7.703  1.00  0.00     0.000 C 
BRANCH   5   6
ATOM      6  C   UNL     1       5.601  -4.257  -6.201  1.00  0.00     0.006 C 
BRANCH   6   7
ATOM      7  C   UNL     1       7.108  -4.371  -5.936  1.00  0.00     0.053 C 
BRANCH   7   8
ATOM      8  C   UNL     1       7.488  -5.744  -5.474  1.00  0.00     0.041 C 
ATOM      9  O   UNL     1       7.780  -6.636  -6.315  1.00  0.00    -0.550 OA
ATOM     10  O   UNL     1       7.487  -6.049  -4.119  1.00  0.00    -0.550 OA
ENDBRANCH   7   8
ENDBRANCH   6   7
ENDBRANCH   5   6
ENDBRANCH   4   5
ENDBRANCH   3   4
ENDBRANCH   2   3
ENDBRANCH   1   2
BRANCH   1  11
ATOM     11  C   UNL     1       6.857  -0.215  -6.237  1.00  0.00     0.000 C 
BRANCH  11  12
ATOM     12  C   UNL     1       5.663  -0.943  -5.600  1.00  0.00     0.000 C 
BRANCH  12  13
ATOM     13  C   UNL     1       4.512   0.008  -5.241  1.00  0.00     0.000 C 
BRANCH  13  14
ATOM     14  C   UNL     1       4.822   1.441  -5.697  1.00  0.00     0.000 C 
BRANCH  14  15
ATOM     15  C   UNL     1       4.024   1.850  -6.946  1.00  0.00     0.000 C 
BRANCH  15  16
ATOM     16  C   UNL     1       4.910   2.475  -8.037  1.00  0.00     0.006 C 
BRANCH  16  17
ATOM     17  C   UNL     1       5.657   3.718  -7.535  1.00  0.00     0.053 C 
BRANCH  17  18
ATOM     18  C   UNL     1       7.072   3.750  -8.025  1.00  0.00     0.041 C 
ATOM     19  O   UNL     1       7.881   2.849  -7.683  1.00  0.00    -0.550 OA
ATOM     20  O   UNL     1       7.507   4.796  -8.830  1.00  0.00    -0.550 OA
ENDBRANCH  17  18
ENDBRANCH  16  17
ENDBRANCH  15  16
ENDBRANCH  14  15
ENDBRANCH  13  14
ENDBRANCH  12  13
ENDBRANCH  11  12
ENDBRANCH   1  11
TORSDOF 15
ENDMDL
