MODEL 1
REMARK VINA RESULT:    -4.231      0.000      0.000
REMARK INTER + INTRA:          -4.801
REMARK INTER:                  -4.602
REMARK INTRA:                  -0.199
REMARK UNBOUND:                -0.199
REMARK SMILES Cc1ccc(C(C)C)c(O)c1
REMARK SMILES IDX 1 1 2 2 11 3 9 4 5 5 4 6 3 7 10 8 6 10 7 11 8 12
REMARK H PARENT 10 9
REMARK Flexibility Score: inf
ROOT
ATOM      1  C   UNL     1     160.383 163.159 188.683  1.00  0.00     0.044 C 
ATOM      2  C   UNL     1     161.813 162.707 188.630  1.00  0.00    -0.047 A 
ATOM      3  C   UNL     1     162.851 163.620 188.858  1.00  0.00     0.049 A 
ATOM      4  C   UNL     1     164.189 163.199 188.848  1.00  0.00     0.119 A 
ATOM      5  C   UNL     1     164.501 161.841 188.616  1.00  0.00    -0.004 A 
ATOM      6  C   UNL     1     163.448 160.929 188.407  1.00  0.00     0.008 A 
ATOM      7  C   UNL     1     162.118 161.357 188.421  1.00  0.00     0.004 A 
ENDROOT
BRANCH   4   8
ATOM      8  O   UNL     1     165.204 164.130 189.068  1.00  0.00    -0.508 OA
ATOM      9  H   UNL     1     165.797 164.459 188.314  1.00  0.00     0.293 HD
ENDBRANCH   4   8
BRANCH   5  10
ATOM     10  C   UNL     1     165.944 161.360 188.599  1.00  0.00     0.017 C 
ATOM     11  C   UNL     1     166.287 160.597 189.886  1.00  0.00     0.012 C 
ATOM     12  C   UNL     1     166.227 160.502 187.359  1.00  0.00     0.012 C 
ENDBRANCH   5  10
TORSDOF 2
ENDMDL
MODEL 2
REMARK VINA RESULT:    -4.220      1.092      4.120
REMARK INTER + INTRA:          -4.789
REMARK INTER:                  -4.591
REMARK INTRA:                  -0.198
REMARK UNBOUND:                -0.199
REMARK SMILES Cc1ccc(C(C)C)c(O)c1
REMARK SMILES IDX 1 1 2 2 11 3 9 4 5 5 4 6 3 7 10 8 6 10 7 11 8 12
REMARK H PARENT 10 9
REMARK Flexibility Score: inf
ROOT
ATOM      1  C   UNL     1     166.615 160.625 189.399  1.00  0.00     0.044 C 
ATOM      2  C   UNL     1     165.246 161.152 189.089  1.00  0.00    -0.047 A 
ATOM      3  C   UNL     1     165.024 162.533 189.005  1.00  0.00     0.049 A 
ATOM      4  C   UNL     1     163.755 163.036 188.679  1.00  0.00     0.119 A 
ATOM      5  C   UNL     1     162.688 162.146 188.420  1.00  0.00    -0.004 A 
ATOM      6  C   UNL     1     162.928 160.760 188.490  1.00  0.00     0.008 A 
ATOM      7  C   UNL     1     164.195 160.270 188.813  1.00  0.00     0.004 A 
ENDROOT
BRANCH   4   8
ATOM      8  O   UNL     1     163.559 164.415 188.611  1.00  0.00    -0.508 OA
ATOM      9  H   UNL     1     163.862 165.033 189.355  1.00  0.00     0.293 HD
ENDBRANCH   4   8
BRANCH   5  10
ATOM     10  C   UNL     1     161.302 162.666 188.066  1.00  0.00     0.017 C 
ATOM     11  C   UNL     1     160.613 161.748 187.047  1.00  0.00     0.012 C 
ATOM     12  C   UNL     1     160.439 162.841 189.322  1.00  0.00     0.012 C 
ENDBRANCH   5  10
TORSDOF 2
ENDMDL
MODEL 3
REMARK VINA RESULT:    -4.145     16.773     18.151
REMARK INTER + INTRA:          -4.708
REMARK INTER:                  -4.512
REMARK INTRA:                  -0.195
REMARK UNBOUND:                -0.199
REMARK SMILES Cc1ccc(C(C)C)c(O)c1
REMARK SMILES IDX 1 1 2 2 11 3 9 4 5 5 4 6 3 7 10 8 6 10 7 11 8 12
REMARK H PARENT 10 9
REMARK Flexibility Score: inf
ROOT
ATOM      1  C   UNL     1     180.116 169.347 188.351  1.00  0.00     0.044 C 
ATOM      2  C   UNL     1     179.323 170.612 188.497  1.00  0.00    -0.047 A 
ATOM      3  C   UNL     1     179.886 171.843 188.135  1.00  0.00     0.049 A 
ATOM      4  C   UNL     1     179.140 173.027 188.233  1.00  0.00     0.119 A 
ATOM      5  C   UNL     1     177.804 172.985 188.690  1.00  0.00    -0.004 A 
ATOM      6  C   UNL     1     177.243 171.739 189.033  1.00  0.00     0.008 A 
ATOM      7  C   UNL     1     177.993 170.565 188.931  1.00  0.00     0.004 A 
ENDROOT
BRANCH   4   8
ATOM      8  O   UNL     1     179.727 174.241 187.875  1.00  0.00    -0.508 OA
ATOM      9  H   UNL     1     180.662 174.490 188.178  1.00  0.00     0.293 HD
ENDBRANCH   4   8
BRANCH   5  10
ATOM     10  C   UNL     1     176.974 174.255 188.806  1.00  0.00     0.017 C 
ATOM     11  C   UNL     1     175.497 173.980 188.494  1.00  0.00     0.012 C 
ATOM     12  C   UNL     1     177.133 174.896 190.191  1.00  0.00     0.012 C 
ENDBRANCH   5  10
TORSDOF 2
ENDMDL
MODEL 4
REMARK VINA RESULT:    -4.100     16.216     17.776
REMARK INTER + INTRA:          -4.658
REMARK INTER:                  -4.461
REMARK INTRA:                  -0.197
REMARK UNBOUND:                -0.199
REMARK SMILES Cc1ccc(C(C)C)c(O)c1
REMARK SMILES IDX 1 1 2 2 11 3 9 4 5 5 4 6 3 7 10 8 6 10 7 11 8 12
REMARK H PARENT 10 9
REMARK Flexibility Score: inf
ROOT
ATOM      1  C   UNL     1     172.847 179.669 188.384  1.00  0.00     0.044 C 
ATOM      2  C   UNL     1     171.421 179.215 188.496  1.00  0.00    -0.047 A 
ATOM      3  C   UNL     1     171.128 177.893 188.857  1.00  0.00     0.049 A 
ATOM      4  C   UNL     1     169.798 177.470 189.000  1.00  0.00     0.119 A 
ATOM      5  C   UNL     1     168.739 178.381 188.790  1.00  0.00    -0.004 A 
ATOM      6  C   UNL     1     169.048 179.712 188.446  1.00  0.00     0.008 A 
ATOM      7  C   UNL     1     170.375 180.125 188.307  1.00  0.00     0.004 A 
ENDROOT
BRANCH   4   8
ATOM      8  O   UNL     1     169.532 176.146 189.352  1.00  0.00    -0.508 OA
ATOM      9  H   UNL     1     169.301 175.885 190.303  1.00  0.00     0.293 HD
ENDBRANCH   4   8
BRANCH   5  10
ATOM     10  C   UNL     1     167.288 177.946 188.938  1.00  0.00     0.017 C 
ATOM     11  C   UNL     1     166.630 178.624 190.147  1.00  0.00     0.012 C 
ATOM     12  C   UNL     1     166.495 178.218 187.654  1.00  0.00     0.012 C 
ENDBRANCH   5  10
TORSDOF 2
ENDMDL
MODEL 5
REMARK VINA RESULT:    -4.072     13.807     15.333
REMARK INTER + INTRA:          -4.628
REMARK INTER:                  -4.427
REMARK INTRA:                  -0.200
REMARK UNBOUND:                -0.199
REMARK SMILES Cc1ccc(C(C)C)c(O)c1
REMARK SMILES IDX 1 1 2 2 11 3 9 4 5 5 4 6 3 7 10 8 6 10 7 11 8 12
REMARK H PARENT 10 9
REMARK Flexibility Score: inf
ROOT
ATOM      1  C   UNL     1     166.404 176.221 187.112  1.00  0.00     0.044 C 
ATOM      2  C   UNL     1     164.940 176.431 187.363  1.00  0.00    -0.047 A 
ATOM      3  C   UNL     1     164.412 177.728 187.417  1.00  0.00     0.049 A 
ATOM      4  C   UNL     1     163.038 177.933 187.614  1.00  0.00     0.119 A 
ATOM      5  C   UNL     1     162.171 176.826 187.749  1.00  0.00    -0.004 A 
ATOM      6  C   UNL     1     162.711 175.527 187.675  1.00  0.00     0.008 A 
ATOM      7  C   UNL     1     164.080 175.333 187.477  1.00  0.00     0.004 A 
ENDROOT
BRANCH   4   8
ATOM      8  O   UNL     1     162.539 179.234 187.673  1.00  0.00    -0.508 OA
ATOM      9  H   UNL     1     161.894 179.588 186.976  1.00  0.00     0.293 HD
ENDBRANCH   4   8
BRANCH   5  10
ATOM     10  C   UNL     1     160.677 177.022 187.965  1.00  0.00     0.017 C 
ATOM     11  C   UNL     1     159.907 176.890 186.644  1.00  0.00     0.012 C 
ATOM     12  C   UNL     1     160.136 176.046 189.017  1.00  0.00     0.012 C 
ENDBRANCH   5  10
TORSDOF 2
ENDMDL
MODEL 6
REMARK VINA RESULT:    -4.035     16.345     17.914
REMARK INTER + INTRA:          -4.588
REMARK INTER:                  -4.392
REMARK INTRA:                  -0.196
REMARK UNBOUND:                -0.199
REMARK SMILES Cc1ccc(C(C)C)c(O)c1
REMARK SMILES IDX 1 1 2 2 11 3 9 4 5 5 4 6 3 7 10 8 6 10 7 11 8 12
REMARK H PARENT 10 9
REMARK Flexibility Score: inf
ROOT
ATOM      1  C   UNL     1     180.125 169.338 188.591  1.00  0.00     0.044 C 
ATOM      2  C   UNL     1     179.288 170.582 188.628  1.00  0.00    -0.047 A 
ATOM      3  C   UNL     1     177.907 170.497 188.850  1.00  0.00     0.049 A 
ATOM      4  C   UNL     1     177.121 171.657 188.924  1.00  0.00     0.119 A 
ATOM      5  C   UNL     1     177.723 172.928 188.786  1.00  0.00    -0.004 A 
ATOM      6  C   UNL     1     179.115 173.001 188.582  1.00  0.00     0.008 A 
ATOM      7  C   UNL     1     179.889 171.841 188.511  1.00  0.00     0.004 A 
ENDROOT
BRANCH   4   8
ATOM      8  O   UNL     1     175.747 171.545 189.136  1.00  0.00    -0.508 OA
ATOM      9  H   UNL     1     175.366 170.908 189.827  1.00  0.00     0.293 HD
ENDBRANCH   4   8
BRANCH   5  10
ATOM     10  C   UNL     1     176.893 174.201 188.861  1.00  0.00     0.017 C 
ATOM     11  C   UNL     1     177.361 175.097 190.015  1.00  0.00     0.012 C 
ATOM     12  C   UNL     1     176.922 174.961 187.529  1.00  0.00     0.012 C 
ENDBRANCH   5  10
TORSDOF 2
ENDMDL
MODEL 7
REMARK VINA RESULT:    -3.998      1.599      2.427
REMARK INTER + INTRA:          -4.547
REMARK INTER:                  -4.347
REMARK INTRA:                  -0.200
REMARK UNBOUND:                -0.199
REMARK SMILES Cc1ccc(C(C)C)c(O)c1
REMARK SMILES IDX 1 1 2 2 11 3 9 4 5 5 4 6 3 7 10 8 6 10 7 11 8 12
REMARK H PARENT 10 9
REMARK Flexibility Score: inf
ROOT
ATOM      1  C   UNL     1     160.077 162.745 188.523  1.00  0.00     0.044 C 
ATOM      2  C   UNL     1     161.563 162.546 188.565  1.00  0.00    -0.047 A 
ATOM      3  C   UNL     1     162.120 161.310 188.211  1.00  0.00     0.049 A 
ATOM      4  C   UNL     1     163.510 161.126 188.212  1.00  0.00     0.119 A 
ATOM      5  C   UNL     1     164.365 162.195 188.562  1.00  0.00    -0.004 A 
ATOM      6  C   UNL     1     163.794 163.438 188.898  1.00  0.00     0.008 A 
ATOM      7  C   UNL     1     162.408 163.612 188.893  1.00  0.00     0.004 A 
ENDROOT
BRANCH   4   8
ATOM      8  O   UNL     1     164.039 159.883 187.864  1.00  0.00    -0.508 OA
ATOM      9  H   UNL     1     163.458 159.054 187.806  1.00  0.00     0.293 HD
ENDBRANCH   4   8
BRANCH   5  10
ATOM     10  C   UNL     1     165.877 162.020 188.572  1.00  0.00     0.017 C 
ATOM     11  C   UNL     1     166.575 163.222 187.923  1.00  0.00     0.012 C 
ATOM     12  C   UNL     1     166.398 161.783 189.995  1.00  0.00     0.012 C 
ENDBRANCH   5  10
TORSDOF 2
ENDMDL
MODEL 8
REMARK VINA RESULT:    -3.924      9.546     11.619
REMARK INTER + INTRA:          -4.467
REMARK INTER:                  -4.267
REMARK INTRA:                  -0.200
REMARK UNBOUND:                -0.199
REMARK SMILES Cc1ccc(C(C)C)c(O)c1
REMARK SMILES IDX 1 1 2 2 11 3 9 4 5 5 4 6 3 7 10 8 6 10 7 11 8 12
REMARK H PARENT 10 9
REMARK Flexibility Score: inf
ROOT
ATOM      1  C   UNL     1     172.442 159.875 187.966  1.00  0.00     0.044 C 
ATOM      2  C   UNL     1     173.513 160.888 188.246  1.00  0.00    -0.047 A 
ATOM      3  C   UNL     1     174.841 160.628 187.884  1.00  0.00     0.049 A 
ATOM      4  C   UNL     1     175.843 161.584 188.107  1.00  0.00     0.119 A 
ATOM      5  C   UNL     1     175.516 162.828 188.692  1.00  0.00    -0.004 A 
ATOM      6  C   UNL     1     174.173 163.085 189.034  1.00  0.00     0.008 A 
ATOM      7  C   UNL     1     173.183 162.127 188.806  1.00  0.00     0.004 A 
ENDROOT
BRANCH   4   8
ATOM      8  O   UNL     1     177.160 161.298 187.747  1.00  0.00    -0.508 OA
ATOM      9  H   UNL     1     177.391 160.498 187.168  1.00  0.00     0.293 HD
ENDBRANCH   4   8
BRANCH   5  10
ATOM     10  C   UNL     1     176.585 163.881 188.946  1.00  0.00     0.017 C 
ATOM     11  C   UNL     1     176.101 165.272 188.514  1.00  0.00     0.012 C 
ATOM     12  C   UNL     1     177.022 163.883 190.416  1.00  0.00     0.012 C 
ENDBRANCH   5  10
TORSDOF 2
ENDMDL
MODEL 9
REMARK VINA RESULT:    -3.917     12.005     13.328
REMARK INTER + INTRA:          -4.459
REMARK INTER:                  -4.263
REMARK INTRA:                  -0.196
REMARK UNBOUND:                -0.199
REMARK SMILES Cc1ccc(C(C)C)c(O)c1
REMARK SMILES IDX 1 1 2 2 11 3 9 4 5 5 4 6 3 7 10 8 6 10 7 11 8 12
REMARK H PARENT 10 9
REMARK Flexibility Score: inf
ROOT
ATOM      1  C   UNL     1     176.754 167.184 187.371  1.00  0.00     0.044 C 
ATOM      2  C   UNL     1     176.741 165.703 187.611  1.00  0.00    -0.047 A 
ATOM      3  C   UNL     1     177.314 164.832 186.675  1.00  0.00     0.049 A 
ATOM      4  C   UNL     1     177.340 163.448 186.908  1.00  0.00     0.119 A 
ATOM      5  C   UNL     1     176.795 162.922 188.100  1.00  0.00    -0.004 A 
ATOM      6  C   UNL     1     176.239 163.810 189.042  1.00  0.00     0.008 A 
ATOM      7  C   UNL     1     176.219 165.186 188.802  1.00  0.00     0.004 A 
ENDROOT
BRANCH   4   8
ATOM      8  O   UNL     1     177.908 162.602 185.956  1.00  0.00    -0.508 OA
ATOM      9  H   UNL     1     178.703 162.888 185.396  1.00  0.00     0.293 HD
ENDBRANCH   4   8
BRANCH   5  10
ATOM     10  C   UNL     1     176.810 161.425 188.376  1.00  0.00     0.017 C 
ATOM     11  C   UNL     1     177.573 161.111 189.669  1.00  0.00     0.012 C 
ATOM     12  C   UNL     1     175.386 160.857 188.425  1.00  0.00     0.012 C 
ENDBRANCH   5  10
TORSDOF 2
ENDMDL
