MODEL 1
REMARK VINA RESULT:    -2.535      0.000      0.000
REMARK INTER + INTRA:          -2.842
REMARK INTER:                  -2.831
REMARK INTRA:                  -0.010
REMARK UNBOUND:                -0.010
REMARK SMILES CCCC(=O)[O-]
REMARK SMILES IDX 3 1 4 2 5 3 6 4 2 5 1 6
REMARK H PARENT
REMARK Flexibility Score: inf
ROOT
ATOM      1  C   UNL     1     -46.880 -48.828  70.758  1.00  0.00     0.052 C 
ENDROOT
BRANCH   1   2
ATOM      2  C   UNL     1     -47.914 -47.745  70.822  1.00  0.00     0.041 C 
ATOM      3  O   UNL     1     -47.690 -46.622  70.298  1.00  0.00    -0.550 OA
ATOM      4  O   UNL     1     -49.139 -47.988  71.430  1.00  0.00    -0.550 OA
ENDBRANCH   1   2
BRANCH   1   5
ATOM      5  C   UNL     1     -45.461 -48.253  70.681  1.00  0.00     0.003 C 
ATOM      6  C   UNL     1     -44.408 -49.333  70.434  1.00  0.00     0.004 C 
ENDBRANCH   1   5
TORSDOF 2
ENDMDL
MODEL 2
REMARK VINA RESULT:    -2.503      1.084      1.177
REMARK INTER + INTRA:          -2.806
REMARK INTER:                  -2.794
REMARK INTRA:                  -0.012
REMARK UNBOUND:                -0.010
REMARK SMILES CCCC(=O)[O-]
REMARK SMILES IDX 3 1 4 2 5 3 6 4 2 5 1 6
REMARK H PARENT
REMARK Flexibility Score: inf
ROOT
ATOM      1  C   UNL     1     -46.313 -47.978  70.952  1.00  0.00     0.052 C 
ENDROOT
BRANCH   1   2
ATOM      2  C   UNL     1     -47.689 -47.440  70.704  1.00  0.00     0.041 C 
ATOM      3  O   UNL     1     -47.852 -46.427  69.974  1.00  0.00    -0.550 OA
ATOM      4  O   UNL     1     -48.795 -48.077  71.253  1.00  0.00    -0.550 OA
ENDBRANCH   1   2
BRANCH   1   5
ATOM      5  C   UNL     1     -45.288 -46.853  71.134  1.00  0.00     0.003 C 
ATOM      6  C   UNL     1     -43.852 -47.335  70.930  1.00  0.00     0.004 C 
ENDBRANCH   1   5
TORSDOF 2
ENDMDL
MODEL 3
REMARK VINA RESULT:    -2.405      1.566      2.122
REMARK INTER + INTRA:          -2.696
REMARK INTER:                  -2.688
REMARK INTRA:                  -0.008
REMARK UNBOUND:                -0.010
REMARK SMILES CCCC(=O)[O-]
REMARK SMILES IDX 3 1 4 2 5 3 6 4 2 5 1 6
REMARK H PARENT
REMARK Flexibility Score: inf
ROOT
ATOM      1  C   UNL     1     -46.193 -48.609  70.721  1.00  0.00     0.052 C 
ENDROOT
BRANCH   1   2
ATOM      2  C   UNL     1     -47.606 -49.105  70.782  1.00  0.00     0.041 C 
ATOM      3  O   UNL     1     -47.842 -50.339  70.862  1.00  0.00    -0.550 OA
ATOM      4  O   UNL     1     -48.660 -48.200  70.784  1.00  0.00    -0.550 OA
ENDBRANCH   1   2
BRANCH   1   5
ATOM      5  C   UNL     1     -46.092 -47.132  71.121  1.00  0.00     0.003 C 
ATOM      6  C   UNL     1     -44.645 -46.647  71.202  1.00  0.00     0.004 C 
ENDBRANCH   1   5
TORSDOF 2
ENDMDL
MODEL 4
REMARK VINA RESULT:    -2.399      1.612      2.069
REMARK INTER + INTRA:          -2.690
REMARK INTER:                  -2.680
REMARK INTRA:                  -0.010
REMARK UNBOUND:                -0.010
REMARK SMILES CCCC(=O)[O-]
REMARK SMILES IDX 3 1 4 2 5 3 6 4 2 5 1 6
REMARK H PARENT
REMARK Flexibility Score: inf
ROOT
ATOM      1  C   UNL     1     -47.361 -47.557  70.929  1.00  0.00     0.052 C 
ENDROOT
BRANCH   1   2
ATOM      2  C   UNL     1     -48.200 -48.793  70.809  1.00  0.00     0.041 C 
ATOM      3  O   UNL     1     -49.439 -48.702  70.606  1.00  0.00    -0.550 OA
ATOM      4  O   UNL     1     -47.606 -50.047  70.887  1.00  0.00    -0.550 OA
ENDBRANCH   1   2
BRANCH   1   5
ATOM      5  C   UNL     1     -45.866 -47.873  70.812  1.00  0.00     0.003 C 
ATOM      6  C   UNL     1     -44.988 -46.677  71.178  1.00  0.00     0.004 C 
ENDBRANCH   1   5
TORSDOF 2
ENDMDL
MODEL 5
REMARK VINA RESULT:    -2.193      2.363      3.297
REMARK INTER + INTRA:          -2.460
REMARK INTER:                  -2.415
REMARK INTRA:                  -0.045
REMARK UNBOUND:                -0.010
REMARK SMILES CCCC(=O)[O-]
REMARK SMILES IDX 3 1 4 2 5 3 6 4 2 5 1 6
REMARK H PARENT
REMARK Flexibility Score: inf
ROOT
ATOM      1  C   UNL     1     -45.989 -47.122  71.157  1.00  0.00     0.052 C 
ENDROOT
BRANCH   1   2
ATOM      2  C   UNL     1     -45.150 -48.243  70.621  1.00  0.00     0.041 C 
ATOM      3  O   UNL     1     -44.040 -48.000  70.077  1.00  0.00    -0.550 OA
ATOM      4  O   UNL     1     -45.579 -49.557  70.752  1.00  0.00    -0.550 OA
ENDBRANCH   1   2
BRANCH   1   5
ATOM      5  C   UNL     1     -47.487 -47.419  71.018  1.00  0.00     0.003 C 
ATOM      6  C   UNL     1     -47.976 -47.283  69.577  1.00  0.00     0.004 C 
ENDBRANCH   1   5
TORSDOF 2
ENDMDL
MODEL 6
REMARK VINA RESULT:    -2.178      2.734      3.725
REMARK INTER + INTRA:          -2.443
REMARK INTER:                  -2.431
REMARK INTRA:                  -0.012
REMARK UNBOUND:                -0.010
REMARK SMILES CCCC(=O)[O-]
REMARK SMILES IDX 3 1 4 2 5 3 6 4 2 5 1 6
REMARK H PARENT
REMARK Flexibility Score: inf
ROOT
ATOM      1  C   UNL     1     -45.559 -48.052  70.741  1.00  0.00     0.052 C 
ENDROOT
BRANCH   1   2
ATOM      2  C   UNL     1     -44.296 -47.245  70.771  1.00  0.00     0.041 C 
ATOM      3  O   UNL     1     -44.341 -45.992  70.643  1.00  0.00    -0.550 OA
ATOM      4  O   UNL     1     -43.074 -47.873  70.972  1.00  0.00    -0.550 OA
ENDBRANCH   1   2
BRANCH   1   5
ATOM      5  C   UNL     1     -46.774 -47.221  71.171  1.00  0.00     0.003 C 
ATOM      6  C   UNL     1     -48.097 -47.905  70.832  1.00  0.00     0.004 C 
ENDBRANCH   1   5
TORSDOF 2
ENDMDL
MODEL 7
REMARK VINA RESULT:    -2.137     10.269     10.883
REMARK INTER + INTRA:          -2.397
REMARK INTER:                  -2.383
REMARK INTRA:                  -0.014
REMARK UNBOUND:                -0.010
REMARK SMILES CCCC(=O)[O-]
REMARK SMILES IDX 3 1 4 2 5 3 6 4 2 5 1 6
REMARK H PARENT
REMARK Flexibility Score: inf
ROOT
ATOM      1  C   UNL     1     -48.709 -37.013  71.399  1.00  0.00     0.052 C 
ENDROOT
BRANCH   1   2
ATOM      2  C   UNL     1     -50.095 -37.472  71.058  1.00  0.00     0.041 C 
ATOM      3  O   UNL     1     -50.889 -37.824  71.970  1.00  0.00    -0.550 OA
ATOM      4  O   UNL     1     -50.520 -37.477  69.735  1.00  0.00    -0.550 OA
ENDBRANCH   1   2
BRANCH   1   5
ATOM      5  C   UNL     1     -48.159 -37.741  72.631  1.00  0.00     0.003 C 
ATOM      6  C   UNL     1     -46.790 -38.369  72.373  1.00  0.00     0.004 C 
ENDBRANCH   1   5
TORSDOF 2
ENDMDL
MODEL 8
REMARK VINA RESULT:    -2.047      2.372      2.747
REMARK INTER + INTRA:          -2.296
REMARK INTER:                  -2.291
REMARK INTRA:                  -0.005
REMARK UNBOUND:                -0.010
REMARK SMILES CCCC(=O)[O-]
REMARK SMILES IDX 3 1 4 2 5 3 6 4 2 5 1 6
REMARK H PARENT
REMARK Flexibility Score: inf
ROOT
ATOM      1  C   UNL     1     -47.592 -48.002  69.092  1.00  0.00     0.052 C 
ENDROOT
BRANCH   1   2
ATOM      2  C   UNL     1     -48.882 -47.904  68.334  1.00  0.00     0.041 C 
ATOM      3  O   UNL     1     -49.077 -46.950  67.536  1.00  0.00    -0.550 OA
ATOM      4  O   UNL     1     -49.853 -48.885  68.484  1.00  0.00    -0.550 OA
ENDBRANCH   1   2
BRANCH   1   5
ATOM      5  C   UNL     1     -47.671 -47.278  70.441  1.00  0.00     0.003 C 
ATOM      6  C   UNL     1     -46.321 -47.225  71.154  1.00  0.00     0.004 C 
ENDBRANCH   1   5
TORSDOF 2
ENDMDL
MODEL 9
REMARK VINA RESULT:    -2.008      3.280      4.145
REMARK INTER + INTRA:          -2.253
REMARK INTER:                  -2.235
REMARK INTRA:                  -0.018
REMARK UNBOUND:                -0.010
REMARK SMILES CCCC(=O)[O-]
REMARK SMILES IDX 3 1 4 2 5 3 6 4 2 5 1 6
REMARK H PARENT
REMARK Flexibility Score: inf
ROOT
ATOM      1  C   UNL     1     -44.672 -46.523  70.695  1.00  0.00     0.052 C 
ENDROOT
BRANCH   1   2
ATOM      2  C   UNL     1     -43.710 -46.292  71.821  1.00  0.00     0.041 C 
ATOM      3  O   UNL     1     -44.044 -45.580  72.804  1.00  0.00    -0.550 OA
ATOM      4  O   UNL     1     -42.458 -46.892  71.800  1.00  0.00    -0.550 OA
ENDBRANCH   1   2
BRANCH   1   5
ATOM      5  C   UNL     1     -45.986 -47.140  71.189  1.00  0.00     0.003 C 
ATOM      6  C   UNL     1     -46.156 -48.589  70.734  1.00  0.00     0.004 C 
ENDBRANCH   1   5
TORSDOF 2
ENDMDL
