MODEL 1
REMARK VINA RESULT:    -5.113      0.000      0.000
REMARK INTER + INTRA:          -6.333
REMARK INTER:                  -6.159
REMARK INTRA:                  -0.174
REMARK UNBOUND:                -0.174
REMARK SMILES O=c1ccn([C@H]2O[C@H](CO)[C@@H](O)[C@H]2O)c(=O)[nH]1
REMARK SMILES IDX 6 1 13 2 11 3 8 4 7 5 5 6 3 7 4 8 2 9 17 10 1 11 15 12 16 14
REMARK SMILES IDX 14 15 12 17 9 19 10 20
REMARK H PARENT 17 13 14 16 12 18 10 21
REMARK Flexibility Score: inf
ROOT
ATOM      1  C   UNL     1      30.664  10.259   6.114  1.00  0.00     0.255 C 
ATOM      2  C   UNL     1      31.244  11.461   5.352  1.00  0.00     0.196 C 
ATOM      3  C   UNL     1      30.709  11.301   3.942  1.00  0.00     0.179 C 
ATOM      4  C   UNL     1      30.249   9.843   3.905  1.00  0.00     0.178 C 
ATOM      5  O   UNL     1      29.980   9.407   5.218  1.00  0.00    -0.347 OA
ENDROOT
BRANCH   1   6
ATOM      6  N   UNL     1      29.775  10.668   7.226  1.00  0.00    -0.271 N 
ATOM      7  C   UNL     1      27.590  11.338   7.956  1.00  0.00     0.090 A 
ATOM      8  C   UNL     1      28.472  10.972   6.944  1.00  0.00     0.099 A 
ATOM      9  C   UNL     1      28.057  11.380   9.265  1.00  0.00     0.253 A 
ATOM     10  N   UNL     1      29.351  11.060   9.530  1.00  0.00    -0.274 N 
ATOM     11  O   UNL     1      27.281  11.709  10.201  1.00  0.00    -0.269 OA
ATOM     12  C   UNL     1      30.207  10.701   8.533  1.00  0.00     0.330 A 
ATOM     13  H   UNL     1      29.694  11.086  10.517  1.00  0.00     0.175 HD
ATOM     14  O   UNL     1      31.395  10.396   8.828  1.00  0.00    -0.248 OA
ENDBRANCH   1   6
BRANCH   2  15
ATOM     15  O   UNL     1      30.872  12.689   5.929  1.00  0.00    -0.386 OA
ATOM     16  H   UNL     1      30.759  13.331   5.179  1.00  0.00     0.211 HD
ENDBRANCH   2  15
BRANCH   3  17
ATOM     17  O   UNL     1      29.606  12.143   3.715  1.00  0.00    -0.387 OA
ATOM     18  H   UNL     1      28.960  11.978   4.452  1.00  0.00     0.211 HD
ENDBRANCH   3  17
BRANCH   4  19
ATOM     19  C   UNL     1      31.275   8.910   3.241  1.00  0.00     0.191 C 
BRANCH  19  20
ATOM     20  O   UNL     1      30.690   7.680   2.912  1.00  0.00    -0.394 OA
ATOM     21  H   UNL     1      31.404   7.141   2.483  1.00  0.00     0.210 HD
ENDBRANCH  19  20
ENDBRANCH   4  19
TORSDOF 5
ENDMDL
MODEL 2
REMARK VINA RESULT:    -5.001     14.146     17.145
REMARK INTER + INTRA:          -6.198
REMARK INTER:                  -5.956
REMARK INTRA:                  -0.241
REMARK UNBOUND:                -0.174
REMARK SMILES O=c1ccn([C@H]2O[C@H](CO)[C@@H](O)[C@H]2O)c(=O)[nH]1
REMARK SMILES IDX 6 1 13 2 11 3 8 4 7 5 5 6 3 7 4 8 2 9 17 10 1 11 15 12 16 14
REMARK SMILES IDX 14 15 12 17 9 19 10 20
REMARK H PARENT 17 13 14 16 12 18 10 21
REMARK Flexibility Score: inf
ROOT
ATOM      1  C   UNL     1      19.381   5.602  17.494  1.00  0.00     0.255 C 
ATOM      2  C   UNL     1      19.132   7.023  18.022  1.00  0.00     0.196 C 
ATOM      3  C   UNL     1      18.766   7.820  16.784  1.00  0.00     0.179 C 
ATOM      4  C   UNL     1      19.247   6.930  15.638  1.00  0.00     0.178 C 
ATOM      5  O   UNL     1      19.309   5.593  16.083  1.00  0.00    -0.347 OA
ENDROOT
BRANCH   1   6
ATOM      6  N   UNL     1      18.443   4.612  18.070  1.00  0.00    -0.271 N 
ATOM      7  C   UNL     1      16.325   3.491  17.948  1.00  0.00     0.090 A 
ATOM      8  C   UNL     1      17.232   4.426  17.461  1.00  0.00     0.099 A 
ATOM      9  C   UNL     1      16.677   2.737  19.062  1.00  0.00     0.253 A 
ATOM     10  N   UNL     1      17.890   2.923  19.646  1.00  0.00    -0.274 N 
ATOM     11  O   UNL     1      15.875   1.883  19.526  1.00  0.00    -0.269 OA
ATOM     12  C   UNL     1      18.773   3.840  19.161  1.00  0.00     0.330 A 
ATOM     13  H   UNL     1      18.152   2.347  20.479  1.00  0.00     0.175 HD
ATOM     14  O   UNL     1      19.894   3.966  19.725  1.00  0.00    -0.248 OA
ENDBRANCH   1   6
BRANCH   2  15
ATOM     15  O   UNL     1      18.123   7.061  19.000  1.00  0.00    -0.386 OA
ATOM     16  H   UNL     1      18.478   6.577  19.792  1.00  0.00     0.211 HD
ENDBRANCH   2  15
BRANCH   3  17
ATOM     17  O   UNL     1      17.374   7.998  16.684  1.00  0.00    -0.387 OA
ATOM     18  H   UNL     1      17.074   8.407  17.539  1.00  0.00     0.211 HD
ENDBRANCH   3  17
BRANCH   4  19
ATOM     19  C   UNL     1      20.612   7.363  15.079  1.00  0.00     0.191 C 
BRANCH  19  20
ATOM     20  O   UNL     1      20.933   8.661  15.497  1.00  0.00    -0.394 OA
ATOM     21  H   UNL     1      21.100   8.603  16.473  1.00  0.00     0.210 HD
ENDBRANCH  19  20
ENDBRANCH   4  19
TORSDOF 5
ENDMDL
MODEL 3
REMARK VINA RESULT:    -4.859      4.773      6.929
REMARK INTER + INTRA:          -6.028
REMARK INTER:                  -5.831
REMARK INTRA:                  -0.196
REMARK UNBOUND:                -0.174
REMARK SMILES O=c1ccn([C@H]2O[C@H](CO)[C@@H](O)[C@H]2O)c(=O)[nH]1
REMARK SMILES IDX 6 1 13 2 11 3 8 4 7 5 5 6 3 7 4 8 2 9 17 10 1 11 15 12 16 14
REMARK SMILES IDX 14 15 12 17 9 19 10 20
REMARK H PARENT 17 13 14 16 12 18 10 21
REMARK Flexibility Score: inf
ROOT
ATOM      1  C   UNL     1      29.437   5.157   5.984  1.00  0.00     0.255 C 
ATOM      2  C   UNL     1      28.069   4.483   5.797  1.00  0.00     0.196 C 
ATOM      3  C   UNL     1      27.386   4.653   7.140  1.00  0.00     0.179 C 
ATOM      4  C   UNL     1      28.540   5.002   8.080  1.00  0.00     0.178 C 
ATOM      5  O   UNL     1      29.599   5.554   7.330  1.00  0.00    -0.347 OA
ENDROOT
BRANCH   1   6
ATOM      6  N   UNL     1      29.630   6.309   5.074  1.00  0.00    -0.271 N 
ATOM      7  C   UNL     1      29.684   8.689   4.773  1.00  0.00     0.090 A 
ATOM      8  C   UNL     1      29.490   7.572   5.579  1.00  0.00     0.099 A 
ATOM      9  C   UNL     1      30.035   8.497   3.441  1.00  0.00     0.253 A 
ATOM     10  N   UNL     1      30.185   7.235   2.959  1.00  0.00    -0.274 N 
ATOM     11  O   UNL     1      30.216   9.489   2.687  1.00  0.00    -0.269 OA
ATOM     12  C   UNL     1      29.995   6.148   3.756  1.00  0.00     0.330 A 
ATOM     13  H   UNL     1      30.456   7.098   1.958  1.00  0.00     0.175 HD
ATOM     14  O   UNL     1      30.162   4.996   3.270  1.00  0.00    -0.248 OA
ENDBRANCH   1   6
BRANCH   2  15
ATOM     15  O   UNL     1      27.330   5.054   4.746  1.00  0.00    -0.386 OA
ATOM     16  H   UNL     1      26.409   5.192   5.090  1.00  0.00     0.211 HD
ENDBRANCH   2  15
BRANCH   3  17
ATOM     17  O   UNL     1      26.466   5.716   7.115  1.00  0.00    -0.387 OA
ATOM     18  H   UNL     1      26.988   6.544   6.943  1.00  0.00     0.211 HD
ENDBRANCH   3  17
BRANCH   4  19
ATOM     19  C   UNL     1      29.040   3.793   8.887  1.00  0.00     0.191 C 
BRANCH  19  20
ATOM     20  O   UNL     1      29.759   4.211  10.015  1.00  0.00    -0.394 OA
ATOM     21  H   UNL     1      29.432   3.657  10.771  1.00  0.00     0.210 HD
ENDBRANCH  19  20
ENDBRANCH   4  19
TORSDOF 5
ENDMDL
MODEL 4
REMARK VINA RESULT:    -4.730      4.275      5.742
REMARK INTER + INTRA:          -5.871
REMARK INTER:                  -5.680
REMARK INTRA:                  -0.191
REMARK UNBOUND:                -0.174
REMARK SMILES O=c1ccn([C@H]2O[C@H](CO)[C@@H](O)[C@H]2O)c(=O)[nH]1
REMARK SMILES IDX 6 1 13 2 11 3 8 4 7 5 5 6 3 7 4 8 2 9 17 10 1 11 15 12 16 14
REMARK SMILES IDX 14 15 12 17 9 19 10 20
REMARK H PARENT 17 13 14 16 12 18 10 21
REMARK Flexibility Score: inf
ROOT
ATOM      1  C   UNL     1      29.295   6.275   6.024  1.00  0.00     0.255 C 
ATOM      2  C   UNL     1      27.908   5.820   5.548  1.00  0.00     0.196 C 
ATOM      3  C   UNL     1      27.245   5.277   6.799  1.00  0.00     0.179 C 
ATOM      4  C   UNL     1      28.419   5.067   7.756  1.00  0.00     0.178 C 
ATOM      5  O   UNL     1      29.483   5.911   7.377  1.00  0.00    -0.347 OA
ENDROOT
BRANCH   1   6
ATOM      6  N   UNL     1      29.508   7.729   5.842  1.00  0.00    -0.271 N 
ATOM      7  C   UNL     1      29.566   9.924   6.810  1.00  0.00     0.090 A 
ATOM      8  C   UNL     1      29.355   8.554   6.922  1.00  0.00     0.099 A 
ATOM      9  C   UNL     1      29.948  10.441   5.577  1.00  0.00     0.253 A 
ATOM     10  N   UNL     1      30.111   9.606   4.517  1.00  0.00    -0.274 N 
ATOM     11  O   UNL     1      30.146  11.678   5.445  1.00  0.00    -0.269 OA
ATOM     12  C   UNL     1      29.903   8.266   4.637  1.00  0.00     0.330 A 
ATOM     13  H   UNL     1      30.405  10.001   3.594  1.00  0.00     0.175 HD
ATOM     14  O   UNL     1      30.082   7.527   3.630  1.00  0.00    -0.248 OA
ENDBRANCH   1   6
BRANCH   2  15
ATOM     15  O   UNL     1      27.172   6.867   4.964  1.00  0.00    -0.386 OA
ATOM     16  H   UNL     1      26.231   6.750   5.260  1.00  0.00     0.211 HD
ENDBRANCH   2  15
BRANCH   3  17
ATOM     17  O   UNL     1      26.353   6.213   7.352  1.00  0.00    -0.387 OA
ATOM     18  H   UNL     1      26.475   7.060   6.846  1.00  0.00     0.211 HD
ENDBRANCH   3  17
BRANCH   4  19
ATOM     19  C   UNL     1      28.896   3.607   7.804  1.00  0.00     0.191 C 
BRANCH  19  20
ATOM     20  O   UNL     1      28.580   3.021   9.037  1.00  0.00    -0.394 OA
ATOM     21  H   UNL     1      29.339   3.225   9.643  1.00  0.00     0.210 HD
ENDBRANCH  19  20
ENDBRANCH   4  19
TORSDOF 5
ENDMDL
MODEL 5
REMARK VINA RESULT:    -4.652      3.057      4.832
REMARK INTER + INTRA:          -5.778
REMARK INTER:                  -5.601
REMARK INTRA:                  -0.178
REMARK UNBOUND:                -0.174
REMARK SMILES O=c1ccn([C@H]2O[C@H](CO)[C@@H](O)[C@H]2O)c(=O)[nH]1
REMARK SMILES IDX 6 1 13 2 11 3 8 4 7 5 5 6 3 7 4 8 2 9 17 10 1 11 15 12 16 14
REMARK SMILES IDX 14 15 12 17 9 19 10 20
REMARK H PARENT 17 13 14 16 12 18 10 21
REMARK Flexibility Score: inf
ROOT
ATOM      1  C   UNL     1      29.014   8.370   6.804  1.00  0.00     0.255 C 
ATOM      2  C   UNL     1      30.162   7.593   7.468  1.00  0.00     0.196 C 
ATOM      3  C   UNL     1      30.025   6.187   6.919  1.00  0.00     0.179 C 
ATOM      4  C   UNL     1      28.605   6.166   6.354  1.00  0.00     0.178 C 
ATOM      5  O   UNL     1      28.204   7.485   6.057  1.00  0.00    -0.347 OA
ENDROOT
BRANCH   1   6
ATOM      6  N   UNL     1      29.499   9.479   5.952  1.00  0.00    -0.271 N 
ATOM      7  C   UNL     1      30.353  10.203   3.830  1.00  0.00     0.090 A 
ATOM      8  C   UNL     1      29.911   9.194   4.679  1.00  0.00     0.099 A 
ATOM      9  C   UNL     1      30.358  11.513   4.296  1.00  0.00     0.253 A 
ATOM     10  N   UNL     1      29.931  11.781   5.558  1.00  0.00    -0.274 N 
ATOM     11  O   UNL     1      30.754  12.447   3.549  1.00  0.00    -0.269 OA
ATOM     12  C   UNL     1      29.499  10.787   6.382  1.00  0.00     0.330 A 
ATOM     13  H   UNL     1      29.931  12.769   5.900  1.00  0.00     0.175 HD
ATOM     14  O   UNL     1      29.096  11.085   7.540  1.00  0.00    -0.248 OA
ENDBRANCH   1   6
BRANCH   2  15
ATOM     15  O   UNL     1      31.420   8.157   7.190  1.00  0.00    -0.386 OA
ATOM     16  H   UNL     1      31.495   8.205   6.200  1.00  0.00     0.211 HD
ENDBRANCH   2  15
BRANCH   3  17
ATOM     17  O   UNL     1      30.944   5.952   5.880  1.00  0.00    -0.387 OA
ATOM     18  H   UNL     1      30.457   5.451   5.173  1.00  0.00     0.211 HD
ENDBRANCH   3  17
BRANCH   4  19
ATOM     19  C   UNL     1      27.592   5.511   7.307  1.00  0.00     0.191 C 
BRANCH  19  20
ATOM     20  O   UNL     1      26.377   6.209   7.300  1.00  0.00    -0.394 OA
ATOM     21  H   UNL     1      25.750   5.677   7.855  1.00  0.00     0.210 HD
ENDBRANCH  19  20
ENDBRANCH   4  19
TORSDOF 5
ENDMDL
MODEL 6
REMARK VINA RESULT:    -4.649      3.126      4.389
REMARK INTER + INTRA:          -5.775
REMARK INTER:                  -5.590
REMARK INTRA:                  -0.185
REMARK UNBOUND:                -0.174
REMARK SMILES O=c1ccn([C@H]2O[C@H](CO)[C@@H](O)[C@H]2O)c(=O)[nH]1
REMARK SMILES IDX 6 1 13 2 11 3 8 4 7 5 5 6 3 7 4 8 2 9 17 10 1 11 15 12 16 14
REMARK SMILES IDX 14 15 12 17 9 19 10 20
REMARK H PARENT 17 13 14 16 12 18 10 21
REMARK Flexibility Score: inf
ROOT
ATOM      1  C   UNL     1      30.676   9.250   7.036  1.00  0.00     0.255 C 
ATOM      2  C   UNL     1      30.498  10.149   8.269  1.00  0.00     0.196 C 
ATOM      3  C   UNL     1      29.809  11.387   7.729  1.00  0.00     0.179 C 
ATOM      4  C   UNL     1      30.040  11.289   6.221  1.00  0.00     0.178 C 
ATOM      5  O   UNL     1      30.267   9.941   5.873  1.00  0.00    -0.347 OA
ENDROOT
BRANCH   1   6
ATOM      6  N   UNL     1      29.950   7.966   7.162  1.00  0.00    -0.271 N 
ATOM      7  C   UNL     1      28.023   6.645   6.613  1.00  0.00     0.090 A 
ATOM      8  C   UNL     1      28.735   7.838   6.546  1.00  0.00     0.099 A 
ATOM      9  C   UNL     1      28.576   5.577   7.311  1.00  0.00     0.253 A 
ATOM     10  N   UNL     1      29.791   5.715   7.904  1.00  0.00    -0.274 N 
ATOM     11  O   UNL     1      27.954   4.484   7.389  1.00  0.00    -0.269 OA
ATOM     12  C   UNL     1      30.482   6.887   7.831  1.00  0.00     0.330 A 
ATOM     13  H   UNL     1      30.204   4.905   8.421  1.00  0.00     0.175 HD
ATOM     14  O   UNL     1      31.613   6.964   8.383  1.00  0.00    -0.248 OA
ENDBRANCH   1   6
BRANCH   2  15
ATOM     15  O   UNL     1      29.754   9.522   9.285  1.00  0.00    -0.386 OA
ATOM     16  H   UNL     1      30.187   9.768  10.145  1.00  0.00     0.211 HD
ENDBRANCH   2  15
BRANCH   3  17
ATOM     17  O   UNL     1      28.429  11.360   7.993  1.00  0.00    -0.387 OA
ATOM     18  H   UNL     1      28.325  11.190   8.967  1.00  0.00     0.211 HD
ENDBRANCH   3  17
BRANCH   4  19
ATOM     19  C   UNL     1      31.209  12.161   5.737  1.00  0.00     0.191 C 
BRANCH  19  20
ATOM     20  O   UNL     1      30.761  13.139   4.838  1.00  0.00    -0.394 OA
ATOM     21  H   UNL     1      29.811  13.310   5.068  1.00  0.00     0.210 HD
ENDBRANCH  19  20
ENDBRANCH   4  19
TORSDOF 5
ENDMDL
MODEL 7
REMARK VINA RESULT:    -4.635      2.808      4.944
REMARK INTER + INTRA:          -5.757
REMARK INTER:                  -5.567
REMARK INTRA:                  -0.190
REMARK UNBOUND:                -0.174
REMARK SMILES O=c1ccn([C@H]2O[C@H](CO)[C@@H](O)[C@H]2O)c(=O)[nH]1
REMARK SMILES IDX 6 1 13 2 11 3 8 4 7 5 5 6 3 7 4 8 2 9 17 10 1 11 15 12 16 14
REMARK SMILES IDX 14 15 12 17 9 19 10 20
REMARK H PARENT 17 13 14 16 12 18 10 21
REMARK Flexibility Score: inf
ROOT
ATOM      1  C   UNL     1      30.786   8.070   5.338  1.00  0.00     0.255 C 
ATOM      2  C   UNL     1      29.635   7.572   6.226  1.00  0.00     0.196 C 
ATOM      3  C   UNL     1      30.285   7.324   7.573  1.00  0.00     0.179 C 
ATOM      4  C   UNL     1      31.777   7.278   7.240  1.00  0.00     0.178 C 
ATOM      5  O   UNL     1      32.008   7.988   6.044  1.00  0.00    -0.347 OA
ENDROOT
BRANCH   1   6
ATOM      6  N   UNL     1      30.563   9.446   4.840  1.00  0.00    -0.271 N 
ATOM      7  C   UNL     1      30.702  11.809   5.231  1.00  0.00     0.090 A 
ATOM      8  C   UNL     1      30.870  10.497   5.660  1.00  0.00     0.099 A 
ATOM      9  C   UNL     1      30.224  12.034   3.944  1.00  0.00     0.253 A 
ATOM     10  N   UNL     1      29.939  10.980   3.137  1.00  0.00    -0.274 N 
ATOM     11  O   UNL     1      30.061  13.213   3.529  1.00  0.00    -0.269 OA
ATOM     12  C   UNL     1      30.108   9.698   3.565  1.00  0.00     0.330 A 
ATOM     13  H   UNL     1      29.587  11.156   2.168  1.00  0.00     0.175 HD
ATOM     14  O   UNL     1      29.846   8.750   2.775  1.00  0.00    -0.248 OA
ENDBRANCH   1   6
BRANCH   2  15
ATOM     15  O   UNL     1      28.580   8.500   6.303  1.00  0.00    -0.386 OA
ATOM     16  H   UNL     1      28.418   8.822   5.377  1.00  0.00     0.211 HD
ENDBRANCH   2  15
BRANCH   3  17
ATOM     17  O   UNL     1      30.038   8.385   8.463  1.00  0.00    -0.387 OA
ATOM     18  H   UNL     1      30.152   8.023   9.381  1.00  0.00     0.211 HD
ENDBRANCH   3  17
BRANCH   4  19
ATOM     19  C   UNL     1      32.317   5.844   7.114  1.00  0.00     0.191 C 
BRANCH  19  20
ATOM     20  O   UNL     1      33.322   5.775   6.141  1.00  0.00    -0.394 OA
ATOM     21  H   UNL     1      32.945   6.193   5.324  1.00  0.00     0.210 HD
ENDBRANCH  19  20
ENDBRANCH   4  19
TORSDOF 5
ENDMDL
MODEL 8
REMARK VINA RESULT:    -4.626      2.662      5.428
REMARK INTER + INTRA:          -5.746
REMARK INTER:                  -5.492
REMARK INTRA:                  -0.254
REMARK UNBOUND:                -0.174
REMARK SMILES O=c1ccn([C@H]2O[C@H](CO)[C@@H](O)[C@H]2O)c(=O)[nH]1
REMARK SMILES IDX 6 1 13 2 11 3 8 4 7 5 5 6 3 7 4 8 2 9 17 10 1 11 15 12 16 14
REMARK SMILES IDX 14 15 12 17 9 19 10 20
REMARK H PARENT 17 13 14 16 12 18 10 21
REMARK Flexibility Score: inf
ROOT
ATOM      1  C   UNL     1      31.585   8.618   7.163  1.00  0.00     0.255 C 
ATOM      2  C   UNL     1      30.561   8.709   8.305  1.00  0.00     0.196 C 
ATOM      3  C   UNL     1      31.048   9.872   9.148  1.00  0.00     0.179 C 
ATOM      4  C   UNL     1      32.493  10.060   8.687  1.00  0.00     0.178 C 
ATOM      5  O   UNL     1      32.638   9.534   7.387  1.00  0.00    -0.347 OA
ENDROOT
BRANCH   1   6
ATOM      6  N   UNL     1      30.972   8.842   5.834  1.00  0.00    -0.271 N 
ATOM      7  C   UNL     1      30.571  10.327   3.992  1.00  0.00     0.090 A 
ATOM      8  C   UNL     1      31.107  10.072   5.250  1.00  0.00     0.099 A 
ATOM      9  C   UNL     1      29.902   9.302   3.332  1.00  0.00     0.253 A 
ATOM     10  N   UNL     1      29.791   8.081   3.919  1.00  0.00    -0.274 N 
ATOM     11  O   UNL     1      29.406   9.504   2.192  1.00  0.00    -0.269 OA
ATOM     12  C   UNL     1      30.320   7.840   5.150  1.00  0.00     0.330 A 
ATOM     13  H   UNL     1      29.293   7.313   3.414  1.00  0.00     0.175 HD
ATOM     14  O   UNL     1      30.207   6.687   5.649  1.00  0.00    -0.248 OA
ENDBRANCH   1   6
BRANCH   2  15
ATOM     15  O   UNL     1      29.250   8.902   7.834  1.00  0.00    -0.386 OA
ATOM     16  H   UNL     1      28.664   8.935   8.636  1.00  0.00     0.211 HD
ENDBRANCH   2  15
BRANCH   3  17
ATOM     17  O   UNL     1      30.315  11.042   8.877  1.00  0.00    -0.387 OA
ATOM     18  H   UNL     1      30.792  11.517   8.146  1.00  0.00     0.211 HD
ENDBRANCH   3  17
BRANCH   4  19
ATOM     19  C   UNL     1      33.513   9.408   9.635  1.00  0.00     0.191 C 
BRANCH  19  20
ATOM     20  O   UNL     1      32.927   9.124  10.876  1.00  0.00    -0.394 OA
ATOM     21  H   UNL     1      32.503   8.231  10.783  1.00  0.00     0.210 HD
ENDBRANCH  19  20
ENDBRANCH   4  19
TORSDOF 5
ENDMDL
MODEL 9
REMARK VINA RESULT:    -4.620      4.416      5.638
REMARK INTER + INTRA:          -5.739
REMARK INTER:                  -5.506
REMARK INTRA:                  -0.233
REMARK UNBOUND:                -0.174
REMARK SMILES O=c1ccn([C@H]2O[C@H](CO)[C@@H](O)[C@H]2O)c(=O)[nH]1
REMARK SMILES IDX 6 1 13 2 11 3 8 4 7 5 5 6 3 7 4 8 2 9 17 10 1 11 15 12 16 14
REMARK SMILES IDX 14 15 12 17 9 19 10 20
REMARK H PARENT 17 13 14 16 12 18 10 21
REMARK Flexibility Score: inf
ROOT
ATOM      1  C   UNL     1      28.977   7.158   5.781  1.00  0.00     0.255 C 
ATOM      2  C   UNL     1      28.536   6.599   4.420  1.00  0.00     0.196 C 
ATOM      3  C   UNL     1      29.662   6.982   3.479  1.00  0.00     0.179 C 
ATOM      4  C   UNL     1      30.412   8.067   4.252  1.00  0.00     0.178 C 
ATOM      5  O   UNL     1      30.164   7.911   5.631  1.00  0.00    -0.347 OA
ENDROOT
BRANCH   1   6
ATOM      6  N   UNL     1      29.159   6.096   6.797  1.00  0.00    -0.271 N 
ATOM      7  C   UNL     1      30.657   4.745   8.097  1.00  0.00     0.090 A 
ATOM      8  C   UNL     1      30.431   5.721   7.131  1.00  0.00     0.099 A 
ATOM      9  C   UNL     1      29.562   4.164   8.727  1.00  0.00     0.253 A 
ATOM     10  N   UNL     1      28.305   4.559   8.395  1.00  0.00    -0.274 N 
ATOM     11  O   UNL     1      29.736   3.277   9.605  1.00  0.00    -0.269 OA
ATOM     12  C   UNL     1      28.093   5.517   7.449  1.00  0.00     0.330 A 
ATOM     13  H   UNL     1      27.486   4.123   8.878  1.00  0.00     0.175 HD
ATOM     14  O   UNL     1      26.910   5.864   7.185  1.00  0.00    -0.248 OA
ENDBRANCH   1   6
BRANCH   2  15
ATOM     15  O   UNL     1      28.319   5.210   4.457  1.00  0.00    -0.386 OA
ATOM     16  H   UNL     1      29.204   4.782   4.318  1.00  0.00     0.211 HD
ENDBRANCH   2  15
BRANCH   3  17
ATOM     17  O   UNL     1      30.523   5.896   3.244  1.00  0.00    -0.387 OA
ATOM     18  H   UNL     1      30.013   5.072   3.461  1.00  0.00     0.211 HD
ENDBRANCH   3  17
BRANCH   4  19
ATOM     19  C   UNL     1      30.033   9.489   3.807  1.00  0.00     0.191 C 
BRANCH  19  20
ATOM     20  O   UNL     1      29.437   9.471   2.539  1.00  0.00    -0.394 OA
ATOM     21  H   UNL     1      30.168   9.290   1.893  1.00  0.00     0.210 HD
ENDBRANCH  19  20
ENDBRANCH   4  19
TORSDOF 5
ENDMDL
