MODEL 1
REMARK VINA RESULT:    -4.617      0.000      0.000
REMARK INTER + INTRA:          -4.752
REMARK INTER:                  -4.752
REMARK INTRA:                   0.000
REMARK UNBOUND:                 0.000
REMARK SMILES Cc1ccccc1O
REMARK SMILES IDX 1 1 2 2 3 3 4 4 5 5 6 6 7 7 8 8
REMARK H PARENT 8 9
REMARK Flexibility Score: inf
ROOT
ATOM      1  C   UNL     1     -12.087   8.809  35.317  1.00  0.00     0.048 C 
ATOM      2  C   UNL     1     -10.683   8.961  35.835  1.00  0.00    -0.009 A 
ATOM      3  C   UNL     1     -10.380  10.010  36.720  1.00  0.00     0.007 A 
ATOM      4  C   UNL     1      -9.083  10.169  37.214  1.00  0.00     0.001 A 
ATOM      5  C   UNL     1      -8.075   9.284  36.829  1.00  0.00     0.004 A 
ATOM      6  C   UNL     1      -8.361   8.237  35.950  1.00  0.00     0.046 A 
ATOM      7  C   UNL     1      -9.658   8.066  35.448  1.00  0.00     0.118 A 
ENDROOT
BRANCH   7   8
ATOM      8  O   UNL     1      -9.894   7.004  34.573  1.00  0.00    -0.508 OA
ATOM      9  H   UNL     1     -10.824   6.676  34.342  1.00  0.00     0.293 HD
ENDBRANCH   7   8
TORSDOF 1
ENDMDL
MODEL 2
REMARK VINA RESULT:    -4.545      3.913      6.102
REMARK INTER + INTRA:          -4.678
REMARK INTER:                  -4.678
REMARK INTRA:                   0.000
REMARK UNBOUND:                 0.000
REMARK SMILES Cc1ccccc1O
REMARK SMILES IDX 1 1 2 2 3 3 4 4 5 5 6 6 7 7 8 8
REMARK H PARENT 8 9
REMARK Flexibility Score: inf
ROOT
ATOM      1  C   UNL     1     -13.114   8.175  34.990  1.00  0.00     0.048 C 
ATOM      2  C   UNL     1     -13.871   7.017  34.400  1.00  0.00    -0.009 A 
ATOM      3  C   UNL     1     -15.032   7.259  33.645  1.00  0.00     0.007 A 
ATOM      4  C   UNL     1     -15.749   6.198  33.088  1.00  0.00     0.001 A 
ATOM      5  C   UNL     1     -15.317   4.885  33.280  1.00  0.00     0.004 A 
ATOM      6  C   UNL     1     -14.166   4.629  34.028  1.00  0.00     0.046 A 
ATOM      7  C   UNL     1     -13.437   5.685  34.592  1.00  0.00     0.118 A 
ENDROOT
BRANCH   7   8
ATOM      8  O   UNL     1     -12.293   5.377  35.331  1.00  0.00    -0.508 OA
ATOM      9  H   UNL     1     -11.752   4.535  35.184  1.00  0.00     0.293 HD
ENDBRANCH   7   8
TORSDOF 1
ENDMDL
MODEL 3
REMARK VINA RESULT:    -4.446      1.727      2.418
REMARK INTER + INTRA:          -4.576
REMARK INTER:                  -4.576
REMARK INTRA:                   0.000
REMARK UNBOUND:                 0.000
REMARK SMILES Cc1ccccc1O
REMARK SMILES IDX 1 1 2 2 3 3 4 4 5 5 6 6 7 7 8 8
REMARK H PARENT 8 9
REMARK Flexibility Score: inf
ROOT
ATOM      1  C   UNL     1     -12.051   8.809  35.385  1.00  0.00     0.048 C 
ATOM      2  C   UNL     1     -10.636   8.865  35.890  1.00  0.00    -0.009 A 
ATOM      3  C   UNL     1      -9.774   7.778  35.662  1.00  0.00     0.007 A 
ATOM      4  C   UNL     1      -8.456   7.810  36.122  1.00  0.00     0.001 A 
ATOM      5  C   UNL     1      -7.984   8.926  36.815  1.00  0.00     0.004 A 
ATOM      6  C   UNL     1      -8.829  10.013  37.050  1.00  0.00     0.046 A 
ATOM      7  C   UNL     1     -10.153   9.994  36.593  1.00  0.00     0.118 A 
ENDROOT
BRANCH   7   8
ATOM      8  O   UNL     1     -10.958  11.105  36.852  1.00  0.00    -0.508 OA
ATOM      9  H   UNL     1     -11.919  11.175  36.539  1.00  0.00     0.293 HD
ENDBRANCH   7   8
TORSDOF 1
ENDMDL
MODEL 4
REMARK VINA RESULT:    -4.424      1.346      2.273
REMARK INTER + INTRA:          -4.554
REMARK INTER:                  -4.554
REMARK INTRA:                   0.000
REMARK UNBOUND:                 0.000
REMARK SMILES Cc1ccccc1O
REMARK SMILES IDX 1 1 2 2 3 3 4 4 5 5 6 6 7 7 8 8
REMARK H PARENT 8 9
REMARK Flexibility Score: inf
ROOT
ATOM      1  C   UNL     1     -10.552   6.858  35.001  1.00  0.00     0.048 C 
ATOM      2  C   UNL     1     -10.022   8.032  35.777  1.00  0.00    -0.009 A 
ATOM      3  C   UNL     1      -8.678   8.041  36.190  1.00  0.00     0.007 A 
ATOM      4  C   UNL     1      -8.166   9.122  36.911  1.00  0.00     0.001 A 
ATOM      5  C   UNL     1      -8.988  10.204  37.228  1.00  0.00     0.004 A 
ATOM      6  C   UNL     1     -10.325  10.209  36.824  1.00  0.00     0.046 A 
ATOM      7  C   UNL     1     -10.852   9.131  36.100  1.00  0.00     0.118 A 
ENDROOT
BRANCH   7   8
ATOM      8  O   UNL     1     -12.194   9.183  35.719  1.00  0.00    -0.508 OA
ATOM      9  H   UNL     1     -12.525   8.855  34.821  1.00  0.00     0.293 HD
ENDBRANCH   7   8
TORSDOF 1
ENDMDL
MODEL 5
REMARK VINA RESULT:    -4.393      4.378      6.398
REMARK INTER + INTRA:          -4.522
REMARK INTER:                  -4.522
REMARK INTRA:                   0.000
REMARK UNBOUND:                 0.000
REMARK SMILES Cc1ccccc1O
REMARK SMILES IDX 1 1 2 2 3 3 4 4 5 5 6 6 7 7 8 8
REMARK H PARENT 8 9
REMARK Flexibility Score: inf
ROOT
ATOM      1  C   UNL     1     -11.873   5.635  34.943  1.00  0.00     0.048 C 
ATOM      2  C   UNL     1     -13.234   5.793  34.325  1.00  0.00    -0.009 A 
ATOM      3  C   UNL     1     -13.947   4.652  33.915  1.00  0.00     0.007 A 
ATOM      4  C   UNL     1     -15.213   4.777  33.339  1.00  0.00     0.001 A 
ATOM      5  C   UNL     1     -15.781   6.040  33.165  1.00  0.00     0.004 A 
ATOM      6  C   UNL     1     -15.084   7.182  33.566  1.00  0.00     0.046 A 
ATOM      7  C   UNL     1     -13.814   7.071  34.146  1.00  0.00     0.118 A 
ENDROOT
BRANCH   7   8
ATOM      8  O   UNL     1     -13.158   8.242  34.531  1.00  0.00    -0.508 OA
ATOM      9  H   UNL     1     -13.299   8.681  35.432  1.00  0.00     0.293 HD
ENDBRANCH   7   8
TORSDOF 1
ENDMDL
MODEL 6
REMARK VINA RESULT:    -4.389      2.332      3.190
REMARK INTER + INTRA:          -4.518
REMARK INTER:                  -4.518
REMARK INTRA:                   0.000
REMARK UNBOUND:                 0.000
REMARK SMILES Cc1ccccc1O
REMARK SMILES IDX 1 1 2 2 3 3 4 4 5 5 6 6 7 7 8 8
REMARK H PARENT 8 9
REMARK Flexibility Score: inf
ROOT
ATOM      1  C   UNL     1      -8.279   6.067  33.678  1.00  0.00     0.048 C 
ATOM      2  C   UNL     1      -7.975   7.158  34.667  1.00  0.00    -0.009 A 
ATOM      3  C   UNL     1      -8.987   7.614  35.531  1.00  0.00     0.007 A 
ATOM      4  C   UNL     1      -8.727   8.626  36.456  1.00  0.00     0.001 A 
ATOM      5  C   UNL     1      -7.454   9.195  36.530  1.00  0.00     0.004 A 
ATOM      6  C   UNL     1      -6.440   8.754  35.678  1.00  0.00     0.046 A 
ATOM      7  C   UNL     1      -6.688   7.739  34.745  1.00  0.00     0.118 A 
ENDROOT
BRANCH   7   8
ATOM      8  O   UNL     1      -5.640   7.331  33.916  1.00  0.00    -0.508 OA
ATOM      9  H   UNL     1      -4.671   7.553  34.105  1.00  0.00     0.293 HD
ENDBRANCH   7   8
TORSDOF 1
ENDMDL
MODEL 7
REMARK VINA RESULT:    -4.373      2.049      3.068
REMARK INTER + INTRA:          -4.501
REMARK INTER:                  -4.501
REMARK INTRA:                   0.000
REMARK UNBOUND:                 0.000
REMARK SMILES Cc1ccccc1O
REMARK SMILES IDX 1 1 2 2 3 3 4 4 5 5 6 6 7 7 8 8
REMARK H PARENT 8 9
REMARK Flexibility Score: inf
ROOT
ATOM      1  C   UNL     1      -9.073   6.101  34.355  1.00  0.00     0.048 C 
ATOM      2  C   UNL     1      -8.254   7.179  35.009  1.00  0.00    -0.009 A 
ATOM      3  C   UNL     1      -6.956   7.448  34.539  1.00  0.00     0.007 A 
ATOM      4  C   UNL     1      -6.179   8.445  35.132  1.00  0.00     0.001 A 
ATOM      5  C   UNL     1      -6.687   9.184  36.201  1.00  0.00     0.004 A 
ATOM      6  C   UNL     1      -7.974   8.928  36.680  1.00  0.00     0.046 A 
ATOM      7  C   UNL     1      -8.764   7.931  36.093  1.00  0.00     0.118 A 
ENDROOT
BRANCH   7   8
ATOM      8  O   UNL     1     -10.044   7.713  36.608  1.00  0.00    -0.508 OA
ATOM      9  H   UNL     1     -10.217   7.498  37.582  1.00  0.00     0.293 HD
ENDBRANCH   7   8
TORSDOF 1
ENDMDL
MODEL 8
REMARK VINA RESULT:    -4.279      2.574      3.528
REMARK INTER + INTRA:          -4.404
REMARK INTER:                  -4.404
REMARK INTRA:                   0.000
REMARK UNBOUND:                 0.000
REMARK SMILES Cc1ccccc1O
REMARK SMILES IDX 1 1 2 2 3 3 4 4 5 5 6 6 7 7 8 8
REMARK H PARENT 8 9
REMARK Flexibility Score: inf
ROOT
ATOM      1  C   UNL     1     -14.765   7.248  33.798  1.00  0.00     0.048 C 
ATOM      2  C   UNL     1     -13.377   7.307  34.374  1.00  0.00    -0.009 A 
ATOM      3  C   UNL     1     -12.976   8.439  35.104  1.00  0.00     0.007 A 
ATOM      4  C   UNL     1     -11.691   8.513  35.647  1.00  0.00     0.001 A 
ATOM      5  C   UNL     1     -10.794   7.459  35.468  1.00  0.00     0.004 A 
ATOM      6  C   UNL     1     -11.179   6.328  34.745  1.00  0.00     0.046 A 
ATOM      7  C   UNL     1     -12.465   6.241  34.194  1.00  0.00     0.118 A 
ENDROOT
BRANCH   7   8
ATOM      8  O   UNL     1     -12.802   5.089  33.480  1.00  0.00    -0.508 OA
ATOM      9  H   UNL     1     -13.703   4.635  33.561  1.00  0.00     0.293 HD
ENDBRANCH   7   8
TORSDOF 1
ENDMDL
MODEL 9
REMARK VINA RESULT:    -4.271      1.581      3.322
REMARK INTER + INTRA:          -4.396
REMARK INTER:                  -4.396
REMARK INTRA:                   0.000
REMARK UNBOUND:                 0.000
REMARK SMILES Cc1ccccc1O
REMARK SMILES IDX 1 1 2 2 3 3 4 4 5 5 6 6 7 7 8 8
REMARK H PARENT 8 9
REMARK Flexibility Score: inf
ROOT
ATOM      1  C   UNL     1     -10.515   9.897  36.535  1.00  0.00     0.048 C 
ATOM      2  C   UNL     1     -11.117   8.692  35.866  1.00  0.00    -0.009 A 
ATOM      3  C   UNL     1     -12.354   8.809  35.208  1.00  0.00     0.007 A 
ATOM      4  C   UNL     1     -12.931   7.703  34.580  1.00  0.00     0.001 A 
ATOM      5  C   UNL     1     -12.280   6.468  34.603  1.00  0.00     0.004 A 
ATOM      6  C   UNL     1     -11.051   6.337  35.253  1.00  0.00     0.046 A 
ATOM      7  C   UNL     1     -10.461   7.439  35.886  1.00  0.00     0.118 A 
ENDROOT
BRANCH   7   8
ATOM      8  O   UNL     1      -9.232   7.257  36.522  1.00  0.00    -0.508 OA
ATOM      9  H   UNL     1      -8.450   7.889  36.401  1.00  0.00     0.293 HD
ENDBRANCH   7   8
TORSDOF 1
ENDMDL
