MODEL 1
REMARK VINA RESULT:    -1.196      0.000      0.000
REMARK INTER + INTRA:          -4.178
REMARK INTER:                  -3.014
REMARK INTRA:                  -1.164
REMARK UNBOUND:                -1.164
REMARK SMILES CCCCCCCCCCCCCCCCCCCCCCCCCCCC(=O)[O-]
REMARK SMILES IDX 15 1 16 2 17 3 18 4 19 5 20 6 21 7 22 8 23 9 24 10 25 11
REMARK SMILES IDX 26 12 27 13 28 14 29 15 30 16 14 17 13 18 12 19 11 20 10 21
REMARK SMILES IDX 9 22 8 23 7 24 6 25 5 26 4 27 3 28 2 29 1 30
REMARK H PARENT
REMARK Flexibility Score: inf
ROOT
ATOM      1  C   UNL     1    -116.140 -99.077  37.223  1.00  0.00     0.000 C 
ENDROOT
BRANCH   1   2
ATOM      2  C   UNL     1    -116.979 -99.107  38.511  1.00  0.00     0.000 C 
BRANCH   2   3
ATOM      3  C   UNL     1    -116.228 -99.727  39.703  1.00  0.00     0.000 C 
BRANCH   3   4
ATOM      4  C   UNL     1    -117.088-100.005  40.949  1.00  0.00     0.000 C 
BRANCH   4   5
ATOM      5  C   UNL     1    -117.714 -98.731  41.539  1.00  0.00     0.000 C 
BRANCH   5   6
ATOM      6  C   UNL     1    -117.354 -98.516  43.020  1.00  0.00     0.000 C 
BRANCH   6   7
ATOM      7  C   UNL     1    -118.310 -99.177  44.034  1.00  0.00     0.000 C 
BRANCH   7   8
ATOM      8  C   UNL     1    -117.722 -99.409  45.440  1.00  0.00     0.000 C 
BRANCH   8   9
ATOM      9  C   UNL     1    -118.662-100.123  46.433  1.00  0.00     0.000 C 
BRANCH   9  10
ATOM     10  C   UNL     1    -118.211-100.082  47.905  1.00  0.00     0.000 C 
BRANCH  10  11
ATOM     11  C   UNL     1    -118.774 -98.870  48.667  1.00  0.00     0.000 C 
BRANCH  11  12
ATOM     12  C   UNL     1    -117.961 -97.585  48.429  1.00  0.00     0.006 C 
BRANCH  12  13
ATOM     13  C   UNL     1    -118.501 -96.676  47.313  1.00  0.00     0.053 C 
BRANCH  13  14
ATOM     14  C   UNL     1    -118.450 -95.227  47.687  1.00  0.00     0.041 C 
ATOM     15  O   UNL     1    -117.791 -94.416  46.987  1.00  0.00    -0.550 OA
ATOM     16  O   UNL     1    -119.084 -94.783  48.840  1.00  0.00    -0.550 OA
ENDBRANCH  13  14
ENDBRANCH  12  13
ENDBRANCH  11  12
ENDBRANCH  10  11
ENDBRANCH   9  10
ENDBRANCH   8   9
ENDBRANCH   7   8
ENDBRANCH   6   7
ENDBRANCH   5   6
ENDBRANCH   4   5
ENDBRANCH   3   4
ENDBRANCH   2   3
ENDBRANCH   1   2
BRANCH   1  17
ATOM     17  C   UNL     1    -117.005 -99.156  35.954  1.00  0.00     0.000 C 
BRANCH  17  18
ATOM     18  C   UNL     1    -118.211-100.097  36.117  1.00  0.00     0.000 C 
BRANCH  18  19
ATOM     19  C   UNL     1    -119.113-100.125  34.874  1.00  0.00     0.000 C 
BRANCH  19  20
ATOM     20  C   UNL     1    -118.646 -99.149  33.781  1.00  0.00     0.000 C 
BRANCH  20  21
ATOM     21  C   UNL     1    -118.406 -99.840  32.429  1.00  0.00     0.000 C 
BRANCH  21  22
ATOM     22  C   UNL     1    -116.943 -99.738  31.968  1.00  0.00    -0.000 C 
BRANCH  22  23
ATOM     23  C   UNL     1    -115.941-100.078  33.084  1.00  0.00    -0.000 C 
BRANCH  23  24
ATOM     24  C   UNL     1    -114.723 -99.138  33.180  1.00  0.00    -0.000 C 
BRANCH  24  25
ATOM     25  C   UNL     1    -115.040 -97.667  32.833  1.00  0.00    -0.000 C 
BRANCH  25  26
ATOM     26  C   UNL     1    -115.853 -96.972  33.942  1.00  0.00    -0.000 C 
BRANCH  26  27
ATOM     27  C   UNL     1    -117.304 -96.677  33.525  1.00  0.00    -0.000 C 
BRANCH  27  28
ATOM     28  C   UNL     1    -117.467 -96.124  32.097  1.00  0.00    -0.000 C 
BRANCH  28  29
ATOM     29  C   UNL     1    -118.936 -95.952  31.682  1.00  0.00    -0.003 C 
ATOM     30  C   UNL     1    -119.075 -95.965  30.161  1.00  0.00     0.004 C 
ENDBRANCH  28  29
ENDBRANCH  27  28
ENDBRANCH  26  27
ENDBRANCH  25  26
ENDBRANCH  24  25
ENDBRANCH  23  24
ENDBRANCH  22  23
ENDBRANCH  21  22
ENDBRANCH  20  21
ENDBRANCH  19  20
ENDBRANCH  18  19
ENDBRANCH  17  18
ENDBRANCH   1  17
TORSDOF 26
ENDMDL
MODEL 2
REMARK VINA RESULT:     0.663      1.097      2.640
REMARK INTER + INTRA:           0.508
REMARK INTER:                  -3.581
REMARK INTRA:                   4.089
REMARK UNBOUND:                -1.164
REMARK SMILES CCCCCCCCCCCCCCCCCCCCCCCCCCCC(=O)[O-]
REMARK SMILES IDX 15 1 16 2 17 3 18 4 19 5 20 6 21 7 22 8 23 9 24 10 25 11
REMARK SMILES IDX 26 12 27 13 28 14 29 15 30 16 14 17 13 18 12 19 11 20 10 21
REMARK SMILES IDX 9 22 8 23 7 24 6 25 5 26 4 27 3 28 2 29 1 30
REMARK H PARENT
REMARK Flexibility Score: inf
ROOT
ATOM      1  C   UNL     1    -115.548 -99.095  36.618  1.00  0.00     0.000 C 
ENDROOT
BRANCH   1   2
ATOM      2  C   UNL     1    -116.901 -99.031  37.346  1.00  0.00     0.000 C 
BRANCH   2   3
ATOM      3  C   UNL     1    -116.839 -99.591  38.779  1.00  0.00     0.000 C 
BRANCH   3   4
ATOM      4  C   UNL     1    -118.189-100.032  39.371  1.00  0.00     0.000 C 
BRANCH   4   5
ATOM      5  C   UNL     1    -118.175-100.095  40.907  1.00  0.00     0.000 C 
BRANCH   5   6
ATOM      6  C   UNL     1    -117.231 -99.057  41.541  1.00  0.00     0.000 C 
BRANCH   6   7
ATOM      7  C   UNL     1    -117.678 -98.513  42.914  1.00  0.00     0.000 C 
BRANCH   7   8
ATOM      8  C   UNL     1    -118.038 -99.585  43.962  1.00  0.00     0.000 C 
BRANCH   8   9
ATOM      9  C   UNL     1    -117.427 -99.362  45.361  1.00  0.00     0.000 C 
BRANCH   9  10
ATOM     10  C   UNL     1    -118.413 -98.860  46.432  1.00  0.00     0.000 C 
BRANCH  10  11
ATOM     11  C   UNL     1    -117.795 -98.825  47.841  1.00  0.00     0.000 C 
BRANCH  11  12
ATOM     12  C   UNL     1    -117.714 -97.401  48.422  1.00  0.00     0.006 C 
BRANCH  12  13
ATOM     13  C   UNL     1    -118.929 -96.510  48.119  1.00  0.00     0.053 C 
BRANCH  13  14
ATOM     14  C   UNL     1    -118.557 -95.065  48.002  1.00  0.00     0.041 C 
ATOM     15  O   UNL     1    -118.750 -94.281  48.967  1.00  0.00    -0.550 OA
ATOM     16  O   UNL     1    -118.047 -94.571  46.808  1.00  0.00    -0.550 OA
ENDBRANCH  13  14
ENDBRANCH  12  13
ENDBRANCH  11  12
ENDBRANCH  10  11
ENDBRANCH   9  10
ENDBRANCH   8   9
ENDBRANCH   7   8
ENDBRANCH   6   7
ENDBRANCH   5   6
ENDBRANCH   4   5
ENDBRANCH   3   4
ENDBRANCH   2   3
ENDBRANCH   1   2
BRANCH   1  17
ATOM     17  C   UNL     1    -115.574-100.041  35.406  1.00  0.00     0.000 C 
BRANCH  17  18
ATOM     18  C   UNL     1    -116.961-100.112  34.741  1.00  0.00     0.000 C 
BRANCH  18  19
ATOM     19  C   UNL     1    -118.028 -99.320  35.512  1.00  0.00     0.000 C 
BRANCH  19  20
ATOM     20  C   UNL     1    -119.078 -98.684  34.585  1.00  0.00     0.000 C 
BRANCH  20  21
ATOM     21  C   UNL     1    -118.463 -97.697  33.580  1.00  0.00     0.000 C 
BRANCH  21  22
ATOM     22  C   UNL     1    -117.073 -97.202  34.015  1.00  0.00    -0.000 C 
BRANCH  22  23
ATOM     23  C   UNL     1    -116.423 -96.267  32.981  1.00  0.00    -0.000 C 
BRANCH  23  24
ATOM     24  C   UNL     1    -116.847 -96.512  31.519  1.00  0.00    -0.000 C 
BRANCH  24  25
ATOM     25  C   UNL     1    -118.374 -96.610  31.318  1.00  0.00    -0.000 C 
BRANCH  25  26
ATOM     26  C   UNL     1    -118.742 -97.325  30.005  1.00  0.00    -0.000 C 
BRANCH  26  27
ATOM     27  C   UNL     1    -119.122 -98.802  30.212  1.00  0.00    -0.000 C 
BRANCH  27  28
ATOM     28  C   UNL     1    -118.495 -99.461  31.455  1.00  0.00    -0.000 C 
BRANCH  28  29
ATOM     29  C   UNL     1    -117.138-100.121  31.166  1.00  0.00    -0.003 C 
ATOM     30  C   UNL     1    -116.088 -99.664  32.176  1.00  0.00     0.004 C 
ENDBRANCH  28  29
ENDBRANCH  27  28
ENDBRANCH  26  27
ENDBRANCH  25  26
ENDBRANCH  24  25
ENDBRANCH  23  24
ENDBRANCH  22  23
ENDBRANCH  21  22
ENDBRANCH  20  21
ENDBRANCH  19  20
ENDBRANCH  18  19
ENDBRANCH  17  18
ENDBRANCH   1  17
TORSDOF 26
ENDMDL
MODEL 3
REMARK VINA RESULT:     0.762      1.251      2.346
REMARK INTER + INTRA:           0.756
REMARK INTER:                   2.559
REMARK INTRA:                  -1.803
REMARK UNBOUND:                -1.164
REMARK SMILES CCCCCCCCCCCCCCCCCCCCCCCCCCCC(=O)[O-]
REMARK SMILES IDX 15 1 16 2 17 3 18 4 19 5 20 6 21 7 22 8 23 9 24 10 25 11
REMARK SMILES IDX 26 12 27 13 28 14 29 15 30 16 14 17 13 18 12 19 11 20 10 21
REMARK SMILES IDX 9 22 8 23 7 24 6 25 5 26 4 27 3 28 2 29 1 30
REMARK H PARENT
REMARK Flexibility Score: inf
ROOT
ATOM      1  C   UNL     1    -116.124 -99.090  37.196  1.00  0.00     0.000 C 
ENDROOT
BRANCH   1   2
ATOM      2  C   UNL     1    -116.934 -99.146  38.502  1.00  0.00     0.000 C 
BRANCH   2   3
ATOM      3  C   UNL     1    -116.164 -99.807  39.659  1.00  0.00     0.000 C 
BRANCH   3   4
ATOM      4  C   UNL     1    -116.983-100.054  40.938  1.00  0.00     0.000 C 
BRANCH   4   5
ATOM      5  C   UNL     1    -117.475 -98.752  41.592  1.00  0.00     0.000 C 
BRANCH   5   6
ATOM      6  C   UNL     1    -117.098 -98.650  43.082  1.00  0.00     0.000 C 
BRANCH   6   7
ATOM      7  C   UNL     1    -118.155 -99.193  44.067  1.00  0.00     0.000 C 
BRANCH   7   8
ATOM      8  C   UNL     1    -117.625 -99.553  45.469  1.00  0.00     0.000 C 
BRANCH   8   9
ATOM      9  C   UNL     1    -118.695-100.038  46.468  1.00  0.00     0.000 C 
BRANCH   9  10
ATOM     10  C   UNL     1    -118.272 -99.999  47.948  1.00  0.00     0.000 C 
BRANCH  10  11
ATOM     11  C   UNL     1    -118.900 -98.824  48.717  1.00  0.00     0.000 C 
BRANCH  11  12
ATOM     12  C   UNL     1    -118.189 -97.486  48.448  1.00  0.00     0.006 C 
BRANCH  12  13
ATOM     13  C   UNL     1    -118.992 -96.237  48.844  1.00  0.00     0.053 C 
BRANCH  13  14
ATOM     14  C   UNL     1    -118.751 -95.089  47.913  1.00  0.00     0.041 C 
ATOM     15  O   UNL     1    -118.878 -95.244  46.671  1.00  0.00    -0.550 OA
ATOM     16  O   UNL     1    -118.333 -93.863  48.413  1.00  0.00    -0.550 OA
ENDBRANCH  13  14
ENDBRANCH  12  13
ENDBRANCH  11  12
ENDBRANCH  10  11
ENDBRANCH   9  10
ENDBRANCH   8   9
ENDBRANCH   7   8
ENDBRANCH   6   7
ENDBRANCH   5   6
ENDBRANCH   4   5
ENDBRANCH   3   4
ENDBRANCH   2   3
ENDBRANCH   1   2
BRANCH   1  17
ATOM     17  C   UNL     1    -117.017 -99.142  35.946  1.00  0.00     0.000 C 
BRANCH  17  18
ATOM     18  C   UNL     1    -118.206-100.105  36.108  1.00  0.00     0.000 C 
BRANCH  18  19
ATOM     19  C   UNL     1    -119.125-100.125  34.876  1.00  0.00     0.000 C 
BRANCH  19  20
ATOM     20  C   UNL     1    -118.607 -99.231  33.736  1.00  0.00     0.000 C 
BRANCH  20  21
ATOM     21  C   UNL     1    -118.528 -99.970  32.391  1.00  0.00     0.000 C 
BRANCH  21  22
ATOM     22  C   UNL     1    -117.112 -99.949  31.789  1.00  0.00    -0.000 C 
BRANCH  22  23
ATOM     23  C   UNL     1    -116.009 -99.993  32.860  1.00  0.00    -0.000 C 
BRANCH  23  24
ATOM     24  C   UNL     1    -114.902 -98.931  32.704  1.00  0.00    -0.000 C 
BRANCH  24  25
ATOM     25  C   UNL     1    -115.433 -97.513  32.400  1.00  0.00    -0.000 C 
BRANCH  25  26
ATOM     26  C   UNL     1    -116.211 -96.918  33.588  1.00  0.00    -0.000 C 
BRANCH  26  27
ATOM     27  C   UNL     1    -115.431 -95.815  34.324  1.00  0.00    -0.000 C 
BRANCH  27  28
ATOM     28  C   UNL     1    -113.960 -96.155  34.624  1.00  0.00    -0.000 C 
BRANCH  28  29
ATOM     29  C   UNL     1    -113.294 -95.154  35.580  1.00  0.00    -0.003 C 
ATOM     30  C   UNL     1    -112.388 -95.874  36.576  1.00  0.00     0.004 C 
ENDBRANCH  28  29
ENDBRANCH  27  28
ENDBRANCH  26  27
ENDBRANCH  25  26
ENDBRANCH  24  25
ENDBRANCH  23  24
ENDBRANCH  22  23
ENDBRANCH  21  22
ENDBRANCH  20  21
ENDBRANCH  19  20
ENDBRANCH  18  19
ENDBRANCH  17  18
ENDBRANCH   1  17
TORSDOF 26
ENDMDL
MODEL 4
REMARK VINA RESULT:     1.507      4.249     12.862
REMARK INTER + INTRA:           2.635
REMARK INTER:                   1.496
REMARK INTRA:                   1.139
REMARK UNBOUND:                -1.164
REMARK SMILES CCCCCCCCCCCCCCCCCCCCCCCCCCCC(=O)[O-]
REMARK SMILES IDX 15 1 16 2 17 3 18 4 19 5 20 6 21 7 22 8 23 9 24 10 25 11
REMARK SMILES IDX 26 12 27 13 28 14 29 15 30 16 14 17 13 18 12 19 11 20 10 21
REMARK SMILES IDX 9 22 8 23 7 24 6 25 5 26 4 27 3 28 2 29 1 30
REMARK H PARENT
REMARK Flexibility Score: inf
ROOT
ATOM      1  C   UNL     1    -116.777 -97.455  42.255  1.00  0.00     0.000 C 
ENDROOT
BRANCH   1   2
ATOM      2  C   UNL     1    -118.306 -97.345  42.370  1.00  0.00     0.000 C 
BRANCH   2   3
ATOM      3  C   UNL     1    -119.041 -98.565  41.789  1.00  0.00     0.000 C 
BRANCH   3   4
ATOM      4  C   UNL     1    -118.250 -99.373  40.744  1.00  0.00     0.000 C 
BRANCH   4   5
ATOM      5  C   UNL     1    -118.950 -99.425  39.376  1.00  0.00     0.000 C 
BRANCH   5   6
ATOM      6  C   UNL     1    -118.104-100.123  38.296  1.00  0.00     0.000 C 
BRANCH   6   7
ATOM      7  C   UNL     1    -117.425 -99.180  37.280  1.00  0.00     0.000 C 
BRANCH   7   8
ATOM      8  C   UNL     1    -117.430 -99.673  35.819  1.00  0.00     0.000 C 
BRANCH   8   9
ATOM      9  C   UNL     1    -117.175 -98.581  34.760  1.00  0.00     0.000 C 
BRANCH   9  10
ATOM     10  C   UNL     1    -116.135 -98.944  33.684  1.00  0.00     0.000 C 
BRANCH  10  11
ATOM     11  C   UNL     1    -116.768 -99.588  32.438  1.00  0.00     0.000 C 
BRANCH  11  12
ATOM     12  C   UNL     1    -118.266 -99.267  32.296  1.00  0.00     0.006 C 
BRANCH  12  13
ATOM     13  C   UNL     1    -118.614 -98.307  31.147  1.00  0.00     0.053 C 
BRANCH  13  14
ATOM     14  C   UNL     1    -117.984 -96.960  31.324  1.00  0.00     0.041 C 
ATOM     15  O   UNL     1    -117.214 -96.501  30.441  1.00  0.00    -0.550 OA
ATOM     16  O   UNL     1    -118.204 -96.235  32.488  1.00  0.00    -0.550 OA
ENDBRANCH  13  14
ENDBRANCH  12  13
ENDBRANCH  11  12
ENDBRANCH  10  11
ENDBRANCH   9  10
ENDBRANCH   8   9
ENDBRANCH   7   8
ENDBRANCH   6   7
ENDBRANCH   5   6
ENDBRANCH   4   5
ENDBRANCH   3   4
ENDBRANCH   2   3
ENDBRANCH   1   2
BRANCH   1  17
ATOM     17  C   UNL     1    -116.250 -98.833  42.689  1.00  0.00     0.000 C 
BRANCH  17  18
ATOM     18  C   UNL     1    -116.723 -99.230  44.098  1.00  0.00     0.000 C 
BRANCH  18  19
ATOM     19  C   UNL     1    -118.158 -99.781  44.108  1.00  0.00     0.000 C 
BRANCH  19  20
ATOM     20  C   UNL     1    -118.651-100.125  45.523  1.00  0.00     0.000 C 
BRANCH  20  21
ATOM     21  C   UNL     1    -119.023 -98.878  46.342  1.00  0.00     0.000 C 
BRANCH  21  22
ATOM     22  C   UNL     1    -118.914 -99.116  47.858  1.00  0.00    -0.000 C 
BRANCH  22  23
ATOM     23  C   UNL     1    -117.530 -99.635  48.283  1.00  0.00    -0.000 C 
BRANCH  23  24
ATOM     24  C   UNL     1    -116.536 -98.549  48.742  1.00  0.00    -0.000 C 
BRANCH  24  25
ATOM     25  C   UNL     1    -116.954 -97.115  48.355  1.00  0.00    -0.000 C 
BRANCH  25  26
ATOM     26  C   UNL     1    -118.239 -96.669  49.078  1.00  0.00    -0.000 C 
BRANCH  26  27
ATOM     27  C   UNL     1    -119.123 -95.749  48.218  1.00  0.00    -0.000 C 
BRANCH  27  28
ATOM     28  C   UNL     1    -118.473 -95.270  46.907  1.00  0.00    -0.000 C 
BRANCH  28  29
ATOM     29  C   UNL     1    -117.774 -93.909  47.045  1.00  0.00    -0.003 C 
ATOM     30  C   UNL     1    -118.390 -93.095  48.182  1.00  0.00     0.004 C 
ENDBRANCH  28  29
ENDBRANCH  27  28
ENDBRANCH  26  27
ENDBRANCH  25  26
ENDBRANCH  24  25
ENDBRANCH  23  24
ENDBRANCH  22  23
ENDBRANCH  21  22
ENDBRANCH  20  21
ENDBRANCH  19  20
ENDBRANCH  18  19
ENDBRANCH  17  18
ENDBRANCH   1  17
TORSDOF 26
ENDMDL
