MODEL 1
REMARK VINA RESULT:    -6.551      0.000      0.000
REMARK INTER + INTRA:         -10.276
REMARK INTER:                  -9.040
REMARK INTRA:                  -1.236
REMARK UNBOUND:                -1.236
REMARK SMILES C=C(CC[C@H](C(=O)[O-])[C@H]1CC[C@@]2(C)C3=C(CC[C@@]12C)[C@@]1(C)CC[C@@H](O)C(C)(C)[C@H]1CC3)C(C)C
REMARK SMILES IDX 4 1 5 2 6 3 7 4 8 5 9 6 10 7 18 8 11 9 12 10 17 11 19 12
REMARK SMILES IDX 13 13 14 14 16 15 15 16 31 17 20 18 30 19 29 20 22 21 21 22
REMARK SMILES IDX 26 23 23 24 24 25 27 26 28 27 25 28 3 30 2 31 1 32 32 33
REMARK SMILES IDX 33 34 34 35
REMARK H PARENT 25 29
REMARK Flexibility Score: inf
ROOT
ATOM      1  C   UNL     1     -57.924 -78.622 219.592  1.00  0.00     0.014 C 
ENDROOT
BRANCH   1   2
ATOM      2  C   UNL     1     -58.995 -79.208 220.561  1.00  0.00     0.039 C 
BRANCH   2   3
ATOM      3  C   UNL     1     -58.719 -80.648 220.922  1.00  0.00     0.045 C 
ATOM      4  O   UNL     1     -58.974 -81.092 222.073  1.00  0.00    -0.550 OA
ATOM      5  O   UNL     1     -58.140 -81.491 219.982  1.00  0.00    -0.550 OA
ENDBRANCH   2   3
BRANCH   2   6
ATOM      6  C   UNL     1     -60.502 -78.998 220.178  1.00  0.00     0.004 C 
ATOM      7  C   UNL     1     -61.182 -80.272 219.637  1.00  0.00     0.006 C 
ATOM      8  C   UNL     1     -61.516 -78.325 221.172  1.00  0.00    -0.020 C 
ATOM      9  C   UNL     1     -62.586 -80.307 220.225  1.00  0.00     0.012 C 
ATOM     10  C   UNL     1     -62.908 -78.874 220.689  1.00  0.00    -0.006 C 
ATOM     11  C   UNL     1     -61.280 -78.770 222.633  1.00  0.00     0.012 C 
ATOM     12  C   UNL     1     -61.417 -76.773 221.100  1.00  0.00     0.012 C 
ATOM     13  C   UNL     1     -63.449 -78.063 219.471  1.00  0.00     0.017 C 
ATOM     14  C   UNL     1     -64.004 -78.914 221.775  1.00  0.00    -0.064 C 
ATOM     15  C   UNL     1     -62.380 -78.288 223.572  1.00  0.00     0.032 C 
ATOM     16  C   UNL     1     -63.781 -78.620 223.089  1.00  0.00    -0.064 C 
ATOM     17  C   UNL     1     -65.390 -79.385 221.388  1.00  0.00     0.032 C 
ATOM     18  C   UNL     1     -65.009 -78.443 224.032  1.00  0.00    -0.008 C 
ATOM     19  C   UNL     1     -65.917 -80.338 222.453  1.00  0.00     0.009 C 
ATOM     20  C   UNL     1     -66.015 -79.674 223.876  1.00  0.00     0.007 C 
ATOM     21  C   UNL     1     -65.664 -77.059 223.664  1.00  0.00     0.014 C 
ATOM     22  C   UNL     1     -64.533 -78.379 225.516  1.00  0.00     0.016 C 
ATOM     23  C   UNL     1     -67.500 -79.435 224.467  1.00  0.00    -0.006 C 
ATOM     24  C   UNL     1     -67.193 -77.052 223.593  1.00  0.00     0.033 C 
ATOM     25  C   UNL     1     -67.800 -77.913 224.700  1.00  0.00     0.120 C 
ATOM     26  C   UNL     1     -67.630 -80.155 225.837  1.00  0.00     0.014 C 
ATOM     27  C   UNL     1     -68.619 -80.048 223.575  1.00  0.00     0.014 C 
BRANCH  25  28
ATOM     28  O   UNL     1     -69.178 -77.651 224.854  1.00  0.00    -0.393 OA
ATOM     29  H   UNL     1     -69.404 -76.826 224.351  1.00  0.00     0.210 HD
ENDBRANCH  25  28
ENDBRANCH   2   6
ENDBRANCH   1   2
BRANCH   1  30
ATOM     30  C   UNL     1     -58.478 -78.295 218.189  1.00  0.00     0.031 C 
BRANCH  30  31
ATOM     31  C   UNL     1     -57.898 -77.035 217.564  1.00  0.00    -0.075 C 
ATOM     32  C   UNL     1     -56.580 -76.790 217.666  1.00  0.00     0.008 C 
BRANCH  31  33
ATOM     33  C   UNL     1     -58.812 -75.970 216.964  1.00  0.00     0.008 C 
ATOM     34  C   UNL     1     -58.114 -74.605 216.944  1.00  0.00     0.012 C 
ATOM     35  C   UNL     1     -60.158 -75.887 217.693  1.00  0.00     0.012 C 
ENDBRANCH  31  33
ENDBRANCH  30  31
ENDBRANCH   1  30
TORSDOF 7
ENDMDL
MODEL 2
REMARK VINA RESULT:    -6.249      2.716      9.045
REMARK INTER + INTRA:          -9.859
REMARK INTER:                  -8.231
REMARK INTRA:                  -1.628
REMARK UNBOUND:                -1.236
REMARK SMILES C=C(CC[C@H](C(=O)[O-])[C@H]1CC[C@@]2(C)C3=C(CC[C@@]12C)[C@@]1(C)CC[C@@H](O)C(C)(C)[C@H]1CC3)C(C)C
REMARK SMILES IDX 4 1 5 2 6 3 7 4 8 5 9 6 10 7 18 8 11 9 12 10 17 11 19 12
REMARK SMILES IDX 13 13 14 14 16 15 15 16 31 17 20 18 30 19 29 20 22 21 21 22
REMARK SMILES IDX 26 23 23 24 24 25 27 26 28 27 25 28 3 30 2 31 1 32 32 33
REMARK SMILES IDX 33 34 34 35
REMARK H PARENT 25 29
REMARK Flexibility Score: inf
ROOT
ATOM      1  C   UNL     1     -64.454 -78.908 223.146  1.00  0.00     0.014 C 
ENDROOT
BRANCH   1   2
ATOM      2  C   UNL     1     -63.980 -78.836 221.663  1.00  0.00     0.039 C 
BRANCH   2   3
ATOM      3  C   UNL     1     -64.979 -79.445 220.709  1.00  0.00     0.045 C 
ATOM      4  O   UNL     1     -65.061 -79.056 219.514  1.00  0.00    -0.550 OA
ATOM      5  O   UNL     1     -65.849 -80.428 221.163  1.00  0.00    -0.550 OA
ENDBRANCH   2   3
BRANCH   2   6
ATOM      6  C   UNL     1     -62.523 -79.327 221.350  1.00  0.00     0.004 C 
ATOM      7  C   UNL     1     -62.477 -80.656 220.569  1.00  0.00     0.006 C 
ATOM      8  C   UNL     1     -61.458 -78.374 220.693  1.00  0.00    -0.020 C 
ATOM      9  C   UNL     1     -61.362 -80.526 219.541  1.00  0.00     0.012 C 
ATOM     10  C   UNL     1     -60.454 -79.375 220.014  1.00  0.00    -0.006 C 
ATOM     11  C   UNL     1     -62.080 -77.469 219.607  1.00  0.00     0.012 C 
ATOM     12  C   UNL     1     -60.783 -77.472 221.769  1.00  0.00     0.012 C 
ATOM     13  C   UNL     1     -59.426 -79.939 221.043  1.00  0.00     0.017 C 
ATOM     14  C   UNL     1     -59.677 -78.799 218.811  1.00  0.00    -0.064 C 
ATOM     15  C   UNL     1     -61.026 -76.692 218.826  1.00  0.00     0.032 C 
ATOM     16  C   UNL     1     -59.909 -77.565 218.279  1.00  0.00    -0.064 C 
ATOM     17  C   UNL     1     -58.653 -79.678 218.122  1.00  0.00     0.032 C 
ATOM     18  C   UNL     1     -58.893 -76.995 217.243  1.00  0.00    -0.008 C 
ATOM     19  C   UNL     1     -58.807 -79.546 216.613  1.00  0.00     0.009 C 
ATOM     20  C   UNL     1     -58.597 -78.074 216.101  1.00  0.00     0.007 C 
ATOM     21  C   UNL     1     -57.607 -76.585 218.052  1.00  0.00     0.014 C 
ATOM     22  C   UNL     1     -59.478 -75.715 216.574  1.00  0.00     0.016 C 
ATOM     23  C   UNL     1     -57.280 -77.794 215.208  1.00  0.00    -0.006 C 
ATOM     24  C   UNL     1     -56.272 -76.963 217.406  1.00  0.00     0.033 C 
ATOM     25  C   UNL     1     -56.316 -76.762 215.892  1.00  0.00     0.120 C 
ATOM     26  C   UNL     1     -57.706 -77.202 213.836  1.00  0.00     0.014 C 
ATOM     27  C   UNL     1     -56.486 -79.089 214.867  1.00  0.00     0.014 C 
BRANCH  25  28
ATOM     28  O   UNL     1     -55.021 -76.780 215.334  1.00  0.00    -0.393 OA
ATOM     29  H   UNL     1     -54.371 -77.026 216.044  1.00  0.00     0.210 HD
ENDBRANCH  25  28
ENDBRANCH   2   6
ENDBRANCH   1   2
BRANCH   1  30
ATOM     30  C   UNL     1     -63.593 -78.063 224.108  1.00  0.00     0.031 C 
BRANCH  30  31
ATOM     31  C   UNL     1     -62.725 -78.880 225.054  1.00  0.00    -0.075 C 
ATOM     32  C   UNL     1     -63.133 -79.084 226.319  1.00  0.00     0.008 C 
BRANCH  31  33
ATOM     33  C   UNL     1     -61.329 -79.334 224.637  1.00  0.00     0.008 C 
ATOM     34  C   UNL     1     -61.252 -80.864 224.576  1.00  0.00     0.012 C 
ATOM     35  C   UNL     1     -60.239 -78.767 225.555  1.00  0.00     0.012 C 
ENDBRANCH  31  33
ENDBRANCH  30  31
ENDBRANCH   1  30
TORSDOF 7
ENDMDL
MODEL 3
REMARK VINA RESULT:    -6.224      2.339      8.866
REMARK INTER + INTRA:          -9.825
REMARK INTER:                  -7.916
REMARK INTRA:                  -1.909
REMARK UNBOUND:                -1.236
REMARK SMILES C=C(CC[C@H](C(=O)[O-])[C@H]1CC[C@@]2(C)C3=C(CC[C@@]12C)[C@@]1(C)CC[C@@H](O)C(C)(C)[C@H]1CC3)C(C)C
REMARK SMILES IDX 4 1 5 2 6 3 7 4 8 5 9 6 10 7 18 8 11 9 12 10 17 11 19 12
REMARK SMILES IDX 13 13 14 14 16 15 15 16 31 17 20 18 30 19 29 20 22 21 21 22
REMARK SMILES IDX 26 23 23 24 24 25 27 26 28 27 25 28 3 30 2 31 1 32 32 33
REMARK SMILES IDX 33 34 34 35
REMARK H PARENT 25 29
REMARK Flexibility Score: inf
ROOT
ATOM      1  C   UNL     1     -62.820 -80.620 224.497  1.00  0.00     0.014 C 
ENDROOT
BRANCH   1   2
ATOM      2  C   UNL     1     -61.573 -79.966 223.828  1.00  0.00     0.039 C 
BRANCH   2   3
ATOM      3  C   UNL     1     -60.805 -79.084 224.783  1.00  0.00     0.045 C 
ATOM      4  O   UNL     1     -59.579 -78.852 224.615  1.00  0.00    -0.550 OA
ATOM      5  O   UNL     1     -61.453 -78.543 225.887  1.00  0.00    -0.550 OA
ENDBRANCH   2   3
BRANCH   2   6
ATOM      6  C   UNL     1     -61.787 -79.257 222.446  1.00  0.00     0.004 C 
ATOM      7  C   UNL     1     -61.627 -77.725 222.510  1.00  0.00     0.006 C 
ATOM      8  C   UNL     1     -61.041 -79.741 221.150  1.00  0.00    -0.020 C 
ATOM      9  C   UNL     1     -60.885 -77.305 221.248  1.00  0.00     0.012 C 
ATOM     10  C   UNL     1     -61.037 -78.459 220.239  1.00  0.00    -0.006 C 
ATOM     11  C   UNL     1     -59.582 -80.156 221.441  1.00  0.00     0.012 C 
ATOM     12  C   UNL     1     -61.782 -80.946 220.499  1.00  0.00     0.012 C 
ATOM     13  C   UNL     1     -62.393 -78.290 219.486  1.00  0.00     0.017 C 
ATOM     14  C   UNL     1     -59.893 -78.399 219.206  1.00  0.00    -0.064 C 
ATOM     15  C   UNL     1     -58.791 -80.429 220.166  1.00  0.00     0.032 C 
ATOM     16  C   UNL     1     -58.878 -79.309 219.144  1.00  0.00    -0.064 C 
ATOM     17  C   UNL     1     -59.836 -77.222 218.255  1.00  0.00     0.032 C 
ATOM     18  C   UNL     1     -57.934 -79.291 217.904  1.00  0.00    -0.008 C 
ATOM     19  C   UNL     1     -58.403 -76.717 218.158  1.00  0.00     0.009 C 
ATOM     20  C   UNL     1     -57.402 -77.810 217.628  1.00  0.00     0.007 C 
ATOM     21  C   UNL     1     -58.759 -79.885 216.701  1.00  0.00     0.014 C 
ATOM     22  C   UNL     1     -56.706 -80.218 218.157  1.00  0.00     0.016 C 
ATOM     23  C   UNL     1     -56.763 -77.563 216.165  1.00  0.00    -0.006 C 
ATOM     24  C   UNL     1     -58.605 -79.148 215.368  1.00  0.00     0.033 C 
ATOM     25  C   UNL     1     -57.162 -78.694 215.153  1.00  0.00     0.120 C 
ATOM     26  C   UNL     1     -55.214 -77.557 216.275  1.00  0.00     0.014 C 
ATOM     27  C   UNL     1     -57.136 -76.179 215.560  1.00  0.00     0.014 C 
BRANCH  25  28
ATOM     28  O   UNL     1     -56.937 -78.322 213.811  1.00  0.00    -0.393 OA
ATOM     29  H   UNL     1     -56.061 -78.687 213.521  1.00  0.00     0.210 HD
ENDBRANCH  25  28
ENDBRANCH   2   6
ENDBRANCH   1   2
BRANCH   1  30
ATOM     30  C   UNL     1     -64.112 -80.466 223.667  1.00  0.00     0.031 C 
BRANCH  30  31
ATOM     31  C   UNL     1     -64.858 -79.161 223.904  1.00  0.00    -0.075 C 
ATOM     32  C   UNL     1     -65.017 -78.707 225.160  1.00  0.00     0.008 C 
BRANCH  31  33
ATOM     33  C   UNL     1     -65.562 -78.444 222.756  1.00  0.00     0.008 C 
ATOM     34  C   UNL     1     -65.432 -79.246 221.456  1.00  0.00     0.012 C 
ATOM     35  C   UNL     1     -65.050 -77.011 222.570  1.00  0.00     0.012 C 
ENDBRANCH  31  33
ENDBRANCH  30  31
ENDBRANCH   1  30
TORSDOF 7
ENDMDL
MODEL 4
REMARK VINA RESULT:    -6.134      2.810      5.384
REMARK INTER + INTRA:          -9.701
REMARK INTER:                  -8.324
REMARK INTRA:                  -1.377
REMARK UNBOUND:                -1.236
REMARK SMILES C=C(CC[C@H](C(=O)[O-])[C@H]1CC[C@@]2(C)C3=C(CC[C@@]12C)[C@@]1(C)CC[C@@H](O)C(C)(C)[C@H]1CC3)C(C)C
REMARK SMILES IDX 4 1 5 2 6 3 7 4 8 5 9 6 10 7 18 8 11 9 12 10 17 11 19 12
REMARK SMILES IDX 13 13 14 14 16 15 15 16 31 17 20 18 30 19 29 20 22 21 21 22
REMARK SMILES IDX 26 23 23 24 24 25 27 26 28 27 25 28 3 30 2 31 1 32 32 33
REMARK SMILES IDX 33 34 34 35
REMARK H PARENT 25 29
REMARK Flexibility Score: inf
ROOT
ATOM      1  C   UNL     1     -62.831 -76.428 220.274  1.00  0.00     0.014 C 
ENDROOT
BRANCH   1   2
ATOM      2  C   UNL     1     -63.904 -76.626 221.388  1.00  0.00     0.039 C 
BRANCH   2   3
ATOM      3  C   UNL     1     -64.208 -75.346 222.129  1.00  0.00     0.045 C 
ATOM      4  O   UNL     1     -63.349 -74.431 222.231  1.00  0.00    -0.550 OA
ATOM      5  O   UNL     1     -65.446 -75.185 222.739  1.00  0.00    -0.550 OA
ENDBRANCH   2   3
BRANCH   2   6
ATOM      6  C   UNL     1     -63.697 -77.822 222.381  1.00  0.00     0.004 C 
ATOM      7  C   UNL     1     -63.096 -77.398 223.737  1.00  0.00     0.006 C 
ATOM      8  C   UNL     1     -64.852 -78.841 222.693  1.00  0.00    -0.020 C 
ATOM      9  C   UNL     1     -63.813 -78.205 224.810  1.00  0.00     0.012 C 
ATOM     10  C   UNL     1     -64.455 -79.413 224.103  1.00  0.00    -0.006 C 
ATOM     11  C   UNL     1     -66.227 -78.146 222.802  1.00  0.00     0.012 C 
ATOM     12  C   UNL     1     -64.935 -79.941 221.593  1.00  0.00     0.012 C 
ATOM     13  C   UNL     1     -63.388 -80.545 223.979  1.00  0.00     0.017 C 
ATOM     14  C   UNL     1     -65.633 -79.943 224.946  1.00  0.00    -0.064 C 
ATOM     15  C   UNL     1     -67.316 -79.087 223.304  1.00  0.00     0.032 C 
ATOM     16  C   UNL     1     -66.942 -79.825 224.578  1.00  0.00    -0.064 C 
ATOM     17  C   UNL     1     -65.339 -80.554 226.300  1.00  0.00     0.032 C 
ATOM     18  C   UNL     1     -68.016 -80.623 225.377  1.00  0.00    -0.008 C 
ATOM     19  C   UNL     1     -66.345 -80.037 227.319  1.00  0.00     0.009 C 
ATOM     20  C   UNL     1     -67.833 -80.389 226.947  1.00  0.00     0.007 C 
ATOM     21  C   UNL     1     -67.863 -82.132 224.956  1.00  0.00     0.014 C 
ATOM     22  C   UNL     1     -69.444 -80.146 224.970  1.00  0.00     0.016 C 
ATOM     23  C   UNL     1     -68.589 -81.451 227.900  1.00  0.00    -0.006 C 
ATOM     24  C   UNL     1     -67.945 -83.148 226.099  1.00  0.00     0.033 C 
ATOM     25  C   UNL     1     -69.009 -82.745 227.118  1.00  0.00     0.120 C 
ATOM     26  C   UNL     1     -69.882 -80.804 228.466  1.00  0.00     0.014 C 
ATOM     27  C   UNL     1     -67.753 -81.856 229.149  1.00  0.00     0.014 C 
BRANCH  25  28
ATOM     28  O   UNL     1     -69.327 -83.817 227.978  1.00  0.00    -0.393 OA
ATOM     29  H   UNL     1     -70.056 -83.532 228.588  1.00  0.00     0.210 HD
ENDBRANCH  25  28
ENDBRANCH   2   6
ENDBRANCH   1   2
BRANCH   1  30
ATOM     30  C   UNL     1     -61.390 -76.693 220.757  1.00  0.00     0.031 C 
BRANCH  30  31
ATOM     31  C   UNL     1     -60.624 -77.706 219.919  1.00  0.00    -0.075 C 
ATOM     32  C   UNL     1     -60.103 -77.331 218.738  1.00  0.00     0.008 C 
BRANCH  31  33
ATOM     33  C   UNL     1     -60.575 -79.177 220.324  1.00  0.00     0.008 C 
ATOM     34  C   UNL     1     -61.806 -79.925 219.800  1.00  0.00     0.012 C 
ATOM     35  C   UNL     1     -60.430 -79.353 221.840  1.00  0.00     0.012 C 
ENDBRANCH  31  33
ENDBRANCH  30  31
ENDBRANCH   1  30
TORSDOF 7
ENDMDL
MODEL 5
REMARK VINA RESULT:    -6.082      1.755      3.080
REMARK INTER + INTRA:          -9.629
REMARK INTER:                  -8.552
REMARK INTRA:                  -1.077
REMARK UNBOUND:                -1.236
REMARK SMILES C=C(CC[C@H](C(=O)[O-])[C@H]1CC[C@@]2(C)C3=C(CC[C@@]12C)[C@@]1(C)CC[C@@H](O)C(C)(C)[C@H]1CC3)C(C)C
REMARK SMILES IDX 4 1 5 2 6 3 7 4 8 5 9 6 10 7 18 8 11 9 12 10 17 11 19 12
REMARK SMILES IDX 13 13 14 14 16 15 15 16 31 17 20 18 30 19 29 20 22 21 21 22
REMARK SMILES IDX 26 23 23 24 24 25 27 26 28 27 25 28 3 30 2 31 1 32 32 33
REMARK SMILES IDX 33 34 34 35
REMARK H PARENT 25 29
REMARK Flexibility Score: inf
ROOT
ATOM      1  C   UNL     1     -57.966 -78.341 217.688  1.00  0.00     0.014 C 
ENDROOT
BRANCH   1   2
ATOM      2  C   UNL     1     -57.562 -79.081 219.000  1.00  0.00     0.039 C 
BRANCH   2   3
ATOM      3  C   UNL     1     -56.200 -79.723 218.902  1.00  0.00     0.045 C 
ATOM      4  O   UNL     1     -55.202 -79.232 219.494  1.00  0.00    -0.550 OA
ATOM      5  O   UNL     1     -56.032 -80.858 218.119  1.00  0.00    -0.550 OA
ENDBRANCH   2   3
BRANCH   2   6
ATOM      6  C   UNL     1     -58.612 -80.066 219.621  1.00  0.00     0.004 C 
ATOM      7  C   UNL     1     -58.085 -80.828 220.854  1.00  0.00     0.006 C 
ATOM      8  C   UNL     1     -60.075 -79.601 219.962  1.00  0.00    -0.020 C 
ATOM      9  C   UNL     1     -59.228 -80.888 221.858  1.00  0.00     0.012 C 
ATOM     10  C   UNL     1     -60.525 -80.621 221.071  1.00  0.00    -0.006 C 
ATOM     11  C   UNL     1     -60.108 -78.173 220.548  1.00  0.00     0.012 C 
ATOM     12  C   UNL     1     -60.980 -79.643 218.696  1.00  0.00     0.012 C 
ATOM     13  C   UNL     1     -61.017 -81.963 220.447  1.00  0.00     0.017 C 
ATOM     14  C   UNL     1     -61.615 -80.099 222.030  1.00  0.00    -0.064 C 
ATOM     15  C   UNL     1     -61.489 -77.792 221.071  1.00  0.00     0.032 C 
ATOM     16  C   UNL     1     -62.084 -78.817 222.020  1.00  0.00    -0.064 C 
ATOM     17  C   UNL     1     -62.143 -81.029 223.102  1.00  0.00     0.032 C 
ATOM     18  C   UNL     1     -63.359 -78.483 222.852  1.00  0.00    -0.008 C 
ATOM     19  C   UNL     1     -62.247 -80.274 224.421  1.00  0.00     0.009 C 
ATOM     20  C   UNL     1     -63.212 -79.035 224.345  1.00  0.00     0.007 C 
ATOM     21  C   UNL     1     -64.579 -79.109 222.080  1.00  0.00     0.014 C 
ATOM     22  C   UNL     1     -63.562 -76.938 222.914  1.00  0.00     0.016 C 
ATOM     23  C   UNL     1     -64.587 -79.129 225.187  1.00  0.00    -0.006 C 
ATOM     24  C   UNL     1     -65.618 -79.819 222.951  1.00  0.00     0.033 C 
ATOM     25  C   UNL     1     -65.850 -79.063 224.258  1.00  0.00     0.120 C 
ATOM     26  C   UNL     1     -64.668 -77.933 226.175  1.00  0.00     0.014 C 
ATOM     27  C   UNL     1     -64.672 -80.403 226.078  1.00  0.00     0.014 C 
BRANCH  25  28
ATOM     28  O   UNL     1     -67.021 -79.508 224.906  1.00  0.00    -0.393 OA
ATOM     29  H   UNL     1     -66.763 -80.012 225.722  1.00  0.00     0.210 HD
ENDBRANCH  25  28
ENDBRANCH   2   6
ENDBRANCH   1   2
BRANCH   1  30
ATOM     30  C   UNL     1     -57.336 -76.938 217.556  1.00  0.00     0.031 C 
BRANCH  30  31
ATOM     31  C   UNL     1     -58.332 -75.831 217.243  1.00  0.00    -0.075 C 
ATOM     32  C   UNL     1     -59.609 -75.954 217.646  1.00  0.00     0.008 C 
BRANCH  31  33
ATOM     33  C   UNL     1     -57.941 -74.661 216.344  1.00  0.00     0.008 C 
ATOM     34  C   UNL     1     -58.584 -73.360 216.838  1.00  0.00     0.012 C 
ATOM     35  C   UNL     1     -58.290 -74.922 214.874  1.00  0.00     0.012 C 
ENDBRANCH  31  33
ENDBRANCH  30  31
ENDBRANCH   1  30
TORSDOF 7
ENDMDL
MODEL 6
REMARK VINA RESULT:    -6.061      4.186      8.422
REMARK INTER + INTRA:          -9.600
REMARK INTER:                  -7.946
REMARK INTRA:                  -1.654
REMARK UNBOUND:                -1.236
REMARK SMILES C=C(CC[C@H](C(=O)[O-])[C@H]1CC[C@@]2(C)C3=C(CC[C@@]12C)[C@@]1(C)CC[C@@H](O)C(C)(C)[C@H]1CC3)C(C)C
REMARK SMILES IDX 4 1 5 2 6 3 7 4 8 5 9 6 10 7 18 8 11 9 12 10 17 11 19 12
REMARK SMILES IDX 13 13 14 14 16 15 15 16 31 17 20 18 30 19 29 20 22 21 21 22
REMARK SMILES IDX 26 23 23 24 24 25 27 26 28 27 25 28 3 30 2 31 1 32 32 33
REMARK SMILES IDX 33 34 34 35
REMARK H PARENT 25 29
REMARK Flexibility Score: inf
ROOT
ATOM      1  C   UNL     1     -64.987 -78.290 223.392  1.00  0.00     0.014 C 
ENDROOT
BRANCH   1   2
ATOM      2  C   UNL     1     -64.146 -79.266 224.269  1.00  0.00     0.039 C 
BRANCH   2   3
ATOM      3  C   UNL     1     -64.372 -79.054 225.746  1.00  0.00     0.045 C 
ATOM      4  O   UNL     1     -64.277 -80.006 226.565  1.00  0.00    -0.550 OA
ATOM      5  O   UNL     1     -64.727 -77.793 226.210  1.00  0.00    -0.550 OA
ENDBRANCH   2   3
BRANCH   2   6
ATOM      6  C   UNL     1     -62.617 -79.392 223.941  1.00  0.00     0.004 C 
ATOM      7  C   UNL     1     -61.704 -78.789 225.027  1.00  0.00     0.006 C 
ATOM      8  C   UNL     1     -61.977 -80.764 223.516  1.00  0.00    -0.020 C 
ATOM      9  C   UNL     1     -60.517 -79.730 225.179  1.00  0.00     0.012 C 
ATOM     10  C   UNL     1     -60.463 -80.587 223.900  1.00  0.00    -0.006 C 
ATOM     11  C   UNL     1     -62.564 -81.950 224.314  1.00  0.00     0.012 C 
ATOM     12  C   UNL     1     -62.191 -81.030 221.997  1.00  0.00     0.012 C 
ATOM     13  C   UNL     1     -59.684 -79.798 222.802  1.00  0.00     0.017 C 
ATOM     14  C   UNL     1     -59.707 -81.901 224.187  1.00  0.00    -0.064 C 
ATOM     15  C   UNL     1     -61.810 -83.251 224.059  1.00  0.00     0.032 C 
ATOM     16  C   UNL     1     -60.307 -83.126 224.234  1.00  0.00    -0.064 C 
ATOM     17  C   UNL     1     -58.232 -81.830 224.521  1.00  0.00     0.032 C 
ATOM     18  C   UNL     1     -59.405 -84.397 224.272  1.00  0.00    -0.008 C 
ATOM     19  C   UNL     1     -57.934 -82.750 225.697  1.00  0.00     0.009 C 
ATOM     20  C   UNL     1     -58.288 -84.255 225.406  1.00  0.00     0.007 C 
ATOM     21  C   UNL     1     -58.800 -84.565 222.828  1.00  0.00     0.014 C 
ATOM     22  C   UNL     1     -60.271 -85.654 224.587  1.00  0.00     0.016 C 
ATOM     23  C   UNL     1     -57.049 -85.285 225.292  1.00  0.00    -0.006 C 
ATOM     24  C   UNL     1     -57.317 -84.940 222.773  1.00  0.00     0.033 C 
ATOM     25  C   UNL     1     -56.961 -85.942 223.870  1.00  0.00     0.120 C 
ATOM     26  C   UNL     1     -57.235 -86.429 226.326  1.00  0.00     0.014 C 
ATOM     27  C   UNL     1     -55.678 -84.635 225.642  1.00  0.00     0.014 C 
BRANCH  25  28
ATOM     28  O   UNL     1     -55.708 -86.542 223.628  1.00  0.00    -0.393 OA
ATOM     29  H   UNL     1     -55.619 -87.342 224.209  1.00  0.00     0.210 HD
ENDBRANCH  25  28
ENDBRANCH   2   6
ENDBRANCH   1   2
BRANCH   1  30
ATOM     30  C   UNL     1     -64.776 -78.490 221.876  1.00  0.00     0.031 C 
BRANCH  30  31
ATOM     31  C   UNL     1     -63.861 -77.462 221.228  1.00  0.00    -0.075 C 
ATOM     32  C   UNL     1     -63.667 -77.492 219.898  1.00  0.00     0.008 C 
BRANCH  31  33
ATOM     33  C   UNL     1     -63.039 -76.500 222.082  1.00  0.00     0.008 C 
ATOM     34  C   UNL     1     -63.540 -75.061 221.912  1.00  0.00     0.012 C 
ATOM     35  C   UNL     1     -61.540 -76.598 221.779  1.00  0.00     0.012 C 
ENDBRANCH  31  33
ENDBRANCH  30  31
ENDBRANCH   1  30
TORSDOF 7
ENDMDL
MODEL 7
REMARK VINA RESULT:    -6.002      2.490      8.320
REMARK INTER + INTRA:          -9.519
REMARK INTER:                  -7.974
REMARK INTRA:                  -1.545
REMARK UNBOUND:                -1.236
REMARK SMILES C=C(CC[C@H](C(=O)[O-])[C@H]1CC[C@@]2(C)C3=C(CC[C@@]12C)[C@@]1(C)CC[C@@H](O)C(C)(C)[C@H]1CC3)C(C)C
REMARK SMILES IDX 4 1 5 2 6 3 7 4 8 5 9 6 10 7 18 8 11 9 12 10 17 11 19 12
REMARK SMILES IDX 13 13 14 14 16 15 15 16 31 17 20 18 30 19 29 20 22 21 21 22
REMARK SMILES IDX 26 23 23 24 24 25 27 26 28 27 25 28 3 30 2 31 1 32 32 33
REMARK SMILES IDX 33 34 34 35
REMARK H PARENT 25 29
REMARK Flexibility Score: inf
ROOT
ATOM      1  C   UNL     1     -64.250 -79.158 223.946  1.00  0.00     0.014 C 
ENDROOT
BRANCH   1   2
ATOM      2  C   UNL     1     -64.556 -77.768 223.310  1.00  0.00     0.039 C 
BRANCH   2   3
ATOM      3  C   UNL     1     -66.030 -77.567 223.050  1.00  0.00     0.045 C 
ATOM      4  O   UNL     1     -66.562 -76.431 223.155  1.00  0.00    -0.550 OA
ATOM      5  O   UNL     1     -66.823 -78.659 222.720  1.00  0.00    -0.550 OA
ENDBRANCH   2   3
BRANCH   2   6
ATOM      6  C   UNL     1     -63.696 -77.340 222.071  1.00  0.00     0.004 C 
ATOM      7  C   UNL     1     -62.474 -76.475 222.440  1.00  0.00     0.006 C 
ATOM      8  C   UNL     1     -63.208 -78.389 221.006  1.00  0.00    -0.020 C 
ATOM      9  C   UNL     1     -61.322 -76.939 221.560  1.00  0.00     0.012 C 
ATOM     10  C   UNL     1     -61.947 -77.696 220.373  1.00  0.00    -0.006 C 
ATOM     11  C   UNL     1     -62.777 -79.721 221.658  1.00  0.00     0.012 C 
ATOM     12  C   UNL     1     -64.327 -78.682 219.963  1.00  0.00     0.012 C 
ATOM     13  C   UNL     1     -62.353 -76.661 219.278  1.00  0.00     0.017 C 
ATOM     14  C   UNL     1     -60.908 -78.664 219.769  1.00  0.00    -0.064 C 
ATOM     15  C   UNL     1     -62.113 -80.666 220.663  1.00  0.00     0.032 C 
ATOM     16  C   UNL     1     -60.988 -80.023 219.871  1.00  0.00    -0.064 C 
ATOM     17  C   UNL     1     -59.681 -78.083 219.097  1.00  0.00     0.032 C 
ATOM     18  C   UNL     1     -60.029 -80.893 219.004  1.00  0.00    -0.008 C 
ATOM     19  C   UNL     1     -58.448 -78.862 219.535  1.00  0.00     0.009 C 
ATOM     20  C   UNL     1     -58.521 -80.389 219.162  1.00  0.00     0.007 C 
ATOM     21  C   UNL     1     -60.557 -80.808 217.524  1.00  0.00     0.014 C 
ATOM     22  C   UNL     1     -60.102 -82.382 219.464  1.00  0.00     0.016 C 
ATOM     23  C   UNL     1     -57.492 -80.913 218.033  1.00  0.00    -0.006 C 
ATOM     24  C   UNL     1     -59.481 -80.634 216.449  1.00  0.00     0.033 C 
ATOM     25  C   UNL     1     -58.241 -81.468 216.770  1.00  0.00     0.120 C 
ATOM     26  C   UNL     1     -56.634 -82.069 218.615  1.00  0.00     0.014 C 
ATOM     27  C   UNL     1     -56.469 -79.828 217.586  1.00  0.00     0.014 C 
BRANCH  25  28
ATOM     28  O   UNL     1     -57.395 -81.581 215.647  1.00  0.00    -0.393 OA
ATOM     29  H   UNL     1     -57.748 -81.002 214.922  1.00  0.00     0.210 HD
ENDBRANCH  25  28
ENDBRANCH   2   6
ENDBRANCH   1   2
BRANCH   1  30
ATOM     30  C   UNL     1     -63.250 -79.089 225.119  1.00  0.00     0.031 C 
BRANCH  30  31
ATOM     31  C   UNL     1     -61.905 -79.743 224.837  1.00  0.00    -0.075 C 
ATOM     32  C   UNL     1     -61.773 -81.075 224.977  1.00  0.00     0.008 C 
BRANCH  31  33
ATOM     33  C   UNL     1     -60.669 -78.896 224.552  1.00  0.00     0.008 C 
ATOM     34  C   UNL     1     -59.711 -79.634 223.610  1.00  0.00     0.012 C 
ATOM     35  C   UNL     1     -59.953 -78.470 225.839  1.00  0.00     0.012 C 
ENDBRANCH  31  33
ENDBRANCH  30  31
ENDBRANCH   1  30
TORSDOF 7
ENDMDL
MODEL 8
REMARK VINA RESULT:    -5.760      3.645      6.149
REMARK INTER + INTRA:          -9.185
REMARK INTER:                  -7.656
REMARK INTRA:                  -1.528
REMARK UNBOUND:                -1.236
REMARK SMILES C=C(CC[C@H](C(=O)[O-])[C@H]1CC[C@@]2(C)C3=C(CC[C@@]12C)[C@@]1(C)CC[C@@H](O)C(C)(C)[C@H]1CC3)C(C)C
REMARK SMILES IDX 4 1 5 2 6 3 7 4 8 5 9 6 10 7 18 8 11 9 12 10 17 11 19 12
REMARK SMILES IDX 13 13 14 14 16 15 15 16 31 17 20 18 30 19 29 20 22 21 21 22
REMARK SMILES IDX 26 23 23 24 24 25 27 26 28 27 25 28 3 30 2 31 1 32 32 33
REMARK SMILES IDX 33 34 34 35
REMARK H PARENT 25 29
REMARK Flexibility Score: inf
ROOT
ATOM      1  C   UNL     1     -61.928 -77.616 222.932  1.00  0.00     0.014 C 
ENDROOT
BRANCH   1   2
ATOM      2  C   UNL     1     -63.386 -77.356 222.447  1.00  0.00     0.039 C 
BRANCH   2   3
ATOM      3  C   UNL     1     -63.533 -76.023 221.754  1.00  0.00     0.045 C 
ATOM      4  O   UNL     1     -63.425 -75.922 220.503  1.00  0.00    -0.550 OA
ATOM      5  O   UNL     1     -63.757 -74.879 222.510  1.00  0.00    -0.550 OA
ENDBRANCH   2   3
BRANCH   2   6
ATOM      6  C   UNL     1     -64.540 -77.587 223.484  1.00  0.00     0.004 C 
ATOM      7  C   UNL     1     -65.950 -77.446 222.875  1.00  0.00     0.006 C 
ATOM      8  C   UNL     1     -64.569 -78.855 224.413  1.00  0.00    -0.020 C 
ATOM      9  C   UNL     1     -66.809 -78.542 223.491  1.00  0.00     0.012 C 
ATOM     10  C   UNL     1     -66.092 -78.999 224.775  1.00  0.00    -0.006 C 
ATOM     11  C   UNL     1     -64.104 -80.128 223.673  1.00  0.00     0.012 C 
ATOM     12  C   UNL     1     -63.665 -78.647 225.664  1.00  0.00     0.012 C 
ATOM     13  C   UNL     1     -66.495 -78.043 225.940  1.00  0.00     0.017 C 
ATOM     14  C   UNL     1     -66.541 -80.430 225.139  1.00  0.00    -0.064 C 
ATOM     15  C   UNL     1     -64.323 -81.392 224.498  1.00  0.00     0.032 C 
ATOM     16  C   UNL     1     -65.733 -81.526 225.044  1.00  0.00    -0.064 C 
ATOM     17  C   UNL     1     -67.982 -80.656 225.546  1.00  0.00     0.032 C 
ATOM     18  C   UNL     1     -66.213 -82.864 225.682  1.00  0.00    -0.008 C 
ATOM     19  C   UNL     1     -68.515 -81.903 224.853  1.00  0.00     0.009 C 
ATOM     20  C   UNL     1     -67.705 -83.201 225.218  1.00  0.00     0.007 C 
ATOM     21  C   UNL     1     -66.076 -82.695 227.242  1.00  0.00     0.014 C 
ATOM     22  C   UNL     1     -65.281 -84.031 225.235  1.00  0.00     0.016 C 
ATOM     23  C   UNL     1     -68.472 -84.314 226.103  1.00  0.00    -0.006 C 
ATOM     24  C   UNL     1     -67.245 -83.234 228.069  1.00  0.00     0.033 C 
ATOM     25  C   UNL     1     -67.773 -84.545 227.488  1.00  0.00     0.120 C 
ATOM     26  C   UNL     1     -68.467 -85.668 225.342  1.00  0.00     0.014 C 
ATOM     27  C   UNL     1     -69.974 -83.980 226.336  1.00  0.00     0.014 C 
BRANCH  25  28
ATOM     28  O   UNL     1     -68.606 -85.214 228.409  1.00  0.00    -0.393 OA
ATOM     29  H   UNL     1     -69.465 -85.432 227.961  1.00  0.00     0.210 HD
ENDBRANCH  25  28
ENDBRANCH   2   6
ENDBRANCH   1   2
BRANCH   1  30
ATOM     30  C   UNL     1     -61.155 -78.613 222.044  1.00  0.00     0.031 C 
BRANCH  30  31
ATOM     31  C   UNL     1     -60.260 -79.574 222.811  1.00  0.00    -0.075 C 
ATOM     32  C   UNL     1     -59.309 -80.263 222.155  1.00  0.00     0.008 C 
BRANCH  31  33
ATOM     33  C   UNL     1     -60.528 -79.886 224.281  1.00  0.00     0.008 C 
ATOM     34  C   UNL     1     -59.479 -79.217 225.177  1.00  0.00     0.012 C 
ATOM     35  C   UNL     1     -60.595 -81.394 224.548  1.00  0.00     0.012 C 
ENDBRANCH  31  33
ENDBRANCH  30  31
ENDBRANCH   1  30
TORSDOF 7
ENDMDL
MODEL 9
REMARK VINA RESULT:    -5.671      2.952      8.124
REMARK INTER + INTRA:          -9.062
REMARK INTER:                  -7.805
REMARK INTRA:                  -1.257
REMARK UNBOUND:                -1.236
REMARK SMILES C=C(CC[C@H](C(=O)[O-])[C@H]1CC[C@@]2(C)C3=C(CC[C@@]12C)[C@@]1(C)CC[C@@H](O)C(C)(C)[C@H]1CC3)C(C)C
REMARK SMILES IDX 4 1 5 2 6 3 7 4 8 5 9 6 10 7 18 8 11 9 12 10 17 11 19 12
REMARK SMILES IDX 13 13 14 14 16 15 15 16 31 17 20 18 30 19 29 20 22 21 21 22
REMARK SMILES IDX 26 23 23 24 24 25 27 26 28 27 25 28 3 30 2 31 1 32 32 33
REMARK SMILES IDX 33 34 34 35
REMARK H PARENT 25 29
REMARK Flexibility Score: inf
ROOT
ATOM      1  C   UNL     1     -62.748 -77.721 223.521  1.00  0.00     0.014 C 
ENDROOT
BRANCH   1   2
ATOM      2  C   UNL     1     -62.815 -79.169 224.093  1.00  0.00     0.039 C 
BRANCH   2   3
ATOM      3  C   UNL     1     -62.383 -79.238 225.538  1.00  0.00     0.045 C 
ATOM      4  O   UNL     1     -63.173 -79.629 226.438  1.00  0.00    -0.550 OA
ATOM      5  O   UNL     1     -61.103 -78.829 225.890  1.00  0.00    -0.550 OA
ENDBRANCH   2   3
BRANCH   2   6
ATOM      6  C   UNL     1     -62.148 -80.308 223.246  1.00  0.00     0.004 C 
ATOM      7  C   UNL     1     -63.133 -81.033 222.307  1.00  0.00     0.006 C 
ATOM      8  C   UNL     1     -60.832 -80.057 222.423  1.00  0.00    -0.020 C 
ATOM      9  C   UNL     1     -62.395 -81.280 220.998  1.00  0.00     0.012 C 
ATOM     10  C   UNL     1     -60.890 -81.165 221.309  1.00  0.00    -0.006 C 
ATOM     11  C   UNL     1     -60.824 -78.666 221.751  1.00  0.00     0.012 C 
ATOM     12  C   UNL     1     -59.575 -80.179 223.335  1.00  0.00     0.012 C 
ATOM     13  C   UNL     1     -60.383 -82.540 221.844  1.00  0.00     0.017 C 
ATOM     14  C   UNL     1     -60.118 -80.828 220.016  1.00  0.00    -0.064 C 
ATOM     15  C   UNL     1     -59.654 -78.494 220.788  1.00  0.00     0.032 C 
ATOM     16  C   UNL     1     -59.525 -79.622 219.779  1.00  0.00    -0.064 C 
ATOM     17  C   UNL     1     -60.081 -81.856 218.905  1.00  0.00     0.032 C 
ATOM     18  C   UNL     1     -58.560 -79.491 218.562  1.00  0.00    -0.008 C 
ATOM     19  C   UNL     1     -60.324 -81.167 217.569  1.00  0.00     0.009 C 
ATOM     20  C   UNL     1     -59.249 -80.068 217.240  1.00  0.00     0.007 C 
ATOM     21  C   UNL     1     -57.238 -80.250 218.951  1.00  0.00     0.014 C 
ATOM     22  C   UNL     1     -58.209 -77.991 218.322  1.00  0.00     0.016 C 
ATOM     23  C   UNL     1     -58.244 -80.376 216.013  1.00  0.00    -0.006 C 
ATOM     24  C   UNL     1     -56.630 -81.123 217.850  1.00  0.00     0.033 C 
ATOM     25  C   UNL     1     -56.749 -80.450 216.484  1.00  0.00     0.120 C 
ATOM     26  C   UNL     1     -58.350 -79.236 214.964  1.00  0.00     0.014 C 
ATOM     27  C   UNL     1     -58.603 -81.678 215.241  1.00  0.00     0.014 C 
BRANCH  25  28
ATOM     28  O   UNL     1     -55.913 -81.070 215.533  1.00  0.00    -0.393 OA
ATOM     29  H   UNL     1     -55.751 -82.009 215.814  1.00  0.00     0.210 HD
ENDBRANCH  25  28
ENDBRANCH   2   6
ENDBRANCH   1   2
BRANCH   1  30
ATOM     30  C   UNL     1     -63.948 -77.362 222.619  1.00  0.00     0.031 C 
BRANCH  30  31
ATOM     31  C   UNL     1     -63.641 -76.321 221.552  1.00  0.00    -0.075 C 
ATOM     32  C   UNL     1     -63.536 -75.026 221.899  1.00  0.00     0.008 C 
BRANCH  31  33
ATOM     33  C   UNL     1     -63.608 -76.704 220.075  1.00  0.00     0.008 C 
ATOM     34  C   UNL     1     -63.868 -78.204 219.897  1.00  0.00     0.012 C 
ATOM     35  C   UNL     1     -62.294 -76.291 219.402  1.00  0.00     0.012 C 
ENDBRANCH  31  33
ENDBRANCH  30  31
ENDBRANCH   1  30
TORSDOF 7
ENDMDL
