MODEL 1
REMARK VINA RESULT:     8.412      0.000      0.000
REMARK INTER + INTRA:           8.888
REMARK INTER:                   8.904
REMARK INTRA:                  -0.016
REMARK UNBOUND:                -0.016
REMARK SMILES O=C([O-])c1cccnc1
REMARK SMILES IDX 4 1 5 2 9 3 6 4 8 5 7 6 2 7 1 8 3 9
REMARK H PARENT
REMARK Flexibility Score: inf
ROOT
ATOM      1  C   UNL     1     -12.311   0.995 -17.524  1.00  0.00     0.016 A 
ATOM      2  C   UNL     1     -13.312   0.327 -16.801  1.00  0.00     0.013 A 
ATOM      3  C   UNL     1     -11.337   0.226 -18.185  1.00  0.00     0.120 A 
ATOM      4  C   UNL     1     -13.325  -1.069 -16.749  1.00  0.00     0.021 A 
ATOM      5  N   UNL     1     -11.373  -1.131 -18.118  1.00  0.00    -0.264 NA
ATOM      6  C   UNL     1     -12.337  -1.788 -17.421  1.00  0.00     0.111 A 
ENDROOT
BRANCH   1   7
ATOM      7  C   UNL     1     -12.285   2.472 -17.586  1.00  0.00     0.073 C 
ATOM      8  O   UNL     1     -13.002   3.092 -18.416  1.00  0.00    -0.545 OA
ATOM      9  O   UNL     1     -11.467   3.199 -16.728  1.00  0.00    -0.545 OA
ENDBRANCH   1   7
TORSDOF 1
ENDMDL
MODEL 2
REMARK VINA RESULT:     9.557      2.818      3.771
REMARK INTER + INTRA:          10.100
REMARK INTER:                  10.117
REMARK INTRA:                  -0.017
REMARK UNBOUND:                -0.016
REMARK SMILES O=C([O-])c1cccnc1
REMARK SMILES IDX 4 1 5 2 9 3 6 4 8 5 7 6 2 7 1 8 3 9
REMARK H PARENT
REMARK Flexibility Score: inf
ROOT
ATOM      1  C   UNL     1     -12.261   0.706 -17.602  1.00  0.00     0.016 A 
ATOM      2  C   UNL     1     -13.265   1.329 -18.359  1.00  0.00     0.013 A 
ATOM      3  C   UNL     1     -11.393   1.514 -16.848  1.00  0.00     0.120 A 
ATOM      4  C   UNL     1     -13.386   2.721 -18.353  1.00  0.00     0.021 A 
ATOM      5  N   UNL     1     -11.532   2.867 -16.859  1.00  0.00    -0.264 NA
ATOM      6  C   UNL     1     -12.501   3.481 -17.589  1.00  0.00     0.111 A 
ENDROOT
BRANCH   1   7
ATOM      7  C   UNL     1     -12.123  -0.767 -17.601  1.00  0.00     0.073 C 
ATOM      8  O   UNL     1     -11.157  -1.321 -18.190  1.00  0.00    -0.545 OA
ATOM      9  O   UNL     1     -13.059  -1.561 -16.949  1.00  0.00    -0.545 OA
ENDBRANCH   1   7
TORSDOF 1
ENDMDL
MODEL 3
REMARK VINA RESULT:    10.322      3.447      4.280
REMARK INTER + INTRA:          10.909
REMARK INTER:                  10.925
REMARK INTRA:                  -0.016
REMARK UNBOUND:                -0.016
REMARK SMILES O=C([O-])c1cccnc1
REMARK SMILES IDX 4 1 5 2 9 3 6 4 8 5 7 6 2 7 1 8 3 9
REMARK H PARENT
REMARK Flexibility Score: inf
ROOT
ATOM      1  C   UNL     1      -9.320  -0.644 -17.200  1.00  0.00     0.016 A 
ATOM      2  C   UNL     1      -9.984  -1.657 -17.910  1.00  0.00     0.013 A 
ATOM      3  C   UNL     1     -10.049   0.498 -16.824  1.00  0.00     0.120 A 
ATOM      4  C   UNL     1     -11.336  -1.519 -18.228  1.00  0.00     0.021 A 
ATOM      5  N   UNL     1     -11.365   0.608 -17.148  1.00  0.00    -0.264 NA
ATOM      6  C   UNL     1     -12.018  -0.367 -17.835  1.00  0.00     0.111 A 
ENDROOT
BRANCH   1   7
ATOM      7  C   UNL     1      -7.888  -0.779 -16.856  1.00  0.00     0.073 C 
ATOM      8  O   UNL     1      -7.534  -1.356 -15.794  1.00  0.00    -0.545 OA
ATOM      9  O   UNL     1      -6.910  -0.268 -17.703  1.00  0.00    -0.545 OA
ENDBRANCH   1   7
TORSDOF 1
ENDMDL
