MODEL 1
REMARK VINA RESULT:    -4.295      0.000      0.000
REMARK INTER + INTRA:         -10.263
REMARK INTER:                  -7.810
REMARK INTRA:                  -2.453
REMARK UNBOUND:                -2.453
REMARK SMILES CCCCCCCCCCCCCC[C@H](C)C(=O)[O-]
REMARK SMILES IDX 9 1 10 2 11 3 12 4 13 5 14 6 15 7 16 8 17 9 18 10 19 11 8 12
REMARK SMILES IDX 7 13 6 14 5 15 4 16 3 17 2 18 1 19
REMARK H PARENT
REMARK Flexibility Score: inf
ROOT
ATOM      1  C   UNL     1       9.584   3.809  14.473  1.00  0.00     0.000 C 
ENDROOT
BRANCH   1   2
ATOM      2  C   UNL     1       9.265   5.300  14.685  1.00  0.00     0.000 C 
BRANCH   2   3
ATOM      3  C   UNL     1      10.463   6.256  14.518  1.00  0.00     0.000 C 
BRANCH   3   4
ATOM      4  C   UNL     1      10.407   7.168  13.277  1.00  0.00     0.000 C 
BRANCH   4   5
ATOM      5  C   UNL     1      11.206   6.663  12.062  1.00  0.00     0.001 C 
BRANCH   5   6
ATOM      6  C   UNL     1      10.497   5.520  11.314  1.00  0.00     0.009 C 
BRANCH   6   7
ATOM      7  C   UNL     1      11.451   4.346  11.009  1.00  0.00     0.032 C 
ATOM      8  C   UNL     1      12.912   4.777  11.188  1.00  0.00     0.014 C 
BRANCH   7   9
ATOM      9  C   UNL     1      11.246   3.822   9.614  1.00  0.00     0.044 C 
ATOM     10  O   UNL     1      11.946   2.865   9.190  1.00  0.00    -0.550 OA
ATOM     11  O   UNL     1      10.288   4.391   8.782  1.00  0.00    -0.550 OA
ENDBRANCH   7   9
ENDBRANCH   6   7
ENDBRANCH   5   6
ENDBRANCH   4   5
ENDBRANCH   3   4
ENDBRANCH   2   3
ENDBRANCH   1   2
BRANCH   1  12
ATOM     12  C   UNL     1      11.063   3.474  14.726  1.00  0.00     0.000 C 
BRANCH  12  13
ATOM     13  C   UNL     1      11.251   2.276  15.674  1.00  0.00    -0.000 C 
BRANCH  13  14
ATOM     14  C   UNL     1      12.710   1.818  15.879  1.00  0.00    -0.000 C 
BRANCH  14  15
ATOM     15  C   UNL     1      13.614   1.917  14.636  1.00  0.00    -0.000 C 
BRANCH  15  16
ATOM     16  C   UNL     1      13.427   0.737  13.668  1.00  0.00    -0.000 C 
BRANCH  16  17
ATOM     17  C   UNL     1      12.973   1.180  12.264  1.00  0.00    -0.000 C 
BRANCH  17  18
ATOM     18  C   UNL     1      11.816   0.361  11.665  1.00  0.00    -0.003 C 
ATOM     19  C   UNL     1      10.440   0.849  12.115  1.00  0.00     0.004 C 
ENDBRANCH  17  18
ENDBRANCH  16  17
ENDBRANCH  15  16
ENDBRANCH  14  15
ENDBRANCH  13  14
ENDBRANCH  12  13
ENDBRANCH   1  12
TORSDOF 14
ENDMDL
MODEL 2
REMARK VINA RESULT:    -4.217      2.081      4.781
REMARK INTER + INTRA:         -10.122
REMARK INTER:                  -8.123
REMARK INTRA:                  -1.999
REMARK UNBOUND:                -2.453
REMARK SMILES CCCCCCCCCCCCCC[C@H](C)C(=O)[O-]
REMARK SMILES IDX 9 1 10 2 11 3 12 4 13 5 14 6 15 7 16 8 17 9 18 10 19 11 8 12
REMARK SMILES IDX 7 13 6 14 5 15 4 16 3 17 2 18 1 19
REMARK H PARENT
REMARK Flexibility Score: inf
ROOT
ATOM      1  C   UNL     1      10.870   7.268  12.857  1.00  0.00     0.000 C 
ENDROOT
BRANCH   1   2
ATOM      2  C   UNL     1      10.327   6.598  14.132  1.00  0.00     0.000 C 
BRANCH   2   3
ATOM      3  C   UNL     1       9.893   5.128  13.966  1.00  0.00     0.000 C 
BRANCH   3   4
ATOM      4  C   UNL     1      10.360   4.174  15.083  1.00  0.00     0.000 C 
BRANCH   4   5
ATOM      5  C   UNL     1      11.147   2.943  14.600  1.00  0.00     0.001 C 
BRANCH   5   6
ATOM      6  C   UNL     1      11.725   2.110  15.758  1.00  0.00     0.009 C 
BRANCH   6   7
ATOM      7  C   UNL     1      12.976   1.314  15.333  1.00  0.00     0.032 C 
ATOM      8  C   UNL     1      14.219   2.213  15.347  1.00  0.00     0.014 C 
BRANCH   7   9
ATOM      9  C   UNL     1      12.804   0.712  13.965  1.00  0.00     0.044 C 
ATOM     10  O   UNL     1      13.437   1.183  12.983  1.00  0.00    -0.550 OA
ATOM     11  O   UNL     1      11.944  -0.363  13.773  1.00  0.00    -0.550 OA
ENDBRANCH   7   9
ENDBRANCH   6   7
ENDBRANCH   5   6
ENDBRANCH   4   5
ENDBRANCH   3   4
ENDBRANCH   2   3
ENDBRANCH   1   2
BRANCH   1  12
ATOM     12  C   UNL     1      10.802   6.349  11.626  1.00  0.00     0.000 C 
BRANCH  12  13
ATOM     13  C   UNL     1      11.952   6.594  10.634  1.00  0.00    -0.000 C 
BRANCH  13  14
ATOM     14  C   UNL     1      12.927   5.413  10.447  1.00  0.00    -0.000 C 
BRANCH  14  15
ATOM     15  C   UNL     1      12.592   4.147  11.257  1.00  0.00    -0.000 C 
BRANCH  15  16
ATOM     16  C   UNL     1      11.881   3.072  10.417  1.00  0.00    -0.000 C 
BRANCH  16  17
ATOM     17  C   UNL     1      10.446   2.788  10.900  1.00  0.00    -0.000 C 
BRANCH  17  18
ATOM     18  C   UNL     1       9.333   3.260   9.946  1.00  0.00    -0.003 C 
ATOM     19  C   UNL     1       9.854   4.112   8.791  1.00  0.00     0.004 C 
ENDBRANCH  17  18
ENDBRANCH  16  17
ENDBRANCH  15  16
ENDBRANCH  14  15
ENDBRANCH  13  14
ENDBRANCH  12  13
ENDBRANCH   1  12
TORSDOF 14
ENDMDL
MODEL 3
REMARK VINA RESULT:    -4.200      1.326      3.611
REMARK INTER + INTRA:         -10.090
REMARK INTER:                  -7.369
REMARK INTRA:                  -2.721
REMARK UNBOUND:                -2.453
REMARK SMILES CCCCCCCCCCCCCC[C@H](C)C(=O)[O-]
REMARK SMILES IDX 9 1 10 2 11 3 12 4 13 5 14 6 15 7 16 8 17 9 18 10 19 11 8 12
REMARK SMILES IDX 7 13 6 14 5 15 4 16 3 17 2 18 1 19
REMARK H PARENT
REMARK Flexibility Score: inf
ROOT
ATOM      1  C   UNL     1      10.568   6.186  11.573  1.00  0.00     0.000 C 
ENDROOT
BRANCH   1   2
ATOM      2  C   UNL     1      11.937   6.508  10.947  1.00  0.00     0.000 C 
BRANCH   2   3
ATOM      3  C   UNL     1      12.773   5.281  10.532  1.00  0.00     0.000 C 
BRANCH   3   4
ATOM      4  C   UNL     1      12.800   4.128  11.554  1.00  0.00     0.000 C 
BRANCH   4   5
ATOM      5  C   UNL     1      12.716   2.717  10.945  1.00  0.00     0.001 C 
BRANCH   5   6
ATOM      6  C   UNL     1      11.408   1.990  11.299  1.00  0.00     0.009 C 
BRANCH   6   7
ATOM      7  C   UNL     1      10.163   2.789  10.862  1.00  0.00     0.032 C 
ATOM      8  C   UNL     1       8.888   2.159  11.436  1.00  0.00     0.014 C 
BRANCH   7   9
ATOM      9  C   UNL     1      10.058   2.864   9.362  1.00  0.00     0.044 C 
ATOM     10  O   UNL     1      10.040   1.808   8.676  1.00  0.00    -0.550 OA
ATOM     11  O   UNL     1       9.985   4.097   8.723  1.00  0.00    -0.550 OA
ENDBRANCH   7   9
ENDBRANCH   6   7
ENDBRANCH   5   6
ENDBRANCH   4   5
ENDBRANCH   3   4
ENDBRANCH   2   3
ENDBRANCH   1   2
BRANCH   1  12
ATOM     12  C   UNL     1      10.520   6.474  13.083  1.00  0.00     0.000 C 
BRANCH  12  13
ATOM     13  C   UNL     1       9.701   5.431  13.864  1.00  0.00    -0.000 C 
BRANCH  13  14
ATOM     14  C   UNL     1      10.525   4.470  14.746  1.00  0.00    -0.000 C 
BRANCH  14  15
ATOM     15  C   UNL     1       9.908   3.075  14.957  1.00  0.00    -0.000 C 
BRANCH  15  16
ATOM     16  C   UNL     1      10.960   1.953  14.966  1.00  0.00    -0.000 C 
BRANCH  16  17
ATOM     17  C   UNL     1      12.404   2.486  14.901  1.00  0.00    -0.000 C 
BRANCH  17  18
ATOM     18  C   UNL     1      13.500   1.423  15.097  1.00  0.00    -0.003 C 
ATOM     19  C   UNL     1      13.338   0.218  14.172  1.00  0.00     0.004 C 
ENDBRANCH  17  18
ENDBRANCH  16  17
ENDBRANCH  15  16
ENDBRANCH  14  15
ENDBRANCH  13  14
ENDBRANCH  12  13
ENDBRANCH   1  12
TORSDOF 14
ENDMDL
MODEL 4
REMARK VINA RESULT:    -4.158      1.845      4.319
REMARK INTER + INTRA:         -10.014
REMARK INTER:                  -7.933
REMARK INTRA:                  -2.081
REMARK UNBOUND:                -2.453
REMARK SMILES CCCCCCCCCCCCCC[C@H](C)C(=O)[O-]
REMARK SMILES IDX 9 1 10 2 11 3 12 4 13 5 14 6 15 7 16 8 17 9 18 10 19 11 8 12
REMARK SMILES IDX 7 13 6 14 5 15 4 16 3 17 2 18 1 19
REMARK H PARENT
REMARK Flexibility Score: inf
ROOT
ATOM      1  C   UNL     1      10.853   6.092  11.395  1.00  0.00     0.000 C 
ENDROOT
BRANCH   1   2
ATOM      2  C   UNL     1      12.001   6.183  10.373  1.00  0.00     0.000 C 
BRANCH   2   3
ATOM      3  C   UNL     1      13.170   5.206  10.611  1.00  0.00     0.000 C 
BRANCH   3   4
ATOM      4  C   UNL     1      12.913   4.122  11.677  1.00  0.00     0.000 C 
BRANCH   4   5
ATOM      5  C   UNL     1      13.008   2.673  11.166  1.00  0.00     0.001 C 
BRANCH   5   6
ATOM      6  C   UNL     1      12.116   2.411   9.940  1.00  0.00     0.009 C 
BRANCH   6   7
ATOM      7  C   UNL     1      10.842   1.621  10.307  1.00  0.00     0.032 C 
ATOM      8  C   UNL     1       9.854   2.514  11.067  1.00  0.00     0.014 C 
BRANCH   7   9
ATOM      9  C   UNL     1      11.169   0.409  11.137  1.00  0.00     0.044 C 
ATOM     10  O   UNL     1      10.761   0.329  12.326  1.00  0.00    -0.550 OA
ATOM     11  O   UNL     1      11.925  -0.627  10.601  1.00  0.00    -0.550 OA
ENDBRANCH   7   9
ENDBRANCH   6   7
ENDBRANCH   5   6
ENDBRANCH   4   5
ENDBRANCH   3   4
ENDBRANCH   2   3
ENDBRANCH   1   2
BRANCH   1  12
ATOM     12  C   UNL     1      10.969   7.141  12.515  1.00  0.00     0.000 C 
BRANCH  12  13
ATOM     13  C   UNL     1      10.422   6.638  13.863  1.00  0.00    -0.000 C 
BRANCH  13  14
ATOM     14  C   UNL     1       9.823   5.216  13.843  1.00  0.00    -0.000 C 
BRANCH  14  15
ATOM     15  C   UNL     1      10.240   4.308  15.014  1.00  0.00    -0.000 C 
BRANCH  15  16
ATOM     16  C   UNL     1      11.073   3.096  14.562  1.00  0.00    -0.000 C 
BRANCH  16  17
ATOM     17  C   UNL     1      11.533   2.215  15.738  1.00  0.00    -0.000 C 
BRANCH  17  18
ATOM     18  C   UNL     1      12.793   1.372  15.468  1.00  0.00    -0.003 C 
ATOM     19  C   UNL     1      14.014   2.218  15.111  1.00  0.00     0.004 C 
ENDBRANCH  17  18
ENDBRANCH  16  17
ENDBRANCH  15  16
ENDBRANCH  14  15
ENDBRANCH  13  14
ENDBRANCH  12  13
ENDBRANCH   1  12
TORSDOF 14
ENDMDL
MODEL 5
REMARK VINA RESULT:    -4.155      2.568      6.103
REMARK INTER + INTRA:         -10.009
REMARK INTER:                  -7.945
REMARK INTRA:                  -2.063
REMARK UNBOUND:                -2.453
REMARK SMILES CCCCCCCCCCCCCC[C@H](C)C(=O)[O-]
REMARK SMILES IDX 9 1 10 2 11 3 12 4 13 5 14 6 15 7 16 8 17 9 18 10 19 11 8 12
REMARK SMILES IDX 7 13 6 14 5 15 4 16 3 17 2 18 1 19
REMARK H PARENT
REMARK Flexibility Score: inf
ROOT
ATOM      1  C   UNL     1      11.593   2.378   9.172  1.00  0.00     0.000 C 
ENDROOT
BRANCH   1   2
ATOM      2  C   UNL     1      11.729   1.071   9.974  1.00  0.00     0.000 C 
BRANCH   2   3
ATOM      3  C   UNL     1      12.702   1.133  11.169  1.00  0.00     0.000 C 
BRANCH   3   4
ATOM      4  C   UNL     1      13.244   2.537  11.502  1.00  0.00     0.000 C 
BRANCH   4   5
ATOM      5  C   UNL     1      12.966   3.017  12.938  1.00  0.00     0.001 C 
BRANCH   5   6
ATOM      6  C   UNL     1      11.791   2.276  13.599  1.00  0.00     0.009 C 
BRANCH   6   7
ATOM      7  C   UNL     1      12.150   1.759  15.008  1.00  0.00     0.032 C 
ATOM      8  C   UNL     1      13.621   2.048  15.331  1.00  0.00     0.014 C 
BRANCH   7   9
ATOM      9  C   UNL     1      11.886   0.282  15.133  1.00  0.00     0.044 C 
ATOM     10  O   UNL     1      11.974  -0.282  16.255  1.00  0.00    -0.550 OA
ATOM     11  O   UNL     1      11.549  -0.469  14.013  1.00  0.00    -0.550 OA
ENDBRANCH   7   9
ENDBRANCH   6   7
ENDBRANCH   5   6
ENDBRANCH   4   5
ENDBRANCH   3   4
ENDBRANCH   2   3
ENDBRANCH   1   2
BRANCH   1  12
ATOM     12  C   UNL     1      10.144   2.889   9.108  1.00  0.00     0.000 C 
BRANCH  12  13
ATOM     13  C   UNL     1      10.042   4.415   9.279  1.00  0.00    -0.000 C 
BRANCH  13  14
ATOM     14  C   UNL     1      10.037   4.917  10.738  1.00  0.00    -0.000 C 
BRANCH  14  15
ATOM     15  C   UNL     1      11.231   5.803  11.135  1.00  0.00    -0.000 C 
BRANCH  15  16
ATOM     16  C   UNL     1      10.918   6.731  12.322  1.00  0.00    -0.000 C 
BRANCH  16  17
ATOM     17  C   UNL     1      10.046   6.055  13.396  1.00  0.00    -0.000 C 
BRANCH  17  18
ATOM     18  C   UNL     1      10.528   6.250  14.845  1.00  0.00    -0.003 C 
ATOM     19  C   UNL     1       9.884   5.273  15.827  1.00  0.00     0.004 C 
ENDBRANCH  17  18
ENDBRANCH  16  17
ENDBRANCH  15  16
ENDBRANCH  14  15
ENDBRANCH  13  14
ENDBRANCH  12  13
ENDBRANCH   1  12
TORSDOF 14
ENDMDL
MODEL 6
REMARK VINA RESULT:    -4.149      1.753      3.702
REMARK INTER + INTRA:          -9.999
REMARK INTER:                  -7.664
REMARK INTRA:                  -2.335
REMARK UNBOUND:                -2.453
REMARK SMILES CCCCCCCCCCCCCC[C@H](C)C(=O)[O-]
REMARK SMILES IDX 9 1 10 2 11 3 12 4 13 5 14 6 15 7 16 8 17 9 18 10 19 11 8 12
REMARK SMILES IDX 7 13 6 14 5 15 4 16 3 17 2 18 1 19
REMARK H PARENT
REMARK Flexibility Score: inf
ROOT
ATOM      1  C   UNL     1      10.515   5.883  11.654  1.00  0.00     0.000 C 
ENDROOT
BRANCH   1   2
ATOM      2  C   UNL     1      10.210   5.557  13.127  1.00  0.00     0.000 C 
BRANCH   2   3
ATOM      3  C   UNL     1      10.256   4.059  13.490  1.00  0.00     0.000 C 
BRANCH   3   4
ATOM      4  C   UNL     1       9.093   3.214  12.934  1.00  0.00     0.000 C 
BRANCH   4   5
ATOM      5  C   UNL     1       9.388   2.496  11.605  1.00  0.00     0.001 C 
BRANCH   5   6
ATOM      6  C   UNL     1       8.360   2.822  10.508  1.00  0.00     0.009 C 
BRANCH   6   7
ATOM      7  C   UNL     1       8.837   2.369   9.112  1.00  0.00     0.032 C 
ATOM      8  C   UNL     1      10.184   1.642   9.211  1.00  0.00     0.014 C 
BRANCH   7   9
ATOM      9  C   UNL     1       8.960   3.536   8.170  1.00  0.00     0.044 C 
ATOM     10  O   UNL     1       8.264   3.577   7.121  1.00  0.00    -0.550 OA
ATOM     11  O   UNL     1       9.844   4.572   8.446  1.00  0.00    -0.550 OA
ENDBRANCH   7   9
ENDBRANCH   6   7
ENDBRANCH   5   6
ENDBRANCH   4   5
ENDBRANCH   3   4
ENDBRANCH   2   3
ENDBRANCH   1   2
BRANCH   1  12
ATOM     12  C   UNL     1      12.021   5.875  11.341  1.00  0.00     0.000 C 
BRANCH  12  13
ATOM     13  C   UNL     1      12.485   4.569  10.673  1.00  0.00    -0.000 C 
BRANCH  13  14
ATOM     14  C   UNL     1      13.342   3.642  11.560  1.00  0.00    -0.000 C 
BRANCH  14  15
ATOM     15  C   UNL     1      13.001   2.144  11.473  1.00  0.00    -0.000 C 
BRANCH  15  16
ATOM     16  C   UNL     1      13.033   1.443  12.842  1.00  0.00    -0.000 C 
BRANCH  16  17
ATOM     17  C   UNL     1      13.536   2.361  13.972  1.00  0.00    -0.000 C 
BRANCH  17  18
ATOM     18  C   UNL     1      13.459   1.756  15.386  1.00  0.00    -0.003 C 
ATOM     19  C   UNL     1      12.049   1.780  15.971  1.00  0.00     0.004 C 
ENDBRANCH  17  18
ENDBRANCH  16  17
ENDBRANCH  15  16
ENDBRANCH  14  15
ENDBRANCH  13  14
ENDBRANCH  12  13
ENDBRANCH   1  12
TORSDOF 14
ENDMDL
MODEL 7
REMARK VINA RESULT:    -4.123      0.846      2.085
REMARK INTER + INTRA:          -9.950
REMARK INTER:                  -7.658
REMARK INTRA:                  -2.292
REMARK UNBOUND:                -2.453
REMARK SMILES CCCCCCCCCCCCCC[C@H](C)C(=O)[O-]
REMARK SMILES IDX 9 1 10 2 11 3 12 4 13 5 14 6 15 7 16 8 17 9 18 10 19 11 8 12
REMARK SMILES IDX 7 13 6 14 5 15 4 16 3 17 2 18 1 19
REMARK H PARENT
REMARK Flexibility Score: inf
ROOT
ATOM      1  C   UNL     1      10.528   3.535  15.117  1.00  0.00     0.000 C 
ENDROOT
BRANCH   1   2
ATOM      2  C   UNL     1       9.993   4.962  15.337  1.00  0.00     0.000 C 
BRANCH   2   3
ATOM      3  C   UNL     1       9.556   5.702  14.058  1.00  0.00     0.000 C 
BRANCH   3   4
ATOM      4  C   UNL     1      10.534   6.784  13.558  1.00  0.00     0.000 C 
BRANCH   4   5
ATOM      5  C   UNL     1      10.968   6.639  12.088  1.00  0.00     0.001 C 
BRANCH   5   6
ATOM      6  C   UNL     1      10.427   5.358  11.428  1.00  0.00     0.009 C 
BRANCH   6   7
ATOM      7  C   UNL     1      11.561   4.444  10.920  1.00  0.00     0.032 C 
ATOM      8  C   UNL     1      12.889   5.208  10.867  1.00  0.00     0.014 C 
BRANCH   7   9
ATOM      9  C   UNL     1      11.245   3.884   9.560  1.00  0.00     0.044 C 
ATOM     10  O   UNL     1      11.856   2.867   9.137  1.00  0.00    -0.550 OA
ATOM     11  O   UNL     1      10.282   4.486   8.757  1.00  0.00    -0.550 OA
ENDBRANCH   7   9
ENDBRANCH   6   7
ENDBRANCH   5   6
ENDBRANCH   4   5
ENDBRANCH   3   4
ENDBRANCH   2   3
ENDBRANCH   1   2
BRANCH   1  12
ATOM     12  C   UNL     1       9.777   2.782  14.005  1.00  0.00     0.000 C 
BRANCH  12  13
ATOM     13  C   UNL     1       9.637   1.277  14.292  1.00  0.00    -0.000 C 
BRANCH  13  14
ATOM     14  C   UNL     1      10.466   0.350  13.378  1.00  0.00    -0.000 C 
BRANCH  14  15
ATOM     15  C   UNL     1      11.015   1.005  12.098  1.00  0.00    -0.000 C 
BRANCH  15  16
ATOM     16  C   UNL     1      12.552   0.976  12.024  1.00  0.00    -0.000 C 
BRANCH  16  17
ATOM     17  C   UNL     1      13.215   0.819  13.405  1.00  0.00    -0.000 C 
BRANCH  17  18
ATOM     18  C   UNL     1      13.597   2.139  14.099  1.00  0.00    -0.003 C 
ATOM     19  C   UNL     1      13.882   1.971  15.590  1.00  0.00     0.004 C 
ENDBRANCH  17  18
ENDBRANCH  16  17
ENDBRANCH  15  16
ENDBRANCH  14  15
ENDBRANCH  13  14
ENDBRANCH  12  13
ENDBRANCH   1  12
TORSDOF 14
ENDMDL
MODEL 8
REMARK VINA RESULT:    -4.107      3.871      5.071
REMARK INTER + INTRA:          -9.921
REMARK INTER:                  -8.653
REMARK INTRA:                  -1.268
REMARK UNBOUND:                -2.453
REMARK SMILES CCCCCCCCCCCCCC[C@H](C)C(=O)[O-]
REMARK SMILES IDX 9 1 10 2 11 3 12 4 13 5 14 6 15 7 16 8 17 9 18 10 19 11 8 12
REMARK SMILES IDX 7 13 6 14 5 15 4 16 3 17 2 18 1 19
REMARK H PARENT
REMARK Flexibility Score: inf
ROOT
ATOM      1  C   UNL     1      10.549   6.029  13.913  1.00  0.00     0.000 C 
ENDROOT
BRANCH   1   2
ATOM      2  C   UNL     1      10.421   6.218  12.390  1.00  0.00     0.000 C 
BRANCH   2   3
ATOM      3  C   UNL     1      11.755   6.384  11.636  1.00  0.00     0.000 C 
BRANCH   3   4
ATOM      4  C   UNL     1      11.770   7.491  10.563  1.00  0.00     0.000 C 
BRANCH   4   5
ATOM      5  C   UNL     1      11.598   8.922  11.103  1.00  0.00     0.001 C 
BRANCH   5   6
ATOM      6  C   UNL     1      12.306   9.978  10.236  1.00  0.00     0.009 C 
BRANCH   6   7
ATOM      7  C   UNL     1      12.404  11.343  10.947  1.00  0.00     0.032 C 
ATOM      8  C   UNL     1      11.308  11.478  12.011  1.00  0.00     0.014 C 
BRANCH   7   9
ATOM      9  C   UNL     1      12.300  12.480   9.967  1.00  0.00     0.044 C 
ATOM     10  O   UNL     1      11.911  13.613  10.353  1.00  0.00    -0.550 OA
ATOM     11  O   UNL     1      12.627  12.288   8.629  1.00  0.00    -0.550 OA
ENDBRANCH   7   9
ENDBRANCH   6   7
ENDBRANCH   5   6
ENDBRANCH   4   5
ENDBRANCH   3   4
ENDBRANCH   2   3
ENDBRANCH   1   2
BRANCH   1  12
ATOM     12  C   UNL     1      10.308   4.575  14.355  1.00  0.00     0.000 C 
BRANCH  12  13
ATOM     13  C   UNL     1      10.819   3.547  13.331  1.00  0.00    -0.000 C 
BRANCH  13  14
ATOM     14  C   UNL     1      12.110   2.803  13.730  1.00  0.00    -0.000 C 
BRANCH  14  15
ATOM     15  C   UNL     1      12.739   1.934  12.625  1.00  0.00    -0.000 C 
BRANCH  15  16
ATOM     16  C   UNL     1      13.147   2.748  11.385  1.00  0.00    -0.000 C 
BRANCH  16  17
ATOM     17  C   UNL     1      12.290   2.421  10.147  1.00  0.00    -0.000 C 
BRANCH  17  18
ATOM     18  C   UNL     1      11.600   3.632   9.495  1.00  0.00    -0.003 C 
ATOM     19  C   UNL     1      10.116   3.398   9.217  1.00  0.00     0.004 C 
ENDBRANCH  17  18
ENDBRANCH  16  17
ENDBRANCH  15  16
ENDBRANCH  14  15
ENDBRANCH  13  14
ENDBRANCH  12  13
ENDBRANCH   1  12
TORSDOF 14
ENDMDL
MODEL 9
REMARK VINA RESULT:    -4.107      2.866      6.192
REMARK INTER + INTRA:          -9.921
REMARK INTER:                  -7.567
REMARK INTRA:                  -2.354
REMARK UNBOUND:                -2.453
REMARK SMILES CCCCCCCCCCCCCC[C@H](C)C(=O)[O-]
REMARK SMILES IDX 9 1 10 2 11 3 12 4 13 5 14 6 15 7 16 8 17 9 18 10 19 11 8 12
REMARK SMILES IDX 7 13 6 14 5 15 4 16 3 17 2 18 1 19
REMARK H PARENT
REMARK Flexibility Score: inf
ROOT
ATOM      1  C   UNL     1      13.132   3.220  11.781  1.00  0.00     0.000 C 
ENDROOT
BRANCH   1   2
ATOM      2  C   UNL     1      12.652   2.354  10.602  1.00  0.00     0.000 C 
BRANCH   2   3
ATOM      3  C   UNL     1      11.626   1.262  10.966  1.00  0.00     0.000 C 
BRANCH   3   4
ATOM      4  C   UNL     1      11.412   1.039  12.476  1.00  0.00     0.000 C 
BRANCH   4   5
ATOM      5  C   UNL     1      12.098  -0.213  13.052  1.00  0.00     0.001 C 
BRANCH   5   6
ATOM      6  C   UNL     1      13.082   0.114  14.188  1.00  0.00     0.009 C 
BRANCH   6   7
ATOM      7  C   UNL     1      12.693   1.403  14.941  1.00  0.00     0.032 C 
ATOM      8  C   UNL     1      13.943   2.214  15.304  1.00  0.00     0.014 C 
BRANCH   7   9
ATOM      9  C   UNL     1      11.912   1.094  16.189  1.00  0.00     0.044 C 
ATOM     10  O   UNL     1      11.528   2.027  16.942  1.00  0.00    -0.550 OA
ATOM     11  O   UNL     1      11.612  -0.222  16.524  1.00  0.00    -0.550 OA
ENDBRANCH   7   9
ENDBRANCH   6   7
ENDBRANCH   5   6
ENDBRANCH   4   5
ENDBRANCH   3   4
ENDBRANCH   2   3
ENDBRANCH   1   2
BRANCH   1  12
ATOM     12  C   UNL     1      13.499   4.652  11.357  1.00  0.00     0.000 C 
BRANCH  12  13
ATOM     13  C   UNL     1      12.513   5.244  10.335  1.00  0.00    -0.000 C 
BRANCH  13  14
ATOM     14  C   UNL     1      11.617   6.384  10.864  1.00  0.00    -0.000 C 
BRANCH  14  15
ATOM     15  C   UNL     1      10.489   5.948  11.817  1.00  0.00    -0.000 C 
BRANCH  15  16
ATOM     16  C   UNL     1      10.462   6.762  13.122  1.00  0.00    -0.000 C 
BRANCH  16  17
ATOM     17  C   UNL     1      10.344   5.878  14.377  1.00  0.00    -0.000 C 
BRANCH  17  18
ATOM     18  C   UNL     1      10.596   4.377  14.143  1.00  0.00    -0.003 C 
ATOM     19  C   UNL     1       9.365   3.514  14.414  1.00  0.00     0.004 C 
ENDBRANCH  17  18
ENDBRANCH  16  17
ENDBRANCH  15  16
ENDBRANCH  14  15
ENDBRANCH  13  14
ENDBRANCH  12  13
ENDBRANCH   1  12
TORSDOF 14
ENDMDL
