MODEL 1
REMARK VINA RESULT:    -6.380      0.000      0.000
REMARK INTER + INTRA:          -7.775
REMARK INTER:                  -7.498
REMARK INTRA:                  -0.276
REMARK UNBOUND:                -0.276
REMARK SMILES O=c1cc(-c2ccc(O)c(O)c2)oc2cc(O)cc(O)c12
REMARK SMILES IDX 4 1 3 2 2 3 1 4 21 5 19 6 18 7 16 8 15 9 14 10 13 11 5 12
REMARK SMILES IDX 6 13 7 14 8 15 12 16 10 17 9 18 11 20 20 22 17 24
REMARK H PARENT 9 19 11 21 20 23 17 25
REMARK Flexibility Score: inf
ROOT
ATOM      1  C   UNL     1      40.903  -1.253 -15.940  1.00  0.00     0.138 A 
ATOM      2  C   UNL     1      42.113  -1.223 -15.226  1.00  0.00     0.100 A 
ATOM      3  C   UNL     1      43.282  -1.678 -15.837  1.00  0.00     0.197 A 
ATOM      4  O   UNL     1      44.363  -1.647 -15.188  1.00  0.00    -0.289 OA
ATOM      5  C   UNL     1      43.234  -2.158 -17.161  1.00  0.00     0.107 A 
ATOM      6  C   UNL     1      44.372  -2.637 -17.852  1.00  0.00     0.134 A 
ATOM      7  C   UNL     1      44.240  -3.093 -19.173  1.00  0.00     0.093 A 
ATOM      8  C   UNL     1      42.999  -3.077 -19.813  1.00  0.00     0.123 A 
ATOM      9  C   UNL     1      41.871  -2.603 -19.134  1.00  0.00     0.094 A 
ATOM     10  C   UNL     1      41.980  -2.147 -17.817  1.00  0.00     0.146 A 
ATOM     11  O   UNL     1      40.894  -1.702 -17.192  1.00  0.00    -0.456 OA
ENDROOT
BRANCH   1  12
ATOM     12  C   UNL     1      39.629  -0.781 -15.341  1.00  0.00     0.021 A 
ATOM     13  C   UNL     1      38.431  -1.502 -15.489  1.00  0.00     0.016 A 
ATOM     14  C   UNL     1      37.246  -1.028 -14.923  1.00  0.00     0.051 A 
ATOM     15  C   UNL     1      37.225   0.173 -14.207  1.00  0.00     0.157 A 
ATOM     16  C   UNL     1      39.605   0.433 -14.634  1.00  0.00     0.062 A 
ATOM     17  C   UNL     1      38.421   0.915 -14.063  1.00  0.00     0.158 A 
BRANCH  15  18
ATOM     18  O   UNL     1      36.008   0.590 -13.665  1.00  0.00    -0.504 OA
ATOM     19  H   UNL     1      35.800   1.544 -13.410  1.00  0.00     0.293 HD
ENDBRANCH  15  18
BRANCH  17  20
ATOM     20  O   UNL     1      38.478   2.125 -13.368  1.00  0.00    -0.504 OA
ATOM     21  H   UNL     1      39.313   2.489 -12.933  1.00  0.00     0.293 HD
ENDBRANCH  17  20
ENDBRANCH   1  12
BRANCH   6  22
ATOM     22  O   UNL     1      45.625  -2.666 -17.240  1.00  0.00    -0.507 OA
ATOM     23  H   UNL     1      45.725  -2.742 -16.235  1.00  0.00     0.293 HD
ENDBRANCH   6  22
BRANCH   8  24
ATOM     24  O   UNL     1      42.897  -3.534 -21.125  1.00  0.00    -0.508 OA
ATOM     25  H   UNL     1      43.700  -3.552 -21.743  1.00  0.00     0.293 HD
ENDBRANCH   8  24
TORSDOF 5
ENDMDL
MODEL 2
REMARK VINA RESULT:    -6.289      2.072      2.757
REMARK INTER + INTRA:          -7.668
REMARK INTER:                  -7.349
REMARK INTRA:                  -0.319
REMARK UNBOUND:                -0.276
REMARK SMILES O=c1cc(-c2ccc(O)c(O)c2)oc2cc(O)cc(O)c12
REMARK SMILES IDX 4 1 3 2 2 3 1 4 21 5 19 6 18 7 16 8 15 9 14 10 13 11 5 12
REMARK SMILES IDX 6 13 7 14 8 15 12 16 10 17 9 18 11 20 20 22 17 24
REMARK H PARENT 9 19 11 21 20 23 17 25
REMARK Flexibility Score: inf
ROOT
ATOM      1  C   UNL     1      40.978  -0.526 -17.327  1.00  0.00     0.138 A 
ATOM      2  C   UNL     1      41.658   0.600 -17.819  1.00  0.00     0.100 A 
ATOM      3  C   UNL     1      42.552   0.452 -18.881  1.00  0.00     0.197 A 
ATOM      4  O   UNL     1      43.157   1.468 -19.317  1.00  0.00    -0.289 OA
ATOM      5  C   UNL     1      42.755  -0.823 -19.447  1.00  0.00     0.107 A 
ATOM      6  C   UNL     1      43.642  -1.059 -20.524  1.00  0.00     0.134 A 
ATOM      7  C   UNL     1      43.784  -2.359 -21.034  1.00  0.00     0.093 A 
ATOM      8  C   UNL     1      43.058  -3.421 -20.490  1.00  0.00     0.123 A 
ATOM      9  C   UNL     1      42.179  -3.192 -19.426  1.00  0.00     0.094 A 
ATOM     10  C   UNL     1      42.025  -1.906 -18.902  1.00  0.00     0.146 A 
ATOM     11  O   UNL     1      41.184  -1.714 -17.890  1.00  0.00    -0.456 OA
ENDROOT
BRANCH   1  12
ATOM     12  C   UNL     1      40.015  -0.429 -16.200  1.00  0.00     0.021 A 
ATOM     13  C   UNL     1      39.783   0.784 -15.529  1.00  0.00     0.016 A 
ATOM     14  C   UNL     1      38.879   0.844 -14.467  1.00  0.00     0.051 A 
ATOM     15  C   UNL     1      38.196  -0.300 -14.045  1.00  0.00     0.157 A 
ATOM     16  C   UNL     1      39.338  -1.582 -15.767  1.00  0.00     0.062 A 
ATOM     17  C   UNL     1      38.430  -1.531 -14.702  1.00  0.00     0.158 A 
BRANCH  15  18
ATOM     18  O   UNL     1      37.304  -0.172 -12.977  1.00  0.00    -0.504 OA
ATOM     19  H   UNL     1      36.441   0.350 -13.022  1.00  0.00     0.293 HD
ENDBRANCH  15  18
BRANCH  17  20
ATOM     20  O   UNL     1      37.790  -2.716 -14.334  1.00  0.00    -0.504 OA
ATOM     21  H   UNL     1      37.081  -2.777 -13.618  1.00  0.00     0.293 HD
ENDBRANCH  17  20
ENDBRANCH   1  12
BRANCH   6  22
ATOM     22  O   UNL     1      44.381  -0.018 -21.087  1.00  0.00    -0.507 OA
ATOM     23  H   UNL     1      44.609   0.818 -20.562  1.00  0.00     0.293 HD
ENDBRANCH   6  22
BRANCH   8  24
ATOM     24  O   UNL     1      43.217  -4.701 -21.017  1.00  0.00    -0.508 OA
ATOM     25  H   UNL     1      43.053  -4.894 -21.998  1.00  0.00     0.293 HD
ENDBRANCH   8  24
TORSDOF 5
ENDMDL
MODEL 3
REMARK VINA RESULT:    -6.204     15.534     18.850
REMARK INTER + INTRA:          -7.568
REMARK INTER:                  -7.275
REMARK INTRA:                  -0.293
REMARK UNBOUND:                -0.276
REMARK SMILES O=c1cc(-c2ccc(O)c(O)c2)oc2cc(O)cc(O)c12
REMARK SMILES IDX 4 1 3 2 2 3 1 4 21 5 19 6 18 7 16 8 15 9 14 10 13 11 5 12
REMARK SMILES IDX 6 13 7 14 8 15 12 16 10 17 9 18 11 20 20 22 17 24
REMARK H PARENT 9 19 11 21 20 23 17 25
REMARK Flexibility Score: inf
ROOT
ATOM      1  C   UNL     1      29.884 -13.115  -9.590  1.00  0.00     0.138 A 
ATOM      2  C   UNL     1      28.614 -13.692  -9.417  1.00  0.00     0.100 A 
ATOM      3  C   UNL     1      27.996 -13.628  -8.168  1.00  0.00     0.197 A 
ATOM      4  O   UNL     1      26.857 -14.148  -8.022  1.00  0.00    -0.289 OA
ATOM      5  C   UNL     1      28.650 -12.983  -7.099  1.00  0.00     0.107 A 
ATOM      6  C   UNL     1      28.094 -12.875  -5.803  1.00  0.00     0.134 A 
ATOM      7  C   UNL     1      28.809 -12.211  -4.794  1.00  0.00     0.093 A 
ATOM      8  C   UNL     1      30.063 -11.655  -5.056  1.00  0.00     0.123 A 
ATOM      9  C   UNL     1      30.617 -11.758  -6.337  1.00  0.00     0.094 A 
ATOM     10  C   UNL     1      29.922 -12.417  -7.355  1.00  0.00     0.146 A 
ATOM     11  O   UNL     1      30.470 -12.504  -8.564  1.00  0.00    -0.456 OA
ENDROOT
BRANCH   1  12
ATOM     12  C   UNL     1      30.589 -13.151 -10.896  1.00  0.00     0.021 A 
ATOM     13  C   UNL     1      30.680 -14.332 -11.655  1.00  0.00     0.016 A 
ATOM     14  C   UNL     1      31.358 -14.338 -12.875  1.00  0.00     0.051 A 
ATOM     15  C   UNL     1      31.965 -13.177 -13.362  1.00  0.00     0.157 A 
ATOM     16  C   UNL     1      31.210 -11.987 -11.379  1.00  0.00     0.062 A 
ATOM     17  C   UNL     1      31.892 -11.985 -12.603  1.00  0.00     0.158 A 
BRANCH  15  18
ATOM     18  O   UNL     1      32.625 -13.250 -14.591  1.00  0.00    -0.504 OA
ATOM     19  H   UNL     1      32.446 -13.959 -15.287  1.00  0.00     0.293 HD
ENDBRANCH  15  18
BRANCH  17  20
ATOM     20  O   UNL     1      32.478 -10.788 -13.021  1.00  0.00    -0.504 OA
ATOM     21  H   UNL     1      33.063 -10.210 -12.435  1.00  0.00     0.293 HD
ENDBRANCH  17  20
ENDBRANCH   1  12
BRANCH   6  22
ATOM     22  O   UNL     1      26.843 -13.421  -5.510  1.00  0.00    -0.507 OA
ATOM     23  H   UNL     1      26.154 -13.591  -6.232  1.00  0.00     0.293 HD
ENDBRANCH   6  22
BRANCH   8  24
ATOM     24  O   UNL     1      30.750 -11.000  -4.037  1.00  0.00    -0.508 OA
ATOM     25  H   UNL     1      30.313 -10.267  -3.489  1.00  0.00     0.293 HD
ENDBRANCH   8  24
TORSDOF 5
ENDMDL
MODEL 4
REMARK VINA RESULT:    -6.184     14.849     17.088
REMARK INTER + INTRA:          -7.544
REMARK INTER:                  -7.258
REMARK INTRA:                  -0.287
REMARK UNBOUND:                -0.276
REMARK SMILES O=c1cc(-c2ccc(O)c(O)c2)oc2cc(O)cc(O)c12
REMARK SMILES IDX 4 1 3 2 2 3 1 4 21 5 19 6 18 7 16 8 15 9 14 10 13 11 5 12
REMARK SMILES IDX 6 13 7 14 8 15 12 16 10 17 9 18 11 20 20 22 17 24
REMARK H PARENT 9 19 11 21 20 23 17 25
REMARK Flexibility Score: inf
ROOT
ATOM      1  C   UNL     1      30.557 -12.299  -8.718  1.00  0.00     0.138 A 
ATOM      2  C   UNL     1      30.005 -13.589  -8.793  1.00  0.00     0.100 A 
ATOM      3  C   UNL     1      30.102 -14.309  -9.985  1.00  0.00     0.197 A 
ATOM      4  O   UNL     1      29.605 -15.465 -10.042  1.00  0.00    -0.289 OA
ATOM      5  C   UNL     1      30.756 -13.735 -11.093  1.00  0.00     0.107 A 
ATOM      6  C   UNL     1      30.899 -14.396 -12.336  1.00  0.00     0.134 A 
ATOM      7  C   UNL     1      31.569 -13.756 -13.390  1.00  0.00     0.093 A 
ATOM      8  C   UNL     1      32.099 -12.475 -13.224  1.00  0.00     0.123 A 
ATOM      9  C   UNL     1      31.962 -11.817 -11.997  1.00  0.00     0.094 A 
ATOM     10  C   UNL     1      31.296 -12.436 -10.935  1.00  0.00     0.146 A 
ATOM     11  O   UNL     1      31.177 -11.790  -9.779  1.00  0.00    -0.456 OA
ENDROOT
BRANCH   1  12
ATOM     12  C   UNL     1      30.483 -11.487  -7.476  1.00  0.00     0.021 A 
ATOM     13  C   UNL     1      30.492 -10.082  -7.510  1.00  0.00     0.016 A 
ATOM     14  C   UNL     1      30.432  -9.345  -6.326  1.00  0.00     0.051 A 
ATOM     15  C   UNL     1      30.370  -9.989  -5.086  1.00  0.00     0.157 A 
ATOM     16  C   UNL     1      30.435 -12.134  -6.230  1.00  0.00     0.062 A 
ATOM     17  C   UNL     1      30.374 -11.403  -5.037  1.00  0.00     0.158 A 
BRANCH  15  18
ATOM     18  O   UNL     1      30.309  -9.193  -3.940  1.00  0.00    -0.504 OA
ATOM     19  H   UNL     1      30.130  -9.551  -3.013  1.00  0.00     0.293 HD
ENDBRANCH  15  18
BRANCH  17  20
ATOM     20  O   UNL     1      30.320 -12.115  -3.837  1.00  0.00    -0.504 OA
ATOM     21  H   UNL     1      29.474 -12.270  -3.309  1.00  0.00     0.293 HD
ENDBRANCH  17  20
ENDBRANCH   1  12
BRANCH   6  22
ATOM     22  O   UNL     1      30.380 -15.677 -12.532  1.00  0.00    -0.507 OA
ATOM     23  H   UNL     1      30.955 -16.438 -12.872  1.00  0.00     0.293 HD
ENDBRANCH   6  22
BRANCH   8  24
ATOM     24  O   UNL     1      32.761 -11.864 -14.287  1.00  0.00    -0.508 OA
ATOM     25  H   UNL     1      32.276 -11.615 -15.141  1.00  0.00     0.293 HD
ENDBRANCH   8  24
TORSDOF 5
ENDMDL
MODEL 5
REMARK VINA RESULT:    -6.032      2.861      6.735
REMARK INTER + INTRA:          -7.366
REMARK INTER:                  -7.072
REMARK INTRA:                  -0.294
REMARK UNBOUND:                -0.276
REMARK SMILES O=c1cc(-c2ccc(O)c(O)c2)oc2cc(O)cc(O)c12
REMARK SMILES IDX 4 1 3 2 2 3 1 4 21 5 19 6 18 7 16 8 15 9 14 10 13 11 5 12
REMARK SMILES IDX 6 13 7 14 8 15 12 16 10 17 9 18 11 20 20 22 17 24
REMARK H PARENT 9 19 11 21 20 23 17 25
REMARK Flexibility Score: inf
ROOT
ATOM      1  C   UNL     1      40.484  -0.407 -15.425  1.00  0.00     0.138 A 
ATOM      2  C   UNL     1      40.995   0.666 -14.674  1.00  0.00     0.100 A 
ATOM      3  C   UNL     1      40.625   0.806 -13.336  1.00  0.00     0.197 A 
ATOM      4  O   UNL     1      41.089   1.770 -12.671  1.00  0.00    -0.289 OA
ATOM      5  C   UNL     1      39.748  -0.132 -12.755  1.00  0.00     0.107 A 
ATOM      6  C   UNL     1      39.323  -0.063 -11.407  1.00  0.00     0.134 A 
ATOM      7  C   UNL     1      38.452  -1.041 -10.903  1.00  0.00     0.093 A 
ATOM      8  C   UNL     1      38.000  -2.082 -11.717  1.00  0.00     0.123 A 
ATOM      9  C   UNL     1      38.418  -2.155 -13.050  1.00  0.00     0.094 A 
ATOM     10  C   UNL     1      39.284  -1.190 -13.573  1.00  0.00     0.146 A 
ATOM     11  O   UNL     1      39.666  -1.281 -14.843  1.00  0.00    -0.456 OA
ENDROOT
BRANCH   1  12
ATOM     12  C   UNL     1      40.843  -0.606 -16.852  1.00  0.00     0.021 A 
ATOM     13  C   UNL     1      40.519  -1.789 -17.538  1.00  0.00     0.016 A 
ATOM     14  C   UNL     1      40.879  -1.952 -18.877  1.00  0.00     0.051 A 
ATOM     15  C   UNL     1      41.573  -0.948 -19.558  1.00  0.00     0.157 A 
ATOM     16  C   UNL     1      41.553   0.398 -17.532  1.00  0.00     0.062 A 
ATOM     17  C   UNL     1      41.918   0.243 -18.875  1.00  0.00     0.158 A 
BRANCH  15  18
ATOM     18  O   UNL     1      41.901  -1.172 -20.897  1.00  0.00    -0.504 OA
ATOM     19  H   UNL     1      41.788  -0.486 -21.629  1.00  0.00     0.293 HD
ENDBRANCH  15  18
BRANCH  17  20
ATOM     20  O   UNL     1      42.615   1.287 -19.487  1.00  0.00    -0.504 OA
ATOM     21  H   UNL     1      42.647   2.231 -19.130  1.00  0.00     0.293 HD
ENDBRANCH  17  20
ENDBRANCH   1  12
BRANCH   6  22
ATOM     22  O   UNL     1      39.757   0.965 -10.569  1.00  0.00    -0.507 OA
ATOM     23  H   UNL     1      39.485   1.929 -10.724  1.00  0.00     0.293 HD
ENDBRANCH   6  22
BRANCH   8  24
ATOM     24  O   UNL     1      37.136  -3.039 -11.190  1.00  0.00    -0.508 OA
ATOM     25  H   UNL     1      36.820  -3.828 -11.742  1.00  0.00     0.293 HD
ENDBRANCH   8  24
TORSDOF 5
ENDMDL
MODEL 6
REMARK VINA RESULT:    -5.959     15.920     18.421
REMARK INTER + INTRA:          -7.280
REMARK INTER:                  -6.985
REMARK INTRA:                  -0.295
REMARK UNBOUND:                -0.276
REMARK SMILES O=c1cc(-c2ccc(O)c(O)c2)oc2cc(O)cc(O)c12
REMARK SMILES IDX 4 1 3 2 2 3 1 4 21 5 19 6 18 7 16 8 15 9 14 10 13 11 5 12
REMARK SMILES IDX 6 13 7 14 8 15 12 16 10 17 9 18 11 20 20 22 17 24
REMARK H PARENT 9 19 11 21 20 23 17 25
REMARK Flexibility Score: inf
ROOT
ATOM      1  C   UNL     1      30.451 -11.690  -8.224  1.00  0.00     0.138 A 
ATOM      2  C   UNL     1      30.706 -10.312  -8.324  1.00  0.00     0.100 A 
ATOM      3  C   UNL     1      30.688  -9.525  -7.172  1.00  0.00     0.197 A 
ATOM      4  O   UNL     1      30.919  -8.290  -7.272  1.00  0.00    -0.289 OA
ATOM      5  C   UNL     1      30.419 -10.123  -5.925  1.00  0.00     0.107 A 
ATOM      6  C   UNL     1      30.382  -9.398  -4.710  1.00  0.00     0.134 A 
ATOM      7  C   UNL     1      30.111 -10.070  -3.508  1.00  0.00     0.093 A 
ATOM      8  C   UNL     1      29.880 -11.447  -3.498  1.00  0.00     0.123 A 
ATOM      9  C   UNL     1      29.916 -12.169  -4.696  1.00  0.00     0.094 A 
ATOM     10  C   UNL     1      30.182 -11.518  -5.904  1.00  0.00     0.146 A 
ATOM     11  O   UNL     1      30.210 -12.225  -7.029  1.00  0.00    -0.456 OA
ENDROOT
BRANCH   1  12
ATOM     12  C   UNL     1      30.457 -12.576  -9.415  1.00  0.00     0.021 A 
ATOM     13  C   UNL     1      30.337 -13.972  -9.299  1.00  0.00     0.016 A 
ATOM     14  C   UNL     1      30.356 -14.781 -10.437  1.00  0.00     0.051 A 
ATOM     15  C   UNL     1      30.503 -14.221 -11.710  1.00  0.00     0.157 A 
ATOM     16  C   UNL     1      30.619 -12.015 -10.693  1.00  0.00     0.062 A 
ATOM     17  C   UNL     1      30.639 -12.819 -11.840  1.00  0.00     0.158 A 
BRANCH  15  18
ATOM     18  O   UNL     1      30.512 -15.086 -12.807  1.00  0.00    -0.504 OA
ATOM     19  H   UNL     1      30.887 -16.023 -12.784  1.00  0.00     0.293 HD
ENDBRANCH  15  18
BRANCH  17  20
ATOM     20  O   UNL     1      30.795 -12.189 -13.076  1.00  0.00    -0.504 OA
ATOM     21  H   UNL     1      30.284 -11.365 -13.359  1.00  0.00     0.293 HD
ENDBRANCH  17  20
ENDBRANCH   1  12
BRANCH   6  22
ATOM     22  O   UNL     1      30.608  -8.021  -4.689  1.00  0.00    -0.507 OA
ATOM     23  H   UNL     1      31.543  -7.634  -4.735  1.00  0.00     0.293 HD
ENDBRANCH   6  22
BRANCH   8  24
ATOM     24  O   UNL     1      29.615 -12.089  -2.290  1.00  0.00    -0.508 OA
ATOM     25  H   UNL     1      28.774 -12.638  -2.155  1.00  0.00     0.293 HD
ENDBRANCH   8  24
TORSDOF 5
ENDMDL
MODEL 7
REMARK VINA RESULT:    -5.939      3.036      4.052
REMARK INTER + INTRA:          -7.257
REMARK INTER:                  -6.945
REMARK INTRA:                  -0.312
REMARK UNBOUND:                -0.276
REMARK SMILES O=c1cc(-c2ccc(O)c(O)c2)oc2cc(O)cc(O)c12
REMARK SMILES IDX 4 1 3 2 2 3 1 4 21 5 19 6 18 7 16 8 15 9 14 10 13 11 5 12
REMARK SMILES IDX 6 13 7 14 8 15 12 16 10 17 9 18 11 20 20 22 17 24
REMARK H PARENT 9 19 11 21 20 23 17 25
REMARK Flexibility Score: inf
ROOT
ATOM      1  C   UNL     1      39.567  -0.562 -13.607  1.00  0.00     0.138 A 
ATOM      2  C   UNL     1      40.369   0.586 -13.498  1.00  0.00     0.100 A 
ATOM      3  C   UNL     1      41.150   0.983 -14.585  1.00  0.00     0.197 A 
ATOM      4  O   UNL     1      41.866   2.015 -14.478  1.00  0.00    -0.289 OA
ATOM      5  C   UNL     1      41.119   0.230 -15.775  1.00  0.00     0.107 A 
ATOM      6  C   UNL     1      41.879   0.563 -16.921  1.00  0.00     0.134 A 
ATOM      7  C   UNL     1      41.788  -0.236 -18.071  1.00  0.00     0.093 A 
ATOM      8  C   UNL     1      40.955  -1.356 -18.097  1.00  0.00     0.123 A 
ATOM      9  C   UNL     1      40.200  -1.689 -16.966  1.00  0.00     0.094 A 
ATOM     10  C   UNL     1      40.278  -0.908 -15.810  1.00  0.00     0.146 A 
ATOM     11  O   UNL     1      39.552  -1.245 -14.749  1.00  0.00    -0.456 OA
ENDROOT
BRANCH   1  12
ATOM     12  C   UNL     1      38.715  -1.032 -12.484  1.00  0.00     0.021 A 
ATOM     13  C   UNL     1      38.323  -0.171 -11.444  1.00  0.00     0.016 A 
ATOM     14  C   UNL     1      37.530  -0.643 -10.396  1.00  0.00     0.051 A 
ATOM     15  C   UNL     1      37.119  -1.979 -10.356  1.00  0.00     0.157 A 
ATOM     16  C   UNL     1      38.314  -2.377 -12.437  1.00  0.00     0.062 A 
ATOM     17  C   UNL     1      37.518  -2.859 -11.390  1.00  0.00     0.158 A 
BRANCH  15  18
ATOM     18  O   UNL     1      36.325  -2.386  -9.282  1.00  0.00    -0.504 OA
ATOM     19  H   UNL     1      35.319  -2.304  -9.260  1.00  0.00     0.293 HD
ENDBRANCH  15  18
BRANCH  17  20
ATOM     20  O   UNL     1      37.152  -4.206 -11.415  1.00  0.00    -0.504 OA
ATOM     21  H   UNL     1      36.331  -4.560 -11.885  1.00  0.00     0.293 HD
ENDBRANCH  17  20
ENDBRANCH   1  12
BRANCH   6  22
ATOM     22  O   UNL     1      42.722   1.676 -16.926  1.00  0.00    -0.507 OA
ATOM     23  H   UNL     1      43.596   1.685 -16.414  1.00  0.00     0.293 HD
ENDBRANCH   6  22
BRANCH   8  24
ATOM     24  O   UNL     1      40.882  -2.132 -19.252  1.00  0.00    -0.508 OA
ATOM     25  H   UNL     1      40.980  -3.140 -19.220  1.00  0.00     0.293 HD
ENDBRANCH   8  24
TORSDOF 5
ENDMDL
MODEL 8
REMARK VINA RESULT:    -5.937      1.859      2.743
REMARK INTER + INTRA:          -7.255
REMARK INTER:                  -6.945
REMARK INTRA:                  -0.309
REMARK UNBOUND:                -0.276
REMARK SMILES O=c1cc(-c2ccc(O)c(O)c2)oc2cc(O)cc(O)c12
REMARK SMILES IDX 4 1 3 2 2 3 1 4 21 5 19 6 18 7 16 8 15 9 14 10 13 11 5 12
REMARK SMILES IDX 6 13 7 14 8 15 12 16 10 17 9 18 11 20 20 22 17 24
REMARK H PARENT 9 19 11 21 20 23 17 25
REMARK Flexibility Score: inf
ROOT
ATOM      1  C   UNL     1      40.837  -0.566 -16.332  1.00  0.00     0.138 A 
ATOM      2  C   UNL     1      40.959   0.339 -17.400  1.00  0.00     0.100 A 
ATOM      3  C   UNL     1      41.973   0.158 -18.342  1.00  0.00     0.197 A 
ATOM      4  O   UNL     1      42.074   0.975 -19.296  1.00  0.00    -0.289 OA
ATOM      5  C   UNL     1      42.858  -0.931 -18.210  1.00  0.00     0.107 A 
ATOM      6  C   UNL     1      43.912  -1.186 -19.119  1.00  0.00     0.134 A 
ATOM      7  C   UNL     1      44.746  -2.297 -18.920  1.00  0.00     0.093 A 
ATOM      8  C   UNL     1      44.547  -3.154 -17.835  1.00  0.00     0.123 A 
ATOM      9  C   UNL     1      43.505  -2.906 -16.935  1.00  0.00     0.094 A 
ATOM     10  C   UNL     1      42.664  -1.805 -17.113  1.00  0.00     0.146 A 
ATOM     11  O   UNL     1      41.682  -1.590 -16.243  1.00  0.00    -0.456 OA
ENDROOT
BRANCH   1  12
ATOM     12  C   UNL     1      39.777  -0.423 -15.302  1.00  0.00     0.021 A 
ATOM     13  C   UNL     1      39.234   0.830 -14.968  1.00  0.00     0.016 A 
ATOM     14  C   UNL     1      38.245   0.934 -13.988  1.00  0.00     0.051 A 
ATOM     15  C   UNL     1      37.782  -0.201 -13.316  1.00  0.00     0.157 A 
ATOM     16  C   UNL     1      39.322  -1.562 -14.617  1.00  0.00     0.062 A 
ATOM     17  C   UNL     1      38.330  -1.467 -13.633  1.00  0.00     0.158 A 
BRANCH  15  18
ATOM     18  O   UNL     1      36.790  -0.028 -12.349  1.00  0.00    -0.504 OA
ATOM     19  H   UNL     1      36.856  -0.375 -11.403  1.00  0.00     0.293 HD
ENDBRANCH  15  18
BRANCH  17  20
ATOM     20  O   UNL     1      37.923  -2.643 -13.001  1.00  0.00    -0.504 OA
ATOM     21  H   UNL     1      37.137  -2.703 -12.369  1.00  0.00     0.293 HD
ENDBRANCH  17  20
ENDBRANCH   1  12
BRANCH   6  22
ATOM     22  O   UNL     1      44.137  -0.347 -20.212  1.00  0.00    -0.507 OA
ATOM     23  H   UNL     1      44.950  -0.454 -20.806  1.00  0.00     0.293 HD
ENDBRANCH   6  22
BRANCH   8  24
ATOM     24  O   UNL     1      45.389  -4.250 -17.663  1.00  0.00    -0.508 OA
ATOM     25  H   UNL     1      45.161  -5.159 -18.048  1.00  0.00     0.293 HD
ENDBRANCH   8  24
TORSDOF 5
ENDMDL
MODEL 9
REMARK VINA RESULT:    -5.825      1.501      2.988
REMARK INTER + INTRA:          -7.123
REMARK INTER:                  -6.839
REMARK INTRA:                  -0.284
REMARK UNBOUND:                -0.276
REMARK SMILES O=c1cc(-c2ccc(O)c(O)c2)oc2cc(O)cc(O)c12
REMARK SMILES IDX 4 1 3 2 2 3 1 4 21 5 19 6 18 7 16 8 15 9 14 10 13 11 5 12
REMARK SMILES IDX 6 13 7 14 8 15 12 16 10 17 9 18 11 20 20 22 17 24
REMARK H PARENT 9 19 11 21 20 23 17 25
REMARK Flexibility Score: inf
ROOT
ATOM      1  C   UNL     1      40.206  -1.118 -15.431  1.00  0.00     0.138 A 
ATOM      2  C   UNL     1      39.845  -1.335 -16.772  1.00  0.00     0.100 A 
ATOM      3  C   UNL     1      40.832  -1.654 -17.706  1.00  0.00     0.197 A 
ATOM      4  O   UNL     1      40.498  -1.847 -18.905  1.00  0.00    -0.289 OA
ATOM      5  C   UNL     1      42.175  -1.756 -17.291  1.00  0.00     0.107 A 
ATOM      6  C   UNL     1      43.235  -2.074 -18.173  1.00  0.00     0.134 A 
ATOM      7  C   UNL     1      44.546  -2.163 -17.679  1.00  0.00     0.093 A 
ATOM      8  C   UNL     1      44.815  -1.942 -16.326  1.00  0.00     0.123 A 
ATOM      9  C   UNL     1      43.770  -1.629 -15.450  1.00  0.00     0.094 A 
ATOM     10  C   UNL     1      42.458  -1.533 -15.922  1.00  0.00     0.146 A 
ATOM     11  O   UNL     1      41.482  -1.233 -15.070  1.00  0.00    -0.456 OA
ENDROOT
BRANCH   1  12
ATOM     12  C   UNL     1      39.199  -0.777 -14.394  1.00  0.00     0.021 A 
ATOM     13  C   UNL     1      39.328  -1.218 -13.066  1.00  0.00     0.016 A 
ATOM     14  C   UNL     1      38.360  -0.890 -12.114  1.00  0.00     0.051 A 
ATOM     15  C   UNL     1      37.242  -0.127 -12.465  1.00  0.00     0.157 A 
ATOM     16  C   UNL     1      38.069  -0.022 -14.750  1.00  0.00     0.062 A 
ATOM     17  C   UNL     1      37.093   0.311 -13.802  1.00  0.00     0.158 A 
BRANCH  15  18
ATOM     18  O   UNL     1      36.312   0.168 -11.466  1.00  0.00    -0.504 OA
ATOM     19  H   UNL     1      36.390   0.953 -10.835  1.00  0.00     0.293 HD
ENDBRANCH  15  18
BRANCH  17  20
ATOM     20  O   UNL     1      36.002   1.072 -14.229  1.00  0.00    -0.504 OA
ATOM     21  H   UNL     1      36.046   1.758 -14.969  1.00  0.00     0.293 HD
ENDBRANCH  17  20
ENDBRANCH   1  12
BRANCH   6  22
ATOM     22  O   UNL     1      42.998  -2.299 -19.529  1.00  0.00    -0.507 OA
ATOM     23  H   UNL     1      43.156  -1.580 -20.224  1.00  0.00     0.293 HD
ENDBRANCH   6  22
BRANCH   8  24
ATOM     24  O   UNL     1      46.125  -2.038 -15.863  1.00  0.00    -0.508 OA
ATOM     25  H   UNL     1      46.358  -1.857 -14.894  1.00  0.00     0.293 HD
ENDBRANCH   8  24
TORSDOF 5
ENDMDL
