MODEL 1
REMARK VINA RESULT:    -3.569      0.000      0.000
REMARK INTER + INTRA:          -3.673
REMARK INTER:                  -3.673
REMARK INTRA:                   0.000
REMARK UNBOUND:                 0.000
REMARK SMILES Oc1ccc2[nH]ccc2c1
REMARK SMILES IDX 3 1 4 2 5 3 9 4 8 5 7 6 6 7 10 8 2 9 1 11
REMARK H PARENT 6 10 1 12
REMARK Flexibility Score: inf
ROOT
ATOM      1  C   UNL     1     115.380 118.948 121.639  1.00  0.00     0.048 A 
ATOM      2  C   UNL     1     116.173 117.897 121.139  1.00  0.00     0.030 A 
ATOM      3  C   UNL     1     117.504 118.175 120.834  1.00  0.00     0.046 A 
ATOM      4  C   UNL     1     118.037 119.425 121.009  1.00  0.00     0.003 A 
ATOM      5  C   UNL     1     119.357 119.368 120.619  1.00  0.00     0.028 A 
ATOM      6  C   UNL     1     119.560 118.051 120.216  1.00  0.00     0.083 A 
ATOM      7  N   UNL     1     118.426 117.327 120.349  1.00  0.00    -0.361 N 
ATOM      8  C   UNL     1     117.280 120.486 121.501  1.00  0.00     0.056 A 
ATOM      9  C   UNL     1     115.928 120.240 121.821  1.00  0.00     0.116 A 
ATOM     10  H   UNL     1     118.296 116.316 120.122  1.00  0.00     0.166 HD
ENDROOT
BRANCH   9  11
ATOM     11  O   UNL     1     115.122 121.261 122.317  1.00  0.00    -0.508 OA
ATOM     12  H   UNL     1     114.768 121.240 123.267  1.00  0.00     0.293 HD
ENDBRANCH   9  11
TORSDOF 1
ENDMDL
MODEL 2
REMARK VINA RESULT:    -3.455      9.468     11.020
REMARK INTER + INTRA:          -3.556
REMARK INTER:                  -3.556
REMARK INTRA:                   0.000
REMARK UNBOUND:                 0.000
REMARK SMILES Oc1ccc2[nH]ccc2c1
REMARK SMILES IDX 3 1 4 2 5 3 9 4 8 5 7 6 6 7 10 8 2 9 1 11
REMARK H PARENT 6 10 1 12
REMARK Flexibility Score: inf
ROOT
ATOM      1  C   UNL     1     128.076 124.366 121.767  1.00  0.00     0.048 A 
ATOM      2  C   UNL     1     127.355 125.464 121.260  1.00  0.00     0.030 A 
ATOM      3  C   UNL     1     126.046 125.243 120.836  1.00  0.00     0.046 A 
ATOM      4  C   UNL     1     125.466 124.004 120.904  1.00  0.00     0.003 A 
ATOM      5  C   UNL     1     124.184 124.121 120.414  1.00  0.00     0.028 A 
ATOM      6  C   UNL     1     124.050 125.462 120.065  1.00  0.00     0.083 A 
ATOM      7  N   UNL     1     125.190 126.143 120.325  1.00  0.00    -0.361 N 
ATOM      8  C   UNL     1     126.151 122.897 121.399  1.00  0.00     0.056 A 
ATOM      9  C   UNL     1     127.479 123.084 121.837  1.00  0.00     0.116 A 
ATOM     10  H   UNL     1     125.365 127.159 120.161  1.00  0.00     0.166 HD
ENDROOT
BRANCH   9  11
ATOM     11  O   UNL     1     128.214 122.015 122.343  1.00  0.00    -0.508 OA
ATOM     12  H   UNL     1     129.174 122.131 122.648  1.00  0.00     0.293 HD
ENDBRANCH   9  11
TORSDOF 1
ENDMDL
MODEL 3
REMARK VINA RESULT:    -3.428      6.585      7.680
REMARK INTER + INTRA:          -3.528
REMARK INTER:                  -3.528
REMARK INTRA:                   0.000
REMARK UNBOUND:                 0.000
REMARK SMILES Oc1ccc2[nH]ccc2c1
REMARK SMILES IDX 3 1 4 2 5 3 9 4 8 5 7 6 6 7 10 8 2 9 1 11
REMARK H PARENT 6 10 1 12
REMARK Flexibility Score: inf
ROOT
ATOM      1  C   UNL     1     124.334 115.302 121.682  1.00  0.00     0.048 A 
ATOM      2  C   UNL     1     125.407 116.062 121.180  1.00  0.00     0.030 A 
ATOM      3  C   UNL     1     125.156 117.387 120.827  1.00  0.00     0.046 A 
ATOM      4  C   UNL     1     123.911 117.944 120.958  1.00  0.00     0.003 A 
ATOM      5  C   UNL     1     123.997 119.251 120.529  1.00  0.00     0.028 A 
ATOM      6  C   UNL     1     125.325 119.421 120.148  1.00  0.00     0.083 A 
ATOM      7  N   UNL     1     126.028 118.280 120.332  1.00  0.00    -0.361 N 
ATOM      8  C   UNL     1     122.829 117.220 121.451  1.00  0.00     0.056 A 
ATOM      9  C   UNL     1     123.047 115.875 121.818  1.00  0.00     0.116 A 
ATOM     10  H   UNL     1     127.042 118.129 120.131  1.00  0.00     0.166 HD
ENDROOT
BRANCH   9  11
ATOM     11  O   UNL     1     122.003 115.101 122.318  1.00  0.00    -0.508 OA
ATOM     12  H   UNL     1     121.210 115.523 122.788  1.00  0.00     0.293 HD
ENDBRANCH   9  11
TORSDOF 1
ENDMDL
MODEL 4
REMARK VINA RESULT:    -3.412      6.641      7.728
REMARK INTER + INTRA:          -3.511
REMARK INTER:                  -3.511
REMARK INTRA:                   0.000
REMARK UNBOUND:                 0.000
REMARK SMILES Oc1ccc2[nH]ccc2c1
REMARK SMILES IDX 3 1 4 2 5 3 9 4 8 5 7 6 6 7 10 8 2 9 1 11
REMARK H PARENT 6 10 1 12
REMARK Flexibility Score: inf
ROOT
ATOM      1  C   UNL     1     118.991 127.978 121.687  1.00  0.00     0.048 A 
ATOM      2  C   UNL     1     117.939 127.181 121.198  1.00  0.00     0.030 A 
ATOM      3  C   UNL     1     118.227 125.860 120.858  1.00  0.00     0.046 A 
ATOM      4  C   UNL     1     119.488 125.342 120.988  1.00  0.00     0.003 A 
ATOM      5  C   UNL     1     119.439 124.029 120.572  1.00  0.00     0.028 A 
ATOM      6  C   UNL     1     118.115 123.815 120.200  1.00  0.00     0.083 A 
ATOM      7  N   UNL     1     117.379 124.936 120.377  1.00  0.00    -0.361 N 
ATOM      8  C   UNL     1     120.551 126.104 121.467  1.00  0.00     0.056 A 
ATOM      9  C   UNL     1     120.295 127.445 121.822  1.00  0.00     0.116 A 
ATOM     10  H   UNL     1     116.360 125.056 120.180  1.00  0.00     0.166 HD
ENDROOT
BRANCH   9  11
ATOM     11  O   UNL     1     121.317 128.255 122.308  1.00  0.00    -0.508 OA
ATOM     12  H   UNL     1     121.149 129.221 122.567  1.00  0.00     0.293 HD
ENDBRANCH   9  11
TORSDOF 1
ENDMDL
MODEL 5
REMARK VINA RESULT:    -3.273      9.587     10.810
REMARK INTER + INTRA:          -3.368
REMARK INTER:                  -3.368
REMARK INTRA:                   0.000
REMARK UNBOUND:                 0.000
REMARK SMILES Oc1ccc2[nH]ccc2c1
REMARK SMILES IDX 3 1 4 2 5 3 9 4 8 5 7 6 6 7 10 8 2 9 1 11
REMARK H PARENT 6 10 1 12
REMARK Flexibility Score: inf
ROOT
ATOM      1  C   UNL     1     117.493 127.606 121.953  1.00  0.00     0.048 A 
ATOM      2  C   UNL     1     117.953 128.720 122.681  1.00  0.00     0.030 A 
ATOM      3  C   UNL     1     118.005 129.949 122.026  1.00  0.00     0.046 A 
ATOM      4  C   UNL     1     117.624 130.084 120.717  1.00  0.00     0.003 A 
ATOM      5  C   UNL     1     117.792 131.408 120.373  1.00  0.00     0.028 A 
ATOM      6  C   UNL     1     118.281 132.022 121.523  1.00  0.00     0.083 A 
ATOM      7  N   UNL     1     118.409 131.127 122.529  1.00  0.00    -0.361 N 
ATOM      8  C   UNL     1     117.164 129.003 119.968  1.00  0.00     0.056 A 
ATOM      9  C   UNL     1     117.099 127.743 120.601  1.00  0.00     0.116 A 
ATOM     10  H   UNL     1     118.751 131.316 123.497  1.00  0.00     0.166 HD
ENDROOT
BRANCH   9  11
ATOM     11  O   UNL     1     116.646 126.626 119.904  1.00  0.00    -0.508 OA
ATOM     12  H   UNL     1     115.677 126.331 119.950  1.00  0.00     0.293 HD
ENDBRANCH   9  11
TORSDOF 1
ENDMDL
MODEL 6
REMARK VINA RESULT:    -3.226      9.021      9.879
REMARK INTER + INTRA:          -3.320
REMARK INTER:                  -3.320
REMARK INTRA:                   0.000
REMARK UNBOUND:                 0.000
REMARK SMILES Oc1ccc2[nH]ccc2c1
REMARK SMILES IDX 3 1 4 2 5 3 9 4 8 5 7 6 6 7 10 8 2 9 1 11
REMARK H PARENT 6 10 1 12
REMARK Flexibility Score: inf
ROOT
ATOM      1  C   UNL     1     117.987 128.746 122.639  1.00  0.00     0.048 A 
ATOM      2  C   UNL     1     117.498 127.597 121.989  1.00  0.00     0.030 A 
ATOM      3  C   UNL     1     117.078 127.728 120.666  1.00  0.00     0.046 A 
ATOM      4  C   UNL     1     117.132 128.928 120.009  1.00  0.00     0.003 A 
ATOM      5  C   UNL     1     116.650 128.721 118.734  1.00  0.00     0.028 A 
ATOM      6  C   UNL     1     116.319 127.370 118.686  1.00  0.00     0.083 A 
ATOM      7  N   UNL     1     116.582 126.768 119.868  1.00  0.00    -0.361 N 
ATOM      8  C   UNL     1     117.610 130.083 120.623  1.00  0.00     0.056 A 
ATOM      9  C   UNL     1     118.044 129.987 121.962  1.00  0.00     0.116 A 
ATOM     10  H   UNL     1     116.430 125.763 120.108  1.00  0.00     0.166 HD
ENDROOT
BRANCH   9  11
ATOM     11  O   UNL     1     118.533 131.108 122.628  1.00  0.00    -0.508 OA
ATOM     12  H   UNL     1     118.941 131.886 122.123  1.00  0.00     0.293 HD
ENDBRANCH   9  11
TORSDOF 1
ENDMDL
MODEL 7
REMARK VINA RESULT:    -3.204      9.670     10.192
REMARK INTER + INTRA:          -3.297
REMARK INTER:                  -3.297
REMARK INTRA:                   0.000
REMARK UNBOUND:                 0.000
REMARK SMILES Oc1ccc2[nH]ccc2c1
REMARK SMILES IDX 3 1 4 2 5 3 9 4 8 5 7 6 6 7 10 8 2 9 1 11
REMARK H PARENT 6 10 1 12
REMARK Flexibility Score: inf
ROOT
ATOM      1  C   UNL     1     125.350 114.544 122.672  1.00  0.00     0.048 A 
ATOM      2  C   UNL     1     125.820 115.701 122.022  1.00  0.00     0.030 A 
ATOM      3  C   UNL     1     126.215 115.583 120.690  1.00  0.00     0.046 A 
ATOM      4  C   UNL     1     126.153 114.388 120.023  1.00  0.00     0.003 A 
ATOM      5  C   UNL     1     126.609 114.607 118.742  1.00  0.00     0.028 A 
ATOM      6  C   UNL     1     126.933 115.961 118.698  1.00  0.00     0.083 A 
ATOM      7  N   UNL     1     126.690 116.552 119.890  1.00  0.00    -0.361 N 
ATOM      8  C   UNL     1     125.693 113.225 120.637  1.00  0.00     0.056 A 
ATOM      9  C   UNL     1     125.285 113.309 121.986  1.00  0.00     0.116 A 
ATOM     10  H   UNL     1     126.842 117.556 120.135  1.00  0.00     0.166 HD
ENDROOT
BRANCH   9  11
ATOM     11  O   UNL     1     124.816 112.180 122.652  1.00  0.00    -0.508 OA
ATOM     12  H   UNL     1     124.593 111.326 122.153  1.00  0.00     0.293 HD
ENDBRANCH   9  11
TORSDOF 1
ENDMDL
MODEL 8
REMARK VINA RESULT:    -3.131     12.443     13.743
REMARK INTER + INTRA:          -3.223
REMARK INTER:                  -3.223
REMARK INTRA:                   0.000
REMARK UNBOUND:                 0.000
REMARK SMILES Oc1ccc2[nH]ccc2c1
REMARK SMILES IDX 3 1 4 2 5 3 9 4 8 5 7 6 6 7 10 8 2 9 1 11
REMARK H PARENT 6 10 1 12
REMARK Flexibility Score: inf
ROOT
ATOM      1  C   UNL     1     127.286 125.771 121.342  1.00  0.00     0.048 A 
ATOM      2  C   UNL     1     128.338 125.173 122.061  1.00  0.00     0.030 A 
ATOM      3  C   UNL     1     129.628 125.291 121.546  1.00  0.00     0.046 A 
ATOM      4  C   UNL     1     129.878 125.962 120.378  1.00  0.00     0.003 A 
ATOM      5  C   UNL     1     131.235 125.895 120.148  1.00  0.00     0.028 A 
ATOM      6  C   UNL     1     131.750 125.167 121.217  1.00  0.00     0.083 A 
ATOM      7  N   UNL     1     130.764 124.800 122.067  1.00  0.00    -0.361 N 
ATOM      8  C   UNL     1     128.861 126.564 119.642  1.00  0.00     0.056 A 
ATOM      9  C   UNL     1     127.543 126.465 120.135  1.00  0.00     0.116 A 
ATOM     10  H   UNL     1     130.868 124.249 122.949  1.00  0.00     0.166 HD
ENDROOT
BRANCH   9  11
ATOM     11  O   UNL     1     126.484 127.047 119.444  1.00  0.00    -0.508 OA
ATOM     12  H   UNL     1     125.603 126.561 119.319  1.00  0.00     0.293 HD
ENDBRANCH   9  11
TORSDOF 1
ENDMDL
MODEL 9
REMARK VINA RESULT:    -3.123      1.546      2.887
REMARK INTER + INTRA:          -3.214
REMARK INTER:                  -3.214
REMARK INTRA:                   0.000
REMARK UNBOUND:                 0.000
REMARK SMILES Oc1ccc2[nH]ccc2c1
REMARK SMILES IDX 3 1 4 2 5 3 9 4 8 5 7 6 6 7 10 8 2 9 1 11
REMARK H PARENT 6 10 1 12
REMARK Flexibility Score: inf
ROOT
ATOM      1  C   UNL     1     118.167 121.277 120.667  1.00  0.00     0.048 A 
ATOM      2  C   UNL     1     118.356 119.898 120.877  1.00  0.00     0.030 A 
ATOM      3  C   UNL     1     117.223 119.109 121.073  1.00  0.00     0.046 A 
ATOM      4  C   UNL     1     115.963 119.645 121.065  1.00  0.00     0.003 A 
ATOM      5  C   UNL     1     115.076 118.613 121.285  1.00  0.00     0.028 A 
ATOM      6  C   UNL     1     115.867 117.476 121.419  1.00  0.00     0.083 A 
ATOM      7  N   UNL     1     117.178 117.784 121.289  1.00  0.00    -0.361 N 
ATOM      8  C   UNL     1     115.741 121.005 120.861  1.00  0.00     0.056 A 
ATOM      9  C   UNL     1     116.866 121.833 120.659  1.00  0.00     0.116 A 
ATOM     10  H   UNL     1     117.986 117.125 121.345  1.00  0.00     0.166 HD
ENDROOT
BRANCH   9  11
ATOM     11  O   UNL     1     116.707 123.200 120.448  1.00  0.00    -0.508 OA
ATOM     12  H   UNL     1     115.895 123.697 120.796  1.00  0.00     0.293 HD
ENDBRANCH   9  11
TORSDOF 1
ENDMDL
