MODEL 1
REMARK VINA RESULT:    -4.101      0.000      0.000
REMARK INTER + INTRA:          -6.780
REMARK INTER:                  -6.019
REMARK INTRA:                  -0.761
REMARK UNBOUND:                -0.761
REMARK SMILES CC(C)COC(=O)c1ccccc1C(=O)OCC(C)C
REMARK SMILES IDX 8 1 9 2 10 3 11 4 12 5 13 6 6 7 7 8 5 9 4 10 2 11 1 12 3 13
REMARK SMILES IDX 14 14 15 15 16 16 17 17 18 18 19 19 20 20
REMARK H PARENT
REMARK Flexibility Score: inf
ROOT
ATOM      1  C   UNL     1      27.923  25.534  28.302  1.00  0.00     0.074 A 
ATOM      2  C   UNL     1      29.068  25.472  29.119  1.00  0.00     0.016 A 
ATOM      3  C   UNL     1      29.064  24.727  30.297  1.00  0.00     0.001 A 
ATOM      4  C   UNL     1      27.920  24.030  30.679  1.00  0.00     0.001 A 
ATOM      5  C   UNL     1      26.766  24.096  29.894  1.00  0.00     0.016 A 
ATOM      6  C   UNL     1      26.742  24.860  28.712  1.00  0.00     0.074 A 
ENDROOT
BRANCH   1   7
ATOM      7  C   UNL     1      28.033  26.232  27.004  1.00  0.00     0.339 C 
ATOM      8  O   UNL     1      28.054  25.564  25.933  1.00  0.00    -0.246 OA
BRANCH   7   9
ATOM      9  O   UNL     1      28.049  27.631  26.963  1.00  0.00    -0.462 OA
BRANCH   9  10
ATOM     10  C   UNL     1      27.286  28.401  26.033  1.00  0.00     0.236 C 
BRANCH  10  11
ATOM     11  C   UNL     1      28.198  29.292  25.171  1.00  0.00     0.021 C 
ATOM     12  C   UNL     1      28.937  30.305  26.051  1.00  0.00     0.011 C 
ATOM     13  C   UNL     1      27.391  30.017  24.086  1.00  0.00     0.011 C 
ENDBRANCH  10  11
ENDBRANCH   9  10
ENDBRANCH   7   9
ENDBRANCH   1   7
BRANCH   6  14
ATOM     14  C   UNL     1      25.453  24.997  27.993  1.00  0.00     0.339 C 
ATOM     15  O   UNL     1      25.146  24.160  27.099  1.00  0.00    -0.246 OA
BRANCH  14  16
ATOM     16  O   UNL     1      24.550  26.004  28.357  1.00  0.00    -0.462 OA
BRANCH  16  17
ATOM     17  C   UNL     1      24.940  27.324  28.739  1.00  0.00     0.236 C 
BRANCH  17  18
ATOM     18  C   UNL     1      23.849  28.354  28.392  1.00  0.00     0.021 C 
ATOM     19  C   UNL     1      23.748  29.410  29.499  1.00  0.00     0.011 C 
ATOM     20  C   UNL     1      22.485  27.687  28.177  1.00  0.00     0.011 C 
ENDBRANCH  17  18
ENDBRANCH  16  17
ENDBRANCH  14  16
ENDBRANCH   6  14
TORSDOF 8
ENDMDL
MODEL 2
REMARK VINA RESULT:    -4.085      1.135      4.243
REMARK INTER + INTRA:          -6.757
REMARK INTER:                  -5.956
REMARK INTRA:                  -0.801
REMARK UNBOUND:                -0.761
REMARK SMILES CC(C)COC(=O)c1ccccc1C(=O)OCC(C)C
REMARK SMILES IDX 8 1 9 2 10 3 11 4 12 5 13 6 6 7 7 8 5 9 4 10 2 11 1 12 3 13
REMARK SMILES IDX 14 14 15 15 16 16 17 17 18 18 19 19 20 20
REMARK H PARENT
REMARK Flexibility Score: inf
ROOT
ATOM      1  C   UNL     1      26.672  25.478  28.815  1.00  0.00     0.074 A 
ATOM      2  C   UNL     1      26.825  24.992  30.128  1.00  0.00     0.016 A 
ATOM      3  C   UNL     1      28.042  24.461  30.553  1.00  0.00     0.001 A 
ATOM      4  C   UNL     1      29.125  24.407  29.678  1.00  0.00     0.001 A 
ATOM      5  C   UNL     1      28.988  24.863  28.366  1.00  0.00     0.016 A 
ATOM      6  C   UNL     1      27.762  25.383  27.909  1.00  0.00     0.074 A 
ENDROOT
BRANCH   1   7
ATOM      7  C   UNL     1      25.401  26.147  28.466  1.00  0.00     0.339 C 
ATOM      8  O   UNL     1      24.415  25.459  28.084  1.00  0.00    -0.246 OA
BRANCH   7   9
ATOM      9  O   UNL     1      25.277  27.533  28.623  1.00  0.00    -0.462 OA
BRANCH   9  10
ATOM     10  C   UNL     1      26.138  28.311  29.455  1.00  0.00     0.236 C 
BRANCH  10  11
ATOM     11  C   UNL     1      25.341  29.365  30.245  1.00  0.00     0.021 C 
ATOM     12  C   UNL     1      25.307  28.999  31.733  1.00  0.00     0.011 C 
ATOM     13  C   UNL     1      23.915  29.501  29.696  1.00  0.00     0.011 C 
ENDBRANCH  10  11
ENDBRANCH   9  10
ENDBRANCH   7   9
ENDBRANCH   1   7
BRANCH   6  14
ATOM     14  C   UNL     1      27.640  25.729  26.473  1.00  0.00     0.339 C 
ATOM     15  O   UNL     1      26.952  24.995  25.711  1.00  0.00    -0.246 OA
BRANCH  14  16
ATOM     16  O   UNL     1      28.223  26.905  25.982  1.00  0.00    -0.462 OA
BRANCH  16  17
ATOM     17  C   UNL     1      27.649  28.203  26.138  1.00  0.00     0.236 C 
BRANCH  17  18
ATOM     18  C   UNL     1      28.289  29.219  25.174  1.00  0.00     0.021 C 
ATOM     19  C   UNL     1      29.008  30.319  25.966  1.00  0.00     0.011 C 
ATOM     20  C   UNL     1      27.251  29.844  24.234  1.00  0.00     0.011 C 
ENDBRANCH  17  18
ENDBRANCH  16  17
ENDBRANCH  14  16
ENDBRANCH   6  14
TORSDOF 8
ENDMDL
MODEL 3
REMARK VINA RESULT:    -3.920      1.658      2.473
REMARK INTER + INTRA:          -6.515
REMARK INTER:                  -5.555
REMARK INTRA:                  -0.959
REMARK UNBOUND:                -0.761
REMARK SMILES CC(C)COC(=O)c1ccccc1C(=O)OCC(C)C
REMARK SMILES IDX 8 1 9 2 10 3 11 4 12 5 13 6 6 7 7 8 5 9 4 10 2 11 1 12 3 13
REMARK SMILES IDX 14 14 15 15 16 16 17 17 18 18 19 19 20 20
REMARK H PARENT
REMARK Flexibility Score: inf
ROOT
ATOM      1  C   UNL     1      28.082  25.513  27.372  1.00  0.00     0.074 A 
ATOM      2  C   UNL     1      28.961  25.206  26.316  1.00  0.00     0.016 A 
ATOM      3  C   UNL     1      28.493  24.588  25.157  1.00  0.00     0.001 A 
ATOM      4  C   UNL     1      27.144  24.268  25.031  1.00  0.00     0.001 A 
ATOM      5  C   UNL     1      26.259  24.544  26.076  1.00  0.00     0.016 A 
ATOM      6  C   UNL     1      26.714  25.148  27.264  1.00  0.00     0.074 A 
ENDROOT
BRANCH   1   7
ATOM      7  C   UNL     1      28.614  26.284  28.515  1.00  0.00     0.339 C 
ATOM      8  O   UNL     1      28.996  25.680  29.555  1.00  0.00    -0.246 OA
BRANCH   7   9
ATOM      9  O   UNL     1      28.751  27.674  28.416  1.00  0.00    -0.462 OA
BRANCH   9  10
ATOM     10  C   UNL     1      28.105  28.459  27.412  1.00  0.00     0.236 C 
BRANCH  10  11
ATOM     11  C   UNL     1      29.119  28.976  26.375  1.00  0.00     0.021 C 
ATOM     12  C   UNL     1      29.072  30.506  26.302  1.00  0.00     0.011 C 
ATOM     13  C   UNL     1      28.849  28.368  24.993  1.00  0.00     0.011 C 
ENDBRANCH  10  11
ENDBRANCH   9  10
ENDBRANCH   7   9
ENDBRANCH   1   7
BRANCH   6  14
ATOM     14  C   UNL     1      25.756  25.296  28.385  1.00  0.00     0.339 C 
ATOM     15  O   UNL     1      25.904  24.600  29.428  1.00  0.00    -0.246 OA
BRANCH  14  16
ATOM     16  O   UNL     1      24.738  26.256  28.317  1.00  0.00    -0.462 OA
BRANCH  16  17
ATOM     17  C   UNL     1      24.903  27.620  28.707  1.00  0.00     0.236 C 
BRANCH  17  18
ATOM     18  C   UNL     1      23.672  28.464  28.329  1.00  0.00     0.021 C 
ATOM     19  C   UNL     1      23.471  29.592  29.349  1.00  0.00     0.011 C 
ATOM     20  C   UNL     1      22.402  27.609  28.237  1.00  0.00     0.011 C 
ENDBRANCH  17  18
ENDBRANCH  16  17
ENDBRANCH  14  16
ENDBRANCH   6  14
TORSDOF 8
ENDMDL
MODEL 4
REMARK VINA RESULT:    -3.698      1.467      2.255
REMARK INTER + INTRA:          -6.189
REMARK INTER:                  -5.408
REMARK INTRA:                  -0.781
REMARK UNBOUND:                -0.761
REMARK SMILES CC(C)COC(=O)c1ccccc1C(=O)OCC(C)C
REMARK SMILES IDX 8 1 9 2 10 3 11 4 12 5 13 6 6 7 7 8 5 9 4 10 2 11 1 12 3 13
REMARK SMILES IDX 14 14 15 15 16 16 17 17 18 18 19 19 20 20
REMARK H PARENT
REMARK Flexibility Score: inf
ROOT
ATOM      1  C   UNL     1      27.913  26.708  28.763  1.00  0.00     0.074 A 
ATOM      2  C   UNL     1      28.751  25.595  28.964  1.00  0.00     0.016 A 
ATOM      3  C   UNL     1      28.248  24.415  29.512  1.00  0.00     0.001 A 
ATOM      4  C   UNL     1      26.904  24.326  29.866  1.00  0.00     0.001 A 
ATOM      5  C   UNL     1      26.061  25.426  29.695  1.00  0.00     0.016 A 
ATOM      6  C   UNL     1      26.552  26.634  29.163  1.00  0.00     0.074 A 
ENDROOT
BRANCH   1   7
ATOM      7  C   UNL     1      28.474  27.881  28.059  1.00  0.00     0.339 C 
ATOM      8  O   UNL     1      28.833  28.895  28.718  1.00  0.00    -0.246 OA
BRANCH   7   9
ATOM      9  O   UNL     1      28.664  27.837  26.672  1.00  0.00    -0.462 OA
BRANCH   9  10
ATOM     10  C   UNL     1      27.662  28.215  25.728  1.00  0.00     0.236 C 
BRANCH  10  11
ATOM     11  C   UNL     1      28.166  29.339  24.805  1.00  0.00     0.021 C 
ATOM     12  C   UNL     1      28.778  30.473  25.634  1.00  0.00     0.011 C 
ATOM     13  C   UNL     1      27.030  29.876  23.923  1.00  0.00     0.011 C 
ENDBRANCH  10  11
ENDBRANCH   9  10
ENDBRANCH   7   9
ENDBRANCH   1   7
BRANCH   6  14
ATOM     14  C   UNL     1      25.643  27.804  29.128  1.00  0.00     0.339 C 
ATOM     15  O   UNL     1      25.834  28.767  29.922  1.00  0.00    -0.246 OA
BRANCH  14  16
ATOM     16  O   UNL     1      24.626  27.873  28.168  1.00  0.00    -0.462 OA
BRANCH  16  17
ATOM     17  C   UNL     1      23.284  28.271  28.456  1.00  0.00     0.236 C 
BRANCH  17  18
ATOM     18  C   UNL     1      22.273  27.204  27.998  1.00  0.00     0.021 C 
ATOM     19  C   UNL     1      21.072  27.170  28.951  1.00  0.00     0.011 C 
ATOM     20  C   UNL     1      22.913  25.812  27.912  1.00  0.00     0.011 C 
ENDBRANCH  17  18
ENDBRANCH  16  17
ENDBRANCH  14  16
ENDBRANCH   6  14
TORSDOF 8
ENDMDL
MODEL 5
REMARK VINA RESULT:    -3.378      1.939      5.115
REMARK INTER + INTRA:          -5.719
REMARK INTER:                  -4.963
REMARK INTRA:                  -0.756
REMARK UNBOUND:                -0.761
REMARK SMILES CC(C)COC(=O)c1ccccc1C(=O)OCC(C)C
REMARK SMILES IDX 8 1 9 2 10 3 11 4 12 5 13 6 6 7 7 8 5 9 4 10 2 11 1 12 3 13
REMARK SMILES IDX 14 14 15 15 16 16 17 17 18 18 19 19 20 20
REMARK H PARENT
REMARK Flexibility Score: inf
ROOT
ATOM      1  C   UNL     1      24.528  26.183  28.382  1.00  0.00     0.074 A 
ATOM      2  C   UNL     1      23.241  25.691  28.096  1.00  0.00     0.016 A 
ATOM      3  C   UNL     1      22.159  26.560  27.964  1.00  0.00     0.001 A 
ATOM      4  C   UNL     1      22.343  27.932  28.112  1.00  0.00     0.001 A 
ATOM      5  C   UNL     1      23.607  28.440  28.417  1.00  0.00     0.016 A 
ATOM      6  C   UNL     1      24.710  27.579  28.577  1.00  0.00     0.074 A 
ENDROOT
BRANCH   1   7
ATOM      7  C   UNL     1      25.654  25.225  28.381  1.00  0.00     0.339 C 
ATOM      8  O   UNL     1      26.087  24.765  29.473  1.00  0.00    -0.246 OA
BRANCH   7   9
ATOM      9  O   UNL     1      26.193  24.784  27.166  1.00  0.00    -0.462 OA
BRANCH   9  10
ATOM     10  C   UNL     1      27.438  24.094  27.061  1.00  0.00     0.236 C 
BRANCH  10  11
ATOM     11  C   UNL     1      27.902  24.007  25.596  1.00  0.00     0.021 C 
ATOM     12  C   UNL     1      28.987  25.053  25.319  1.00  0.00     0.011 C 
ATOM     13  C   UNL     1      26.722  24.194  24.633  1.00  0.00     0.011 C 
ENDBRANCH  10  11
ENDBRANCH   9  10
ENDBRANCH   7   9
ENDBRANCH   1   7
BRANCH   6  14
ATOM     14  C   UNL     1      25.995  28.162  29.029  1.00  0.00     0.339 C 
ATOM     15  O   UNL     1      26.021  28.891  30.059  1.00  0.00    -0.246 OA
BRANCH  14  16
ATOM     16  O   UNL     1      27.184  27.844  28.359  1.00  0.00    -0.462 OA
BRANCH  16  17
ATOM     17  C   UNL     1      27.397  28.069  26.965  1.00  0.00     0.236 C 
BRANCH  17  18
ATOM     18  C   UNL     1      28.805  28.632  26.697  1.00  0.00     0.021 C 
ATOM     19  C   UNL     1      28.980  29.981  27.405  1.00  0.00     0.011 C 
ATOM     20  C   UNL     1      29.079  28.789  25.195  1.00  0.00     0.011 C 
ENDBRANCH  17  18
ENDBRANCH  16  17
ENDBRANCH  14  16
ENDBRANCH   6  14
TORSDOF 8
ENDMDL
MODEL 6
REMARK VINA RESULT:    -3.376      1.387      5.405
REMARK INTER + INTRA:          -5.717
REMARK INTER:                  -5.166
REMARK INTRA:                  -0.550
REMARK UNBOUND:                -0.761
REMARK SMILES CC(C)COC(=O)c1ccccc1C(=O)OCC(C)C
REMARK SMILES IDX 8 1 9 2 10 3 11 4 12 5 13 6 6 7 7 8 5 9 4 10 2 11 1 12 3 13
REMARK SMILES IDX 14 14 15 15 16 16 17 17 18 18 19 19 20 20
REMARK H PARENT
REMARK Flexibility Score: inf
ROOT
ATOM      1  C   UNL     1      24.569  26.195  28.390  1.00  0.00     0.074 A 
ATOM      2  C   UNL     1      23.287  25.705  28.080  1.00  0.00     0.016 A 
ATOM      3  C   UNL     1      22.205  26.574  27.948  1.00  0.00     0.001 A 
ATOM      4  C   UNL     1      22.384  27.944  28.121  1.00  0.00     0.001 A 
ATOM      5  C   UNL     1      23.643  28.449  28.451  1.00  0.00     0.016 A 
ATOM      6  C   UNL     1      24.745  27.588  28.611  1.00  0.00     0.074 A 
ENDROOT
BRANCH   1   7
ATOM      7  C   UNL     1      25.698  25.240  28.387  1.00  0.00     0.339 C 
ATOM      8  O   UNL     1      25.999  24.629  27.325  1.00  0.00    -0.246 OA
BRANCH   7   9
ATOM      9  O   UNL     1      26.467  25.067  29.544  1.00  0.00    -0.462 OA
BRANCH   9  10
ATOM     10  C   UNL     1      27.227  23.889  29.815  1.00  0.00     0.236 C 
BRANCH  10  11
ATOM     11  C   UNL     1      28.731  24.206  29.898  1.00  0.00     0.021 C 
ATOM     12  C   UNL     1      29.124  24.547  31.339  1.00  0.00     0.011 C 
ATOM     13  C   UNL     1      29.102  25.360  28.957  1.00  0.00     0.011 C 
ENDBRANCH  10  11
ENDBRANCH   9  10
ENDBRANCH   7   9
ENDBRANCH   1   7
BRANCH   6  14
ATOM     14  C   UNL     1      26.023  28.167  29.089  1.00  0.00     0.339 C 
ATOM     15  O   UNL     1      26.097  28.633  30.259  1.00  0.00    -0.246 OA
BRANCH  14  16
ATOM     16  O   UNL     1      27.160  28.128  28.271  1.00  0.00    -0.462 OA
BRANCH  16  17
ATOM     17  C   UNL     1      27.114  28.115  26.844  1.00  0.00     0.236 C 
BRANCH  17  18
ATOM     18  C   UNL     1      28.329  28.842  26.237  1.00  0.00     0.021 C 
ATOM     19  C   UNL     1      28.889  29.861  27.236  1.00  0.00     0.011 C 
ATOM     20  C   UNL     1      27.974  29.541  24.918  1.00  0.00     0.011 C 
ENDBRANCH  17  18
ENDBRANCH  16  17
ENDBRANCH  14  16
ENDBRANCH   6  14
TORSDOF 8
ENDMDL
MODEL 7
REMARK VINA RESULT:    -3.271      1.259      4.565
REMARK INTER + INTRA:          -5.563
REMARK INTER:                  -4.840
REMARK INTRA:                  -0.723
REMARK UNBOUND:                -0.761
REMARK SMILES CC(C)COC(=O)c1ccccc1C(=O)OCC(C)C
REMARK SMILES IDX 8 1 9 2 10 3 11 4 12 5 13 6 6 7 7 8 5 9 4 10 2 11 1 12 3 13
REMARK SMILES IDX 14 14 15 15 16 16 17 17 18 18 19 19 20 20
REMARK H PARENT
REMARK Flexibility Score: inf
ROOT
ATOM      1  C   UNL     1      27.036  25.892  29.100  1.00  0.00     0.074 A 
ATOM      2  C   UNL     1      26.955  25.184  30.314  1.00  0.00     0.016 A 
ATOM      3  C   UNL     1      27.878  24.184  30.619  1.00  0.00     0.001 A 
ATOM      4  C   UNL     1      28.896  23.876  29.720  1.00  0.00     0.001 A 
ATOM      5  C   UNL     1      28.981  24.551  28.501  1.00  0.00     0.016 A 
ATOM      6  C   UNL     1      28.047  25.549  28.163  1.00  0.00     0.074 A 
ENDROOT
BRANCH   1   7
ATOM      7  C   UNL     1      26.110  27.026  28.894  1.00  0.00     0.339 C 
ATOM      8  O   UNL     1      26.324  28.123  29.479  1.00  0.00    -0.246 OA
BRANCH   7   9
ATOM      9  O   UNL     1      25.039  26.898  28.002  1.00  0.00    -0.462 OA
BRANCH   9  10
ATOM     10  C   UNL     1      23.771  26.353  28.368  1.00  0.00     0.236 C 
BRANCH  10  11
ATOM     11  C   UNL     1      22.627  27.315  28.000  1.00  0.00     0.021 C 
ATOM     12  C   UNL     1      22.984  28.748  28.410  1.00  0.00     0.011 C 
ATOM     13  C   UNL     1      21.312  26.884  28.663  1.00  0.00     0.011 C 
ENDBRANCH  10  11
ENDBRANCH   9  10
ENDBRANCH   7   9
ENDBRANCH   1   7
BRANCH   6  14
ATOM     14  C   UNL     1      28.111  26.136  26.804  1.00  0.00     0.339 C 
ATOM     15  O   UNL     1      27.261  25.794  25.936  1.00  0.00    -0.246 OA
BRANCH  14  16
ATOM     16  O   UNL     1      29.062  27.122  26.510  1.00  0.00    -0.462 OA
BRANCH  16  17
ATOM     17  C   UNL     1      29.105  27.844  25.278  1.00  0.00     0.236 C 
BRANCH  17  18
ATOM     18  C   UNL     1      28.798  29.338  25.492  1.00  0.00     0.021 C 
ATOM     19  C   UNL     1      28.497  29.609  26.971  1.00  0.00     0.011 C 
ATOM     20  C   UNL     1      27.625  29.808  24.623  1.00  0.00     0.011 C 
ENDBRANCH  17  18
ENDBRANCH  16  17
ENDBRANCH  14  16
ENDBRANCH   6  14
TORSDOF 8
ENDMDL
MODEL 8
REMARK VINA RESULT:    -3.107      1.881      4.556
REMARK INTER + INTRA:          -5.322
REMARK INTER:                  -4.400
REMARK INTRA:                  -0.922
REMARK UNBOUND:                -0.761
REMARK SMILES CC(C)COC(=O)c1ccccc1C(=O)OCC(C)C
REMARK SMILES IDX 8 1 9 2 10 3 11 4 12 5 13 6 6 7 7 8 5 9 4 10 2 11 1 12 3 13
REMARK SMILES IDX 14 14 15 15 16 16 17 17 18 18 19 19 20 20
REMARK H PARENT
REMARK Flexibility Score: inf
ROOT
ATOM      1  C   UNL     1      24.728  27.544  28.576  1.00  0.00     0.074 A 
ATOM      2  C   UNL     1      23.644  28.427  28.412  1.00  0.00     0.016 A 
ATOM      3  C   UNL     1      22.374  27.945  28.099  1.00  0.00     0.001 A 
ATOM      4  C   UNL     1      22.163  26.577  27.947  1.00  0.00     0.001 A 
ATOM      5  C   UNL     1      23.229  25.685  28.084  1.00  0.00     0.016 A 
ATOM      6  C   UNL     1      24.524  26.152  28.378  1.00  0.00     0.074 A 
ENDROOT
BRANCH   1   7
ATOM      7  C   UNL     1      26.017  28.103  29.036  1.00  0.00     0.339 C 
ATOM      8  O   UNL     1      26.331  28.034  30.256  1.00  0.00    -0.246 OA
BRANCH   7   9
ATOM      9  O   UNL     1      26.910  28.649  28.106  1.00  0.00    -0.462 OA
BRANCH   9  10
ATOM     10  C   UNL     1      27.494  27.899  27.041  1.00  0.00     0.236 C 
BRANCH  10  11
ATOM     11  C   UNL     1      28.445  28.773  26.203  1.00  0.00     0.021 C 
ATOM     12  C   UNL     1      28.995  29.925  27.052  1.00  0.00     0.011 C 
ATOM     13  C   UNL     1      27.734  29.321  24.958  1.00  0.00     0.011 C 
ENDBRANCH  10  11
ENDBRANCH   9  10
ENDBRANCH   7   9
ENDBRANCH   1   7
BRANCH   6  14
ATOM     14  C   UNL     1      25.637  25.172  28.382  1.00  0.00     0.339 C 
ATOM     15  O   UNL     1      26.090  24.746  29.481  1.00  0.00    -0.246 OA
BRANCH  14  16
ATOM     16  O   UNL     1      26.131  24.667  27.172  1.00  0.00    -0.462 OA
BRANCH  16  17
ATOM     17  C   UNL     1      27.419  24.068  27.027  1.00  0.00     0.236 C 
BRANCH  17  18
ATOM     18  C   UNL     1      27.846  24.007  25.549  1.00  0.00     0.021 C 
ATOM     19  C   UNL     1      28.978  25.007  25.283  1.00  0.00     0.011 C 
ATOM     20  C   UNL     1      26.669  24.285  24.605  1.00  0.00     0.011 C 
ENDBRANCH  17  18
ENDBRANCH  16  17
ENDBRANCH  14  16
ENDBRANCH   6  14
TORSDOF 8
ENDMDL
MODEL 9
REMARK VINA RESULT:    -3.077      1.710      5.015
REMARK INTER + INTRA:          -5.277
REMARK INTER:                  -4.427
REMARK INTRA:                  -0.850
REMARK UNBOUND:                -0.761
REMARK SMILES CC(C)COC(=O)c1ccccc1C(=O)OCC(C)C
REMARK SMILES IDX 8 1 9 2 10 3 11 4 12 5 13 6 6 7 7 8 5 9 4 10 2 11 1 12 3 13
REMARK SMILES IDX 14 14 15 15 16 16 17 17 18 18 19 19 20 20
REMARK H PARENT
REMARK Flexibility Score: inf
ROOT
ATOM      1  C   UNL     1      28.463  28.332  27.353  1.00  0.00     0.074 A 
ATOM      2  C   UNL     1      28.790  29.691  27.518  1.00  0.00     0.016 A 
ATOM      3  C   UNL     1      28.874  30.542  26.416  1.00  0.00     0.001 A 
ATOM      4  C   UNL     1      28.631  30.052  25.136  1.00  0.00     0.001 A 
ATOM      5  C   UNL     1      28.327  28.702  24.948  1.00  0.00     0.016 A 
ATOM      6  C   UNL     1      28.258  27.821  26.044  1.00  0.00     0.074 A 
ENDROOT
BRANCH   1   7
ATOM      7  C   UNL     1      28.262  27.514  28.568  1.00  0.00     0.339 C 
ATOM      8  O   UNL     1      29.124  26.651  28.893  1.00  0.00    -0.246 OA
BRANCH   7   9
ATOM      9  O   UNL     1      27.150  27.744  29.388  1.00  0.00    -0.462 OA
BRANCH   9  10
ATOM     10  C   UNL     1      25.830  27.945  28.884  1.00  0.00     0.236 C 
BRANCH  10  11
ATOM     11  C   UNL     1      25.157  29.155  29.559  1.00  0.00     0.021 C 
ATOM     12  C   UNL     1      25.467  29.167  31.059  1.00  0.00     0.011 C 
ATOM     13  C   UNL     1      23.640  29.140  29.328  1.00  0.00     0.011 C 
ENDBRANCH  10  11
ENDBRANCH   9  10
ENDBRANCH   7   9
ENDBRANCH   1   7
BRANCH   6  14
ATOM     14  C   UNL     1      28.061  26.377  25.770  1.00  0.00     0.339 C 
ATOM     15  O   UNL     1      28.935  25.741  25.119  1.00  0.00    -0.246 OA
BRANCH  14  16
ATOM     16  O   UNL     1      26.948  25.709  26.296  1.00  0.00    -0.462 OA
BRANCH  16  17
ATOM     17  C   UNL     1      26.857  24.289  26.419  1.00  0.00     0.236 C 
BRANCH  17  18
ATOM     18  C   UNL     1      26.129  23.884  27.714  1.00  0.00     0.021 C 
ATOM     19  C   UNL     1      24.936  24.815  27.964  1.00  0.00     0.011 C 
ATOM     20  C   UNL     1      27.070  23.901  28.925  1.00  0.00     0.011 C 
ENDBRANCH  17  18
ENDBRANCH  16  17
ENDBRANCH  14  16
ENDBRANCH   6  14
TORSDOF 8
ENDMDL
