MODEL 1
REMARK VINA RESULT:     0.464      0.000      0.000
REMARK INTER + INTRA:           2.040
REMARK INTER:                   0.627
REMARK INTRA:                   1.413
REMARK UNBOUND:                 1.413
REMARK SMILES C=C1CCC=C(C)CC[C@@H]2[C@H]1CC2(C)C
REMARK SMILES IDX 11 1 12 2 13 3 10 4 14 5 15 6 9 7 8 8 6 9 7 10 5 11 2 13
REMARK SMILES IDX 1 14 3 15 4 16
REMARK H PARENT
REMARK Flexibility Score: 70.00
ROOT
ATOM      1  C   UNL     1     154.674 136.996 162.326  1.00  0.00     0.018 C 
ATOM      2  C   UNL     1     155.125 137.793 163.558  1.00  0.00     0.015 C 
ATOM      3  C   UNL     1     154.117 138.905 163.214  1.00  0.00    -0.031 C 
ATOM      4  C   UNL     1     153.658 138.100 161.968  1.00  0.00     0.002 C 
ATOM      5  C   UNL     1     154.811 140.227 162.838  1.00  0.00     0.011 C 
ATOM      6  C   UNL     1     153.073 139.129 164.328  1.00  0.00     0.011 C 
ENDROOT
BRANCH   4   7
ATOM      7  C   UNL     1     152.155 137.733 161.878  1.00  0.00     0.009 C 
BRANCH   7   8
ATOM      8  C   UNL     1     151.567 137.959 160.468  1.00  0.00     0.030 C 
BRANCH   8   9
ATOM      9  C   UNL     1     150.990 136.691 159.863  1.00  0.00    -0.077 C 
ATOM     10  C   UNL     1     150.159 136.811 158.612  1.00  0.00     0.039 C 
ATOM     11  C   UNL     1     151.168 135.456 160.390  1.00  0.00    -0.028 CG0
ATOM     12  G   UNL     1     151.857 135.148 161.696  1.00  0.00     0.000 G0
ENDBRANCH   8   9
ENDBRANCH   7   8
ENDBRANCH   4   7
BRANCH   1  13
ATOM     13  C   UNL     1     154.162 135.580 162.585  1.00  0.00    -0.074 C 
ATOM     14  C   UNL     1     154.380 134.913 163.734  1.00  0.00     0.008 C 
BRANCH  13  15
ATOM     15  C   UNL     1     153.352 134.915 161.493  1.00  0.00     0.035 C 
BRANCH  15  16
ATOM     16  C   UNL     1     151.852 135.158 161.680  1.00  0.00     0.032 CG0
ATOM     17  G   UNL     1     151.184 135.464 160.362  1.00  0.00     0.000 G0
ENDBRANCH  15  16
ENDBRANCH  13  15
ENDBRANCH   1  13
TORSDOF 0
ENDMDL
