MODEL 1
REMARK VINA RESULT:    -4.235      0.000      0.000
REMARK INTER + INTRA:          -8.342
REMARK INTER:                  -7.205
REMARK INTRA:                  -1.137
REMARK UNBOUND:                -1.137
REMARK SMILES CCCCCCCCCCCCCC(=O)[O-]
REMARK SMILES IDX 8 1 9 2 10 3 11 4 12 5 13 6 14 7 15 8 16 9 7 10 6 11 5 12
REMARK SMILES IDX 4 13 3 14 2 15 1 16
REMARK H PARENT
REMARK Flexibility Score: inf
ROOT
ATOM      1  C   UNL     1       4.778  10.916  82.134  1.00  0.00     0.000 C 
ENDROOT
BRANCH   1   2
ATOM      2  C   UNL     1       4.063   9.642  82.600  1.00  0.00     0.000 C 
BRANCH   2   3
ATOM      3  C   UNL     1       4.846   8.389  82.187  1.00  0.00     0.000 C 
BRANCH   3   4
ATOM      4  C   UNL     1       6.253   8.759  81.695  1.00  0.00     0.000 C 
BRANCH   4   5
ATOM      5  C   UNL     1       6.800   7.760  80.663  1.00  0.00     0.006 C 
BRANCH   5   6
ATOM      6  C   UNL     1       7.959   8.336  79.840  1.00  0.00     0.053 C 
BRANCH   6   7
ATOM      7  C   UNL     1       8.885   7.244  79.408  1.00  0.00     0.041 C 
ATOM      8  O   UNL     1      10.089   7.501  79.142  1.00  0.00    -0.550 OA
ATOM      9  O   UNL     1       8.431   5.932  79.344  1.00  0.00    -0.550 OA
ENDBRANCH   6   7
ENDBRANCH   5   6
ENDBRANCH   4   5
ENDBRANCH   3   4
ENDBRANCH   2   3
ENDBRANCH   1   2
BRANCH   1  10
ATOM     10  C   UNL     1       3.826  11.827  81.350  1.00  0.00     0.000 C 
BRANCH  10  11
ATOM     11  C   UNL     1       4.500  12.364  80.079  1.00  0.00    -0.000 C 
BRANCH  11  12
ATOM     12  C   UNL     1       5.933  11.835  79.888  1.00  0.00    -0.000 C 
BRANCH  12  13
ATOM     13  C   UNL     1       6.588  12.193  78.540  1.00  0.00    -0.000 C 
BRANCH  13  14
ATOM     14  C   UNL     1       6.825  13.702  78.372  1.00  0.00    -0.000 C 
BRANCH  14  15
ATOM     15  C   UNL     1       6.313  14.232  77.022  1.00  0.00    -0.003 C 
ATOM     16  C   UNL     1       4.980  13.607  76.608  1.00  0.00     0.004 C 
ENDBRANCH  14  15
ENDBRANCH  13  14
ENDBRANCH  12  13
ENDBRANCH  11  12
ENDBRANCH  10  11
ENDBRANCH   1  10
TORSDOF 12
ENDMDL
MODEL 2
REMARK VINA RESULT:    -4.184      5.231      7.251
REMARK INTER + INTRA:          -8.256
REMARK INTER:                  -7.612
REMARK INTRA:                  -0.644
REMARK UNBOUND:                -1.137
REMARK SMILES CCCCCCCCCCCCCC(=O)[O-]
REMARK SMILES IDX 8 1 9 2 10 3 11 4 12 5 13 6 14 7 15 8 16 9 7 10 6 11 5 12
REMARK SMILES IDX 4 13 3 14 2 15 1 16
REMARK H PARENT
REMARK Flexibility Score: inf
ROOT
ATOM      1  C   UNL     1       1.740   9.401  83.802  1.00  0.00     0.000 C 
ENDROOT
BRANCH   1   2
ATOM      2  C   UNL     1       2.538   9.029  85.058  1.00  0.00     0.000 C 
BRANCH   2   3
ATOM      3  C   UNL     1       2.104   7.661  85.601  1.00  0.00     0.000 C 
BRANCH   3   4
ATOM      4  C   UNL     1       3.096   6.566  85.184  1.00  0.00     0.000 C 
BRANCH   4   5
ATOM      5  C   UNL     1       2.637   5.161  85.606  1.00  0.00     0.006 C 
BRANCH   5   6
ATOM      6  C   UNL     1       1.527   5.195  86.664  1.00  0.00     0.053 C 
BRANCH   6   7
ATOM      7  C   UNL     1       1.484   3.903  87.416  1.00  0.00     0.041 C 
ATOM      8  O   UNL     1       2.480   3.131  87.409  1.00  0.00    -0.550 OA
ATOM      9  O   UNL     1       0.362   3.571  88.166  1.00  0.00    -0.550 OA
ENDBRANCH   6   7
ENDBRANCH   5   6
ENDBRANCH   4   5
ENDBRANCH   3   4
ENDBRANCH   2   3
ENDBRANCH   1   2
BRANCH   1  10
ATOM     10  C   UNL     1       2.579  10.263  82.851  1.00  0.00     0.000 C 
BRANCH  10  11
ATOM     11  C   UNL     1       4.057  10.263  83.269  1.00  0.00    -0.000 C 
BRANCH  11  12
ATOM     12  C   UNL     1       5.020  10.120  82.077  1.00  0.00    -0.000 C 
BRANCH  12  13
ATOM     13  C   UNL     1       5.609   8.711  81.877  1.00  0.00    -0.000 C 
BRANCH  13  14
ATOM     14  C   UNL     1       6.883   8.711  81.016  1.00  0.00    -0.000 C 
BRANCH  14  15
ATOM     15  C   UNL     1       7.130   7.358  80.329  1.00  0.00    -0.003 C 
ATOM     16  C   UNL     1       8.274   7.409  79.316  1.00  0.00     0.004 C 
ENDBRANCH  14  15
ENDBRANCH  13  14
ENDBRANCH  12  13
ENDBRANCH  11  12
ENDBRANCH  10  11
ENDBRANCH   1  10
TORSDOF 12
ENDMDL
MODEL 3
REMARK VINA RESULT:    -4.183      3.083      5.963
REMARK INTER + INTRA:          -8.254
REMARK INTER:                  -7.465
REMARK INTRA:                  -0.788
REMARK UNBOUND:                -1.137
REMARK SMILES CCCCCCCCCCCCCC(=O)[O-]
REMARK SMILES IDX 8 1 9 2 10 3 11 4 12 5 13 6 14 7 15 8 16 9 7 10 6 11 5 12
REMARK SMILES IDX 4 13 3 14 2 15 1 16
REMARK H PARENT
REMARK Flexibility Score: inf
ROOT
ATOM      1  C   UNL     1       4.125   9.180  82.551  1.00  0.00     0.000 C 
ENDROOT
BRANCH   1   2
ATOM      2  C   UNL     1       5.564   9.641  82.290  1.00  0.00     0.000 C 
BRANCH   2   3
ATOM      3  C   UNL     1       6.381   8.536  81.609  1.00  0.00     0.000 C 
BRANCH   3   4
ATOM      4  C   UNL     1       7.115   9.078  80.374  1.00  0.00     0.000 C 
BRANCH   4   5
ATOM      5  C   UNL     1       7.360   7.997  79.309  1.00  0.00     0.006 C 
BRANCH   5   6
ATOM      6  C   UNL     1       7.509   6.596  79.914  1.00  0.00     0.053 C 
BRANCH   6   7
ATOM      7  C   UNL     1       8.832   6.005  79.541  1.00  0.00     0.041 C 
ATOM      8  O   UNL     1       9.690   6.702  78.936  1.00  0.00    -0.550 OA
ATOM      9  O   UNL     1       9.138   4.699  79.903  1.00  0.00    -0.550 OA
ENDBRANCH   6   7
ENDBRANCH   5   6
ENDBRANCH   4   5
ENDBRANCH   3   4
ENDBRANCH   2   3
ENDBRANCH   1   2
BRANCH   1  10
ATOM     10  C   UNL     1       3.144  10.355  82.454  1.00  0.00     0.000 C 
BRANCH  10  11
ATOM     11  C   UNL     1       2.292  10.467  83.726  1.00  0.00    -0.000 C 
BRANCH  11  12
ATOM     12  C   UNL     1       0.978   9.669  83.643  1.00  0.00    -0.000 C 
BRANCH  12  13
ATOM     13  C   UNL     1       0.569   8.943  84.939  1.00  0.00    -0.000 C 
BRANCH  13  14
ATOM     14  C   UNL     1       1.775   8.525  85.796  1.00  0.00    -0.000 C 
BRANCH  14  15
ATOM     15  C   UNL     1       1.852   7.003  86.000  1.00  0.00    -0.003 C 
ATOM     16  C   UNL     1       3.003   6.359  85.225  1.00  0.00     0.004 C 
ENDBRANCH  14  15
ENDBRANCH  13  14
ENDBRANCH  12  13
ENDBRANCH  11  12
ENDBRANCH  10  11
ENDBRANCH   1  10
TORSDOF 12
ENDMDL
MODEL 4
REMARK VINA RESULT:    -4.146      4.574      8.395
REMARK INTER + INTRA:          -8.192
REMARK INTER:                  -7.729
REMARK INTRA:                  -0.462
REMARK UNBOUND:                -1.137
REMARK SMILES CCCCCCCCCCCCCC(=O)[O-]
REMARK SMILES IDX 8 1 9 2 10 3 11 4 12 5 13 6 14 7 15 8 16 9 7 10 6 11 5 12
REMARK SMILES IDX 4 13 3 14 2 15 1 16
REMARK H PARENT
REMARK Flexibility Score: inf
ROOT
ATOM      1  C   UNL     1       2.932   9.328  85.024  1.00  0.00     0.000 C 
ENDROOT
BRANCH   1   2
ATOM      2  C   UNL     1       2.864   9.013  83.524  1.00  0.00     0.000 C 
BRANCH   2   3
ATOM      3  C   UNL     1       4.073   9.598  82.783  1.00  0.00     0.000 C 
BRANCH   3   4
ATOM      4  C   UNL     1       4.946   8.482  82.192  1.00  0.00     0.000 C 
BRANCH   4   5
ATOM      5  C   UNL     1       6.401   8.923  81.971  1.00  0.00     0.006 C 
BRANCH   5   6
ATOM      6  C   UNL     1       6.814   8.881  80.494  1.00  0.00     0.053 C 
BRANCH   6   7
ATOM      7  C   UNL     1       8.167   8.260  80.349  1.00  0.00     0.041 C 
ATOM      8  O   UNL     1       8.278   7.036  80.075  1.00  0.00    -0.550 OA
ATOM      9  O   UNL     1       9.308   9.044  80.468  1.00  0.00    -0.550 OA
ENDBRANCH   6   7
ENDBRANCH   5   6
ENDBRANCH   4   5
ENDBRANCH   3   4
ENDBRANCH   2   3
ENDBRANCH   1   2
BRANCH   1  10
ATOM     10  C   UNL     1       2.359   8.174  85.855  1.00  0.00     0.000 C 
BRANCH  10  11
ATOM     11  C   UNL     1       2.736   6.816  85.245  1.00  0.00    -0.000 C 
BRANCH  11  12
ATOM     12  C   UNL     1       1.933   5.645  85.839  1.00  0.00    -0.000 C 
BRANCH  12  13
ATOM     13  C   UNL     1       2.737   4.353  86.076  1.00  0.00    -0.000 C 
BRANCH  13  14
ATOM     14  C   UNL     1       2.253   3.563  87.302  1.00  0.00    -0.000 C 
BRANCH  14  15
ATOM     15  C   UNL     1       3.193   2.400  87.663  1.00  0.00    -0.003 C 
ATOM     16  C   UNL     1       2.464   1.236  88.335  1.00  0.00     0.004 C 
ENDBRANCH  14  15
ENDBRANCH  13  14
ENDBRANCH  12  13
ENDBRANCH  11  12
ENDBRANCH  10  11
ENDBRANCH   1  10
TORSDOF 12
ENDMDL
MODEL 5
REMARK VINA RESULT:    -4.065      2.946      6.047
REMARK INTER + INTRA:          -8.053
REMARK INTER:                  -7.277
REMARK INTRA:                  -0.777
REMARK UNBOUND:                -1.137
REMARK SMILES CCCCCCCCCCCCCC(=O)[O-]
REMARK SMILES IDX 8 1 9 2 10 3 11 4 12 5 13 6 14 7 15 8 16 9 7 10 6 11 5 12
REMARK SMILES IDX 4 13 3 14 2 15 1 16
REMARK H PARENT
REMARK Flexibility Score: inf
ROOT
ATOM      1  C   UNL     1       3.122  11.368  82.227  1.00  0.00     0.000 C 
ENDROOT
BRANCH   1   2
ATOM      2  C   UNL     1       4.318  10.550  82.728  1.00  0.00     0.000 C 
BRANCH   2   3
ATOM      3  C   UNL     1       5.219  10.121  81.562  1.00  0.00     0.000 C 
BRANCH   3   4
ATOM      4  C   UNL     1       5.855   8.750  81.835  1.00  0.00     0.000 C 
BRANCH   4   5
ATOM      5  C   UNL     1       7.208   8.574  81.128  1.00  0.00     0.006 C 
BRANCH   5   6
ATOM      6  C   UNL     1       7.253   7.322  80.242  1.00  0.00     0.053 C 
BRANCH   6   7
ATOM      7  C   UNL     1       8.538   7.270  79.479  1.00  0.00     0.041 C 
ATOM      8  O   UNL     1       8.904   6.199  78.925  1.00  0.00    -0.550 OA
ATOM      9  O   UNL     1       9.310   8.416  79.337  1.00  0.00    -0.550 OA
ENDBRANCH   6   7
ENDBRANCH   5   6
ENDBRANCH   4   5
ENDBRANCH   3   4
ENDBRANCH   2   3
ENDBRANCH   1   2
BRANCH   1  10
ATOM     10  C   UNL     1       1.929  11.240  83.182  1.00  0.00     0.000 C 
BRANCH  10  11
ATOM     11  C   UNL     1       1.375   9.807  83.182  1.00  0.00    -0.000 C 
BRANCH  11  12
ATOM     12  C   UNL     1       1.226   9.219  84.597  1.00  0.00    -0.000 C 
BRANCH  12  13
ATOM     13  C   UNL     1       2.144   8.023  84.909  1.00  0.00    -0.000 C 
BRANCH  13  14
ATOM     14  C   UNL     1       2.669   8.032  86.354  1.00  0.00    -0.000 C 
BRANCH  14  15
ATOM     15  C   UNL     1       2.949   9.452  86.870  1.00  0.00    -0.003 C 
ATOM     16  C   UNL     1       2.399   9.690  88.277  1.00  0.00     0.004 C 
ENDBRANCH  14  15
ENDBRANCH  13  14
ENDBRANCH  12  13
ENDBRANCH  11  12
ENDBRANCH  10  11
ENDBRANCH   1  10
TORSDOF 12
ENDMDL
MODEL 6
REMARK VINA RESULT:    -4.063      3.388      6.568
REMARK INTER + INTRA:          -8.051
REMARK INTER:                  -7.404
REMARK INTRA:                  -0.647
REMARK UNBOUND:                -1.137
REMARK SMILES CCCCCCCCCCCCCC(=O)[O-]
REMARK SMILES IDX 8 1 9 2 10 3 11 4 12 5 13 6 14 7 15 8 16 9 7 10 6 11 5 12
REMARK SMILES IDX 4 13 3 14 2 15 1 16
REMARK H PARENT
REMARK Flexibility Score: inf
ROOT
ATOM      1  C   UNL     1       3.111   9.571  83.132  1.00  0.00     0.000 C 
ENDROOT
BRANCH   1   2
ATOM      2  C   UNL     1       4.553   9.771  82.651  1.00  0.00     0.000 C 
BRANCH   2   3
ATOM      3  C   UNL     1       5.050   8.545  81.874  1.00  0.00     0.000 C 
BRANCH   3   4
ATOM      4  C   UNL     1       6.540   8.681  81.528  1.00  0.00     0.000 C 
BRANCH   4   5
ATOM      5  C   UNL     1       7.052   7.526  80.653  1.00  0.00     0.006 C 
BRANCH   5   6
ATOM      6  C   UNL     1       7.601   8.007  79.303  1.00  0.00     0.053 C 
BRANCH   6   7
ATOM      7  C   UNL     1       9.090   7.867  79.266  1.00  0.00     0.041 C 
ATOM      8  O   UNL     1       9.618   6.847  78.749  1.00  0.00    -0.550 OA
ATOM      9  O   UNL     1       9.896   8.885  79.760  1.00  0.00    -0.550 OA
ENDBRANCH   6   7
ENDBRANCH   5   6
ENDBRANCH   4   5
ENDBRANCH   3   4
ENDBRANCH   2   3
ENDBRANCH   1   2
BRANCH   1  10
ATOM     10  C   UNL     1       2.617  10.793  83.915  1.00  0.00     0.000 C 
BRANCH  10  11
ATOM     11  C   UNL     1       1.880  10.367  85.194  1.00  0.00    -0.000 C 
BRANCH  11  12
ATOM     12  C   UNL     1       2.745   9.500  86.127  1.00  0.00    -0.000 C 
BRANCH  12  13
ATOM     13  C   UNL     1       2.137   8.136  86.502  1.00  0.00    -0.000 C 
BRANCH  13  14
ATOM     14  C   UNL     1       2.701   6.978  85.663  1.00  0.00    -0.000 C 
BRANCH  14  15
ATOM     15  C   UNL     1       1.781   5.746  85.666  1.00  0.00    -0.003 C 
ATOM     16  C   UNL     1       1.057   5.550  86.998  1.00  0.00     0.004 C 
ENDBRANCH  14  15
ENDBRANCH  13  14
ENDBRANCH  12  13
ENDBRANCH  11  12
ENDBRANCH  10  11
ENDBRANCH   1  10
TORSDOF 12
ENDMDL
MODEL 7
REMARK VINA RESULT:    -4.027      4.133      6.630
REMARK INTER + INTRA:          -7.990
REMARK INTER:                  -7.256
REMARK INTRA:                  -0.734
REMARK UNBOUND:                -1.137
REMARK SMILES CCCCCCCCCCCCCC(=O)[O-]
REMARK SMILES IDX 8 1 9 2 10 3 11 4 12 5 13 6 14 7 15 8 16 9 7 10 6 11 5 12
REMARK SMILES IDX 4 13 3 14 2 15 1 16
REMARK H PARENT
REMARK Flexibility Score: inf
ROOT
ATOM      1  C   UNL     1       3.440  11.194  81.944  1.00  0.00     0.000 C 
ENDROOT
BRANCH   1   2
ATOM      2  C   UNL     1       3.075  10.359  83.177  1.00  0.00     0.000 C 
BRANCH   2   3
ATOM      3  C   UNL     1       1.614   9.893  83.114  1.00  0.00     0.000 C 
BRANCH   3   4
ATOM      4  C   UNL     1       1.204   9.198  84.420  1.00  0.00     0.000 C 
BRANCH   4   5
ATOM      5  C   UNL     1       2.355   8.399  85.053  1.00  0.00     0.006 C 
BRANCH   5   6
ATOM      6  C   UNL     1       1.918   7.621  86.300  1.00  0.00     0.053 C 
BRANCH   6   7
ATOM      7  C   UNL     1       1.963   6.149  86.038  1.00  0.00     0.041 C 
ATOM      8  O   UNL     1       1.044   5.400  86.465  1.00  0.00    -0.550 OA
ATOM      9  O   UNL     1       2.995   5.608  85.282  1.00  0.00    -0.550 OA
ENDBRANCH   6   7
ENDBRANCH   5   6
ENDBRANCH   4   5
ENDBRANCH   3   4
ENDBRANCH   2   3
ENDBRANCH   1   2
BRANCH   1  10
ATOM     10  C   UNL     1       4.896  10.953  81.527  1.00  0.00     0.000 C 
BRANCH  10  11
ATOM     11  C   UNL     1       5.523   9.818  82.350  1.00  0.00    -0.000 C 
BRANCH  11  12
ATOM     12  C   UNL     1       5.991   8.634  81.485  1.00  0.00    -0.000 C 
BRANCH  12  13
ATOM     13  C   UNL     1       7.334   8.842  80.761  1.00  0.00    -0.000 C 
BRANCH  13  14
ATOM     14  C   UNL     1       7.551   7.853  79.604  1.00  0.00    -0.000 C 
BRANCH  14  15
ATOM     15  C   UNL     1       6.940   6.471  79.889  1.00  0.00    -0.003 C 
ATOM     16  C   UNL     1       7.974   5.346  79.840  1.00  0.00     0.004 C 
ENDBRANCH  14  15
ENDBRANCH  13  14
ENDBRANCH  12  13
ENDBRANCH  11  12
ENDBRANCH  10  11
ENDBRANCH   1  10
TORSDOF 12
ENDMDL
MODEL 8
REMARK VINA RESULT:    -4.001      2.302      4.790
REMARK INTER + INTRA:          -7.945
REMARK INTER:                  -6.844
REMARK INTRA:                  -1.101
REMARK UNBOUND:                -1.137
REMARK SMILES CCCCCCCCCCCCCC(=O)[O-]
REMARK SMILES IDX 8 1 9 2 10 3 11 4 12 5 13 6 14 7 15 8 16 9 7 10 6 11 5 12
REMARK SMILES IDX 4 13 3 14 2 15 1 16
REMARK H PARENT
REMARK Flexibility Score: inf
ROOT
ATOM      1  C   UNL     1       3.959  12.069  81.453  1.00  0.00     0.000 C 
ENDROOT
BRANCH   1   2
ATOM      2  C   UNL     1       5.075  11.064  81.146  1.00  0.00     0.000 C 
BRANCH   2   3
ATOM      3  C   UNL     1       5.322  10.134  82.342  1.00  0.00     0.000 C 
BRANCH   3   4
ATOM      4  C   UNL     1       5.488   8.679  81.879  1.00  0.00     0.000 C 
BRANCH   4   5
ATOM      5  C   UNL     1       6.805   8.445  81.121  1.00  0.00     0.006 C 
BRANCH   5   6
ATOM      6  C   UNL     1       6.737   7.237  80.179  1.00  0.00     0.053 C 
BRANCH   6   7
ATOM      7  C   UNL     1       8.110   6.853  79.725  1.00  0.00     0.041 C 
ATOM      8  O   UNL     1       8.911   7.733  79.313  1.00  0.00    -0.550 OA
ATOM      9  O   UNL     1       8.523   5.529  79.801  1.00  0.00    -0.550 OA
ENDBRANCH   6   7
ENDBRANCH   5   6
ENDBRANCH   4   5
ENDBRANCH   3   4
ENDBRANCH   2   3
ENDBRANCH   1   2
BRANCH   1  10
ATOM     10  C   UNL     1       3.099  12.333  80.211  1.00  0.00     0.000 C 
BRANCH  10  11
ATOM     11  C   UNL     1       1.671  11.804  80.408  1.00  0.00    -0.000 C 
BRANCH  11  12
ATOM     12  C   UNL     1       1.293  11.630  81.890  1.00  0.00    -0.000 C 
BRANCH  12  13
ATOM     13  C   UNL     1       0.269  10.516  82.178  1.00  0.00    -0.000 C 
BRANCH  13  14
ATOM     14  C   UNL     1       0.616   9.693  83.429  1.00  0.00    -0.000 C 
BRANCH  14  15
ATOM     15  C   UNL     1       2.112   9.754  83.779  1.00  0.00    -0.003 C 
ATOM     16  C   UNL     1       2.608   8.490  84.482  1.00  0.00     0.004 C 
ENDBRANCH  14  15
ENDBRANCH  13  14
ENDBRANCH  12  13
ENDBRANCH  11  12
ENDBRANCH  10  11
ENDBRANCH   1  10
TORSDOF 12
ENDMDL
MODEL 9
REMARK VINA RESULT:    -3.993      5.656      7.846
REMARK INTER + INTRA:          -7.930
REMARK INTER:                  -7.348
REMARK INTRA:                  -0.583
REMARK UNBOUND:                -1.137
REMARK SMILES CCCCCCCCCCCCCC(=O)[O-]
REMARK SMILES IDX 8 1 9 2 10 3 11 4 12 5 13 6 14 7 15 8 16 9 7 10 6 11 5 12
REMARK SMILES IDX 4 13 3 14 2 15 1 16
REMARK H PARENT
REMARK Flexibility Score: inf
ROOT
ATOM      1  C   UNL     1       3.157   9.097  83.000  1.00  0.00     0.000 C 
ENDROOT
BRANCH   1   2
ATOM      2  C   UNL     1       2.168   9.211  84.166  1.00  0.00     0.000 C 
BRANCH   2   3
ATOM      3  C   UNL     1       2.904   9.467  85.488  1.00  0.00     0.000 C 
BRANCH   3   4
ATOM      4  C   UNL     1       2.634   8.337  86.494  1.00  0.00     0.000 C 
BRANCH   4   5
ATOM      5  C   UNL     1       1.620   8.739  87.576  1.00  0.00     0.006 C 
BRANCH   5   6
ATOM      6  C   UNL     1       2.232   9.647  88.651  1.00  0.00     0.053 C 
BRANCH   6   7
ATOM      7  C   UNL     1       1.445  10.913  88.774  1.00  0.00     0.041 C 
ATOM      8  O   UNL     1       1.610  11.846  87.944  1.00  0.00    -0.550 OA
ATOM      9  O   UNL     1       0.493  11.046  89.778  1.00  0.00    -0.550 OA
ENDBRANCH   6   7
ENDBRANCH   5   6
ENDBRANCH   4   5
ENDBRANCH   3   4
ENDBRANCH   2   3
ENDBRANCH   1   2
BRANCH   1  10
ATOM     10  C   UNL     1       3.782  10.458  82.672  1.00  0.00     0.000 C 
BRANCH  10  11
ATOM     11  C   UNL     1       5.186  10.289  82.073  1.00  0.00    -0.000 C 
BRANCH  11  12
ATOM     12  C   UNL     1       5.574   8.816  81.853  1.00  0.00    -0.000 C 
BRANCH  12  13
ATOM     13  C   UNL     1       6.987   8.589  81.284  1.00  0.00    -0.000 C 
BRANCH  13  14
ATOM     14  C   UNL     1       7.058   7.396  80.317  1.00  0.00    -0.000 C 
BRANCH  14  15
ATOM     15  C   UNL     1       7.955   7.676  79.100  1.00  0.00    -0.003 C 
ATOM     16  C   UNL     1       9.288   6.929  79.162  1.00  0.00     0.004 C 
ENDBRANCH  14  15
ENDBRANCH  13  14
ENDBRANCH  12  13
ENDBRANCH  11  12
ENDBRANCH  10  11
ENDBRANCH   1  10
TORSDOF 12
ENDMDL
