MODEL 1
REMARK VINA RESULT:    -4.535      0.000      0.000
REMARK INTER + INTRA:          -7.807
REMARK INTER:                  -6.523
REMARK INTRA:                  -1.284
REMARK UNBOUND:                -1.284
REMARK SMILES O=c1cc(-c2ccc(O)c(O)c2)oc2cc(O[C@@H]3O[C@H](CO)[C@H](O)[C@H](O)[C@H]3O)cc(O)c12
REMARK SMILES IDX 17 1 16 2 4 3 3 4 13 5 2 6 14 7 1 8 32 9 15 10 30 11 29 12
REMARK SMILES IDX 5 13 6 14 7 15 8 16 12 17 10 18 9 19 11 21 31 23 18 25 27 26
REMARK SMILES IDX 19 27 25 28 20 29 23 30 28 31 26 33 21 35 22 36 24 38
REMARK H PARENT 9 20 11 22 31 24 28 32 26 34 22 37 24 39
REMARK Flexibility Score: inf
ROOT
ATOM      1  O   UNL     1     -27.414  49.572  32.786  1.00  0.00    -0.462 OA
ENDROOT
BRANCH   1   2
ATOM      2  C   UNL     1     -27.748  48.610  33.754  1.00  0.00     0.130 A 
ATOM      3  C   UNL     1     -27.765  47.471  38.382  1.00  0.00     0.138 A 
ATOM      4  C   UNL     1     -28.383  46.233  38.139  1.00  0.00     0.100 A 
ATOM      5  O   UNL     1     -27.489  48.279  37.362  1.00  0.00    -0.456 OA
ATOM      6  C   UNL     1     -28.709  45.873  36.834  1.00  0.00     0.197 A 
ATOM      7  C   UNL     1     -27.781  47.981  36.099  1.00  0.00     0.146 A 
ATOM      8  O   UNL     1     -29.269  44.762  36.626  1.00  0.00    -0.289 OA
ATOM      9  C   UNL     1     -28.403  46.752  35.774  1.00  0.00     0.107 A 
ATOM     10  C   UNL     1     -27.465  48.897  35.091  1.00  0.00     0.094 A 
ATOM     11  C   UNL     1     -28.684  46.454  34.422  1.00  0.00     0.134 A 
ATOM     12  C   UNL     1     -28.344  47.378  33.421  1.00  0.00     0.093 A 
BRANCH   3  13
ATOM     13  C   UNL     1     -27.407  47.899  39.754  1.00  0.00     0.021 A 
ATOM     14  C   UNL     1     -27.294  46.942  40.777  1.00  0.00     0.016 A 
ATOM     15  C   UNL     1     -26.955  47.328  42.076  1.00  0.00     0.051 A 
ATOM     16  C   UNL     1     -26.709  48.679  42.371  1.00  0.00     0.157 A 
ATOM     17  C   UNL     1     -27.149  49.251  40.054  1.00  0.00     0.062 A 
ATOM     18  C   UNL     1     -26.799  49.638  41.356  1.00  0.00     0.158 A 
BRANCH  16  19
ATOM     19  O   UNL     1     -26.367  49.069  43.664  1.00  0.00    -0.504 OA
ATOM     20  H   UNL     1     -26.876  49.797  44.151  1.00  0.00     0.293 HD
ENDBRANCH  16  19
BRANCH  18  21
ATOM     21  O   UNL     1     -26.536  50.978  41.647  1.00  0.00    -0.504 OA
ATOM     22  H   UNL     1     -27.273  51.676  41.657  1.00  0.00     0.293 HD
ENDBRANCH  18  21
ENDBRANCH   3  13
BRANCH  11  23
ATOM     23  O   UNL     1     -29.295  45.250  34.066  1.00  0.00    -0.507 OA
ATOM     24  H   UNL     1     -29.764  44.668  34.750  1.00  0.00     0.293 HD
ENDBRANCH  11  23
ENDBRANCH   1   2
BRANCH   1  25
ATOM     25  C   UNL     1     -28.349  50.442  32.144  1.00  0.00     0.339 C 
ATOM     26  C   UNL     1     -28.907  51.494  33.125  1.00  0.00     0.214 C 
ATOM     27  O   UNL     1     -27.806  51.009  30.956  1.00  0.00    -0.332 OA
ATOM     28  C   UNL     1     -27.906  52.631  33.430  1.00  0.00     0.180 C 
ATOM     29  C   UNL     1     -26.773  51.965  31.179  1.00  0.00     0.179 C 
ATOM     30  C   UNL     1     -27.199  53.108  32.133  1.00  0.00     0.177 C 
BRANCH  26  31
ATOM     31  O   UNL     1     -30.125  52.023  32.650  1.00  0.00    -0.384 OA
ATOM     32  H   UNL     1     -30.146  52.989  32.889  1.00  0.00     0.211 HD
ENDBRANCH  26  31
BRANCH  28  33
ATOM     33  O   UNL     1     -27.003  52.271  34.452  1.00  0.00    -0.387 OA
ATOM     34  H   UNL     1     -26.221  52.874  34.407  1.00  0.00     0.211 HD
ENDBRANCH  28  33
BRANCH  29  35
ATOM     35  C   UNL     1     -25.395  51.324  31.471  1.00  0.00     0.191 C 
BRANCH  35  36
ATOM     36  O   UNL     1     -25.044  51.558  32.811  1.00  0.00    -0.394 OA
ATOM     37  H   UNL     1     -25.874  51.435  33.351  1.00  0.00     0.210 HD
ENDBRANCH  35  36
ENDBRANCH  29  35
BRANCH  30  38
ATOM     38  O   UNL     1     -26.138  54.012  32.351  1.00  0.00    -0.387 OA
ATOM     39  H   UNL     1     -25.585  54.080  31.529  1.00  0.00     0.211 HD
ENDBRANCH  30  38
ENDBRANCH   1  25
TORSDOF 11
ENDMDL
MODEL 2
REMARK VINA RESULT:    -4.497      6.477     12.529
REMARK INTER + INTRA:          -7.752
REMARK INTER:                  -6.464
REMARK INTRA:                  -1.288
REMARK UNBOUND:                -1.284
REMARK SMILES O=c1cc(-c2ccc(O)c(O)c2)oc2cc(O[C@@H]3O[C@H](CO)[C@H](O)[C@H](O)[C@H]3O)cc(O)c12
REMARK SMILES IDX 17 1 16 2 4 3 3 4 13 5 2 6 14 7 1 8 32 9 15 10 30 11 29 12
REMARK SMILES IDX 5 13 6 14 7 15 8 16 12 17 10 18 9 19 11 21 31 23 18 25 27 26
REMARK SMILES IDX 19 27 25 28 20 29 23 30 28 31 26 33 21 35 22 36 24 38
REMARK H PARENT 9 20 11 22 31 24 28 32 26 34 22 37 24 39
REMARK Flexibility Score: inf
ROOT
ATOM      1  O   UNL     1     -26.507  55.178  46.866  1.00  0.00    -0.462 OA
ENDROOT
BRANCH   1   2
ATOM      2  C   UNL     1     -26.116  54.816  45.565  1.00  0.00     0.130 A 
ATOM      3  C   UNL     1     -26.122  51.428  42.214  1.00  0.00     0.138 A 
ATOM      4  C   UNL     1     -25.433  52.243  41.300  1.00  0.00     0.100 A 
ATOM      5  O   UNL     1     -26.413  51.898  43.424  1.00  0.00    -0.456 OA
ATOM      6  C   UNL     1     -25.073  53.536  41.670  1.00  0.00     0.197 A 
ATOM      7  C   UNL     1     -26.091  53.124  43.824  1.00  0.00     0.146 A 
ATOM      8  O   UNL     1     -24.459  54.263  40.842  1.00  0.00    -0.289 OA
ATOM      9  C   UNL     1     -25.395  54.005  42.961  1.00  0.00     0.107 A 
ATOM     10  C   UNL     1     -26.448  53.538  45.111  1.00  0.00     0.094 A 
ATOM     11  C   UNL     1     -25.050  55.295  43.419  1.00  0.00     0.134 A 
ATOM     12  C   UNL     1     -25.401  55.688  44.721  1.00  0.00     0.093 A 
BRANCH   3  13
ATOM     13  C   UNL     1     -26.531  50.049  41.861  1.00  0.00     0.021 A 
ATOM     14  C   UNL     1     -26.358  49.009  42.791  1.00  0.00     0.016 A 
ATOM     15  C   UNL     1     -26.742  47.703  42.475  1.00  0.00     0.051 A 
ATOM     16  C   UNL     1     -27.319  47.418  41.227  1.00  0.00     0.157 A 
ATOM     17  C   UNL     1     -27.120  49.758  40.614  1.00  0.00     0.062 A 
ATOM     18  C   UNL     1     -27.514  48.449  40.301  1.00  0.00     0.158 A 
BRANCH  16  19
ATOM     19  O   UNL     1     -27.706  46.117  40.909  1.00  0.00    -0.504 OA
ATOM     20  H   UNL     1     -27.847  45.826  39.949  1.00  0.00     0.293 HD
ENDBRANCH  16  19
BRANCH  18  21
ATOM     21  O   UNL     1     -28.106  48.165  39.068  1.00  0.00    -0.504 OA
ATOM     22  H   UNL     1     -29.112  48.205  38.938  1.00  0.00     0.293 HD
ENDBRANCH  18  21
ENDBRANCH   3  13
BRANCH  11  23
ATOM     23  O   UNL     1     -24.362  56.188  42.596  1.00  0.00    -0.507 OA
ATOM     24  H   UNL     1     -24.603  56.305  41.618  1.00  0.00     0.293 HD
ENDBRANCH  11  23
ENDBRANCH   1   2
BRANCH   1  25
ATOM     25  C   UNL     1     -26.094  54.510  48.059  1.00  0.00     0.339 C 
ATOM     26  C   UNL     1     -24.556  54.486  48.188  1.00  0.00     0.214 C 
ATOM     27  O   UNL     1     -26.749  55.035  49.207  1.00  0.00    -0.332 OA
ATOM     28  C   UNL     1     -23.963  55.845  48.625  1.00  0.00     0.180 C 
ATOM     29  C   UNL     1     -26.338  56.351  49.571  1.00  0.00     0.179 C 
ATOM     30  C   UNL     1     -24.807  56.477  49.763  1.00  0.00     0.177 C 
BRANCH  26  31
ATOM     31  O   UNL     1     -24.145  53.463  49.067  1.00  0.00    -0.384 OA
ATOM     32  H   UNL     1     -24.951  52.927  49.303  1.00  0.00     0.211 HD
ENDBRANCH  26  31
BRANCH  28  33
ATOM     33  O   UNL     1     -23.779  56.710  47.526  1.00  0.00    -0.387 OA
ATOM     34  H   UNL     1     -24.663  56.916  47.136  1.00  0.00     0.211 HD
ENDBRANCH  28  33
BRANCH  29  35
ATOM     35  C   UNL     1     -27.002  57.459  48.718  1.00  0.00     0.191 C 
BRANCH  35  36
ATOM     36  O   UNL     1     -26.089  57.918  47.753  1.00  0.00    -0.394 OA
ATOM     37  H   UNL     1     -25.198  57.545  48.001  1.00  0.00     0.210 HD
ENDBRANCH  35  36
ENDBRANCH  29  35
BRANCH  30  38
ATOM     38  O   UNL     1     -24.441  57.800  50.089  1.00  0.00    -0.387 OA
ATOM     39  H   UNL     1     -24.111  57.833  51.025  1.00  0.00     0.211 HD
ENDBRANCH  30  38
ENDBRANCH   1  25
TORSDOF 11
ENDMDL
MODEL 3
REMARK VINA RESULT:    -4.485      6.397     12.078
REMARK INTER + INTRA:          -7.736
REMARK INTER:                  -6.474
REMARK INTRA:                  -1.262
REMARK UNBOUND:                -1.284
REMARK SMILES O=c1cc(-c2ccc(O)c(O)c2)oc2cc(O[C@@H]3O[C@H](CO)[C@H](O)[C@H](O)[C@H]3O)cc(O)c12
REMARK SMILES IDX 17 1 16 2 4 3 3 4 13 5 2 6 14 7 1 8 32 9 15 10 30 11 29 12
REMARK SMILES IDX 5 13 6 14 7 15 8 16 12 17 10 18 9 19 11 21 31 23 18 25 27 26
REMARK SMILES IDX 19 27 25 28 20 29 23 30 28 31 26 33 21 35 22 36 24 38
REMARK H PARENT 9 20 11 22 31 24 28 32 26 34 22 37 24 39
REMARK Flexibility Score: inf
ROOT
ATOM      1  O   UNL     1     -24.302  54.316  42.889  1.00  0.00    -0.462 OA
ENDROOT
BRANCH   1   2
ATOM      2  C   UNL     1     -24.278  55.482  42.104  1.00  0.00     0.130 A 
ATOM      3  C   UNL     1     -25.598  57.546  38.017  1.00  0.00     0.138 A 
ATOM      4  C   UNL     1     -25.009  58.770  38.372  1.00  0.00     0.100 A 
ATOM      5  O   UNL     1     -25.527  56.515  38.854  1.00  0.00    -0.456 OA
ATOM      6  C   UNL     1     -24.366  58.891  39.602  1.00  0.00     0.197 A 
ATOM      7  C   UNL     1     -24.926  56.581  40.038  1.00  0.00     0.146 A 
ATOM      8  O   UNL     1     -23.844  59.996  39.915  1.00  0.00    -0.289 OA
ATOM      9  C   UNL     1     -24.307  57.780  40.468  1.00  0.00     0.107 A 
ATOM     10  C   UNL     1     -24.910  55.449  40.860  1.00  0.00     0.094 A 
ATOM     11  C   UNL     1     -23.660  57.814  41.722  1.00  0.00     0.134 A 
ATOM     12  C   UNL     1     -23.639  56.664  42.526  1.00  0.00     0.093 A 
BRANCH   3  13
ATOM     13  C   UNL     1     -26.298  57.373  36.722  1.00  0.00     0.021 A 
ATOM     14  C   UNL     1     -26.619  58.500  35.946  1.00  0.00     0.016 A 
ATOM     15  C   UNL     1     -27.276  58.354  34.722  1.00  0.00     0.051 A 
ATOM     16  C   UNL     1     -27.612  57.076  34.247  1.00  0.00     0.157 A 
ATOM     17  C   UNL     1     -26.629  56.093  36.236  1.00  0.00     0.062 A 
ATOM     18  C   UNL     1     -27.280  55.947  35.003  1.00  0.00     0.158 A 
BRANCH  16  19
ATOM     19  O   UNL     1     -28.265  56.926  33.025  1.00  0.00    -0.504 OA
ATOM     20  H   UNL     1     -29.157  57.370  32.842  1.00  0.00     0.293 HD
ENDBRANCH  16  19
BRANCH  18  21
ATOM     21  O   UNL     1     -27.598  54.676  34.519  1.00  0.00    -0.504 OA
ATOM     22  H   UNL     1     -28.553  54.413  34.298  1.00  0.00     0.293 HD
ENDBRANCH  18  21
ENDBRANCH   3  13
BRANCH  11  23
ATOM     23  O   UNL     1     -23.038  58.979  42.175  1.00  0.00    -0.507 OA
ATOM     24  H   UNL     1     -22.321  58.957  42.891  1.00  0.00     0.293 HD
ENDBRANCH  11  23
ENDBRANCH   1   2
BRANCH   1  25
ATOM     25  C   UNL     1     -24.856  54.227  44.203  1.00  0.00     0.339 C 
ATOM     26  C   UNL     1     -26.388  54.050  44.159  1.00  0.00     0.214 C 
ATOM     27  O   UNL     1     -24.195  53.239  44.985  1.00  0.00    -0.332 OA
ATOM     28  C   UNL     1     -26.822  52.618  43.771  1.00  0.00     0.180 C 
ATOM     29  C   UNL     1     -24.450  51.897  44.577  1.00  0.00     0.179 C 
ATOM     30  C   UNL     1     -25.960  51.559  44.510  1.00  0.00     0.177 C 
BRANCH  26  31
ATOM     31  O   UNL     1     -26.970  54.426  45.387  1.00  0.00    -0.384 OA
ATOM     32  H   UNL     1     -26.811  53.687  46.034  1.00  0.00     0.211 HD
ENDBRANCH  26  31
BRANCH  28  33
ATOM     33  O   UNL     1     -26.839  52.439  42.372  1.00  0.00    -0.387 OA
ATOM     34  H   UNL     1     -26.728  53.321  41.941  1.00  0.00     0.211 HD
ENDBRANCH  28  33
BRANCH  29  35
ATOM     35  C   UNL     1     -23.609  51.456  43.356  1.00  0.00     0.191 C 
BRANCH  35  36
ATOM     36  O   UNL     1     -24.452  51.269  42.248  1.00  0.00    -0.394 OA
ATOM     37  H   UNL     1     -24.266  50.353  41.898  1.00  0.00     0.210 HD
ENDBRANCH  35  36
ENDBRANCH  29  35
BRANCH  30  38
ATOM     38  O   UNL     1     -26.167  50.235  44.071  1.00  0.00    -0.387 OA
ATOM     39  H   UNL     1     -26.879  50.222  43.378  1.00  0.00     0.211 HD
ENDBRANCH  30  38
ENDBRANCH   1  25
TORSDOF 11
ENDMDL
MODEL 4
REMARK VINA RESULT:    -4.426      5.007      8.511
REMARK INTER + INTRA:          -7.652
REMARK INTER:                  -6.514
REMARK INTRA:                  -1.138
REMARK UNBOUND:                -1.284
REMARK SMILES O=c1cc(-c2ccc(O)c(O)c2)oc2cc(O[C@@H]3O[C@H](CO)[C@H](O)[C@H](O)[C@H]3O)cc(O)c12
REMARK SMILES IDX 17 1 16 2 4 3 3 4 13 5 2 6 14 7 1 8 32 9 15 10 30 11 29 12
REMARK SMILES IDX 5 13 6 14 7 15 8 16 12 17 10 18 9 19 11 21 31 23 18 25 27 26
REMARK SMILES IDX 19 27 25 28 20 29 23 30 28 31 26 33 21 35 22 36 24 38
REMARK H PARENT 9 20 11 22 31 24 28 32 26 34 22 37 24 39
REMARK Flexibility Score: inf
ROOT
ATOM      1  O   UNL     1     -26.979  47.716  39.750  1.00  0.00    -0.462 OA
ENDROOT
BRANCH   1   2
ATOM      2  C   UNL     1     -26.156  48.855  39.803  1.00  0.00     0.130 A 
ATOM      3  C   UNL     1     -25.100  52.889  42.109  1.00  0.00     0.138 A 
ATOM      4  C   UNL     1     -24.052  53.194  41.225  1.00  0.00     0.100 A 
ATOM      5  O   UNL     1     -25.812  51.780  41.927  1.00  0.00    -0.456 OA
ATOM      6  C   UNL     1     -23.766  52.325  40.175  1.00  0.00     0.197 A 
ATOM      7  C   UNL     1     -25.577  50.920  40.941  1.00  0.00     0.146 A 
ATOM      8  O   UNL     1     -22.819  52.604  39.389  1.00  0.00    -0.289 OA
ATOM      9  C   UNL     1     -24.539  51.158  40.008  1.00  0.00     0.107 A 
ATOM     10  C   UNL     1     -26.370  49.773  40.833  1.00  0.00     0.094 A 
ATOM     11  C   UNL     1     -24.325  50.236  38.960  1.00  0.00     0.134 A 
ATOM     12  C   UNL     1     -25.141  49.098  38.856  1.00  0.00     0.093 A 
BRANCH   3  13
ATOM     13  C   UNL     1     -25.436  53.780  43.244  1.00  0.00     0.021 A 
ATOM     14  C   UNL     1     -26.432  53.400  44.159  1.00  0.00     0.016 A 
ATOM     15  C   UNL     1     -26.759  54.227  45.237  1.00  0.00     0.051 A 
ATOM     16  C   UNL     1     -26.083  55.444  45.425  1.00  0.00     0.157 A 
ATOM     17  C   UNL     1     -24.754  54.997  43.444  1.00  0.00     0.062 A 
ATOM     18  C   UNL     1     -25.076  55.823  44.531  1.00  0.00     0.158 A 
BRANCH  16  19
ATOM     19  O   UNL     1     -26.403  56.271  46.500  1.00  0.00    -0.504 OA
ATOM     20  H   UNL     1     -26.763  57.208  46.359  1.00  0.00     0.293 HD
ENDBRANCH  16  19
BRANCH  18  21
ATOM     21  O   UNL     1     -24.392  57.024  44.731  1.00  0.00    -0.504 OA
ATOM     22  H   UNL     1     -24.051  57.297  45.648  1.00  0.00     0.293 HD
ENDBRANCH  18  21
ENDBRANCH   3  13
BRANCH  11  23
ATOM     23  O   UNL     1     -23.312  50.440  38.022  1.00  0.00    -0.507 OA
ATOM     24  H   UNL     1     -22.362  50.129  38.188  1.00  0.00     0.293 HD
ENDBRANCH  11  23
ENDBRANCH   1   2
BRANCH   1  25
ATOM     25  C   UNL     1     -27.235  46.842  40.851  1.00  0.00     0.339 C 
ATOM     26  C   UNL     1     -28.668  47.021  41.392  1.00  0.00     0.214 C 
ATOM     27  O   UNL     1     -26.915  45.493  40.533  1.00  0.00    -0.332 OA
ATOM     28  C   UNL     1     -29.742  46.366  40.494  1.00  0.00     0.180 C 
ATOM     29  C   UNL     1     -27.797  44.883  39.594  1.00  0.00     0.179 C 
ATOM     30  C   UNL     1     -29.285  44.962  40.018  1.00  0.00     0.177 C 
BRANCH  26  31
ATOM     31  O   UNL     1     -28.767  46.536  42.712  1.00  0.00    -0.384 OA
ATOM     32  H   UNL     1     -28.743  47.321  43.324  1.00  0.00     0.211 HD
ENDBRANCH  26  31
BRANCH  28  33
ATOM     33  O   UNL     1     -30.122  47.214  39.432  1.00  0.00    -0.387 OA
ATOM     34  H   UNL     1     -29.490  47.973  39.395  1.00  0.00     0.211 HD
ENDBRANCH  28  33
BRANCH  29  35
ATOM     35  C   UNL     1     -27.496  45.272  38.127  1.00  0.00     0.191 C 
BRANCH  35  36
ATOM     36  O   UNL     1     -28.544  46.063  37.626  1.00  0.00    -0.394 OA
ATOM     37  H   UNL     1     -29.364  45.495  37.640  1.00  0.00     0.210 HD
ENDBRANCH  35  36
ENDBRANCH  29  35
BRANCH  30  38
ATOM     38  O   UNL     1     -30.124  44.378  39.046  1.00  0.00    -0.387 OA
ATOM     39  H   UNL     1     -30.501  45.088  38.463  1.00  0.00     0.211 HD
ENDBRANCH  30  38
ENDBRANCH   1  25
TORSDOF 11
ENDMDL
MODEL 5
REMARK VINA RESULT:    -4.330      5.004      8.258
REMARK INTER + INTRA:          -7.512
REMARK INTER:                  -6.296
REMARK INTRA:                  -1.217
REMARK UNBOUND:                -1.284
REMARK SMILES O=c1cc(-c2ccc(O)c(O)c2)oc2cc(O[C@@H]3O[C@H](CO)[C@H](O)[C@H](O)[C@H]3O)cc(O)c12
REMARK SMILES IDX 17 1 16 2 4 3 3 4 13 5 2 6 14 7 1 8 32 9 15 10 30 11 29 12
REMARK SMILES IDX 5 13 6 14 7 15 8 16 12 17 10 18 9 19 11 21 31 23 18 25 27 26
REMARK SMILES IDX 19 27 25 28 20 29 23 30 28 31 26 33 21 35 22 36 24 38
REMARK H PARENT 9 20 11 22 31 24 28 32 26 34 22 37 24 39
REMARK Flexibility Score: inf
ROOT
ATOM      1  O   UNL     1     -27.618  53.264  33.095  1.00  0.00    -0.462 OA
ENDROOT
BRANCH   1   2
ATOM      2  C   UNL     1     -27.497  54.599  33.519  1.00  0.00     0.130 A 
ATOM      3  C   UNL     1     -26.017  57.559  36.949  1.00  0.00     0.138 A 
ATOM      4  C   UNL     1     -26.413  58.696  36.226  1.00  0.00     0.100 A 
ATOM      5  O   UNL     1     -26.210  56.349  36.430  1.00  0.00    -0.456 OA
ATOM      6  C   UNL     1     -26.994  58.541  34.969  1.00  0.00     0.197 A 
ATOM      7  C   UNL     1     -26.760  56.150  35.236  1.00  0.00     0.146 A 
ATOM      8  O   UNL     1     -27.342  59.568  34.324  1.00  0.00    -0.289 OA
ATOM      9  C   UNL     1     -27.186  57.246  34.447  1.00  0.00     0.107 A 
ATOM     10  C   UNL     1     -26.914  54.842  34.765  1.00  0.00     0.094 A 
ATOM     11  C   UNL     1     -27.784  57.003  33.190  1.00  0.00     0.134 A 
ATOM     12  C   UNL     1     -27.946  55.683  32.740  1.00  0.00     0.093 A 
BRANCH   3  13
ATOM     13  C   UNL     1     -25.388  57.675  38.286  1.00  0.00     0.021 A 
ATOM     14  C   UNL     1     -25.094  58.945  38.811  1.00  0.00     0.016 A 
ATOM     15  C   UNL     1     -24.504  59.072  40.071  1.00  0.00     0.051 A 
ATOM     16  C   UNL     1     -24.210  57.930  40.833  1.00  0.00     0.157 A 
ATOM     17  C   UNL     1     -25.101  56.533  39.059  1.00  0.00     0.062 A 
ATOM     18  C   UNL     1     -24.517  56.661  40.328  1.00  0.00     0.158 A 
BRANCH  16  19
ATOM     19  O   UNL     1     -23.624  58.051  42.092  1.00  0.00    -0.504 OA
ATOM     20  H   UNL     1     -22.625  57.949  42.224  1.00  0.00     0.293 HD
ENDBRANCH  16  19
BRANCH  18  21
ATOM     21  O   UNL     1     -24.242  55.528  41.096  1.00  0.00    -0.504 OA
ATOM     22  H   UNL     1     -23.704  55.584  41.956  1.00  0.00     0.293 HD
ENDBRANCH  18  21
ENDBRANCH   3  13
BRANCH  11  23
ATOM     23  O   UNL     1     -28.217  58.060  32.387  1.00  0.00    -0.507 OA
ATOM     24  H   UNL     1     -28.307  59.002  32.750  1.00  0.00     0.293 HD
ENDBRANCH  11  23
ENDBRANCH   1   2
BRANCH   1  25
ATOM     25  C   UNL     1     -27.266  52.124  33.880  1.00  0.00     0.339 C 
ATOM     26  C   UNL     1     -28.423  51.105  33.946  1.00  0.00     0.214 C 
ATOM     27  O   UNL     1     -26.034  51.554  33.452  1.00  0.00    -0.332 OA
ATOM     28  C   UNL     1     -28.583  50.285  32.646  1.00  0.00     0.180 C 
ATOM     29  C   UNL     1     -26.094  50.905  32.185  1.00  0.00     0.179 C 
ATOM     30  C   UNL     1     -27.202  49.826  32.106  1.00  0.00     0.177 C 
BRANCH  26  31
ATOM     31  O   UNL     1     -28.270  50.246  35.054  1.00  0.00    -0.384 OA
ATOM     32  H   UNL     1     -28.082  50.814  35.850  1.00  0.00     0.211 HD
ENDBRANCH  26  31
BRANCH  28  33
ATOM     33  O   UNL     1     -29.351  50.976  31.685  1.00  0.00    -0.387 OA
ATOM     34  H   UNL     1     -29.737  50.317  31.058  1.00  0.00     0.211 HD
ENDBRANCH  28  33
BRANCH  29  35
ATOM     35  C   UNL     1     -26.026  51.885  30.989  1.00  0.00     0.191 C 
BRANCH  35  36
ATOM     36  O   UNL     1     -27.256  51.884  30.310  1.00  0.00    -0.394 OA
ATOM     37  H   UNL     1     -27.457  50.934  30.083  1.00  0.00     0.210 HD
ENDBRANCH  35  36
ENDBRANCH  29  35
BRANCH  30  38
ATOM     38  O   UNL     1     -27.248  49.234  30.827  1.00  0.00    -0.387 OA
ATOM     39  H   UNL     1     -26.429  48.690  30.682  1.00  0.00     0.211 HD
ENDBRANCH  30  38
ENDBRANCH   1  25
TORSDOF 11
ENDMDL
MODEL 6
REMARK VINA RESULT:    -4.298      6.961     11.597
REMARK INTER + INTRA:          -7.467
REMARK INTER:                  -6.329
REMARK INTRA:                  -1.138
REMARK UNBOUND:                -1.284
REMARK SMILES O=c1cc(-c2ccc(O)c(O)c2)oc2cc(O[C@@H]3O[C@H](CO)[C@H](O)[C@H](O)[C@H]3O)cc(O)c12
REMARK SMILES IDX 17 1 16 2 4 3 3 4 13 5 2 6 14 7 1 8 32 9 15 10 30 11 29 12
REMARK SMILES IDX 5 13 6 14 7 15 8 16 12 17 10 18 9 19 11 21 31 23 18 25 27 26
REMARK SMILES IDX 19 27 25 28 20 29 23 30 28 31 26 33 21 35 22 36 24 38
REMARK H PARENT 9 20 11 22 31 24 28 32 26 34 22 37 24 39
REMARK Flexibility Score: inf
ROOT
ATOM      1  O   UNL     1     -26.020  46.346  45.484  1.00  0.00    -0.462 OA
ENDROOT
BRANCH   1   2
ATOM      2  C   UNL     1     -26.079  47.345  44.497  1.00  0.00     0.130 A 
ATOM      3  C   UNL     1     -25.964  52.017  43.561  1.00  0.00     0.138 A 
ATOM      4  C   UNL     1     -26.097  51.807  42.179  1.00  0.00     0.100 A 
ATOM      5  O   UNL     1     -25.940  50.973  44.386  1.00  0.00    -0.456 OA
ATOM      6  C   UNL     1     -26.191  50.507  41.688  1.00  0.00     0.197 A 
ATOM      7  C   UNL     1     -26.026  49.714  43.966  1.00  0.00     0.146 A 
ATOM      8  O   UNL     1     -26.305  50.328  40.445  1.00  0.00    -0.289 OA
ATOM      9  C   UNL     1     -26.163  49.421  42.587  1.00  0.00     0.107 A 
ATOM     10  C   UNL     1     -25.981  48.678  44.904  1.00  0.00     0.094 A 
ATOM     11  C   UNL     1     -26.272  48.075  42.173  1.00  0.00     0.134 A 
ATOM     12  C   UNL     1     -26.241  47.048  43.129  1.00  0.00     0.093 A 
BRANCH   3  13
ATOM     13  C   UNL     1     -25.853  53.382  44.128  1.00  0.00     0.021 A 
ATOM     14  C   UNL     1     -25.028  54.332  43.502  1.00  0.00     0.016 A 
ATOM     15  C   UNL     1     -24.914  55.624  44.022  1.00  0.00     0.051 A 
ATOM     16  C   UNL     1     -25.637  55.992  45.169  1.00  0.00     0.157 A 
ATOM     17  C   UNL     1     -26.583  53.759  45.272  1.00  0.00     0.062 A 
ATOM     18  C   UNL     1     -26.476  55.059  45.788  1.00  0.00     0.158 A 
BRANCH  16  19
ATOM     19  O   UNL     1     -25.529  57.280  45.689  1.00  0.00    -0.504 OA
ATOM     20  H   UNL     1     -26.280  57.953  45.597  1.00  0.00     0.293 HD
ENDBRANCH  16  19
BRANCH  18  21
ATOM     21  O   UNL     1     -27.208  55.432  46.917  1.00  0.00    -0.504 OA
ATOM     22  H   UNL     1     -26.761  55.853  47.727  1.00  0.00     0.293 HD
ENDBRANCH  18  21
ENDBRANCH   3  13
BRANCH  11  23
ATOM     23  O   UNL     1     -26.410  47.751  40.822  1.00  0.00    -0.507 OA
ATOM     24  H   UNL     1     -27.062  48.240  40.221  1.00  0.00     0.293 HD
ENDBRANCH  11  23
ENDBRANCH   1   2
BRANCH   1  25
ATOM     25  C   UNL     1     -26.544  46.473  46.806  1.00  0.00     0.339 C 
ATOM     26  C   UNL     1     -28.011  46.950  46.789  1.00  0.00     0.214 C 
ATOM     27  O   UNL     1     -26.345  45.286  47.565  1.00  0.00    -0.332 OA
ATOM     28  C   UNL     1     -29.006  45.835  46.394  1.00  0.00     0.180 C 
ATOM     29  C   UNL     1     -27.140  44.179  47.148  1.00  0.00     0.179 C 
ATOM     30  C   UNL     1     -28.654  44.501  47.106  1.00  0.00     0.177 C 
BRANCH  26  31
ATOM     31  O   UNL     1     -28.369  47.513  48.031  1.00  0.00    -0.384 OA
ATOM     32  H   UNL     1     -27.527  47.720  48.521  1.00  0.00     0.211 HD
ENDBRANCH  26  31
BRANCH  28  33
ATOM     33  O   UNL     1     -29.114  45.704  44.993  1.00  0.00    -0.387 OA
ATOM     34  H   UNL     1     -28.783  44.809  44.735  1.00  0.00     0.211 HD
ENDBRANCH  28  33
BRANCH  29  35
ATOM     35  C   UNL     1     -26.574  43.450  45.906  1.00  0.00     0.191 C 
BRANCH  35  36
ATOM     36  O   UNL     1     -27.411  43.684  44.802  1.00  0.00    -0.394 OA
ATOM     37  H   UNL     1     -27.869  42.820  44.602  1.00  0.00     0.210 HD
ENDBRANCH  35  36
ENDBRANCH  29  35
BRANCH  30  38
ATOM     38  O   UNL     1     -29.400  43.391  46.656  1.00  0.00    -0.387 OA
ATOM     39  H   UNL     1     -30.370  43.580  46.755  1.00  0.00     0.211 HD
ENDBRANCH  30  38
ENDBRANCH   1  25
TORSDOF 11
ENDMDL
MODEL 7
REMARK VINA RESULT:    -4.281      4.733      9.156
REMARK INTER + INTRA:          -7.442
REMARK INTER:                  -6.231
REMARK INTRA:                  -1.212
REMARK UNBOUND:                -1.284
REMARK SMILES O=c1cc(-c2ccc(O)c(O)c2)oc2cc(O[C@@H]3O[C@H](CO)[C@H](O)[C@H](O)[C@H]3O)cc(O)c12
REMARK SMILES IDX 17 1 16 2 4 3 3 4 13 5 2 6 14 7 1 8 32 9 15 10 30 11 29 12
REMARK SMILES IDX 5 13 6 14 7 15 8 16 12 17 10 18 9 19 11 21 31 23 18 25 27 26
REMARK SMILES IDX 19 27 25 28 20 29 23 30 28 31 26 33 21 35 22 36 24 38
REMARK H PARENT 9 20 11 22 31 24 28 32 26 34 22 37 24 39
REMARK Flexibility Score: inf
ROOT
ATOM      1  O   UNL     1     -25.809  48.826  40.607  1.00  0.00    -0.462 OA
ENDROOT
BRANCH   1   2
ATOM      2  C   UNL     1     -25.772  49.916  41.494  1.00  0.00     0.130 A 
ATOM      3  C   UNL     1     -24.990  54.587  42.019  1.00  0.00     0.138 A 
ATOM      4  C   UNL     1     -25.285  54.546  43.392  1.00  0.00     0.100 A 
ATOM      5  O   UNL     1     -25.047  53.469  41.301  1.00  0.00    -0.456 OA
ATOM      6  C   UNL     1     -25.644  53.336  43.980  1.00  0.00     0.197 A 
ATOM      7  C   UNL     1     -25.385  52.291  41.816  1.00  0.00     0.146 A 
ATOM      8  O   UNL     1     -25.912  53.309  45.213  1.00  0.00    -0.289 OA
ATOM      9  C   UNL     1     -25.695  52.168  43.192  1.00  0.00     0.107 A 
ATOM     10  C   UNL     1     -25.431  51.169  40.982  1.00  0.00     0.094 A 
ATOM     11  C   UNL     1     -26.033  50.900  43.715  1.00  0.00     0.134 A 
ATOM     12  C   UNL     1     -26.057  49.781  42.867  1.00  0.00     0.093 A 
BRANCH   3  13
ATOM     13  C   UNL     1     -24.610  55.853  41.349  1.00  0.00     0.021 A 
ATOM     14  C   UNL     1     -23.928  56.848  42.070  1.00  0.00     0.016 A 
ATOM     15  C   UNL     1     -23.560  58.046  41.452  1.00  0.00     0.051 A 
ATOM     16  C   UNL     1     -23.857  58.263  40.097  1.00  0.00     0.157 A 
ATOM     17  C   UNL     1     -24.896  56.073  39.987  1.00  0.00     0.062 A 
ATOM     18  C   UNL     1     -24.518  57.271  39.365  1.00  0.00     0.158 A 
BRANCH  16  19
ATOM     19  O   UNL     1     -23.490  59.455  39.476  1.00  0.00    -0.504 OA
ATOM     20  H   UNL     1     -24.178  60.153  39.218  1.00  0.00     0.293 HD
ENDBRANCH  16  19
BRANCH  18  21
ATOM     21  O   UNL     1     -24.795  57.482  38.012  1.00  0.00    -0.504 OA
ATOM     22  H   UNL     1     -25.572  57.020  37.549  1.00  0.00     0.293 HD
ENDBRANCH  18  21
ENDBRANCH   3  13
BRANCH  11  23
ATOM     23  O   UNL     1     -26.342  50.743  45.068  1.00  0.00    -0.507 OA
ATOM     24  H   UNL     1     -26.804  51.473  45.597  1.00  0.00     0.293 HD
ENDBRANCH  11  23
ENDBRANCH   1   2
BRANCH   1  25
ATOM     25  C   UNL     1     -26.582  47.641  40.802  1.00  0.00     0.339 C 
ATOM     26  C   UNL     1     -28.093  47.926  40.680  1.00  0.00     0.214 C 
ATOM     27  O   UNL     1     -26.137  46.581  39.962  1.00  0.00    -0.332 OA
ATOM     28  C   UNL     1     -28.560  48.109  39.218  1.00  0.00     0.180 C 
ATOM     29  C   UNL     1     -26.418  46.770  38.577  1.00  0.00     0.179 C 
ATOM     30  C   UNL     1     -27.916  47.042  38.293  1.00  0.00     0.177 C 
BRANCH  26  31
ATOM     31  O   UNL     1     -28.845  46.915  41.314  1.00  0.00    -0.384 OA
ATOM     32  H   UNL     1     -28.203  46.252  41.687  1.00  0.00     0.211 HD
ENDBRANCH  26  31
BRANCH  28  33
ATOM     33  O   UNL     1     -28.354  49.430  38.766  1.00  0.00    -0.387 OA
ATOM     34  H   UNL     1     -29.205  49.774  38.400  1.00  0.00     0.211 HD
ENDBRANCH  28  33
BRANCH  29  35
ATOM     35  C   UNL     1     -25.417  47.715  37.871  1.00  0.00     0.191 C 
BRANCH  35  36
ATOM     36  O   UNL     1     -26.037  48.950  37.618  1.00  0.00    -0.394 OA
ATOM     37  H   UNL     1     -25.591  49.621  38.207  1.00  0.00     0.210 HD
ENDBRANCH  35  36
ENDBRANCH  29  35
BRANCH  30  38
ATOM     38  O   UNL     1     -28.143  47.255  36.917  1.00  0.00    -0.387 OA
ATOM     39  H   UNL     1     -28.402  46.398  36.487  1.00  0.00     0.211 HD
ENDBRANCH  30  38
ENDBRANCH   1  25
TORSDOF 11
ENDMDL
MODEL 8
REMARK VINA RESULT:    -4.265      1.937      8.198
REMARK INTER + INTRA:          -7.420
REMARK INTER:                  -6.322
REMARK INTRA:                  -1.098
REMARK UNBOUND:                -1.284
REMARK SMILES O=c1cc(-c2ccc(O)c(O)c2)oc2cc(O[C@@H]3O[C@H](CO)[C@H](O)[C@H](O)[C@H]3O)cc(O)c12
REMARK SMILES IDX 17 1 16 2 4 3 3 4 13 5 2 6 14 7 1 8 32 9 15 10 30 11 29 12
REMARK SMILES IDX 5 13 6 14 7 15 8 16 12 17 10 18 9 19 11 21 31 23 18 25 27 26
REMARK SMILES IDX 19 27 25 28 20 29 23 30 28 31 26 33 21 35 22 36 24 38
REMARK H PARENT 9 20 11 22 31 24 28 32 26 34 22 37 24 39
REMARK Flexibility Score: inf
ROOT
ATOM      1  O   UNL     1     -27.265  46.893  37.632  1.00  0.00    -0.462 OA
ENDROOT
BRANCH   1   2
ATOM      2  C   UNL     1     -27.767  47.230  36.363  1.00  0.00     0.130 A 
ATOM      3  C   UNL     1     -28.005  50.531  32.934  1.00  0.00     0.138 A 
ATOM      4  C   UNL     1     -28.789  49.708  32.109  1.00  0.00     0.100 A 
ATOM      5  O   UNL     1     -27.613  50.087  34.125  1.00  0.00    -0.456 OA
ATOM      6  C   UNL     1     -29.137  48.432  32.545  1.00  0.00     0.197 A 
ATOM      7  C   UNL     1     -27.919  48.878  34.585  1.00  0.00     0.146 A 
ATOM      8  O   UNL     1     -29.837  47.698  31.796  1.00  0.00    -0.289 OA
ATOM      9  C   UNL     1     -28.707  47.990  33.813  1.00  0.00     0.107 A 
ATOM     10  C   UNL     1     -27.454  48.489  35.846  1.00  0.00     0.094 A 
ATOM     11  C   UNL     1     -29.033  46.719  34.337  1.00  0.00     0.134 A 
ATOM     12  C   UNL     1     -28.572  46.352  35.611  1.00  0.00     0.093 A 
BRANCH   3  13
ATOM     13  C   UNL     1     -27.603  51.893  32.508  1.00  0.00     0.021 A 
ATOM     14  C   UNL     1     -26.562  52.055  31.579  1.00  0.00     0.016 A 
ATOM     15  C   UNL     1     -26.173  53.332  31.165  1.00  0.00     0.051 A 
ATOM     16  C   UNL     1     -26.831  54.468  31.664  1.00  0.00     0.157 A 
ATOM     17  C   UNL     1     -28.266  53.036  32.997  1.00  0.00     0.062 A 
ATOM     18  C   UNL     1     -27.882  54.317  32.574  1.00  0.00     0.158 A 
BRANCH  16  19
ATOM     19  O   UNL     1     -26.449  55.743  31.251  1.00  0.00    -0.504 OA
ATOM     20  H   UNL     1     -26.906  56.574  31.607  1.00  0.00     0.293 HD
ENDBRANCH  16  19
BRANCH  18  21
ATOM     21  O   UNL     1     -28.548  55.447  33.054  1.00  0.00    -0.504 OA
ATOM     22  H   UNL     1     -29.524  55.414  33.331  1.00  0.00     0.293 HD
ENDBRANCH  18  21
ENDBRANCH   3  13
BRANCH  11  23
ATOM     23  O   UNL     1     -29.809  45.820  33.603  1.00  0.00    -0.507 OA
ATOM     24  H   UNL     1     -29.825  45.833  32.590  1.00  0.00     0.293 HD
ENDBRANCH  11  23
ENDBRANCH   1   2
BRANCH   1  25
ATOM     25  C   UNL     1     -26.920  47.834  38.650  1.00  0.00     0.339 C 
ATOM     26  C   UNL     1     -28.145  48.662  39.092  1.00  0.00     0.214 C 
ATOM     27  O   UNL     1     -26.240  47.209  39.732  1.00  0.00    -0.332 OA
ATOM     28  C   UNL     1     -29.110  47.875  40.007  1.00  0.00     0.180 C 
ATOM     29  C   UNL     1     -27.058  46.355  40.528  1.00  0.00     0.179 C 
ATOM     30  C   UNL     1     -28.325  47.061  41.070  1.00  0.00     0.177 C 
BRANCH  26  31
ATOM     31  O   UNL     1     -27.739  49.859  39.716  1.00  0.00    -0.384 OA
ATOM     32  H   UNL     1     -26.824  50.074  39.389  1.00  0.00     0.211 HD
ENDBRANCH  26  31
BRANCH  28  33
ATOM     33  O   UNL     1     -30.011  47.086  39.261  1.00  0.00    -0.387 OA
ATOM     34  H   UNL     1     -29.593  46.207  39.092  1.00  0.00     0.211 HD
ENDBRANCH  28  33
BRANCH  29  35
ATOM     35  C   UNL     1     -27.283  44.960  39.899  1.00  0.00     0.191 C 
BRANCH  35  36
ATOM     36  O   UNL     1     -28.620  44.844  39.482  1.00  0.00    -0.394 OA
ATOM     37  H   UNL     1     -29.086  45.676  39.776  1.00  0.00     0.210 HD
ENDBRANCH  35  36
ENDBRANCH  29  35
BRANCH  30  38
ATOM     38  O   UNL     1     -29.121  46.173  41.823  1.00  0.00    -0.387 OA
ATOM     39  H   UNL     1     -28.866  45.236  41.610  1.00  0.00     0.211 HD
ENDBRANCH  30  38
ENDBRANCH   1  25
TORSDOF 11
ENDMDL
