MODEL 1
REMARK VINA RESULT:     7.164      0.000      0.000
REMARK INTER + INTRA:           8.479
REMARK INTER:                   8.839
REMARK INTRA:                  -0.360
REMARK UNBOUND:                -0.360
REMARK SMILES COc1cc(-c2oc3cc(O)cc(O)c3c(=O)c2O)ccc1O
REMARK SMILES IDX 6 1 18 2 16 3 17 4 15 5 13 6 12 7 10 8 9 9 8 10 7 11 5 12
REMARK SMILES IDX 3 13 22 14 4 15 21 16 20 17 2 18 1 19 23 20 19 22 14 24
REMARK SMILES IDX 11 26
REMARK H PARENT 23 21 19 23 14 25 11 27
REMARK Flexibility Score: inf
ROOT
ATOM      1  C   UNL     1      10.015 -18.983   6.306  1.00  0.00     0.180 A 
ATOM      2  C   UNL     1       9.327 -18.749   5.103  1.00  0.00     0.208 A 
ATOM      3  C   UNL     1       9.945 -17.979   4.104  1.00  0.00     0.238 A 
ATOM      4  O   UNL     1       9.302 -17.727   3.052  1.00  0.00    -0.285 OA
ATOM      5  C   UNL     1      11.248 -17.467   4.314  1.00  0.00     0.111 A 
ATOM      6  C   UNL     1      11.985 -16.708   3.356  1.00  0.00     0.134 A 
ATOM      7  C   UNL     1      13.213 -16.142   3.720  1.00  0.00     0.093 A 
ATOM      8  C   UNL     1      13.760 -16.362   4.987  1.00  0.00     0.123 A 
ATOM      9  C   UNL     1      13.076 -17.151   5.909  1.00  0.00     0.094 A 
ATOM     10  C   UNL     1      11.832 -17.699   5.587  1.00  0.00     0.146 A 
ATOM     11  O   UNL     1      11.209 -18.435   6.499  1.00  0.00    -0.452 OA
ENDROOT
BRANCH   1  12
ATOM     12  C   UNL     1       9.439 -19.805   7.396  1.00  0.00     0.025 A 
ATOM     13  C   UNL     1       8.400 -19.932   9.607  1.00  0.00     0.161 A 
ATOM     14  C   UNL     1       8.394 -21.336   9.513  1.00  0.00     0.157 A 
ATOM     15  C   UNL     1       8.933 -19.175   8.544  1.00  0.00     0.062 A 
ATOM     16  C   UNL     1       8.917 -21.964   8.379  1.00  0.00     0.051 A 
ATOM     17  C   UNL     1       9.443 -21.208   7.330  1.00  0.00     0.016 A 
BRANCH  13  18
ATOM     18  O   UNL     1       7.875 -19.328  10.760  1.00  0.00    -0.493 OA
ATOM     19  C   UNL     1       7.880 -17.926  11.012  1.00  0.00     0.278 C 
ENDBRANCH  13  18
BRANCH  14  20
ATOM     20  O   UNL     1       7.876 -22.124  10.540  1.00  0.00    -0.504 OA
ATOM     21  H   UNL     1       7.629 -23.097  10.403  1.00  0.00     0.293 HD
ENDBRANCH  14  20
ENDBRANCH   1  12
BRANCH   2  22
ATOM     22  O   UNL     1       8.033 -19.245   4.925  1.00  0.00    -0.502 OA
ATOM     23  H   UNL     1       7.352 -19.270   5.673  1.00  0.00     0.293 HD
ENDBRANCH   2  22
BRANCH   6  24
ATOM     24  O   UNL     1      11.572 -16.507   2.036  1.00  0.00    -0.507 OA
ATOM     25  H   UNL     1      10.990 -17.143   1.513  1.00  0.00     0.293 HD
ENDBRANCH   6  24
BRANCH   8  26
ATOM     26  O   UNL     1      14.990 -15.808   5.335  1.00  0.00    -0.508 OA
ATOM     27  H   UNL     1      15.100 -15.242   6.168  1.00  0.00     0.293 HD
ENDBRANCH   8  26
TORSDOF 6
ENDMDL
MODEL 2
REMARK VINA RESULT:     7.772      1.315      2.967
REMARK INTER + INTRA:           9.229
REMARK INTER:                   9.603
REMARK INTRA:                  -0.373
REMARK UNBOUND:                -0.360
REMARK SMILES COc1cc(-c2oc3cc(O)cc(O)c3c(=O)c2O)ccc1O
REMARK SMILES IDX 6 1 18 2 16 3 17 4 15 5 13 6 12 7 10 8 9 9 8 10 7 11 5 12
REMARK SMILES IDX 3 13 22 14 4 15 21 16 20 17 2 18 1 19 23 20 19 22 14 24
REMARK SMILES IDX 11 26
REMARK H PARENT 23 21 19 23 14 25 11 27
REMARK Flexibility Score: inf
ROOT
ATOM      1  C   UNL     1      11.426 -18.817   7.008  1.00  0.00     0.180 A 
ATOM      2  C   UNL     1      12.664 -18.413   7.539  1.00  0.00     0.208 A 
ATOM      3  C   UNL     1      13.491 -17.574   6.774  1.00  0.00     0.238 A 
ATOM      4  O   UNL     1      14.620 -17.260   7.232  1.00  0.00    -0.285 OA
ATOM      5  C   UNL     1      13.064 -17.137   5.498  1.00  0.00     0.111 A 
ATOM      6  C   UNL     1      13.803 -16.255   4.653  1.00  0.00     0.134 A 
ATOM      7  C   UNL     1      13.345 -15.993   3.357  1.00  0.00     0.093 A 
ATOM      8  C   UNL     1      12.140 -16.532   2.896  1.00  0.00     0.123 A 
ATOM      9  C   UNL     1      11.382 -17.346   3.733  1.00  0.00     0.094 A 
ATOM     10  C   UNL     1      11.832 -17.654   5.020  1.00  0.00     0.146 A 
ATOM     11  O   UNL     1      11.083 -18.443   5.781  1.00  0.00    -0.452 OA
ENDROOT
BRANCH   1  12
ATOM     12  C   UNL     1      10.489 -19.680   7.763  1.00  0.00     0.025 A 
ATOM     13  C   UNL     1       8.749 -19.904   9.468  1.00  0.00     0.161 A 
ATOM     14  C   UNL     1       8.739 -21.296   9.261  1.00  0.00     0.157 A 
ATOM     15  C   UNL     1       9.635 -19.105   8.718  1.00  0.00     0.062 A 
ATOM     16  C   UNL     1       9.603 -21.871   8.326  1.00  0.00     0.051 A 
ATOM     17  C   UNL     1      10.478 -21.074   7.586  1.00  0.00     0.016 A 
BRANCH  13  18
ATOM     18  O   UNL     1       7.875 -19.355  10.419  1.00  0.00    -0.493 OA
ATOM     19  C   UNL     1       7.876 -17.989  10.822  1.00  0.00     0.278 C 
ENDBRANCH  13  18
BRANCH  14  20
ATOM     20  O   UNL     1       7.878 -22.125   9.981  1.00  0.00    -0.504 OA
ATOM     21  H   UNL     1       8.164 -22.591  10.833  1.00  0.00     0.293 HD
ENDBRANCH  14  20
ENDBRANCH   1  12
BRANCH   2  22
ATOM     22  O   UNL     1      13.075 -18.874   8.792  1.00  0.00    -0.502 OA
ATOM     23  H   UNL     1      12.462 -19.390   9.411  1.00  0.00     0.293 HD
ENDBRANCH   2  22
BRANCH   6  24
ATOM     24  O   UNL     1      14.970 -15.592   5.048  1.00  0.00    -0.507 OA
ATOM     25  H   UNL     1      15.899 -15.832   4.740  1.00  0.00     0.293 HD
ENDBRANCH   6  24
BRANCH   8  26
ATOM     26  O   UNL     1      11.684 -16.253   1.610  1.00  0.00    -0.508 OA
ATOM     27  H   UNL     1      12.097 -16.690   0.795  1.00  0.00     0.293 HD
ENDBRANCH   8  26
TORSDOF 6
ENDMDL
