MODEL 1
REMARK VINA RESULT:    -4.994      0.000      0.000
REMARK INTER + INTRA:          -5.510
REMARK INTER:                  -5.432
REMARK INTRA:                  -0.078
REMARK UNBOUND:                -0.078
REMARK SMILES O=C([O-])c1ccccc1O
REMARK SMILES IDX 4 1 9 2 5 3 8 4 6 5 7 6 2 7 1 8 3 9 10 10
REMARK H PARENT 10 11
REMARK Flexibility Score: inf
ROOT
ATOM      1  C   UNL     1      -0.555  -0.308   0.620  1.00  0.00     0.039 A 
ATOM      2  C   UNL     1      -1.776  -1.024   0.504  1.00  0.00     0.124 A 
ATOM      3  C   UNL     1      -0.580   1.096   0.531  1.00  0.00     0.014 A 
ATOM      4  C   UNL     1      -2.980  -0.322   0.366  1.00  0.00     0.047 A 
ATOM      5  C   UNL     1      -1.787   1.779   0.373  1.00  0.00     0.001 A 
ATOM      6  C   UNL     1      -2.987   1.071   0.301  1.00  0.00     0.004 A 
ENDROOT
BRANCH   1   7
ATOM      7  C   UNL     1       0.745  -0.973   0.865  1.00  0.00     0.075 C 
ATOM      8  O   UNL     1       1.186  -1.120   2.035  1.00  0.00    -0.545 OA
ATOM      9  O   UNL     1       1.529  -1.381  -0.207  1.00  0.00    -0.545 OA
ENDBRANCH   1   7
BRANCH   2  10
ATOM     10  O   UNL     1      -1.833  -2.420   0.485  1.00  0.00    -0.507 OA
ATOM     11  H   UNL     1      -1.449  -3.005   1.215  1.00  0.00     0.293 HD
ENDBRANCH   2  10
TORSDOF 2
ENDMDL
MODEL 2
REMARK VINA RESULT:    -4.804      2.173      3.374
REMARK INTER + INTRA:          -5.303
REMARK INTER:                  -5.071
REMARK INTRA:                  -0.232
REMARK UNBOUND:                -0.078
REMARK SMILES O=C([O-])c1ccccc1O
REMARK SMILES IDX 4 1 9 2 5 3 8 4 6 5 7 6 2 7 1 8 3 9 10 10
REMARK H PARENT 10 11
REMARK Flexibility Score: inf
ROOT
ATOM      1  C   UNL     1      -0.895  -0.191   0.436  1.00  0.00     0.039 A 
ATOM      2  C   UNL     1      -1.554  -1.446   0.517  1.00  0.00     0.124 A 
ATOM      3  C   UNL     1       0.494  -0.167   0.219  1.00  0.00     0.014 A 
ATOM      4  C   UNL     1      -0.825  -2.626   0.318  1.00  0.00     0.047 A 
ATOM      5  C   UNL     1       1.210  -1.353   0.044  1.00  0.00     0.001 A 
ATOM      6  C   UNL     1       0.549  -2.580   0.083  1.00  0.00     0.004 A 
ENDROOT
BRANCH   1   7
ATOM      7  C   UNL     1      -1.613   1.100   0.537  1.00  0.00     0.075 C 
ATOM      8  O   UNL     1      -1.012   2.148   0.888  1.00  0.00    -0.545 OA
ATOM      9  O   UNL     1      -2.983   1.152   0.310  1.00  0.00    -0.545 OA
ENDBRANCH   1   7
BRANCH   2  10
ATOM     10  O   UNL     1      -2.912  -1.567   0.824  1.00  0.00    -0.507 OA
ATOM     11  H   UNL     1      -3.293  -1.406   1.746  1.00  0.00     0.293 HD
ENDBRANCH   2  10
TORSDOF 2
ENDMDL
MODEL 3
REMARK VINA RESULT:    -4.629      1.485      2.279
REMARK INTER + INTRA:          -5.113
REMARK INTER:                  -4.909
REMARK INTRA:                  -0.204
REMARK UNBOUND:                -0.078
REMARK SMILES O=C([O-])c1ccccc1O
REMARK SMILES IDX 4 1 9 2 5 3 8 4 6 5 7 6 2 7 1 8 3 9 10 10
REMARK H PARENT 10 11
REMARK Flexibility Score: inf
ROOT
ATOM      1  C   UNL     1      -0.955  -0.299   0.537  1.00  0.00     0.039 A 
ATOM      2  C   UNL     1      -1.535   0.995   0.469  1.00  0.00     0.124 A 
ATOM      3  C   UNL     1      -1.802  -1.423   0.541  1.00  0.00     0.014 A 
ATOM      4  C   UNL     1      -2.924   1.127   0.345  1.00  0.00     0.047 A 
ATOM      5  C   UNL     1      -3.186  -1.273   0.438  1.00  0.00     0.001 A 
ATOM      6  C   UNL     1      -3.745   0.000   0.329  1.00  0.00     0.004 A 
ENDROOT
BRANCH   1   7
ATOM      7  C   UNL     1       0.508  -0.523   0.570  1.00  0.00     0.075 C 
ATOM      8  O   UNL     1       1.051  -1.107   1.544  1.00  0.00    -0.545 OA
ATOM      9  O   UNL     1       1.310  -0.025  -0.449  1.00  0.00    -0.545 OA
ENDBRANCH   1   7
BRANCH   2  10
ATOM     10  O   UNL     1      -0.777   2.166   0.555  1.00  0.00    -0.507 OA
ATOM     11  H   UNL     1      -0.058   2.417  -0.109  1.00  0.00     0.293 HD
ENDBRANCH   2  10
TORSDOF 2
ENDMDL
MODEL 4
REMARK VINA RESULT:    -4.518      1.239      2.339
REMARK INTER + INTRA:          -4.992
REMARK INTER:                  -4.740
REMARK INTRA:                  -0.252
REMARK UNBOUND:                -0.078
REMARK SMILES O=C([O-])c1ccccc1O
REMARK SMILES IDX 4 1 9 2 5 3 8 4 6 5 7 6 2 7 1 8 3 9 10 10
REMARK H PARENT 10 11
REMARK Flexibility Score: inf
ROOT
ATOM      1  C   UNL     1      -1.272  -1.176   0.431  1.00  0.00     0.039 A 
ATOM      2  C   UNL     1      -0.660   0.098   0.305  1.00  0.00     0.124 A 
ATOM      3  C   UNL     1      -2.675  -1.251   0.512  1.00  0.00     0.014 A 
ATOM      4  C   UNL     1      -1.459   1.244   0.201  1.00  0.00     0.047 A 
ATOM      5  C   UNL     1      -3.456  -0.097   0.427  1.00  0.00     0.001 A 
ATOM      6  C   UNL     1      -2.849   1.148   0.262  1.00  0.00     0.004 A 
ENDROOT
BRANCH   1   7
ATOM      7  C   UNL     1      -0.500  -2.439   0.448  1.00  0.00     0.075 C 
ATOM      8  O   UNL     1      -0.837  -3.394   1.196  1.00  0.00    -0.545 OA
ATOM      9  O   UNL     1       0.653  -2.558  -0.319  1.00  0.00    -0.545 OA
ENDBRANCH   1   7
BRANCH   2  10
ATOM     10  O   UNL     1       0.727   0.273   0.314  1.00  0.00    -0.507 OA
ATOM     11  H   UNL     1       1.331  -0.016  -0.442  1.00  0.00     0.293 HD
ENDBRANCH   2  10
TORSDOF 2
ENDMDL
MODEL 5
REMARK VINA RESULT:    -4.430      2.127      3.838
REMARK INTER + INTRA:          -4.896
REMARK INTER:                  -4.648
REMARK INTRA:                  -0.248
REMARK UNBOUND:                -0.078
REMARK SMILES O=C([O-])c1ccccc1O
REMARK SMILES IDX 4 1 9 2 5 3 8 4 6 5 7 6 2 7 1 8 3 9 10 10
REMARK H PARENT 10 11
REMARK Flexibility Score: inf
ROOT
ATOM      1  C   UNL     1      -1.045  -0.396   0.370  1.00  0.00     0.039 A 
ATOM      2  C   UNL     1       0.304  -0.592  -0.028  1.00  0.00     0.124 A 
ATOM      3  C   UNL     1      -1.841  -1.521   0.649  1.00  0.00     0.014 A 
ATOM      4  C   UNL     1       0.831  -1.889  -0.074  1.00  0.00     0.047 A 
ATOM      5  C   UNL     1      -1.306  -2.809   0.578  1.00  0.00     0.001 A 
ATOM      6  C   UNL     1       0.032  -2.992   0.227  1.00  0.00     0.004 A 
ENDROOT
BRANCH   1   7
ATOM      7  C   UNL     1      -1.645   0.947   0.538  1.00  0.00     0.075 C 
ATOM      8  O   UNL     1      -0.953   1.919   0.939  1.00  0.00    -0.545 OA
ATOM      9  O   UNL     1      -3.004   1.133   0.317  1.00  0.00    -0.545 OA
ENDBRANCH   1   7
BRANCH   2  10
ATOM     10  O   UNL     1       1.137   0.461  -0.415  1.00  0.00    -0.507 OA
ATOM     11  H   UNL     1       1.686   0.456  -1.264  1.00  0.00     0.293 HD
ENDBRANCH   2  10
TORSDOF 2
ENDMDL
MODEL 6
REMARK VINA RESULT:    -4.184      9.869     10.855
REMARK INTER + INTRA:          -4.628
REMARK INTER:                  -4.381
REMARK INTRA:                  -0.248
REMARK UNBOUND:                -0.078
REMARK SMILES O=C([O-])c1ccccc1O
REMARK SMILES IDX 4 1 9 2 5 3 8 4 6 5 7 6 2 7 1 8 3 9 10 10
REMARK H PARENT 10 11
REMARK Flexibility Score: inf
ROOT
ATOM      1  C   UNL     1      -5.017  -0.309  -8.940  1.00  0.00     0.039 A 
ATOM      2  C   UNL     1      -3.818  -0.791  -8.352  1.00  0.00     0.124 A 
ATOM      3  C   UNL     1      -5.711  -1.136  -9.842  1.00  0.00     0.014 A 
ATOM      4  C   UNL     1      -3.385  -2.094  -8.630  1.00  0.00     0.047 A 
ATOM      5  C   UNL     1      -5.254  -2.424 -10.125  1.00  0.00     0.001 A 
ATOM      6  C   UNL     1      -4.098  -2.906  -9.512  1.00  0.00     0.004 A 
ENDROOT
BRANCH   1   7
ATOM      7  C   UNL     1      -5.591   1.018  -8.620  1.00  0.00     0.075 C 
ATOM      8  O   UNL     1      -4.873   2.051  -8.621  1.00  0.00    -0.545 OA
ATOM      9  O   UNL     1      -6.925   1.125  -8.244  1.00  0.00    -0.545 OA
ENDBRANCH   1   7
BRANCH   2  10
ATOM     10  O   UNL     1      -3.016  -0.004  -7.521  1.00  0.00    -0.507 OA
ATOM     11  H   UNL     1      -2.696  -0.301  -6.610  1.00  0.00     0.293 HD
ENDBRANCH   2  10
TORSDOF 2
ENDMDL
MODEL 7
REMARK VINA RESULT:    -4.030     10.171     10.990
REMARK INTER + INTRA:          -4.462
REMARK INTER:                  -4.263
REMARK INTRA:                  -0.198
REMARK UNBOUND:                -0.078
REMARK SMILES O=C([O-])c1ccccc1O
REMARK SMILES IDX 4 1 9 2 5 3 8 4 6 5 7 6 2 7 1 8 3 9 10 10
REMARK H PARENT 10 11
REMARK Flexibility Score: inf
ROOT
ATOM      1  C   UNL     1      -5.291   1.030  -8.850  1.00  0.00     0.039 A 
ATOM      2  C   UNL     1      -5.470   2.186  -9.655  1.00  0.00     0.124 A 
ATOM      3  C   UNL     1      -6.427   0.376  -8.339  1.00  0.00     0.014 A 
ATOM      4  C   UNL     1      -6.765   2.613  -9.975  1.00  0.00     0.047 A 
ATOM      5  C   UNL     1      -7.711   0.827  -8.651  1.00  0.00     0.001 A 
ATOM      6  C   UNL     1      -7.880   1.939  -9.477  1.00  0.00     0.004 A 
ENDROOT
BRANCH   1   7
ATOM      7  C   UNL     1      -3.959   0.461  -8.549  1.00  0.00     0.075 C 
ATOM      8  O   UNL     1      -3.831  -0.494  -7.739  1.00  0.00    -0.545 OA
ATOM      9  O   UNL     1      -2.819   1.025  -9.110  1.00  0.00    -0.545 OA
ENDBRANCH   1   7
BRANCH   2  10
ATOM     10  O   UNL     1      -4.400   2.952 -10.124  1.00  0.00    -0.507 OA
ATOM     11  H   UNL     1      -3.829   2.689 -10.915  1.00  0.00     0.293 HD
ENDBRANCH   2  10
TORSDOF 2
ENDMDL
MODEL 8
REMARK VINA RESULT:    -3.883     11.292     12.495
REMARK INTER + INTRA:          -4.301
REMARK INTER:                  -4.065
REMARK INTRA:                  -0.236
REMARK UNBOUND:                -0.078
REMARK SMILES O=C([O-])c1ccccc1O
REMARK SMILES IDX 4 1 9 2 5 3 8 4 6 5 7 6 2 7 1 8 3 9 10 10
REMARK H PARENT 10 11
REMARK Flexibility Score: inf
ROOT
ATOM      1  C   UNL     1      -8.040   0.493  -9.102  1.00  0.00     0.039 A 
ATOM      2  C   UNL     1      -6.951   1.358  -8.819  1.00  0.00     0.124 A 
ATOM      3  C   UNL     1      -7.788  -0.722  -9.766  1.00  0.00     0.014 A 
ATOM      4  C   UNL     1      -5.648   0.961  -9.146  1.00  0.00     0.047 A 
ATOM      5  C   UNL     1      -6.485  -1.093 -10.104  1.00  0.00     0.001 A 
ATOM      6  C   UNL     1      -5.415  -0.256  -9.785  1.00  0.00     0.004 A 
ENDROOT
BRANCH   1   7
ATOM      7  C   UNL     1      -9.432   0.796  -8.700  1.00  0.00     0.075 C 
ATOM      8  O   UNL     1      -9.984   1.875  -9.041  1.00  0.00    -0.545 OA
ATOM      9  O   UNL     1     -10.125  -0.083  -7.876  1.00  0.00    -0.545 OA
ENDBRANCH   1   7
BRANCH   2  10
ATOM     10  O   UNL     1      -7.121   2.623  -8.250  1.00  0.00    -0.507 OA
ATOM     11  H   UNL     1      -6.868   2.846  -7.297  1.00  0.00     0.293 HD
ENDBRANCH   2  10
TORSDOF 2
ENDMDL
MODEL 9
REMARK VINA RESULT:    -3.870     10.125     10.986
REMARK INTER + INTRA:          -4.287
REMARK INTER:                  -4.035
REMARK INTRA:                  -0.252
REMARK UNBOUND:                -0.078
REMARK SMILES O=C([O-])c1ccccc1O
REMARK SMILES IDX 4 1 9 2 5 3 8 4 6 5 7 6 2 7 1 8 3 9 10 10
REMARK H PARENT 10 11
REMARK Flexibility Score: inf
ROOT
ATOM      1  C   UNL     1      -5.085   0.418  -8.807  1.00  0.00     0.039 A 
ATOM      2  C   UNL     1      -5.603  -0.721  -9.478  1.00  0.00     0.124 A 
ATOM      3  C   UNL     1      -3.782   0.363  -8.281  1.00  0.00     0.014 A 
ATOM      4  C   UNL     1      -4.790  -1.848  -9.657  1.00  0.00     0.047 A 
ATOM      5  C   UNL     1      -2.992  -0.776  -8.450  1.00  0.00     0.001 A 
ATOM      6  C   UNL     1      -3.493  -1.876  -9.146  1.00  0.00     0.004 A 
ENDROOT
BRANCH   1   7
ATOM      7  C   UNL     1      -5.847   1.680  -8.665  1.00  0.00     0.075 C 
ATOM      8  O   UNL     1      -5.276   2.796  -8.776  1.00  0.00    -0.545 OA
ATOM      9  O   UNL     1      -7.196   1.643  -8.336  1.00  0.00    -0.545 OA
ENDBRANCH   1   7
BRANCH   2  10
ATOM     10  O   UNL     1      -6.917  -0.788  -9.948  1.00  0.00    -0.507 OA
ATOM     11  H   UNL     1      -7.178  -0.606 -10.907  1.00  0.00     0.293 HD
ENDBRANCH   2  10
TORSDOF 2
ENDMDL
