MODEL 1
REMARK VINA RESULT:    15.194      0.000      0.000
REMARK INTER + INTRA:          20.456
REMARK INTER:                  18.747
REMARK INTRA:                   1.709
REMARK UNBOUND:                 1.709
REMARK SMILES C=CCc1ccc(OC)c(OC)c1
REMARK SMILES IDX 7 1 10 2 13 3 4 4 5 5 6 6 8 7 9 8 11 9 12 10 3 11 2 12 1 13
REMARK H PARENT
REMARK Flexibility Score: inf
ROOT
ATOM      1  C   UNL     1      15.181  -3.114  10.406  1.00  0.00     0.160 A 
ATOM      2  C   UNL     1      15.121  -4.134   9.443  1.00  0.00     0.160 A 
ATOM      3  C   UNL     1      14.538  -5.373   9.778  1.00  0.00     0.054 A 
ATOM      4  C   UNL     1      14.026  -5.597  11.064  1.00  0.00    -0.040 A 
ATOM      5  C   UNL     1      14.081  -4.570  12.015  1.00  0.00     0.008 A 
ATOM      6  C   UNL     1      14.657  -3.340  11.692  1.00  0.00     0.051 A 
ENDROOT
BRANCH   1   7
ATOM      7  O   UNL     1      15.768  -1.891  10.045  1.00  0.00    -0.493 OA
ATOM      8  C   UNL     1      17.125  -1.736   9.639  1.00  0.00     0.278 C 
ENDBRANCH   1   7
BRANCH   2   9
ATOM      9  O   UNL     1      15.647  -3.879   8.167  1.00  0.00    -0.493 OA
ATOM     10  C   UNL     1      17.021  -3.619   7.897  1.00  0.00     0.278 C 
ENDBRANCH   2   9
BRANCH   4  11
ATOM     11  C   UNL     1      13.379  -6.914  11.402  1.00  0.00     0.062 C 
BRANCH  11  12
ATOM     12  C   UNL     1      13.859  -7.997  10.476  1.00  0.00    -0.030 C 
ATOM     13  C   UNL     1      13.049  -8.561   9.575  1.00  0.00     0.004 C 
ENDBRANCH  11  12
ENDBRANCH   4  11
TORSDOF 4
ENDMDL
MODEL 2
REMARK VINA RESULT:    15.276      1.075      2.552
REMARK INTER + INTRA:          20.557
REMARK INTER:                  20.427
REMARK INTRA:                   0.130
REMARK UNBOUND:                 1.709
REMARK SMILES C=CCc1ccc(OC)c(OC)c1
REMARK SMILES IDX 7 1 10 2 13 3 4 4 5 5 6 6 8 7 9 8 11 9 12 10 3 11 2 12 1 13
REMARK H PARENT
REMARK Flexibility Score: inf
ROOT
ATOM      1  C   UNL     1      15.324  -3.873   9.813  1.00  0.00     0.160 A 
ATOM      2  C   UNL     1      14.764  -3.884  11.101  1.00  0.00     0.160 A 
ATOM      3  C   UNL     1      14.084  -5.032  11.554  1.00  0.00     0.054 A 
ATOM      4  C   UNL     1      13.956  -6.159  10.728  1.00  0.00    -0.040 A 
ATOM      5  C   UNL     1      14.526  -6.142   9.449  1.00  0.00     0.008 A 
ATOM      6  C   UNL     1      15.201  -5.009   8.992  1.00  0.00     0.051 A 
ENDROOT
BRANCH   1   7
ATOM      7  O   UNL     1      15.995  -2.715   9.388  1.00  0.00    -0.493 OA
ATOM      8  C   UNL     1      17.124  -2.710   8.520  1.00  0.00     0.278 C 
ENDBRANCH   1   7
BRANCH   2   9
ATOM      9  O   UNL     1      14.906  -2.738  11.899  1.00  0.00    -0.493 OA
ATOM     10  C   UNL     1      14.589  -2.675  13.286  1.00  0.00     0.278 C 
ENDBRANCH   2   9
BRANCH   4  11
ATOM     11  C   UNL     1      13.253  -7.391  11.233  1.00  0.00     0.062 C 
BRANCH  11  12
ATOM     12  C   UNL     1      12.794  -8.249  10.087  1.00  0.00    -0.030 C 
ATOM     13  C   UNL     1      13.620  -9.100   9.471  1.00  0.00     0.004 C 
ENDBRANCH  11  12
ENDBRANCH   4  11
TORSDOF 4
ENDMDL
MODEL 3
REMARK VINA RESULT:    16.391      1.888      5.254
REMARK INTER + INTRA:          21.932
REMARK INTER:                  22.166
REMARK INTRA:                  -0.234
REMARK UNBOUND:                 1.709
REMARK SMILES C=CCc1ccc(OC)c(OC)c1
REMARK SMILES IDX 7 1 10 2 13 3 4 4 5 5 6 6 8 7 9 8 11 9 12 10 3 11 2 12 1 13
REMARK H PARENT
REMARK Flexibility Score: inf
ROOT
ATOM      1  C   UNL     1      14.121  -5.547  10.650  1.00  0.00     0.160 A 
ATOM      2  C   UNL     1      14.496  -4.295  11.164  1.00  0.00     0.160 A 
ATOM      3  C   UNL     1      15.264  -3.419  10.370  1.00  0.00     0.054 A 
ATOM      4  C   UNL     1      15.661  -3.790   9.077  1.00  0.00    -0.040 A 
ATOM      5  C   UNL     1      15.273  -5.037   8.569  1.00  0.00     0.008 A 
ATOM      6  C   UNL     1      14.514  -5.911   9.349  1.00  0.00     0.051 A 
ENDROOT
BRANCH   1   7
ATOM      7  O   UNL     1      13.358  -6.400  11.464  1.00  0.00    -0.493 OA
ATOM      8  C   UNL     1      12.955  -7.716  11.098  1.00  0.00     0.278 C 
ENDBRANCH   1   7
BRANCH   2   9
ATOM      9  O   UNL     1      14.087  -3.958  12.463  1.00  0.00    -0.493 OA
ATOM     10  C   UNL     1      14.513  -2.797  13.169  1.00  0.00     0.278 C 
ENDBRANCH   2   9
BRANCH   4  11
ATOM     11  C   UNL     1      16.456  -2.835   8.226  1.00  0.00     0.062 C 
BRANCH  11  12
ATOM     12  C   UNL     1      17.124  -1.792   9.078  1.00  0.00    -0.030 C 
ATOM     13  C   UNL     1      17.047  -0.490   8.785  1.00  0.00     0.004 C 
ENDBRANCH  11  12
ENDBRANCH   4  11
TORSDOF 4
ENDMDL
MODEL 4
REMARK VINA RESULT:    17.185     18.121     20.111
REMARK INTER + INTRA:          22.913
REMARK INTER:                  22.947
REMARK INTRA:                  -0.035
REMARK UNBOUND:                 1.709
REMARK SMILES C=CCc1ccc(OC)c(OC)c1
REMARK SMILES IDX 7 1 10 2 13 3 4 4 5 5 6 6 8 7 9 8 11 9 12 10 3 11 2 12 1 13
REMARK H PARENT
REMARK Flexibility Score: inf
ROOT
ATOM      1  C   UNL     1       2.633   3.311  21.202  1.00  0.00     0.160 A 
ATOM      2  C   UNL     1       2.749   4.039  22.396  1.00  0.00     0.160 A 
ATOM      3  C   UNL     1       2.701   5.448  22.360  1.00  0.00     0.054 A 
ATOM      4  C   UNL     1       2.547   6.126  21.142  1.00  0.00    -0.040 A 
ATOM      5  C   UNL     1       2.422   5.391  19.956  1.00  0.00     0.008 A 
ATOM      6  C   UNL     1       2.469   3.996  19.983  1.00  0.00     0.051 A 
ENDROOT
BRANCH   1   7
ATOM      7  O   UNL     1       2.686   1.910  21.268  1.00  0.00    -0.493 OA
ATOM      8  C   UNL     1       3.844   1.162  21.627  1.00  0.00     0.278 C 
ENDBRANCH   1   7
BRANCH   2   9
ATOM      9  O   UNL     1       2.907   3.330  23.597  1.00  0.00    -0.493 OA
ATOM     10  C   UNL     1       1.843   2.983  24.477  1.00  0.00     0.278 C 
ENDBRANCH   2   9
BRANCH   4  11
ATOM     11  C   UNL     1       2.467   7.629  21.118  1.00  0.00     0.062 C 
BRANCH  11  12
ATOM     12  C   UNL     1       2.520   8.189  22.513  1.00  0.00    -0.030 C 
ATOM     13  C   UNL     1       3.006   9.408  22.763  1.00  0.00     0.004 C 
ENDBRANCH  11  12
ENDBRANCH   4  11
TORSDOF 4
ENDMDL
