MODEL 1
REMARK VINA RESULT:    -3.641      0.000      0.000
REMARK INTER + INTRA:          -3.973
REMARK INTER:                  -3.960
REMARK INTRA:                  -0.012
REMARK UNBOUND:                -0.012
REMARK SMILES OCc1ccco1
REMARK SMILES IDX 2 1 3 2 5 3 6 4 4 5 7 6 1 7
REMARK H PARENT 1 8
REMARK Flexibility Score: inf
ROOT
ATOM      1  C   UNL     1       1.980  -2.889 -22.130  1.00  0.00     0.231 C 
ENDROOT
BRANCH   1   2
ATOM      2  C   UNL     1       3.236  -2.172 -22.514  1.00  0.00     0.129 A 
ATOM      3  C   UNL     1       4.762  -0.621 -22.807  1.00  0.00     0.042 A 
ATOM      4  C   UNL     1       5.148  -1.814 -23.384  1.00  0.00     0.195 A 
ATOM      5  C   UNL     1       3.524  -0.850 -22.246  1.00  0.00     0.048 A 
ATOM      6  O   UNL     1       4.215  -2.719 -23.196  1.00  0.00    -0.467 OA
ENDBRANCH   1   2
BRANCH   1   7
ATOM      7  O   UNL     1       2.045  -3.288 -20.789  1.00  0.00    -0.388 OA
ATOM      8  H   UNL     1       2.640  -4.083 -20.759  1.00  0.00     0.211 HD
ENDBRANCH   1   7
TORSDOF 2
ENDMDL
MODEL 2
REMARK VINA RESULT:    -3.624      0.985      1.512
REMARK INTER + INTRA:          -3.954
REMARK INTER:                  -3.939
REMARK INTRA:                  -0.014
REMARK UNBOUND:                -0.012
REMARK SMILES OCc1ccco1
REMARK SMILES IDX 2 1 3 2 5 3 6 4 4 5 7 6 1 7
REMARK H PARENT 1 8
REMARK Flexibility Score: inf
ROOT
ATOM      1  C   UNL     1       1.984  -2.794 -22.235  1.00  0.00     0.231 C 
ENDROOT
BRANCH   1   2
ATOM      2  C   UNL     1       3.330  -2.457 -22.797  1.00  0.00     0.129 A 
ATOM      3  C   UNL     1       5.246  -2.564 -23.863  1.00  0.00     0.042 A 
ATOM      4  C   UNL     1       5.132  -1.382 -23.161  1.00  0.00     0.195 A 
ATOM      5  C   UNL     1       4.082  -3.264 -23.626  1.00  0.00     0.048 A 
ATOM      6  O   UNL     1       3.980  -1.349 -22.532  1.00  0.00    -0.467 OA
ENDBRANCH   1   2
BRANCH   1   7
ATOM      7  O   UNL     1       2.123  -3.361 -20.962  1.00  0.00    -0.388 OA
ATOM      8  H   UNL     1       2.907  -2.922 -20.540  1.00  0.00     0.211 HD
ENDBRANCH   1   7
TORSDOF 2
ENDMDL
MODEL 3
REMARK VINA RESULT:    -3.504      1.455      1.867
REMARK INTER + INTRA:          -3.824
REMARK INTER:                  -3.808
REMARK INTRA:                  -0.015
REMARK UNBOUND:                -0.012
REMARK SMILES OCc1ccco1
REMARK SMILES IDX 2 1 3 2 5 3 6 4 4 5 7 6 1 7
REMARK H PARENT 1 8
REMARK Flexibility Score: inf
ROOT
ATOM      1  C   UNL     1       2.496  -4.340 -23.333  1.00  0.00     0.231 C 
ENDROOT
BRANCH   1   2
ATOM      2  C   UNL     1       3.358  -3.125 -23.194  1.00  0.00     0.129 A 
ATOM      3  C   UNL     1       5.043  -1.722 -23.312  1.00  0.00     0.042 A 
ATOM      4  C   UNL     1       4.002  -1.189 -22.579  1.00  0.00     0.195 A 
ATOM      5  C   UNL     1       4.630  -2.976 -23.708  1.00  0.00     0.048 A 
ATOM      6  O   UNL     1       3.012  -2.051 -22.524  1.00  0.00    -0.467 OA
ENDBRANCH   1   2
BRANCH   1   7
ATOM      7  O   UNL     1       2.469  -5.051 -22.127  1.00  0.00    -0.388 OA
ATOM      8  H   UNL     1       3.404  -5.077 -21.792  1.00  0.00     0.211 HD
ENDBRANCH   1   7
TORSDOF 2
ENDMDL
MODEL 4
REMARK VINA RESULT:    -3.478      1.228      2.982
REMARK INTER + INTRA:          -3.796
REMARK INTER:                  -3.778
REMARK INTRA:                  -0.017
REMARK UNBOUND:                -0.012
REMARK SMILES OCc1ccco1
REMARK SMILES IDX 2 1 3 2 5 3 6 4 4 5 7 6 1 7
REMARK H PARENT 1 8
REMARK Flexibility Score: inf
ROOT
ATOM      1  C   UNL     1       5.871  -2.857 -24.065  1.00  0.00     0.231 C 
ENDROOT
BRANCH   1   2
ATOM      2  C   UNL     1       4.754  -2.170 -23.346  1.00  0.00     0.129 A 
ATOM      3  C   UNL     1       3.545  -0.673 -22.288  1.00  0.00     0.042 A 
ATOM      4  C   UNL     1       2.885  -1.883 -22.363  1.00  0.00     0.195 A 
ATOM      5  C   UNL     1       4.755  -0.857 -22.921  1.00  0.00     0.048 A 
ATOM      6  O   UNL     1       3.634  -2.757 -22.996  1.00  0.00    -0.467 OA
ENDBRANCH   1   2
BRANCH   1   7
ATOM      7  O   UNL     1       5.367  -3.594 -25.145  1.00  0.00    -0.388 OA
ATOM      8  H   UNL     1       6.122  -4.138 -25.493  1.00  0.00     0.211 HD
ENDBRANCH   1   7
TORSDOF 2
ENDMDL
MODEL 5
REMARK VINA RESULT:    -3.340      1.686      3.378
REMARK INTER + INTRA:          -3.645
REMARK INTER:                  -3.629
REMARK INTRA:                  -0.016
REMARK UNBOUND:                -0.012
REMARK SMILES OCc1ccco1
REMARK SMILES IDX 2 1 3 2 5 3 6 4 4 5 7 6 1 7
REMARK H PARENT 1 8
REMARK Flexibility Score: inf
ROOT
ATOM      1  C   UNL     1       5.614  -2.714 -24.086  1.00  0.00     0.231 C 
ENDROOT
BRANCH   1   2
ATOM      2  C   UNL     1       4.316  -2.634 -23.347  1.00  0.00     0.129 A 
ATOM      3  C   UNL     1       2.323  -3.095 -22.548  1.00  0.00     0.042 A 
ATOM      4  C   UNL     1       2.738  -1.838 -22.157  1.00  0.00     0.195 A 
ATOM      5  C   UNL     1       3.341  -3.611 -23.321  1.00  0.00     0.048 A 
ATOM      6  O   UNL     1       3.928  -1.590 -22.652  1.00  0.00    -0.467 OA
ENDBRANCH   1   2
BRANCH   1   7
ATOM      7  O   UNL     1       5.538  -3.690 -25.087  1.00  0.00    -0.388 OA
ATOM      8  H   UNL     1       4.582  -3.950 -25.158  1.00  0.00     0.211 HD
ENDBRANCH   1   7
TORSDOF 2
ENDMDL
MODEL 6
REMARK VINA RESULT:    -3.306      2.565      3.091
REMARK INTER + INTRA:          -3.608
REMARK INTER:                  -3.587
REMARK INTRA:                  -0.021
REMARK UNBOUND:                -0.012
REMARK SMILES OCc1ccco1
REMARK SMILES IDX 2 1 3 2 5 3 6 4 4 5 7 6 1 7
REMARK H PARENT 1 8
REMARK Flexibility Score: inf
ROOT
ATOM      1  C   UNL     1       4.972  -2.277 -23.566  1.00  0.00     0.231 C 
ENDROOT
BRANCH   1   2
ATOM      2  C   UNL     1       4.846  -0.958 -22.873  1.00  0.00     0.129 A 
ATOM      3  C   UNL     1       4.044   0.781 -21.798  1.00  0.00     0.042 A 
ATOM      4  C   UNL     1       5.368   0.972 -22.137  1.00  0.00     0.195 A 
ATOM      5  C   UNL     1       3.703  -0.466 -22.276  1.00  0.00     0.048 A 
ATOM      6  O   UNL     1       5.817  -0.081 -22.780  1.00  0.00    -0.467 OA
ENDBRANCH   1   2
BRANCH   1   7
ATOM      7  O   UNL     1       6.307  -2.512 -23.916  1.00  0.00    -0.388 OA
ATOM      8  H   UNL     1       6.816  -1.700 -23.655  1.00  0.00     0.211 HD
ENDBRANCH   1   7
TORSDOF 2
ENDMDL
MODEL 7
REMARK VINA RESULT:    -3.270      4.295      5.372
REMARK INTER + INTRA:          -3.569
REMARK INTER:                  -3.555
REMARK INTRA:                  -0.014
REMARK UNBOUND:                -0.012
REMARK SMILES OCc1ccco1
REMARK SMILES IDX 2 1 3 2 5 3 6 4 4 5 7 6 1 7
REMARK H PARENT 1 8
REMARK Flexibility Score: inf
ROOT
ATOM      1  C   UNL     1       4.052   4.057 -22.118  1.00  0.00     0.231 C 
ENDROOT
BRANCH   1   2
ATOM      2  C   UNL     1       4.453   2.615 -22.098  1.00  0.00     0.129 A 
ATOM      3  C   UNL     1       5.514   0.727 -22.456  1.00  0.00     0.042 A 
ATOM      4  C   UNL     1       4.375   0.523 -21.703  1.00  0.00     0.195 A 
ATOM      5  C   UNL     1       5.565   2.079 -22.716  1.00  0.00     0.048 A 
ATOM      6  O   UNL     1       3.762   1.668 -21.510  1.00  0.00    -0.467 OA
ENDBRANCH   1   2
BRANCH   1   7
ATOM      7  O   UNL     1       5.190   4.873 -22.110  1.00  0.00    -0.388 OA
ATOM      8  H   UNL     1       5.435   5.007 -21.157  1.00  0.00     0.211 HD
ENDBRANCH   1   7
TORSDOF 2
ENDMDL
MODEL 8
REMARK VINA RESULT:    -3.191      2.033      3.768
REMARK INTER + INTRA:          -3.483
REMARK INTER:                  -3.462
REMARK INTRA:                  -0.021
REMARK UNBOUND:                -0.012
REMARK SMILES OCc1ccco1
REMARK SMILES IDX 2 1 3 2 5 3 6 4 4 5 7 6 1 7
REMARK H PARENT 1 8
REMARK Flexibility Score: inf
ROOT
ATOM      1  C   UNL     1       3.960  -2.756 -23.532  1.00  0.00     0.231 C 
ENDROOT
BRANCH   1   2
ATOM      2  C   UNL     1       2.640  -3.459 -23.477  1.00  0.00     0.129 A 
ATOM      3  C   UNL     1       0.491  -3.879 -23.326  1.00  0.00     0.042 A 
ATOM      4  C   UNL     1       1.222  -5.047 -23.401  1.00  0.00     0.195 A 
ATOM      5  C   UNL     1       1.407  -2.850 -23.371  1.00  0.00     0.048 A 
ATOM      6  O   UNL     1       2.501  -4.763 -23.487  1.00  0.00    -0.467 OA
ENDBRANCH   1   2
BRANCH   1   7
ATOM      7  O   UNL     1       4.960  -3.642 -23.951  1.00  0.00    -0.388 OA
ATOM      8  H   UNL     1       4.639  -4.556 -23.733  1.00  0.00     0.211 HD
ENDBRANCH   1   7
TORSDOF 2
ENDMDL
MODEL 9
REMARK VINA RESULT:    -3.103      6.172      7.207
REMARK INTER + INTRA:          -3.387
REMARK INTER:                  -3.372
REMARK INTRA:                  -0.015
REMARK UNBOUND:                -0.012
REMARK SMILES OCc1ccco1
REMARK SMILES IDX 2 1 3 2 5 3 6 4 4 5 7 6 1 7
REMARK H PARENT 1 8
REMARK Flexibility Score: inf
ROOT
ATOM      1  C   UNL     1       4.716   2.912 -22.202  1.00  0.00     0.231 C 
ENDROOT
BRANCH   1   2
ATOM      2  C   UNL     1       4.698   4.403 -22.319  1.00  0.00     0.129 A 
ATOM      3  C   UNL     1       5.313   6.499 -22.544  1.00  0.00     0.042 A 
ATOM      4  C   UNL     1       3.955   6.400 -22.317  1.00  0.00     0.195 A 
ATOM      5  C   UNL     1       5.796   5.208 -22.543  1.00  0.00     0.048 A 
ATOM      6  O   UNL     1       3.619   5.137 -22.183  1.00  0.00    -0.467 OA
ENDBRANCH   1   2
BRANCH   1   7
ATOM      7  O   UNL     1       5.839   2.392 -22.858  1.00  0.00    -0.388 OA
ATOM      8  H   UNL     1       5.549   2.165 -23.780  1.00  0.00     0.211 HD
ENDBRANCH   1   7
TORSDOF 2
ENDMDL
