MODEL 1
REMARK VINA RESULT:    -3.391      0.000      0.000
REMARK INTER + INTRA:         -12.269
REMARK INTER:                  -7.753
REMARK INTRA:                  -4.516
REMARK UNBOUND:                -4.516
REMARK SMILES CCCCCCCCCCCCCCCCCCCCCCCC(=O)[O-]
REMARK SMILES IDX 13 1 14 2 15 3 16 4 17 5 18 6 19 7 20 8 21 9 22 10 23 11
REMARK SMILES IDX 24 12 25 13 26 14 12 15 11 16 10 17 9 18 8 19 7 20 6 21 5 22
REMARK SMILES IDX 4 23 3 24 2 25 1 26
REMARK H PARENT
REMARK Flexibility Score: inf
ROOT
ATOM      1  C   UNL     1      28.882   8.326  25.504  1.00  0.00     0.000 C 
ENDROOT
BRANCH   1   2
ATOM      2  C   UNL     1      28.731   9.315  24.335  1.00  0.00     0.000 C 
BRANCH   2   3
ATOM      3  C   UNL     1      28.112   8.671  23.081  1.00  0.00     0.000 C 
BRANCH   3   4
ATOM      4  C   UNL     1      26.782   9.299  22.621  1.00  0.00     0.000 C 
BRANCH   4   5
ATOM      5  C   UNL     1      25.574   8.799  23.432  1.00  0.00     0.000 C 
BRANCH   5   6
ATOM      6  C   UNL     1      24.778   7.708  22.701  1.00  0.00     0.000 C 
BRANCH   6   7
ATOM      7  C   UNL     1      24.824   6.356  23.433  1.00  0.00     0.000 C 
BRANCH   7   8
ATOM      8  C   UNL     1      25.684   6.405  24.707  1.00  0.00     0.000 C 
BRANCH   8   9
ATOM      9  C   UNL     1      26.896   5.463  24.637  1.00  0.00     0.000 C 
BRANCH   9  10
ATOM     10  C   UNL     1      27.212   4.873  26.021  1.00  0.00     0.006 C 
BRANCH  10  11
ATOM     11  C   UNL     1      26.840   5.831  27.160  1.00  0.00     0.053 C 
BRANCH  11  12
ATOM     12  C   UNL     1      26.000   5.159  28.202  1.00  0.00     0.041 C 
ATOM     13  O   UNL     1      26.449   4.167  28.834  1.00  0.00    -0.550 OA
ATOM     14  O   UNL     1      24.730   5.643  28.493  1.00  0.00    -0.550 OA
ENDBRANCH  11  12
ENDBRANCH  10  11
ENDBRANCH   9  10
ENDBRANCH   8   9
ENDBRANCH   7   8
ENDBRANCH   6   7
ENDBRANCH   5   6
ENDBRANCH   4   5
ENDBRANCH   3   4
ENDBRANCH   2   3
ENDBRANCH   1   2
BRANCH   1  15
ATOM     15  C   UNL     1      29.826   8.848  26.598  1.00  0.00     0.000 C 
BRANCH  15  16
ATOM     16  C   UNL     1      29.386   8.416  28.008  1.00  0.00     0.000 C 
BRANCH  16  17
ATOM     17  C   UNL     1      29.676   9.484  29.074  1.00  0.00     0.000 C 
BRANCH  17  18
ATOM     18  C   UNL     1      29.887  10.881  28.467  1.00  0.00    -0.000 C 
BRANCH  18  19
ATOM     19  C   UNL     1      28.629  11.766  28.551  1.00  0.00    -0.000 C 
BRANCH  19  20
ATOM     20  C   UNL     1      28.014  12.158  27.195  1.00  0.00    -0.000 C 
BRANCH  20  21
ATOM     21  C   UNL     1      26.845  11.252  26.781  1.00  0.00    -0.000 C 
BRANCH  21  22
ATOM     22  C   UNL     1      26.051  10.785  28.009  1.00  0.00    -0.000 C 
BRANCH  22  23
ATOM     23  C   UNL     1      25.774   9.278  27.945  1.00  0.00    -0.000 C 
BRANCH  23  24
ATOM     24  C   UNL     1      24.625   8.920  26.987  1.00  0.00    -0.000 C 
BRANCH  24  25
ATOM     25  C   UNL     1      23.440   9.906  27.049  1.00  0.00    -0.003 C 
ATOM     26  C   UNL     1      23.157  10.560  25.697  1.00  0.00     0.004 C 
ENDBRANCH  24  25
ENDBRANCH  23  24
ENDBRANCH  22  23
ENDBRANCH  21  22
ENDBRANCH  20  21
ENDBRANCH  19  20
ENDBRANCH  18  19
ENDBRANCH  17  18
ENDBRANCH  16  17
ENDBRANCH  15  16
ENDBRANCH   1  15
TORSDOF 22
ENDMDL
MODEL 2
REMARK VINA RESULT:    -3.286      2.307      5.194
REMARK INTER + INTRA:         -12.029
REMARK INTER:                  -7.388
REMARK INTRA:                  -4.641
REMARK UNBOUND:                -4.516
REMARK SMILES CCCCCCCCCCCCCCCCCCCCCCCC(=O)[O-]
REMARK SMILES IDX 13 1 14 2 15 3 16 4 17 5 18 6 19 7 20 8 21 9 22 10 23 11
REMARK SMILES IDX 24 12 25 13 26 14 12 15 11 16 10 17 9 18 8 19 7 20 6 21 5 22
REMARK SMILES IDX 4 23 3 24 2 25 1 26
REMARK H PARENT
REMARK Flexibility Score: inf
ROOT
ATOM      1  C   UNL     1      26.624   6.591  24.294  1.00  0.00     0.000 C 
ENDROOT
BRANCH   1   2
ATOM      2  C   UNL     1      27.407   5.347  24.749  1.00  0.00     0.000 C 
BRANCH   2   3
ATOM      3  C   UNL     1      28.809   5.257  24.117  1.00  0.00     0.000 C 
BRANCH   3   4
ATOM      4  C   UNL     1      29.065   6.252  22.970  1.00  0.00     0.000 C 
BRANCH   4   5
ATOM      5  C   UNL     1      30.560   6.419  22.646  1.00  0.00     0.000 C 
BRANCH   5   6
ATOM      6  C   UNL     1      30.977   7.891  22.509  1.00  0.00     0.000 C 
BRANCH   6   7
ATOM      7  C   UNL     1      30.190   8.816  23.454  1.00  0.00     0.000 C 
BRANCH   7   8
ATOM      8  C   UNL     1      31.086   9.471  24.518  1.00  0.00     0.000 C 
BRANCH   8   9
ATOM      9  C   UNL     1      30.770   8.980  25.939  1.00  0.00     0.000 C 
BRANCH   9  10
ATOM     10  C   UNL     1      29.332   8.446  26.028  1.00  0.00     0.006 C 
BRANCH  10  11
ATOM     11  C   UNL     1      28.937   8.078  27.464  1.00  0.00     0.053 C 
BRANCH  11  12
ATOM     12  C   UNL     1      29.066   9.245  28.394  1.00  0.00     0.041 C 
ATOM     13  O   UNL     1      29.876   9.201  29.357  1.00  0.00    -0.550 OA
ATOM     14  O   UNL     1      28.309  10.391  28.183  1.00  0.00    -0.550 OA
ENDBRANCH  11  12
ENDBRANCH  10  11
ENDBRANCH   9  10
ENDBRANCH   8   9
ENDBRANCH   7   8
ENDBRANCH   6   7
ENDBRANCH   5   6
ENDBRANCH   4   5
ENDBRANCH   3   4
ENDBRANCH   2   3
ENDBRANCH   1   2
BRANCH   1  15
ATOM     15  C   UNL     1      25.228   6.241  23.756  1.00  0.00     0.000 C 
BRANCH  15  16
ATOM     16  C   UNL     1      24.730   7.260  22.714  1.00  0.00     0.000 C 
BRANCH  16  17
ATOM     17  C   UNL     1      25.869   7.845  21.864  1.00  0.00     0.000 C 
BRANCH  17  18
ATOM     18  C   UNL     1      25.889   9.382  21.884  1.00  0.00    -0.000 C 
BRANCH  18  19
ATOM     19  C   UNL     1      25.320   9.972  23.188  1.00  0.00    -0.000 C 
BRANCH  19  20
ATOM     20  C   UNL     1      26.372  10.362  24.242  1.00  0.00    -0.000 C 
BRANCH  20  21
ATOM     21  C   UNL     1      25.961   9.978  25.672  1.00  0.00    -0.000 C 
BRANCH  21  22
ATOM     22  C   UNL     1      24.547   9.383  25.695  1.00  0.00    -0.000 C 
BRANCH  22  23
ATOM     23  C   UNL     1      24.201   8.840  27.088  1.00  0.00    -0.000 C 
BRANCH  23  24
ATOM     24  C   UNL     1      24.444   7.327  27.218  1.00  0.00    -0.000 C 
BRANCH  24  25
ATOM     25  C   UNL     1      25.466   6.959  28.314  1.00  0.00    -0.003 C 
ATOM     26  C   UNL     1      25.951   5.514  28.194  1.00  0.00     0.004 C 
ENDBRANCH  24  25
ENDBRANCH  23  24
ENDBRANCH  22  23
ENDBRANCH  21  22
ENDBRANCH  20  21
ENDBRANCH  19  20
ENDBRANCH  18  19
ENDBRANCH  17  18
ENDBRANCH  16  17
ENDBRANCH  15  16
ENDBRANCH   1  15
TORSDOF 22
ENDMDL
MODEL 3
REMARK VINA RESULT:    -3.273      2.867      5.879
REMARK INTER + INTRA:         -11.998
REMARK INTER:                  -7.053
REMARK INTRA:                  -4.945
REMARK UNBOUND:                -4.516
REMARK SMILES CCCCCCCCCCCCCCCCCCCCCCCC(=O)[O-]
REMARK SMILES IDX 13 1 14 2 15 3 16 4 17 5 18 6 19 7 20 8 21 9 22 10 23 11
REMARK SMILES IDX 24 12 25 13 26 14 12 15 11 16 10 17 9 18 8 19 7 20 6 21 5 22
REMARK SMILES IDX 4 23 3 24 2 25 1 26
REMARK H PARENT
REMARK Flexibility Score: inf
ROOT
ATOM      1  C   UNL     1      24.861  10.908  23.370  1.00  0.00     0.000 C 
ENDROOT
BRANCH   1   2
ATOM      2  C   UNL     1      26.332  10.802  23.807  1.00  0.00     0.000 C 
BRANCH   2   3
ATOM      3  C   UNL     1      26.501  10.760  25.337  1.00  0.00     0.000 C 
BRANCH   3   4
ATOM      4  C   UNL     1      26.327  12.118  26.043  1.00  0.00     0.000 C 
BRANCH   4   5
ATOM      5  C   UNL     1      26.983  12.157  27.434  1.00  0.00     0.000 C 
BRANCH   5   6
ATOM      6  C   UNL     1      27.571  10.801  27.852  1.00  0.00     0.000 C 
BRANCH   6   7
ATOM      7  C   UNL     1      28.852  10.949  28.691  1.00  0.00     0.000 C 
BRANCH   7   8
ATOM      8  C   UNL     1      29.749   9.702  28.622  1.00  0.00     0.000 C 
BRANCH   8   9
ATOM      9  C   UNL     1      29.368   8.764  27.466  1.00  0.00     0.000 C 
BRANCH   9  10
ATOM     10  C   UNL     1      30.423   8.812  26.350  1.00  0.00     0.006 C 
BRANCH  10  11
ATOM     11  C   UNL     1      30.004   9.729  25.193  1.00  0.00     0.053 C 
BRANCH  11  12
ATOM     12  C   UNL     1      30.551  11.114  25.354  1.00  0.00     0.041 C 
ATOM     13  O   UNL     1      31.763  11.287  25.644  1.00  0.00    -0.550 OA
ATOM     14  O   UNL     1      29.726  12.216  25.158  1.00  0.00    -0.550 OA
ENDBRANCH  11  12
ENDBRANCH  10  11
ENDBRANCH   9  10
ENDBRANCH   8   9
ENDBRANCH   7   8
ENDBRANCH   6   7
ENDBRANCH   5   6
ENDBRANCH   4   5
ENDBRANCH   3   4
ENDBRANCH   2   3
ENDBRANCH   1   2
BRANCH   1  15
ATOM     15  C   UNL     1      24.157   9.542  23.339  1.00  0.00     0.000 C 
BRANCH  15  16
ATOM     16  C   UNL     1      25.023   8.451  22.683  1.00  0.00     0.000 C 
BRANCH  16  17
ATOM     17  C   UNL     1      24.627   7.033  23.124  1.00  0.00     0.000 C 
BRANCH  17  18
ATOM     18  C   UNL     1      25.821   6.228  23.664  1.00  0.00    -0.000 C 
BRANCH  18  19
ATOM     19  C   UNL     1      26.785   7.081  24.509  1.00  0.00    -0.000 C 
BRANCH  19  20
ATOM     20  C   UNL     1      27.067   6.542  25.923  1.00  0.00    -0.000 C 
BRANCH  20  21
ATOM     21  C   UNL     1      25.818   6.521  26.818  1.00  0.00    -0.000 C 
BRANCH  21  22
ATOM     22  C   UNL     1      26.024   7.389  28.066  1.00  0.00    -0.000 C 
BRANCH  22  23
ATOM     23  C   UNL     1      24.893   8.415  28.216  1.00  0.00    -0.000 C 
BRANCH  23  24
ATOM     24  C   UNL     1      24.118   8.647  26.908  1.00  0.00    -0.000 C 
BRANCH  24  25
ATOM     25  C   UNL     1      23.204   9.889  26.944  1.00  0.00    -0.003 C 
ATOM     26  C   UNL     1      23.523  10.811  28.121  1.00  0.00     0.004 C 
ENDBRANCH  24  25
ENDBRANCH  23  24
ENDBRANCH  22  23
ENDBRANCH  21  22
ENDBRANCH  20  21
ENDBRANCH  19  20
ENDBRANCH  18  19
ENDBRANCH  17  18
ENDBRANCH  16  17
ENDBRANCH  15  16
ENDBRANCH   1  15
TORSDOF 22
ENDMDL
MODEL 4
REMARK VINA RESULT:    -3.270      2.219      3.904
REMARK INTER + INTRA:         -11.992
REMARK INTER:                  -8.213
REMARK INTRA:                  -3.779
REMARK UNBOUND:                -4.516
REMARK SMILES CCCCCCCCCCCCCCCCCCCCCCCC(=O)[O-]
REMARK SMILES IDX 13 1 14 2 15 3 16 4 17 5 18 6 19 7 20 8 21 9 22 10 23 11
REMARK SMILES IDX 24 12 25 13 26 14 12 15 11 16 10 17 9 18 8 19 7 20 6 21 5 22
REMARK SMILES IDX 4 23 3 24 2 25 1 26
REMARK H PARENT
REMARK Flexibility Score: inf
ROOT
ATOM      1  C   UNL     1      30.817   8.554  23.615  1.00  0.00     0.000 C 
ENDROOT
BRANCH   1   2
ATOM      2  C   UNL     1      30.100   7.663  24.644  1.00  0.00     0.000 C 
BRANCH   2   3
ATOM      3  C   UNL     1      28.616   7.431  24.305  1.00  0.00     0.000 C 
BRANCH   3   4
ATOM      4  C   UNL     1      27.998   6.171  24.941  1.00  0.00     0.000 C 
BRANCH   4   5
ATOM      5  C   UNL     1      26.764   5.660  24.176  1.00  0.00     0.000 C 
BRANCH   5   6
ATOM      6  C   UNL     1      25.521   6.533  24.402  1.00  0.00     0.000 C 
BRANCH   6   7
ATOM      7  C   UNL     1      24.846   6.948  23.083  1.00  0.00     0.000 C 
BRANCH   7   8
ATOM      8  C   UNL     1      24.920   8.463  22.834  1.00  0.00     0.000 C 
BRANCH   8   9
ATOM      9  C   UNL     1      25.359   9.245  24.082  1.00  0.00     0.000 C 
BRANCH   9  10
ATOM     10  C   UNL     1      24.159   9.945  24.739  1.00  0.00     0.006 C 
BRANCH  10  11
ATOM     11  C   UNL     1      24.579  10.828  25.922  1.00  0.00     0.053 C 
BRANCH  11  12
ATOM     12  C   UNL     1      23.750  10.558  27.141  1.00  0.00     0.041 C 
ATOM     13  O   UNL     1      22.719   9.840  27.058  1.00  0.00    -0.550 OA
ATOM     14  O   UNL     1      24.130  11.079  28.372  1.00  0.00    -0.550 OA
ENDBRANCH  11  12
ENDBRANCH  10  11
ENDBRANCH   9  10
ENDBRANCH   8   9
ENDBRANCH   7   8
ENDBRANCH   6   7
ENDBRANCH   5   6
ENDBRANCH   4   5
ENDBRANCH   3   4
ENDBRANCH   2   3
ENDBRANCH   1   2
BRANCH   1  15
ATOM     15  C   UNL     1      30.970  10.005  24.099  1.00  0.00     0.000 C 
BRANCH  15  16
ATOM     16  C   UNL     1      31.233  10.093  25.613  1.00  0.00     0.000 C 
BRANCH  16  17
ATOM     17  C   UNL     1      30.321  11.110  26.316  1.00  0.00     0.000 C 
BRANCH  17  18
ATOM     18  C   UNL     1      30.565  11.170  27.833  1.00  0.00    -0.000 C 
BRANCH  18  19
ATOM     19  C   UNL     1      29.398  10.584  28.651  1.00  0.00    -0.000 C 
BRANCH  19  20
ATOM     20  C   UNL     1      29.493   9.074  28.935  1.00  0.00    -0.000 C 
BRANCH  20  21
ATOM     21  C   UNL     1      28.612   8.231  28.000  1.00  0.00    -0.000 C 
BRANCH  21  22
ATOM     22  C   UNL     1      27.270   8.925  27.737  1.00  0.00    -0.000 C 
BRANCH  22  23
ATOM     23  C   UNL     1      26.128   7.903  27.656  1.00  0.00    -0.000 C 
BRANCH  23  24
ATOM     24  C   UNL     1      25.377   7.738  28.989  1.00  0.00    -0.000 C 
BRANCH  24  25
ATOM     25  C   UNL     1      25.198   6.267  29.418  1.00  0.00    -0.003 C 
ATOM     26  C   UNL     1      25.670   5.287  28.344  1.00  0.00     0.004 C 
ENDBRANCH  24  25
ENDBRANCH  23  24
ENDBRANCH  22  23
ENDBRANCH  21  22
ENDBRANCH  20  21
ENDBRANCH  19  20
ENDBRANCH  18  19
ENDBRANCH  17  18
ENDBRANCH  16  17
ENDBRANCH  15  16
ENDBRANCH   1  15
TORSDOF 22
ENDMDL
MODEL 5
REMARK VINA RESULT:    -3.263      3.629      6.391
REMARK INTER + INTRA:         -11.976
REMARK INTER:                  -7.878
REMARK INTRA:                  -4.098
REMARK UNBOUND:                -4.516
REMARK SMILES CCCCCCCCCCCCCCCCCCCCCCCC(=O)[O-]
REMARK SMILES IDX 13 1 14 2 15 3 16 4 17 5 18 6 19 7 20 8 21 9 22 10 23 11
REMARK SMILES IDX 24 12 25 13 26 14 12 15 11 16 10 17 9 18 8 19 7 20 6 21 5 22
REMARK SMILES IDX 4 23 3 24 2 25 1 26
REMARK H PARENT
REMARK Flexibility Score: inf
ROOT
ATOM      1  C   UNL     1      29.657   9.444  28.872  1.00  0.00     0.000 C 
ENDROOT
BRANCH   1   2
ATOM      2  C   UNL     1      30.034  10.910  28.596  1.00  0.00     0.000 C 
BRANCH   2   3
ATOM      3  C   UNL     1      29.359  11.895  29.568  1.00  0.00     0.000 C 
BRANCH   3   4
ATOM      4  C   UNL     1      28.275  12.787  28.934  1.00  0.00     0.000 C 
BRANCH   4   5
ATOM      5  C   UNL     1      27.159  11.977  28.251  1.00  0.00     0.000 C 
BRANCH   5   6
ATOM      6  C   UNL     1      27.105  12.203  26.733  1.00  0.00     0.000 C 
BRANCH   6   7
ATOM      7  C   UNL     1      26.855  10.900  25.953  1.00  0.00     0.000 C 
BRANCH   7   8
ATOM      8  C   UNL     1      27.978  10.590  24.949  1.00  0.00     0.000 C 
BRANCH   8   9
ATOM      9  C   UNL     1      29.147  11.582  25.047  1.00  0.00     0.000 C 
BRANCH   9  10
ATOM     10  C   UNL     1      30.493  10.860  24.878  1.00  0.00     0.006 C 
BRANCH  10  11
ATOM     11  C   UNL     1      31.657  11.841  24.679  1.00  0.00     0.053 C 
BRANCH  11  12
ATOM     12  C   UNL     1      31.576  12.541  23.357  1.00  0.00     0.041 C 
ATOM     13  O   UNL     1      31.759  13.784  23.287  1.00  0.00    -0.550 OA
ATOM     14  O   UNL     1      31.323  11.816  22.199  1.00  0.00    -0.550 OA
ENDBRANCH  11  12
ENDBRANCH  10  11
ENDBRANCH   9  10
ENDBRANCH   8   9
ENDBRANCH   7   8
ENDBRANCH   6   7
ENDBRANCH   5   6
ENDBRANCH   4   5
ENDBRANCH   3   4
ENDBRANCH   2   3
ENDBRANCH   1   2
BRANCH   1  15
ATOM     15  C   UNL     1      29.751   8.565  27.614  1.00  0.00     0.000 C 
BRANCH  15  16
ATOM     16  C   UNL     1      28.448   7.792  27.341  1.00  0.00     0.000 C 
BRANCH  16  17
ATOM     17  C   UNL     1      27.320   8.168  28.314  1.00  0.00     0.000 C 
BRANCH  17  18
ATOM     18  C   UNL     1      26.051   7.325  28.100  1.00  0.00    -0.000 C 
BRANCH  18  19
ATOM     19  C   UNL     1      25.202   7.813  26.911  1.00  0.00    -0.000 C 
BRANCH  19  20
ATOM     20  C   UNL     1      24.902   6.747  25.841  1.00  0.00    -0.000 C 
BRANCH  20  21
ATOM     21  C   UNL     1      26.171   6.137  25.228  1.00  0.00    -0.000 C 
BRANCH  21  22
ATOM     22  C   UNL     1      26.265   6.457  23.730  1.00  0.00    -0.000 C 
BRANCH  22  23
ATOM     23  C   UNL     1      24.922   6.963  23.190  1.00  0.00    -0.000 C 
BRANCH  23  24
ATOM     24  C   UNL     1      25.019   8.363  22.559  1.00  0.00    -0.000 C 
BRANCH  24  25
ATOM     25  C   UNL     1      24.418   9.479  23.438  1.00  0.00    -0.003 C 
ATOM     26  C   UNL     1      24.668  10.872  22.860  1.00  0.00     0.004 C 
ENDBRANCH  24  25
ENDBRANCH  23  24
ENDBRANCH  22  23
ENDBRANCH  21  22
ENDBRANCH  20  21
ENDBRANCH  19  20
ENDBRANCH  18  19
ENDBRANCH  17  18
ENDBRANCH  16  17
ENDBRANCH  15  16
ENDBRANCH   1  15
TORSDOF 22
ENDMDL
MODEL 6
REMARK VINA RESULT:    -3.249      2.319      5.906
REMARK INTER + INTRA:         -11.943
REMARK INTER:                  -7.827
REMARK INTRA:                  -4.116
REMARK UNBOUND:                -4.516
REMARK SMILES CCCCCCCCCCCCCCCCCCCCCCCC(=O)[O-]
REMARK SMILES IDX 13 1 14 2 15 3 16 4 17 5 18 6 19 7 20 8 21 9 22 10 23 11
REMARK SMILES IDX 24 12 25 13 26 14 12 15 11 16 10 17 9 18 8 19 7 20 6 21 5 22
REMARK SMILES IDX 4 23 3 24 2 25 1 26
REMARK H PARENT
REMARK Flexibility Score: inf
ROOT
ATOM      1  C   UNL     1      26.773   5.985  24.129  1.00  0.00     0.000 C 
ENDROOT
BRANCH   1   2
ATOM      2  C   UNL     1      27.165   4.620  24.722  1.00  0.00     0.000 C 
BRANCH   2   3
ATOM      3  C   UNL     1      28.127   4.741  25.918  1.00  0.00     0.000 C 
BRANCH   3   4
ATOM      4  C   UNL     1      27.625   5.642  27.062  1.00  0.00     0.000 C 
BRANCH   4   5
ATOM      5  C   UNL     1      26.466   5.012  27.855  1.00  0.00     0.000 C 
BRANCH   5   6
ATOM      6  C   UNL     1      25.552   6.061  28.505  1.00  0.00     0.000 C 
BRANCH   6   7
ATOM      7  C   UNL     1      26.217   7.446  28.597  1.00  0.00     0.000 C 
BRANCH   7   8
ATOM      8  C   UNL     1      25.229   8.593  28.327  1.00  0.00     0.000 C 
BRANCH   8   9
ATOM      9  C   UNL     1      24.584   8.501  26.936  1.00  0.00     0.000 C 
BRANCH   9  10
ATOM     10  C   UNL     1      23.617   9.672  26.702  1.00  0.00     0.006 C 
BRANCH  10  11
ATOM     11  C   UNL     1      24.346  11.020  26.621  1.00  0.00     0.053 C 
BRANCH  11  12
ATOM     12  C   UNL     1      23.758  12.028  27.560  1.00  0.00     0.041 C 
ATOM     13  O   UNL     1      23.921  11.907  28.802  1.00  0.00    -0.550 OA
ATOM     14  O   UNL     1      23.051  13.116  27.061  1.00  0.00    -0.550 OA
ENDBRANCH  11  12
ENDBRANCH  10  11
ENDBRANCH   9  10
ENDBRANCH   8   9
ENDBRANCH   7   8
ENDBRANCH   6   7
ENDBRANCH   5   6
ENDBRANCH   4   5
ENDBRANCH   3   4
ENDBRANCH   2   3
ENDBRANCH   1   2
BRANCH   1  15
ATOM     15  C   UNL     1      25.257   6.232  24.173  1.00  0.00     0.000 C 
BRANCH  15  16
ATOM     16  C   UNL     1      24.756   7.023  22.952  1.00  0.00     0.000 C 
BRANCH  16  17
ATOM     17  C   UNL     1      24.858   8.544  23.147  1.00  0.00     0.000 C 
BRANCH  17  18
ATOM     18  C   UNL     1      25.915   9.186  22.232  1.00  0.00    -0.000 C 
BRANCH  18  19
ATOM     19  C   UNL     1      27.194   9.591  22.987  1.00  0.00    -0.000 C 
BRANCH  19  20
ATOM     20  C   UNL     1      27.043   9.703  24.515  1.00  0.00    -0.000 C 
BRANCH  20  21
ATOM     21  C   UNL     1      28.125   8.929  25.284  1.00  0.00    -0.000 C 
BRANCH  21  22
ATOM     22  C   UNL     1      28.425   9.599  26.631  1.00  0.00    -0.000 C 
BRANCH  22  23
ATOM     23  C   UNL     1      29.445   8.783  27.436  1.00  0.00    -0.000 C 
BRANCH  23  24
ATOM     24  C   UNL     1      29.597   9.277  28.885  1.00  0.00    -0.000 C 
BRANCH  24  25
ATOM     25  C   UNL     1      29.424  10.802  29.039  1.00  0.00    -0.003 C 
ATOM     26  C   UNL     1      30.739  11.505  29.374  1.00  0.00     0.004 C 
ENDBRANCH  24  25
ENDBRANCH  23  24
ENDBRANCH  22  23
ENDBRANCH  21  22
ENDBRANCH  20  21
ENDBRANCH  19  20
ENDBRANCH  18  19
ENDBRANCH  17  18
ENDBRANCH  16  17
ENDBRANCH  15  16
ENDBRANCH   1  15
TORSDOF 22
ENDMDL
MODEL 7
REMARK VINA RESULT:    -3.241      2.616      5.351
REMARK INTER + INTRA:         -11.926
REMARK INTER:                  -7.553
REMARK INTRA:                  -4.373
REMARK UNBOUND:                -4.516
REMARK SMILES CCCCCCCCCCCCCCCCCCCCCCCC(=O)[O-]
REMARK SMILES IDX 13 1 14 2 15 3 16 4 17 5 18 6 19 7 20 8 21 9 22 10 23 11
REMARK SMILES IDX 24 12 25 13 26 14 12 15 11 16 10 17 9 18 8 19 7 20 6 21 5 22
REMARK SMILES IDX 4 23 3 24 2 25 1 26
REMARK H PARENT
REMARK Flexibility Score: inf
ROOT
ATOM      1  C   UNL     1      27.606  12.216  27.440  1.00  0.00     0.000 C 
ENDROOT
BRANCH   1   2
ATOM      2  C   UNL     1      26.358  11.410  27.038  1.00  0.00     0.000 C 
BRANCH   2   3
ATOM      3  C   UNL     1      25.372  11.212  28.204  1.00  0.00     0.000 C 
BRANCH   3   4
ATOM      4  C   UNL     1      24.704   9.825  28.257  1.00  0.00     0.000 C 
BRANCH   4   5
ATOM      5  C   UNL     1      25.721   8.676  28.372  1.00  0.00     0.000 C 
BRANCH   5   6
ATOM      6  C   UNL     1      25.111   7.308  28.034  1.00  0.00     0.000 C 
BRANCH   6   7
ATOM      7  C   UNL     1      24.927   7.104  26.520  1.00  0.00     0.000 C 
BRANCH   7   8
ATOM      8  C   UNL     1      26.181   7.486  25.717  1.00  0.00     0.000 C 
BRANCH   8   9
ATOM      9  C   UNL     1      25.905   8.582  24.676  1.00  0.00     0.000 C 
BRANCH   9  10
ATOM     10  C   UNL     1      27.213   9.078  24.041  1.00  0.00     0.006 C 
BRANCH  10  11
ATOM     11  C   UNL     1      27.611   8.253  22.811  1.00  0.00     0.053 C 
BRANCH  11  12
ATOM     12  C   UNL     1      28.866   7.469  23.049  1.00  0.00     0.041 C 
ATOM     13  O   UNL     1      29.985   7.959  22.748  1.00  0.00    -0.550 OA
ATOM     14  O   UNL     1      28.800   6.206  23.627  1.00  0.00    -0.550 OA
ENDBRANCH  11  12
ENDBRANCH  10  11
ENDBRANCH   9  10
ENDBRANCH   8   9
ENDBRANCH   7   8
ENDBRANCH   6   7
ENDBRANCH   5   6
ENDBRANCH   4   5
ENDBRANCH   3   4
ENDBRANCH   2   3
ENDBRANCH   1   2
BRANCH   1  15
ATOM     15  C   UNL     1      27.800  12.279  28.963  1.00  0.00     0.000 C 
BRANCH  15  16
ATOM     16  C   UNL     1      29.285  12.355  29.362  1.00  0.00     0.000 C 
BRANCH  16  17
ATOM     17  C   UNL     1      30.133  11.255  28.704  1.00  0.00     0.000 C 
BRANCH  17  18
ATOM     18  C   UNL     1      30.039   9.913  29.450  1.00  0.00    -0.000 C 
BRANCH  18  19
ATOM     19  C   UNL     1      29.342   8.816  28.623  1.00  0.00    -0.000 C 
BRANCH  19  20
ATOM     20  C   UNL     1      29.233   9.105  27.115  1.00  0.00    -0.000 C 
BRANCH  20  21
ATOM     21  C   UNL     1      30.367   8.467  26.297  1.00  0.00    -0.000 C 
BRANCH  21  22
ATOM     22  C   UNL     1      31.229   9.542  25.623  1.00  0.00    -0.000 C 
BRANCH  22  23
ATOM     23  C   UNL     1      30.359  10.672  25.058  1.00  0.00    -0.000 C 
BRANCH  23  24
ATOM     24  C   UNL     1      31.107  12.012  24.961  1.00  0.00    -0.000 C 
BRANCH  24  25
ATOM     25  C   UNL     1      31.601  12.342  23.538  1.00  0.00    -0.003 C 
ATOM     26  C   UNL     1      30.913  11.489  22.472  1.00  0.00     0.004 C 
ENDBRANCH  24  25
ENDBRANCH  23  24
ENDBRANCH  22  23
ENDBRANCH  21  22
ENDBRANCH  20  21
ENDBRANCH  19  20
ENDBRANCH  18  19
ENDBRANCH  17  18
ENDBRANCH  16  17
ENDBRANCH  15  16
ENDBRANCH   1  15
TORSDOF 22
ENDMDL
MODEL 8
REMARK VINA RESULT:    -3.239      1.964      4.622
REMARK INTER + INTRA:         -11.920
REMARK INTER:                  -7.608
REMARK INTRA:                  -4.312
REMARK UNBOUND:                -4.516
REMARK SMILES CCCCCCCCCCCCCCCCCCCCCCCC(=O)[O-]
REMARK SMILES IDX 13 1 14 2 15 3 16 4 17 5 18 6 19 7 20 8 21 9 22 10 23 11
REMARK SMILES IDX 24 12 25 13 26 14 12 15 11 16 10 17 9 18 8 19 7 20 6 21 5 22
REMARK SMILES IDX 4 23 3 24 2 25 1 26
REMARK H PARENT
REMARK Flexibility Score: inf
ROOT
ATOM      1  C   UNL     1      29.191   8.239  27.673  1.00  0.00     0.000 C 
ENDROOT
BRANCH   1   2
ATOM      2  C   UNL     1      27.795   8.809  27.978  1.00  0.00     0.000 C 
BRANCH   2   3
ATOM      3  C   UNL     1      26.800   8.606  26.821  1.00  0.00     0.000 C 
BRANCH   3   4
ATOM      4  C   UNL     1      25.432   9.285  27.018  1.00  0.00     0.000 C 
BRANCH   4   5
ATOM      5  C   UNL     1      24.262   8.286  27.021  1.00  0.00     0.000 C 
BRANCH   5   6
ATOM      6  C   UNL     1      24.730   6.825  27.097  1.00  0.00     0.000 C 
BRANCH   6   7
ATOM      7  C   UNL     1      24.533   6.216  28.496  1.00  0.00     0.000 C 
BRANCH   7   8
ATOM      8  C   UNL     1      25.523   5.077  28.788  1.00  0.00     0.000 C 
BRANCH   8   9
ATOM      9  C   UNL     1      26.820   5.200  27.973  1.00  0.00     0.000 C 
BRANCH   9  10
ATOM     10  C   UNL     1      27.571   3.860  27.933  1.00  0.00     0.006 C 
BRANCH  10  11
ATOM     11  C   UNL     1      26.742   2.711  28.521  1.00  0.00     0.053 C 
BRANCH  11  12
ATOM     12  C   UNL     1      27.341   2.183  29.788  1.00  0.00     0.041 C 
ATOM     13  O   UNL     1      26.900   2.564  30.904  1.00  0.00    -0.550 OA
ATOM     14  O   UNL     1      28.370   1.250  29.737  1.00  0.00    -0.550 OA
ENDBRANCH  11  12
ENDBRANCH  10  11
ENDBRANCH   9  10
ENDBRANCH   8   9
ENDBRANCH   7   8
ENDBRANCH   6   7
ENDBRANCH   5   6
ENDBRANCH   4   5
ENDBRANCH   3   4
ENDBRANCH   2   3
ENDBRANCH   1   2
BRANCH   1  15
ATOM     15  C   UNL     1      29.927   9.037  26.585  1.00  0.00     0.000 C 
BRANCH  15  16
ATOM     16  C   UNL     1      30.629   8.124  25.563  1.00  0.00     0.000 C 
BRANCH  16  17
ATOM     17  C   UNL     1      29.747   7.809  24.344  1.00  0.00     0.000 C 
BRANCH  17  18
ATOM     18  C   UNL     1      28.944   6.509  24.518  1.00  0.00    -0.000 C 
BRANCH  18  19
ATOM     19  C   UNL     1      27.683   6.462  23.634  1.00  0.00    -0.000 C 
BRANCH  19  20
ATOM     20  C   UNL     1      26.412   5.950  24.335  1.00  0.00    -0.000 C 
BRANCH  20  21
ATOM     21  C   UNL     1      25.125   6.281  23.563  1.00  0.00    -0.000 C 
BRANCH  21  22
ATOM     22  C   UNL     1      25.325   7.509  22.666  1.00  0.00    -0.000 C 
BRANCH  22  23
ATOM     23  C   UNL     1      24.458   8.683  23.138  1.00  0.00    -0.000 C 
BRANCH  23  24
ATOM     24  C   UNL     1      25.268   9.968  23.376  1.00  0.00    -0.000 C 
BRANCH  24  25
ATOM     25  C   UNL     1      26.778   9.806  23.103  1.00  0.00    -0.003 C 
ATOM     26  C   UNL     1      27.627  10.755  23.947  1.00  0.00     0.004 C 
ENDBRANCH  24  25
ENDBRANCH  23  24
ENDBRANCH  22  23
ENDBRANCH  21  22
ENDBRANCH  20  21
ENDBRANCH  19  20
ENDBRANCH  18  19
ENDBRANCH  17  18
ENDBRANCH  16  17
ENDBRANCH  15  16
ENDBRANCH   1  15
TORSDOF 22
ENDMDL
MODEL 9
REMARK VINA RESULT:    -3.226      2.774      6.077
REMARK INTER + INTRA:         -11.891
REMARK INTER:                  -7.486
REMARK INTRA:                  -4.405
REMARK UNBOUND:                -4.516
REMARK SMILES CCCCCCCCCCCCCCCCCCCCCCCC(=O)[O-]
REMARK SMILES IDX 13 1 14 2 15 3 16 4 17 5 18 6 19 7 20 8 21 9 22 10 23 11
REMARK SMILES IDX 24 12 25 13 26 14 12 15 11 16 10 17 9 18 8 19 7 20 6 21 5 22
REMARK SMILES IDX 4 23 3 24 2 25 1 26
REMARK H PARENT
REMARK Flexibility Score: inf
ROOT
ATOM      1  C   UNL     1      28.549   6.957  24.158  1.00  0.00     0.000 C 
ENDROOT
BRANCH   1   2
ATOM      2  C   UNL     1      28.063   7.902  25.271  1.00  0.00     0.000 C 
BRANCH   2   3
ATOM      3  C   UNL     1      28.581   7.503  26.665  1.00  0.00     0.000 C 
BRANCH   3   4
ATOM      4  C   UNL     1      29.659   8.437  27.245  1.00  0.00     0.000 C 
BRANCH   4   5
ATOM      5  C   UNL     1      29.308   8.956  28.650  1.00  0.00     0.000 C 
BRANCH   5   6
ATOM      6  C   UNL     1      29.022  10.465  28.671  1.00  0.00     0.000 C 
BRANCH   6   7
ATOM      7  C   UNL     1      27.813  10.847  27.799  1.00  0.00     0.000 C 
BRANCH   7   8
ATOM      8  C   UNL     1      28.148  11.944  26.775  1.00  0.00     0.000 C 
BRANCH   8   9
ATOM      9  C   UNL     1      27.712  11.573  25.349  1.00  0.00     0.000 C 
BRANCH   9  10
ATOM     10  C   UNL     1      28.843  11.839  24.343  1.00  0.00     0.006 C 
BRANCH  10  11
ATOM     11  C   UNL     1      30.171  11.210  24.782  1.00  0.00     0.053 C 
BRANCH  11  12
ATOM     12  C   UNL     1      30.587  10.095  23.873  1.00  0.00     0.041 C 
ATOM     13  O   UNL     1      30.213  10.085  22.671  1.00  0.00    -0.550 OA
ATOM     14  O   UNL     1      31.409   9.079  24.346  1.00  0.00    -0.550 OA
ENDBRANCH  11  12
ENDBRANCH  10  11
ENDBRANCH   9  10
ENDBRANCH   8   9
ENDBRANCH   7   8
ENDBRANCH   6   7
ENDBRANCH   5   6
ENDBRANCH   4   5
ENDBRANCH   3   4
ENDBRANCH   2   3
ENDBRANCH   1   2
BRANCH   1  15
ATOM     15  C   UNL     1      27.397   6.441  23.281  1.00  0.00     0.000 C 
BRANCH  15  16
ATOM     16  C   UNL     1      26.229   5.885  24.116  1.00  0.00     0.000 C 
BRANCH  16  17
ATOM     17  C   UNL     1      24.865   6.432  23.666  1.00  0.00     0.000 C 
BRANCH  17  18
ATOM     18  C   UNL     1      24.985   7.428  22.501  1.00  0.00    -0.000 C 
BRANCH  18  19
ATOM     19  C   UNL     1      24.484   8.838  22.865  1.00  0.00    -0.000 C 
BRANCH  19  20
ATOM     20  C   UNL     1      24.975   9.377  24.221  1.00  0.00    -0.000 C 
BRANCH  20  21
ATOM     21  C   UNL     1      23.873  10.086  25.022  1.00  0.00    -0.000 C 
BRANCH  21  22
ATOM     22  C   UNL     1      23.937   9.700  26.505  1.00  0.00    -0.000 C 
BRANCH  22  23
ATOM     23  C   UNL     1      24.967   8.587  26.740  1.00  0.00    -0.000 C 
BRANCH  23  24
ATOM     24  C   UNL     1      24.324   7.253  27.155  1.00  0.00    -0.000 C 
BRANCH  24  25
ATOM     25  C   UNL     1      25.227   6.386  28.057  1.00  0.00    -0.003 C 
ATOM     26  C   UNL     1      24.448   5.283  28.772  1.00  0.00     0.004 C 
ENDBRANCH  24  25
ENDBRANCH  23  24
ENDBRANCH  22  23
ENDBRANCH  21  22
ENDBRANCH  20  21
ENDBRANCH  19  20
ENDBRANCH  18  19
ENDBRANCH  17  18
ENDBRANCH  16  17
ENDBRANCH  15  16
ENDBRANCH   1  15
TORSDOF 22
ENDMDL
