MODEL 1
REMARK VINA RESULT:    -5.250      0.000      0.000
REMARK INTER + INTRA:          -7.976
REMARK INTER:                  -8.166
REMARK INTRA:                   0.190
REMARK UNBOUND:                 0.190
REMARK SMILES COc1cc(CNC(=O)CCCCC=CC(C)C)ccc1O
REMARK SMILES IDX 11 1 12 2 13 3 14 4 15 5 16 6 17 7 18 8 10 9 8 10 9 11 7 12
REMARK SMILES IDX 6 14 5 15 4 16 19 17 3 18 20 19 21 20 2 21 1 22 22 23
REMARK H PARENT 7 13 22 24
REMARK Flexibility Score: inf
ROOT
ATOM      1  C   UNL     1     -17.564 -36.388 -10.787  1.00  0.00     0.010 C 
ENDROOT
BRANCH   1   2
ATOM      2  C   UNL     1     -16.209 -37.116 -10.932  1.00  0.00     0.005 C 
BRANCH   2   3
ATOM      3  C   UNL     1     -15.351 -37.125  -9.656  1.00  0.00     0.027 C 
BRANCH   3   4
ATOM      4  C   UNL     1     -16.180 -37.039  -8.404  1.00  0.00    -0.031 C 
ATOM      5  C   UNL     1     -16.634 -35.862  -7.940  1.00  0.00    -0.028 C 
BRANCH   5   6
ATOM      6  C   UNL     1     -17.484 -35.748  -6.695  1.00  0.00     0.005 C 
ATOM      7  C   UNL     1     -17.538 -37.075  -5.931  1.00  0.00     0.012 C 
ATOM      8  C   UNL     1     -18.892 -35.241  -7.028  1.00  0.00     0.012 C 
ENDBRANCH   5   6
ENDBRANCH   3   4
ENDBRANCH   2   3
ENDBRANCH   1   2
BRANCH   1   9
ATOM      9  C   UNL     1     -18.757 -37.114 -11.433  1.00  0.00     0.100 C 
BRANCH   9  10
ATOM     10  C   UNL     1     -18.704 -37.086 -12.933  1.00  0.00     0.220 C 
ATOM     11  O   UNL     1     -19.777 -37.023 -13.594  1.00  0.00    -0.275 OA
ATOM     12  N   UNL     1     -17.441 -37.124 -13.611  1.00  0.00    -0.352 N 
ATOM     13  H   UNL     1     -16.578 -37.342 -13.061  1.00  0.00     0.163 HD
BRANCH  12  14
ATOM     14  C   UNL     1     -17.270 -36.599 -14.962  1.00  0.00     0.151 C 
BRANCH  14  15
ATOM     15  C   UNL     1     -15.853 -36.131 -15.141  1.00  0.00    -0.025 A 
ATOM     16  C   UNL     1     -15.364 -35.047 -14.396  1.00  0.00     0.056 A 
ATOM     17  C   UNL     1     -14.981 -36.841 -15.978  1.00  0.00     0.009 A 
ATOM     18  C   UNL     1     -14.010 -34.668 -14.486  1.00  0.00     0.160 A 
ATOM     19  C   UNL     1     -13.642 -36.462 -16.082  1.00  0.00     0.050 A 
ATOM     20  C   UNL     1     -13.152 -35.383 -15.342  1.00  0.00     0.157 A 
BRANCH  18  21
ATOM     21  O   UNL     1     -13.487 -33.600 -13.737  1.00  0.00    -0.493 OA
ATOM     22  C   UNL     1     -12.805 -32.483 -14.294  1.00  0.00     0.278 C 
ENDBRANCH  18  21
BRANCH  20  23
ATOM     23  O   UNL     1     -11.806 -35.039 -15.464  1.00  0.00    -0.504 OA
ATOM     24  H   UNL     1     -11.128 -35.245 -14.740  1.00  0.00     0.293 HD
ENDBRANCH  20  23
ENDBRANCH  14  15
ENDBRANCH  12  14
ENDBRANCH   9  10
ENDBRANCH   1   9
TORSDOF 10
ENDMDL
MODEL 2
REMARK VINA RESULT:    -4.138      2.220      6.696
REMARK INTER + INTRA:          -6.245
REMARK INTER:                  -5.810
REMARK INTRA:                  -0.435
REMARK UNBOUND:                 0.190
REMARK SMILES COc1cc(CNC(=O)CCCCC=CC(C)C)ccc1O
REMARK SMILES IDX 11 1 12 2 13 3 14 4 15 5 16 6 17 7 18 8 10 9 8 10 9 11 7 12
REMARK SMILES IDX 6 14 5 15 4 16 19 17 3 18 20 19 21 20 2 21 1 22 22 23
REMARK H PARENT 7 13 22 24
REMARK Flexibility Score: inf
ROOT
ATOM      1  C   UNL     1     -14.910 -37.094 -16.281  1.00  0.00     0.010 C 
ENDROOT
BRANCH   1   2
ATOM      2  C   UNL     1     -14.049 -37.125 -14.999  1.00  0.00     0.005 C 
BRANCH   2   3
ATOM      3  C   UNL     1     -12.628 -36.565 -15.172  1.00  0.00     0.027 C 
BRANCH   3   4
ATOM      4  C   UNL     1     -12.561 -35.080 -14.939  1.00  0.00    -0.031 C 
ATOM      5  C   UNL     1     -13.580 -34.411 -14.372  1.00  0.00    -0.028 C 
BRANCH   5   6
ATOM      6  C   UNL     1     -13.533 -32.923 -14.109  1.00  0.00     0.005 C 
ATOM      7  C   UNL     1     -13.680 -32.121 -15.408  1.00  0.00     0.012 C 
ATOM      8  C   UNL     1     -12.257 -32.531 -13.355  1.00  0.00     0.012 C 
ENDBRANCH   5   6
ENDBRANCH   3   4
ENDBRANCH   2   3
ENDBRANCH   1   2
BRANCH   1   9
ATOM      9  C   UNL     1     -16.059 -36.070 -16.262  1.00  0.00     0.100 C 
BRANCH   9  10
ATOM     10  C   UNL     1     -16.700 -35.950 -14.909  1.00  0.00     0.220 C 
ATOM     11  O   UNL     1     -16.868 -34.808 -14.398  1.00  0.00    -0.275 OA
ATOM     12  N   UNL     1     -17.122 -37.125 -14.205  1.00  0.00    -0.352 N 
ATOM     13  H   UNL     1     -16.828 -38.063 -14.562  1.00  0.00     0.163 HD
BRANCH  12  14
ATOM     14  C   UNL     1     -18.169 -37.084 -13.188  1.00  0.00     0.151 C 
BRANCH  14  15
ATOM     15  C   UNL     1     -17.544 -36.880 -11.836  1.00  0.00    -0.025 A 
ATOM     16  C   UNL     1     -18.345 -36.835 -10.684  1.00  0.00     0.056 A 
ATOM     17  C   UNL     1     -16.149 -36.836 -11.707  1.00  0.00     0.009 A 
ATOM     18  C   UNL     1     -17.758 -36.743  -9.406  1.00  0.00     0.160 A 
ATOM     19  C   UNL     1     -15.562 -36.731 -10.446  1.00  0.00     0.050 A 
ATOM     20  C   UNL     1     -16.356 -36.686  -9.297  1.00  0.00     0.157 A 
BRANCH  18  21
ATOM     21  O   UNL     1     -18.532 -36.717  -8.234  1.00  0.00    -0.493 OA
ATOM     22  C   UNL     1     -18.571 -35.630  -7.318  1.00  0.00     0.278 C 
ENDBRANCH  18  21
BRANCH  20  23
ATOM     23  O   UNL     1     -15.733 -36.592  -8.053  1.00  0.00    -0.504 OA
ATOM     24  H   UNL     1     -15.576 -35.702  -7.594  1.00  0.00     0.293 HD
ENDBRANCH  20  23
ENDBRANCH  14  15
ENDBRANCH  12  14
ENDBRANCH   9  10
ENDBRANCH   1   9
TORSDOF 10
ENDMDL
MODEL 3
REMARK VINA RESULT:    -2.667      2.487      7.022
REMARK INTER + INTRA:          -3.958
REMARK INTER:                  -3.252
REMARK INTRA:                  -0.706
REMARK UNBOUND:                 0.190
REMARK SMILES COc1cc(CNC(=O)CCCCC=CC(C)C)ccc1O
REMARK SMILES IDX 11 1 12 2 13 3 14 4 15 5 16 6 17 7 18 8 10 9 8 10 9 11 7 12
REMARK SMILES IDX 6 14 5 15 4 16 19 17 3 18 20 19 21 20 2 21 1 22 22 23
REMARK H PARENT 7 13 22 24
REMARK Flexibility Score: inf
ROOT
ATOM      1  C   UNL     1     -16.365 -36.977 -16.159  1.00  0.00     0.010 C 
ENDROOT
BRANCH   1   2
ATOM      2  C   UNL     1     -15.070 -37.019 -16.999  1.00  0.00     0.005 C 
BRANCH   2   3
ATOM      3  C   UNL     1     -14.484 -35.638 -17.337  1.00  0.00     0.027 C 
BRANCH   3   4
ATOM      4  C   UNL     1     -14.375 -34.748 -16.129  1.00  0.00    -0.031 C 
ATOM      5  C   UNL     1     -13.469 -34.980 -15.164  1.00  0.00    -0.028 C 
BRANCH   5   6
ATOM      6  C   UNL     1     -13.325 -34.093 -13.948  1.00  0.00     0.005 C 
ATOM      7  C   UNL     1     -14.676 -33.855 -13.266  1.00  0.00     0.012 C 
ATOM      8  C   UNL     1     -12.642 -32.767 -14.305  1.00  0.00     0.012 C 
ENDBRANCH   5   6
ENDBRANCH   3   4
ENDBRANCH   2   3
ENDBRANCH   1   2
BRANCH   1   9
ATOM      9  C   UNL     1     -16.155 -37.125 -14.642  1.00  0.00     0.100 C 
BRANCH   9  10
ATOM     10  C   UNL     1     -17.431 -36.969 -13.867  1.00  0.00     0.220 C 
ATOM     11  O   UNL     1     -18.538 -37.014 -14.472  1.00  0.00    -0.275 OA
ATOM     12  N   UNL     1     -17.393 -36.777 -12.446  1.00  0.00    -0.352 N 
ATOM     13  H   UNL     1     -16.475 -36.577 -11.987  1.00  0.00     0.163 HD
BRANCH  12  14
ATOM     14  C   UNL     1     -18.520 -37.125 -11.587  1.00  0.00     0.151 C 
BRANCH  14  15
ATOM     15  C   UNL     1     -18.194 -36.764 -10.164  1.00  0.00    -0.025 A 
ATOM     16  C   UNL     1     -16.859 -36.610  -9.759  1.00  0.00     0.056 A 
ATOM     17  C   UNL     1     -19.225 -36.478  -9.260  1.00  0.00     0.009 A 
ATOM     18  C   UNL     1     -16.551 -36.176  -8.455  1.00  0.00     0.160 A 
ATOM     19  C   UNL     1     -18.928 -36.060  -7.962  1.00  0.00     0.050 A 
ATOM     20  C   UNL     1     -17.599 -35.906  -7.556  1.00  0.00     0.157 A 
BRANCH  18  21
ATOM     21  O   UNL     1     -15.226 -35.993  -8.027  1.00  0.00    -0.493 OA
ATOM     22  C   UNL     1     -14.077 -36.293  -8.810  1.00  0.00     0.278 C 
ENDBRANCH  18  21
BRANCH  20  23
ATOM     23  O   UNL     1     -17.340 -35.477  -6.254  1.00  0.00    -0.504 OA
ATOM     24  H   UNL     1     -17.968 -34.858  -5.755  1.00  0.00     0.293 HD
ENDBRANCH  20  23
ENDBRANCH  14  15
ENDBRANCH  12  14
ENDBRANCH   9  10
ENDBRANCH   1   9
TORSDOF 10
ENDMDL
