MODEL 1
REMARK VINA RESULT:    -4.071      0.000      0.000
REMARK INTER + INTRA:          -5.367
REMARK INTER:                  -5.261
REMARK INTRA:                  -0.106
REMARK UNBOUND:                -0.106
REMARK SMILES CCCCCCC(=O)[O-]
REMARK SMILES IDX 5 1 6 2 7 3 8 4 9 5 4 6 3 7 2 8 1 9
REMARK H PARENT
REMARK Flexibility Score: inf
ROOT
ATOM      1  C   UNL     1      33.043   7.458  11.186  1.00  0.00     0.006 C 
ENDROOT
BRANCH   1   2
ATOM      2  C   UNL     1      34.300   7.609  10.320  1.00  0.00     0.053 C 
BRANCH   2   3
ATOM      3  C   UNL     1      33.986   7.486   8.860  1.00  0.00     0.041 C 
ATOM      4  O   UNL     1      33.659   8.505   8.194  1.00  0.00    -0.550 OA
ATOM      5  O   UNL     1      34.086   6.255   8.227  1.00  0.00    -0.550 OA
ENDBRANCH   2   3
ENDBRANCH   1   2
BRANCH   1   6
ATOM      6  C   UNL     1      32.945   8.548  12.265  1.00  0.00     0.000 C 
BRANCH   6   7
ATOM      7  C   UNL     1      31.526   9.131  12.328  1.00  0.00    -0.000 C 
BRANCH   7   8
ATOM      8  C   UNL     1      31.500  10.649  12.089  1.00  0.00    -0.003 C 
ATOM      9  C   UNL     1      30.090  11.235  12.158  1.00  0.00     0.004 C 
ENDBRANCH   7   8
ENDBRANCH   6   7
ENDBRANCH   1   6
TORSDOF 5
ENDMDL
MODEL 2
REMARK VINA RESULT:    -4.051      2.347      2.743
REMARK INTER + INTRA:          -5.342
REMARK INTER:                  -5.162
REMARK INTRA:                  -0.180
REMARK UNBOUND:                -0.106
REMARK SMILES CCCCCCC(=O)[O-]
REMARK SMILES IDX 5 1 6 2 7 3 8 4 9 5 4 6 3 7 2 8 1 9
REMARK H PARENT
REMARK Flexibility Score: inf
ROOT
ATOM      1  C   UNL     1      33.406   8.123  11.328  1.00  0.00     0.006 C 
ENDROOT
BRANCH   1   2
ATOM      2  C   UNL     1      34.813   7.580  11.605  1.00  0.00     0.053 C 
BRANCH   2   3
ATOM      3  C   UNL     1      34.771   6.204  12.197  1.00  0.00     0.041 C 
ATOM      4  O   UNL     1      34.350   5.232  11.514  1.00  0.00    -0.550 OA
ATOM      5  O   UNL     1      35.226   5.988  13.491  1.00  0.00    -0.550 OA
ENDBRANCH   2   3
ENDBRANCH   1   2
BRANCH   1   6
ATOM      6  C   UNL     1      32.562   8.234  12.607  1.00  0.00     0.000 C 
BRANCH   6   7
ATOM      7  C   UNL     1      31.244   8.972  12.331  1.00  0.00    -0.000 C 
BRANCH   7   8
ATOM      8  C   UNL     1      31.447  10.479  12.107  1.00  0.00    -0.003 C 
ATOM      9  C   UNL     1      30.139  11.268  12.165  1.00  0.00     0.004 C 
ENDBRANCH   7   8
ENDBRANCH   6   7
ENDBRANCH   1   6
TORSDOF 5
ENDMDL
MODEL 3
REMARK VINA RESULT:    -3.995      3.453      4.369
REMARK INTER + INTRA:          -5.269
REMARK INTER:                  -4.911
REMARK INTRA:                  -0.358
REMARK UNBOUND:                -0.106
REMARK SMILES CCCCCCC(=O)[O-]
REMARK SMILES IDX 5 1 6 2 7 3 8 4 9 5 4 6 3 7 2 8 1 9
REMARK H PARENT
REMARK Flexibility Score: inf
ROOT
ATOM      1  C   UNL     1      35.338   6.015  11.821  1.00  0.00     0.006 C 
ENDROOT
BRANCH   1   2
ATOM      2  C   UNL     1      35.097   5.958  13.335  1.00  0.00     0.053 C 
BRANCH   2   3
ATOM      3  C   UNL     1      34.058   4.938  13.694  1.00  0.00     0.041 C 
ATOM      4  O   UNL     1      34.325   4.025  14.519  1.00  0.00    -0.550 OA
ATOM      5  O   UNL     1      32.787   5.017  13.142  1.00  0.00    -0.550 OA
ENDBRANCH   2   3
ENDBRANCH   1   2
BRANCH   1   6
ATOM      6  C   UNL     1      35.209   7.442  11.266  1.00  0.00     0.000 C 
BRANCH   6   7
ATOM      7  C   UNL     1      34.181   8.252  12.070  1.00  0.00    -0.000 C 
BRANCH   7   8
ATOM      8  C   UNL     1      32.778   8.212  11.445  1.00  0.00    -0.003 C 
ATOM      9  C   UNL     1      31.666   8.410  12.474  1.00  0.00     0.004 C 
ENDBRANCH   7   8
ENDBRANCH   6   7
ENDBRANCH   1   6
TORSDOF 5
ENDMDL
MODEL 4
REMARK VINA RESULT:    -3.951     15.223     16.027
REMARK INTER + INTRA:          -5.213
REMARK INTER:                  -5.055
REMARK INTRA:                  -0.158
REMARK UNBOUND:                -0.106
REMARK SMILES CCCCCCC(=O)[O-]
REMARK SMILES IDX 5 1 6 2 7 3 8 4 9 5 4 6 3 7 2 8 1 9
REMARK H PARENT
REMARK Flexibility Score: inf
ROOT
ATOM      1  C   UNL     1      40.499  20.245  16.167  1.00  0.00     0.006 C 
ENDROOT
BRANCH   1   2
ATOM      2  C   UNL     1      40.964  20.898  14.860  1.00  0.00     0.053 C 
BRANCH   2   3
ATOM      3  C   UNL     1      39.819  21.494  14.099  1.00  0.00     0.041 C 
ATOM      4  O   UNL     1      38.750  21.794  14.693  1.00  0.00    -0.550 OA
ATOM      5  O   UNL     1      39.945  21.749  12.740  1.00  0.00    -0.550 OA
ENDBRANCH   2   3
ENDBRANCH   1   2
BRANCH   1   6
ATOM      6  C   UNL     1      41.659  19.598  16.939  1.00  0.00     0.000 C 
BRANCH   6   7
ATOM      7  C   UNL     1      42.989  19.795  16.196  1.00  0.00    -0.000 C 
BRANCH   7   8
ATOM      8  C   UNL     1      44.069  18.798  16.645  1.00  0.00    -0.003 C 
ATOM      9  C   UNL     1      44.515  19.019  18.090  1.00  0.00     0.004 C 
ENDBRANCH   7   8
ENDBRANCH   6   7
ENDBRANCH   1   6
TORSDOF 5
ENDMDL
MODEL 5
REMARK VINA RESULT:    -3.948      3.376      5.664
REMARK INTER + INTRA:          -5.208
REMARK INTER:                  -5.123
REMARK INTRA:                  -0.086
REMARK UNBOUND:                -0.106
REMARK SMILES CCCCCCC(=O)[O-]
REMARK SMILES IDX 5 1 6 2 7 3 8 4 9 5 4 6 3 7 2 8 1 9
REMARK H PARENT
REMARK Flexibility Score: inf
ROOT
ATOM      1  C   UNL     1      34.436   7.185  12.096  1.00  0.00     0.006 C 
ENDROOT
BRANCH   1   2
ATOM      2  C   UNL     1      33.612   8.474  12.214  1.00  0.00     0.053 C 
BRANCH   2   3
ATOM      3  C   UNL     1      32.140   8.194  12.226  1.00  0.00     0.041 C 
ATOM      4  O   UNL     1      31.721   7.007  12.277  1.00  0.00    -0.550 OA
ATOM      5  O   UNL     1      31.232   9.244  12.214  1.00  0.00    -0.550 OA
ENDBRANCH   2   3
ENDBRANCH   1   2
BRANCH   1   6
ATOM      6  C   UNL     1      35.597   7.326  11.100  1.00  0.00     0.000 C 
BRANCH   6   7
ATOM      7  C   UNL     1      36.771   6.418  11.495  1.00  0.00    -0.000 C 
BRANCH   7   8
ATOM      8  C   UNL     1      38.044   6.713  10.687  1.00  0.00    -0.003 C 
ATOM      9  C   UNL     1      39.291   6.818  11.564  1.00  0.00     0.004 C 
ENDBRANCH   7   8
ENDBRANCH   6   7
ENDBRANCH   1   6
TORSDOF 5
ENDMDL
MODEL 6
REMARK VINA RESULT:    -3.925      2.177      2.779
REMARK INTER + INTRA:          -5.178
REMARK INTER:                  -5.039
REMARK INTRA:                  -0.139
REMARK UNBOUND:                -0.106
REMARK SMILES CCCCCCC(=O)[O-]
REMARK SMILES IDX 5 1 6 2 7 3 8 4 9 5 4 6 3 7 2 8 1 9
REMARK H PARENT
REMARK Flexibility Score: inf
ROOT
ATOM      1  C   UNL     1      34.593   7.498  10.216  1.00  0.00     0.006 C 
ENDROOT
BRANCH   1   2
ATOM      2  C   UNL     1      35.870   7.404  11.060  1.00  0.00     0.053 C 
BRANCH   2   3
ATOM      3  C   UNL     1      36.861   6.451  10.464  1.00  0.00     0.041 C 
ATOM      4  O   UNL     1      38.093   6.711  10.503  1.00  0.00    -0.550 OA
ATOM      5  O   UNL     1      36.426   5.261   9.898  1.00  0.00    -0.550 OA
ENDBRANCH   2   3
ENDBRANCH   1   2
BRANCH   1   6
ATOM      6  C   UNL     1      33.322   7.324  11.062  1.00  0.00     0.000 C 
BRANCH   6   7
ATOM      7  C   UNL     1      33.266   8.369  12.186  1.00  0.00    -0.000 C 
BRANCH   7   8
ATOM      8  C   UNL     1      31.826   8.729  12.586  1.00  0.00    -0.003 C 
ATOM      9  C   UNL     1      31.408  10.118  12.106  1.00  0.00     0.004 C 
ENDBRANCH   7   8
ENDBRANCH   6   7
ENDBRANCH   1   6
TORSDOF 5
ENDMDL
MODEL 7
REMARK VINA RESULT:    -3.925      2.938      4.804
REMARK INTER + INTRA:          -5.178
REMARK INTER:                  -4.951
REMARK INTRA:                  -0.227
REMARK UNBOUND:                -0.106
REMARK SMILES CCCCCCC(=O)[O-]
REMARK SMILES IDX 5 1 6 2 7 3 8 4 9 5 4 6 3 7 2 8 1 9
REMARK H PARENT
REMARK Flexibility Score: inf
ROOT
ATOM      1  C   UNL     1      34.161   7.315  10.945  1.00  0.00     0.006 C 
ENDROOT
BRANCH   1   2
ATOM      2  C   UNL     1      33.987   7.643   9.456  1.00  0.00     0.053 C 
BRANCH   2   3
ATOM      3  C   UNL     1      33.845   6.402   8.628  1.00  0.00     0.041 C 
ATOM      4  O   UNL     1      33.564   6.486   7.403  1.00  0.00    -0.550 OA
ATOM      5  O   UNL     1      34.057   5.155   9.201  1.00  0.00    -0.550 OA
ENDBRANCH   2   3
ENDBRANCH   1   2
BRANCH   1   6
ATOM      6  C   UNL     1      35.556   7.692  11.465  1.00  0.00     0.000 C 
BRANCH   6   7
ATOM      7  C   UNL     1      36.492   6.475  11.455  1.00  0.00    -0.000 C 
BRANCH   7   8
ATOM      8  C   UNL     1      37.756   6.708  10.613  1.00  0.00    -0.003 C 
ATOM      9  C   UNL     1      39.023   6.809  11.462  1.00  0.00     0.004 C 
ENDBRANCH   7   8
ENDBRANCH   6   7
ENDBRANCH   1   6
TORSDOF 5
ENDMDL
MODEL 8
REMARK VINA RESULT:    -3.897      3.613      5.435
REMARK INTER + INTRA:          -5.142
REMARK INTER:                  -4.708
REMARK INTRA:                  -0.434
REMARK UNBOUND:                -0.106
REMARK SMILES CCCCCCC(=O)[O-]
REMARK SMILES IDX 5 1 6 2 7 3 8 4 9 5 4 6 3 7 2 8 1 9
REMARK H PARENT
REMARK Flexibility Score: inf
ROOT
ATOM      1  C   UNL     1      34.251   7.930  12.094  1.00  0.00     0.006 C 
ENDROOT
BRANCH   1   2
ATOM      2  C   UNL     1      33.324   6.804  12.570  1.00  0.00     0.053 C 
BRANCH   2   3
ATOM      3  C   UNL     1      34.091   5.569  12.930  1.00  0.00     0.041 C 
ATOM      4  O   UNL     1      33.777   4.458  12.426  1.00  0.00    -0.550 OA
ATOM      5  O   UNL     1      35.174   5.649  13.796  1.00  0.00    -0.550 OA
ENDBRANCH   2   3
ENDBRANCH   1   2
BRANCH   1   6
ATOM      6  C   UNL     1      35.031   7.545  10.828  1.00  0.00     0.000 C 
BRANCH   6   7
ATOM      7  C   UNL     1      36.543   7.535  11.099  1.00  0.00    -0.000 C 
BRANCH   7   8
ATOM      8  C   UNL     1      37.211   6.219  10.669  1.00  0.00    -0.003 C 
ATOM      9  C   UNL     1      36.286   5.329   9.839  1.00  0.00     0.004 C 
ENDBRANCH   7   8
ENDBRANCH   6   7
ENDBRANCH   1   6
TORSDOF 5
ENDMDL
MODEL 9
REMARK VINA RESULT:    -3.839      3.404      5.092
REMARK INTER + INTRA:          -5.067
REMARK INTER:                  -4.685
REMARK INTRA:                  -0.383
REMARK UNBOUND:                -0.106
REMARK SMILES CCCCCCC(=O)[O-]
REMARK SMILES IDX 5 1 6 2 7 3 8 4 9 5 4 6 3 7 2 8 1 9
REMARK H PARENT
REMARK Flexibility Score: inf
ROOT
ATOM      1  C   UNL     1      33.608   7.362  10.765  1.00  0.00     0.006 C 
ENDROOT
BRANCH   1   2
ATOM      2  C   UNL     1      34.695   7.804  11.752  1.00  0.00     0.053 C 
BRANCH   2   3
ATOM      3  C   UNL     1      35.531   6.649  12.213  1.00  0.00     0.041 C 
ATOM      4  O   UNL     1      35.175   5.967  13.211  1.00  0.00    -0.550 OA
ATOM      5  O   UNL     1      36.683   6.304  11.520  1.00  0.00    -0.550 OA
ENDBRANCH   2   3
ENDBRANCH   1   2
BRANCH   1   6
ATOM      6  C   UNL     1      33.930   7.775   9.321  1.00  0.00     0.000 C 
BRANCH   6   7
ATOM      7  C   UNL     1      33.896   6.560   8.382  1.00  0.00    -0.000 C 
BRANCH   7   8
ATOM      8  C   UNL     1      33.912   5.225   9.143  1.00  0.00    -0.003 C 
ATOM      9  C   UNL     1      35.200   4.433   8.920  1.00  0.00     0.004 C 
ENDBRANCH   7   8
ENDBRANCH   6   7
ENDBRANCH   1   6
TORSDOF 5
ENDMDL
