MODEL 1
REMARK VINA RESULT:    -6.289      0.000      0.000
REMARK INTER + INTRA:          -7.953
REMARK INTER:                  -7.576
REMARK INTRA:                  -0.377
REMARK UNBOUND:                -0.377
REMARK SMILES O=c1c(O)c(-c2ccc(O)cc2O)oc2cc(O)cc(O)c12
REMARK SMILES IDX 5 1 3 2 2 3 1 4 22 5 20 6 19 7 17 8 16 9 15 10 14 11 6 12
REMARK SMILES IDX 8 13 7 14 9 15 11 16 12 17 10 18 13 20 4 22 21 24 18 26
REMARK H PARENT 10 19 13 21 4 23 21 25 18 27
REMARK Flexibility Score: inf
ROOT
ATOM      1  C   UNL     1      15.549  -7.747 -32.167  1.00  0.00     0.184 A 
ATOM      2  C   UNL     1      14.885  -7.422 -33.360  1.00  0.00     0.208 A 
ATOM      3  C   UNL     1      15.644  -7.075 -34.488  1.00  0.00     0.238 A 
ATOM      4  O   UNL     1      15.041  -6.713 -35.532  1.00  0.00    -0.285 OA
ATOM      5  C   UNL     1      17.059  -7.111 -34.424  1.00  0.00     0.111 A 
ATOM      6  C   UNL     1      17.929  -6.822 -35.518  1.00  0.00     0.134 A 
ATOM      7  C   UNL     1      19.314  -6.787 -35.309  1.00  0.00     0.093 A 
ATOM      8  C   UNL     1      19.861  -7.093 -34.060  1.00  0.00     0.123 A 
ATOM      9  C   UNL     1      19.024  -7.430 -33.002  1.00  0.00     0.094 A 
ATOM     10  C   UNL     1      17.637  -7.437 -33.168  1.00  0.00     0.146 A 
ATOM     11  O   UNL     1      16.875  -7.743 -32.125  1.00  0.00    -0.451 OA
ENDROOT
BRANCH   1  12
ATOM     12  C   UNL     1      14.809  -8.114 -30.941  1.00  0.00     0.063 A 
ATOM     13  C   UNL     1      14.021  -9.849 -29.432  1.00  0.00     0.047 A 
ATOM     14  C   UNL     1      14.708  -9.469 -30.588  1.00  0.00     0.020 A 
ATOM     15  C   UNL     1      13.439  -8.879 -28.608  1.00  0.00     0.119 A 
ATOM     16  C   UNL     1      13.555  -7.526 -28.940  1.00  0.00     0.093 A 
ATOM     17  C   UNL     1      14.247  -7.135 -30.095  1.00  0.00     0.130 A 
BRANCH  15  18
ATOM     18  O   UNL     1      12.749  -9.248 -27.456  1.00  0.00    -0.508 OA
ATOM     19  H   UNL     1      12.589  -8.590 -26.701  1.00  0.00     0.293 HD
ENDBRANCH  15  18
BRANCH  17  20
ATOM     20  O   UNL     1      14.398  -5.780 -30.389  1.00  0.00    -0.507 OA
ATOM     21  H   UNL     1      15.145  -5.445 -30.987  1.00  0.00     0.293 HD
ENDBRANCH  17  20
ENDBRANCH   1  12
BRANCH   2  22
ATOM     22  O   UNL     1      13.489  -7.463 -33.417  1.00  0.00    -0.502 OA
ATOM     23  H   UNL     1      12.957  -6.942 -34.104  1.00  0.00     0.293 HD
ENDBRANCH   2  22
BRANCH   6  24
ATOM     24  O   UNL     1      17.492  -6.588 -36.826  1.00  0.00    -0.507 OA
ATOM     25  H   UNL     1      17.286  -7.306 -37.503  1.00  0.00     0.293 HD
ENDBRANCH   6  24
BRANCH   8  26
ATOM     26  O   UNL     1      21.241  -7.073 -33.866  1.00  0.00    -0.508 OA
ATOM     27  H   UNL     1      21.885  -6.995 -34.645  1.00  0.00     0.293 HD
ENDBRANCH   8  26
TORSDOF 6
ENDMDL
MODEL 2
REMARK VINA RESULT:    -5.678      1.622      6.266
REMARK INTER + INTRA:          -7.217
REMARK INTER:                  -6.810
REMARK INTRA:                  -0.407
REMARK UNBOUND:                -0.377
REMARK SMILES O=c1c(O)c(-c2ccc(O)cc2O)oc2cc(O)cc(O)c12
REMARK SMILES IDX 5 1 3 2 2 3 1 4 22 5 20 6 19 7 17 8 16 9 15 10 14 11 6 12
REMARK SMILES IDX 8 13 7 14 9 15 11 16 12 17 10 18 13 20 4 22 21 24 18 26
REMARK H PARENT 10 19 13 21 4 23 21 25 18 27
REMARK Flexibility Score: inf
ROOT
ATOM      1  C   UNL     1      16.713  -7.448 -32.758  1.00  0.00     0.184 A 
ATOM      2  C   UNL     1      15.595  -7.607 -33.591  1.00  0.00     0.208 A 
ATOM      3  C   UNL     1      14.450  -8.238 -33.079  1.00  0.00     0.238 A 
ATOM      4  O   UNL     1      13.479  -8.444 -33.852  1.00  0.00    -0.285 OA
ATOM      5  C   UNL     1      14.420  -8.651 -31.724  1.00  0.00     0.111 A 
ATOM      6  C   UNL     1      13.297  -9.259 -31.086  1.00  0.00     0.134 A 
ATOM      7  C   UNL     1      13.418  -9.723 -29.769  1.00  0.00     0.093 A 
ATOM      8  C   UNL     1      14.601  -9.541 -29.048  1.00  0.00     0.123 A 
ATOM      9  C   UNL     1      15.682  -8.899 -29.643  1.00  0.00     0.094 A 
ATOM     10  C   UNL     1      15.606  -8.460 -30.967  1.00  0.00     0.146 A 
ATOM     11  O   UNL     1      16.669  -7.872 -31.502  1.00  0.00    -0.451 OA
ENDROOT
BRANCH   1  12
ATOM     12  C   UNL     1      17.952  -6.800 -33.237  1.00  0.00     0.063 A 
ATOM     13  C   UNL     1      20.105  -6.999 -34.349  1.00  0.00     0.047 A 
ATOM     14  C   UNL     1      18.925  -7.582 -33.879  1.00  0.00     0.020 A 
ATOM     15  C   UNL     1      20.320  -5.625 -34.197  1.00  0.00     0.119 A 
ATOM     16  C   UNL     1      19.346  -4.834 -33.580  1.00  0.00     0.093 A 
ATOM     17  C   UNL     1      18.157  -5.410 -33.110  1.00  0.00     0.130 A 
BRANCH  15  18
ATOM     18  O   UNL     1      21.494  -5.034 -34.659  1.00  0.00    -0.508 OA
ATOM     19  H   UNL     1      21.782  -5.116 -35.627  1.00  0.00     0.293 HD
ENDBRANCH  15  18
BRANCH  17  20
ATOM     20  O   UNL     1      17.172  -4.602 -32.541  1.00  0.00    -0.507 OA
ATOM     21  H   UNL     1      16.804  -4.785 -31.614  1.00  0.00     0.293 HD
ENDBRANCH  17  20
ENDBRANCH   1  12
BRANCH   2  22
ATOM     22  O   UNL     1      15.626  -7.127 -34.903  1.00  0.00    -0.502 OA
ATOM     23  H   UNL     1      15.573  -7.741 -35.708  1.00  0.00     0.293 HD
ENDBRANCH   2  22
BRANCH   6  24
ATOM     24  O   UNL     1      12.043  -9.412 -31.685  1.00  0.00    -0.507 OA
ATOM     25  H   UNL     1      11.282  -9.954 -31.304  1.00  0.00     0.293 HD
ENDBRANCH   6  24
BRANCH   8  26
ATOM     26  O   UNL     1      14.706  -9.989 -27.733  1.00  0.00    -0.508 OA
ATOM     27  H   UNL     1      14.086 -10.702 -27.364  1.00  0.00     0.293 HD
ENDBRANCH   8  26
TORSDOF 6
ENDMDL
MODEL 3
REMARK VINA RESULT:    -5.483      4.090      6.269
REMARK INTER + INTRA:          -6.982
REMARK INTER:                  -6.548
REMARK INTRA:                  -0.434
REMARK UNBOUND:                -0.377
REMARK SMILES O=c1c(O)c(-c2ccc(O)cc2O)oc2cc(O)cc(O)c12
REMARK SMILES IDX 5 1 3 2 2 3 1 4 22 5 20 6 19 7 17 8 16 9 15 10 14 11 6 12
REMARK SMILES IDX 8 13 7 14 9 15 11 16 12 17 10 18 13 20 4 22 21 24 18 26
REMARK H PARENT 10 19 13 21 4 23 21 25 18 27
REMARK Flexibility Score: inf
ROOT
ATOM      1  C   UNL     1      13.167  -8.312 -32.089  1.00  0.00     0.184 A 
ATOM      2  C   UNL     1      12.961  -7.039 -31.535  1.00  0.00     0.208 A 
ATOM      3  C   UNL     1      13.517  -6.746 -30.280  1.00  0.00     0.238 A 
ATOM      4  O   UNL     1      13.267  -5.629 -29.756  1.00  0.00    -0.285 OA
ATOM      5  C   UNL     1      14.317  -7.711 -29.621  1.00  0.00     0.111 A 
ATOM      6  C   UNL     1      14.968  -7.507 -28.367  1.00  0.00     0.134 A 
ATOM      7  C   UNL     1      15.648  -8.571 -27.760  1.00  0.00     0.093 A 
ATOM      8  C   UNL     1      15.754  -9.812 -28.393  1.00  0.00     0.123 A 
ATOM      9  C   UNL     1      15.171 -10.004 -29.641  1.00  0.00     0.094 A 
ATOM     10  C   UNL     1      14.453  -8.975 -30.255  1.00  0.00     0.146 A 
ATOM     11  O   UNL     1      13.895  -9.209 -31.436  1.00  0.00    -0.451 OA
ENDROOT
BRANCH   1  12
ATOM     12  C   UNL     1      12.603  -8.688 -33.402  1.00  0.00     0.063 A 
ATOM     13  C   UNL     1      12.733  -8.575 -35.828  1.00  0.00     0.047 A 
ATOM     14  C   UNL     1      13.236  -8.233 -34.570  1.00  0.00     0.020 A 
ATOM     15  C   UNL     1      11.598  -9.388 -35.934  1.00  0.00     0.119 A 
ATOM     16  C   UNL     1      10.975  -9.865 -34.777  1.00  0.00     0.093 A 
ATOM     17  C   UNL     1      11.477  -9.531 -33.511  1.00  0.00     0.130 A 
BRANCH  15  18
ATOM     18  O   UNL     1      11.086  -9.732 -37.183  1.00  0.00    -0.508 OA
ATOM     19  H   UNL     1      11.407  -9.278 -38.030  1.00  0.00     0.293 HD
ENDBRANCH  15  18
BRANCH  17  20
ATOM     20  O   UNL     1      10.875 -10.053 -32.366  1.00  0.00    -0.507 OA
ATOM     21  H   UNL     1      10.014  -9.667 -31.994  1.00  0.00     0.293 HD
ENDBRANCH  17  20
ENDBRANCH   1  12
BRANCH   2  22
ATOM     22  O   UNL     1      12.227  -6.080 -32.238  1.00  0.00    -0.502 OA
ATOM     23  H   UNL     1      12.633  -5.208 -32.554  1.00  0.00     0.293 HD
ENDBRANCH   2  22
BRANCH   6  24
ATOM     24  O   UNL     1      14.998  -6.284 -27.690  1.00  0.00    -0.507 OA
ATOM     25  H   UNL     1      15.596  -6.072 -26.906  1.00  0.00     0.293 HD
ENDBRANCH   6  24
BRANCH   8  26
ATOM     26  O   UNL     1      16.447 -10.860 -27.789  1.00  0.00    -0.508 OA
ATOM     27  H   UNL     1      15.962 -11.651 -27.382  1.00  0.00     0.293 HD
ENDBRANCH   8  26
TORSDOF 6
ENDMDL
MODEL 4
REMARK VINA RESULT:    -5.466      1.832      2.655
REMARK INTER + INTRA:          -6.962
REMARK INTER:                  -6.767
REMARK INTRA:                  -0.195
REMARK UNBOUND:                -0.377
REMARK SMILES O=c1c(O)c(-c2ccc(O)cc2O)oc2cc(O)cc(O)c12
REMARK SMILES IDX 5 1 3 2 2 3 1 4 22 5 20 6 19 7 17 8 16 9 15 10 14 11 6 12
REMARK SMILES IDX 8 13 7 14 9 15 11 16 12 17 10 18 13 20 4 22 21 24 18 26
REMARK H PARENT 10 19 13 21 4 23 21 25 18 27
REMARK Flexibility Score: inf
ROOT
ATOM      1  C   UNL     1      15.356  -7.869 -30.864  1.00  0.00     0.184 A 
ATOM      2  C   UNL     1      14.430  -6.836 -31.076  1.00  0.00     0.208 A 
ATOM      3  C   UNL     1      14.602  -5.984 -32.179  1.00  0.00     0.238 A 
ATOM      4  O   UNL     1      13.812  -5.015 -32.321  1.00  0.00    -0.285 OA
ATOM      5  C   UNL     1      15.667  -6.212 -33.085  1.00  0.00     0.111 A 
ATOM      6  C   UNL     1      15.911  -5.440 -34.261  1.00  0.00     0.134 A 
ATOM      7  C   UNL     1      17.057  -5.692 -35.027  1.00  0.00     0.093 A 
ATOM      8  C   UNL     1      17.932  -6.729 -34.695  1.00  0.00     0.123 A 
ATOM      9  C   UNL     1      17.672  -7.523 -33.581  1.00  0.00     0.094 A 
ATOM     10  C   UNL     1      16.560  -7.273 -32.776  1.00  0.00     0.146 A 
ATOM     11  O   UNL     1      16.362  -8.041 -31.711  1.00  0.00    -0.451 OA
ENDROOT
BRANCH   1  12
ATOM     12  C   UNL     1      15.237  -8.795 -29.718  1.00  0.00     0.063 A 
ATOM     13  C   UNL     1      16.162  -9.664 -27.645  1.00  0.00     0.047 A 
ATOM     14  C   UNL     1      16.247  -8.806 -28.744  1.00  0.00     0.020 A 
ATOM     15  C   UNL     1      15.059 -10.513 -27.499  1.00  0.00     0.119 A 
ATOM     16  C   UNL     1      14.036 -10.493 -28.453  1.00  0.00     0.093 A 
ATOM     17  C   UNL     1      14.111  -9.630 -29.556  1.00  0.00     0.130 A 
BRANCH  15  18
ATOM     18  O   UNL     1      14.965 -11.376 -26.410  1.00  0.00    -0.508 OA
ATOM     19  H   UNL     1      14.333 -11.191 -25.640  1.00  0.00     0.293 HD
ENDBRANCH  15  18
BRANCH  17  20
ATOM     20  O   UNL     1      13.062  -9.583 -30.474  1.00  0.00    -0.507 OA
ATOM     21  H   UNL     1      12.388  -8.826 -30.473  1.00  0.00     0.293 HD
ENDBRANCH  17  20
ENDBRANCH   1  12
BRANCH   2  22
ATOM     22  O   UNL     1      13.348  -6.676 -30.206  1.00  0.00    -0.502 OA
ATOM     23  H   UNL     1      12.586  -7.341 -30.158  1.00  0.00     0.293 HD
ENDBRANCH   2  22
BRANCH   6  24
ATOM     24  O   UNL     1      15.057  -4.439 -34.733  1.00  0.00    -0.507 OA
ATOM     25  H   UNL     1      15.268  -3.453 -34.737  1.00  0.00     0.293 HD
ENDBRANCH   6  24
BRANCH   8  26
ATOM     26  O   UNL     1      19.060  -6.984 -35.472  1.00  0.00    -0.508 OA
ATOM     27  H   UNL     1      19.903  -7.378 -35.070  1.00  0.00     0.293 HD
ENDBRANCH   8  26
TORSDOF 6
ENDMDL
MODEL 5
REMARK VINA RESULT:    -5.346      1.463      6.650
REMARK INTER + INTRA:          -6.817
REMARK INTER:                  -6.704
REMARK INTRA:                  -0.113
REMARK UNBOUND:                -0.377
REMARK SMILES O=c1c(O)c(-c2ccc(O)cc2O)oc2cc(O)cc(O)c12
REMARK SMILES IDX 5 1 3 2 2 3 1 4 22 5 20 6 19 7 17 8 16 9 15 10 14 11 6 12
REMARK SMILES IDX 8 13 7 14 9 15 11 16 12 17 10 18 13 20 4 22 21 24 18 26
REMARK H PARENT 10 19 13 21 4 23 21 25 18 27
REMARK Flexibility Score: inf
ROOT
ATOM      1  C   UNL     1      15.360  -7.668 -31.755  1.00  0.00     0.184 A 
ATOM      2  C   UNL     1      14.187  -6.942 -31.499  1.00  0.00     0.208 A 
ATOM      3  C   UNL     1      13.437  -7.243 -30.351  1.00  0.00     0.238 A 
ATOM      4  O   UNL     1      12.348  -6.640 -30.167  1.00  0.00    -0.285 OA
ATOM      5  C   UNL     1      13.901  -8.229 -29.446  1.00  0.00     0.111 A 
ATOM      6  C   UNL     1      13.246  -8.585 -28.228  1.00  0.00     0.134 A 
ATOM      7  C   UNL     1      13.741  -9.649 -27.463  1.00  0.00     0.093 A 
ATOM      8  C   UNL     1      14.903 -10.327 -27.839  1.00  0.00     0.123 A 
ATOM      9  C   UNL     1      15.580  -9.950 -28.996  1.00  0.00     0.094 A 
ATOM     10  C   UNL     1      15.091  -8.919 -29.800  1.00  0.00     0.146 A 
ATOM     11  O   UNL     1      15.756  -8.608 -30.906  1.00  0.00    -0.451 OA
ENDROOT
BRANCH   1  12
ATOM     12  C   UNL     1      16.191  -7.406 -32.949  1.00  0.00     0.063 A 
ATOM     13  C   UNL     1      18.370  -6.877 -33.887  1.00  0.00     0.047 A 
ATOM     14  C   UNL     1      17.556  -7.123 -32.779  1.00  0.00     0.020 A 
ATOM     15  C   UNL     1      17.834  -6.924 -35.179  1.00  0.00     0.119 A 
ATOM     16  C   UNL     1      16.481  -7.229 -35.359  1.00  0.00     0.093 A 
ATOM     17  C   UNL     1      15.658  -7.482 -34.252  1.00  0.00     0.130 A 
BRANCH  15  18
ATOM     18  O   UNL     1      18.637  -6.677 -36.290  1.00  0.00    -0.508 OA
ATOM     19  H   UNL     1      19.240  -7.393 -36.678  1.00  0.00     0.293 HD
ENDBRANCH  15  18
BRANCH  17  20
ATOM     20  O   UNL     1      14.322  -7.833 -34.448  1.00  0.00    -0.507 OA
ATOM     21  H   UNL     1      13.936  -8.689 -34.066  1.00  0.00     0.293 HD
ENDBRANCH  17  20
ENDBRANCH   1  12
BRANCH   2  22
ATOM     22  O   UNL     1      13.788  -5.926 -32.372  1.00  0.00    -0.502 OA
ATOM     23  H   UNL     1      13.912  -5.992 -33.375  1.00  0.00     0.293 HD
ENDBRANCH   2  22
BRANCH   6  24
ATOM     24  O   UNL     1      12.130  -7.917 -27.714  1.00  0.00    -0.507 OA
ATOM     25  H   UNL     1      11.198  -8.300 -27.669  1.00  0.00     0.293 HD
ENDBRANCH   6  24
BRANCH   8  26
ATOM     26  O   UNL     1      15.398 -11.373 -27.063  1.00  0.00    -0.508 OA
ATOM     27  H   UNL     1      15.919 -11.199 -26.210  1.00  0.00     0.293 HD
ENDBRANCH   8  26
TORSDOF 6
ENDMDL
MODEL 6
REMARK VINA RESULT:    -5.314      2.619      6.356
REMARK INTER + INTRA:          -6.778
REMARK INTER:                  -6.360
REMARK INTRA:                  -0.418
REMARK UNBOUND:                -0.377
REMARK SMILES O=c1c(O)c(-c2ccc(O)cc2O)oc2cc(O)cc(O)c12
REMARK SMILES IDX 5 1 3 2 2 3 1 4 22 5 20 6 19 7 17 8 16 9 15 10 14 11 6 12
REMARK SMILES IDX 8 13 7 14 9 15 11 16 12 17 10 18 13 20 4 22 21 24 18 26
REMARK H PARENT 10 19 13 21 4 23 21 25 18 27
REMARK Flexibility Score: inf
ROOT
ATOM      1  C   UNL     1      15.659  -7.605 -33.039  1.00  0.00     0.184 A 
ATOM      2  C   UNL     1      15.273  -8.204 -31.829  1.00  0.00     0.208 A 
ATOM      3  C   UNL     1      14.060  -8.908 -31.776  1.00  0.00     0.238 A 
ATOM      4  O   UNL     1      13.684  -9.378 -30.670  1.00  0.00    -0.285 OA
ATOM      5  C   UNL     1      13.277  -9.052 -32.947  1.00  0.00     0.111 A 
ATOM      6  C   UNL     1      12.053  -9.783 -33.020  1.00  0.00     0.134 A 
ATOM      7  C   UNL     1      11.310  -9.768 -34.208  1.00  0.00     0.093 A 
ATOM      8  C   UNL     1      11.779  -9.103 -35.343  1.00  0.00     0.123 A 
ATOM      9  C   UNL     1      12.998  -8.434 -35.298  1.00  0.00     0.094 A 
ATOM     10  C   UNL     1      13.744  -8.397 -34.118  1.00  0.00     0.146 A 
ATOM     11  O   UNL     1      14.892  -7.730 -34.114  1.00  0.00    -0.451 OA
ENDROOT
BRANCH   1  12
ATOM     12  C   UNL     1      16.920  -6.844 -33.161  1.00  0.00     0.063 A 
ATOM     13  C   UNL     1      19.323  -6.849 -33.528  1.00  0.00     0.047 A 
ATOM     14  C   UNL     1      18.115  -7.540 -33.401  1.00  0.00     0.020 A 
ATOM     15  C   UNL     1      19.349  -5.454 -33.430  1.00  0.00     0.119 A 
ATOM     16  C   UNL     1      18.160  -4.750 -33.215  1.00  0.00     0.093 A 
ATOM     17  C   UNL     1      16.943  -5.435 -33.091  1.00  0.00     0.130 A 
BRANCH  15  18
ATOM     18  O   UNL     1      20.549  -4.756 -33.552  1.00  0.00    -0.508 OA
ATOM     19  H   UNL     1      21.431  -5.165 -33.265  1.00  0.00     0.293 HD
ENDBRANCH  15  18
BRANCH  17  20
ATOM     20  O   UNL     1      15.757  -4.719 -32.926  1.00  0.00    -0.507 OA
ATOM     21  H   UNL     1      15.241  -4.739 -32.053  1.00  0.00     0.293 HD
ENDBRANCH  17  20
ENDBRANCH   1  12
BRANCH   2  22
ATOM     22  O   UNL     1      16.099  -8.106 -30.706  1.00  0.00    -0.502 OA
ATOM     23  H   UNL     1      16.525  -7.234 -30.418  1.00  0.00     0.293 HD
ENDBRANCH   2  22
BRANCH   6  24
ATOM     24  O   UNL     1      11.536 -10.553 -31.974  1.00  0.00    -0.507 OA
ATOM     25  H   UNL     1      10.562 -10.602 -31.719  1.00  0.00     0.293 HD
ENDBRANCH   6  24
BRANCH   8  26
ATOM     26  O   UNL     1      11.041  -9.109 -36.526  1.00  0.00    -0.508 OA
ATOM     27  H   UNL     1      11.050  -8.318 -37.159  1.00  0.00     0.293 HD
ENDBRANCH   8  26
TORSDOF 6
ENDMDL
MODEL 7
REMARK VINA RESULT:    -5.274      4.686      7.734
REMARK INTER + INTRA:          -6.730
REMARK INTER:                  -6.324
REMARK INTRA:                  -0.406
REMARK UNBOUND:                -0.377
REMARK SMILES O=c1c(O)c(-c2ccc(O)cc2O)oc2cc(O)cc(O)c12
REMARK SMILES IDX 5 1 3 2 2 3 1 4 22 5 20 6 19 7 17 8 16 9 15 10 14 11 6 12
REMARK SMILES IDX 8 13 7 14 9 15 11 16 12 17 10 18 13 20 4 22 21 24 18 26
REMARK H PARENT 10 19 13 21 4 23 21 25 18 27
REMARK Flexibility Score: inf
ROOT
ATOM      1  C   UNL     1      21.566  -4.795 -35.410  1.00  0.00     0.184 A 
ATOM      2  C   UNL     1      21.704  -5.103 -36.772  1.00  0.00     0.208 A 
ATOM      3  C   UNL     1      22.914  -4.805 -37.417  1.00  0.00     0.238 A 
ATOM      4  O   UNL     1      23.006  -5.015 -38.655  1.00  0.00    -0.285 OA
ATOM      5  C   UNL     1      23.990  -4.255 -36.678  1.00  0.00     0.111 A 
ATOM      6  C   UNL     1      25.277  -3.955 -37.217  1.00  0.00     0.134 A 
ATOM      7  C   UNL     1      26.231  -3.314 -36.415  1.00  0.00     0.093 A 
ATOM      8  C   UNL     1      25.965  -3.022 -35.075  1.00  0.00     0.123 A 
ATOM      9  C   UNL     1      24.732  -3.360 -34.525  1.00  0.00     0.094 A 
ATOM     10  C   UNL     1      23.747  -3.965 -35.308  1.00  0.00     0.146 A 
ATOM     11  O   UNL     1      22.579  -4.251 -34.748  1.00  0.00    -0.451 OA
ENDROOT
BRANCH   1  12
ATOM     12  C   UNL     1      20.316  -5.076 -34.674  1.00  0.00     0.063 A 
ATOM     13  C   UNL     1      18.089  -4.358 -34.011  1.00  0.00     0.047 A 
ATOM     14  C   UNL     1      19.286  -4.121 -34.692  1.00  0.00     0.020 A 
ATOM     15  C   UNL     1      17.900  -5.558 -33.316  1.00  0.00     0.119 A 
ATOM     16  C   UNL     1      18.911  -6.525 -33.312  1.00  0.00     0.093 A 
ATOM     17  C   UNL     1      20.113  -6.297 -33.997  1.00  0.00     0.130 A 
BRANCH  15  18
ATOM     18  O   UNL     1      16.712  -5.802 -32.631  1.00  0.00    -0.508 OA
ATOM     19  H   UNL     1      15.972  -6.362 -33.039  1.00  0.00     0.293 HD
ENDBRANCH  15  18
BRANCH  17  20
ATOM     20  O   UNL     1      21.093  -7.289 -34.027  1.00  0.00    -0.507 OA
ATOM     21  H   UNL     1      20.857  -8.266 -34.158  1.00  0.00     0.293 HD
ENDBRANCH  17  20
ENDBRANCH   1  12
BRANCH   2  22
ATOM     22  O   UNL     1      20.652  -5.711 -37.463  1.00  0.00    -0.502 OA
ATOM     23  H   UNL     1      19.684  -5.447 -37.321  1.00  0.00     0.293 HD
ENDBRANCH   2  22
BRANCH   6  24
ATOM     24  O   UNL     1      25.678  -4.282 -38.517  1.00  0.00    -0.507 OA
ATOM     25  H   UNL     1      25.960  -3.617 -39.219  1.00  0.00     0.293 HD
ENDBRANCH   6  24
BRANCH   8  26
ATOM     26  O   UNL     1      26.925  -2.400 -34.280  1.00  0.00    -0.508 OA
ATOM     27  H   UNL     1      27.768  -2.884 -33.991  1.00  0.00     0.293 HD
ENDBRANCH   8  26
TORSDOF 6
ENDMDL
MODEL 8
REMARK VINA RESULT:    -5.131      4.055      5.152
REMARK INTER + INTRA:          -6.558
REMARK INTER:                  -6.158
REMARK INTRA:                  -0.400
REMARK UNBOUND:                -0.377
REMARK SMILES O=c1c(O)c(-c2ccc(O)cc2O)oc2cc(O)cc(O)c12
REMARK SMILES IDX 5 1 3 2 2 3 1 4 22 5 20 6 19 7 17 8 16 9 15 10 14 11 6 12
REMARK SMILES IDX 8 13 7 14 9 15 11 16 12 17 10 18 13 20 4 22 21 24 18 26
REMARK H PARENT 10 19 13 21 4 23 21 25 18 27
REMARK Flexibility Score: inf
ROOT
ATOM      1  C   UNL     1      13.792  -8.232 -30.470  1.00  0.00     0.184 A 
ATOM      2  C   UNL     1      13.170  -6.984 -30.315  1.00  0.00     0.208 A 
ATOM      3  C   UNL     1      12.481  -6.427 -31.404  1.00  0.00     0.238 A 
ATOM      4  O   UNL     1      11.989  -5.275 -31.281  1.00  0.00    -0.285 OA
ATOM      5  C   UNL     1      12.376  -7.152 -32.616  1.00  0.00     0.111 A 
ATOM      6  C   UNL     1      11.664  -6.706 -33.770  1.00  0.00     0.134 A 
ATOM      7  C   UNL     1      11.718  -7.460 -34.950  1.00  0.00     0.093 A 
ATOM      8  C   UNL     1      12.405  -8.676 -34.996  1.00  0.00     0.123 A 
ATOM      9  C   UNL     1      13.056  -9.146 -33.860  1.00  0.00     0.094 A 
ATOM     10  C   UNL     1      13.053  -8.399 -32.680  1.00  0.00     0.146 A 
ATOM     11  O   UNL     1      13.705  -8.876 -31.627  1.00  0.00    -0.451 OA
ENDROOT
BRANCH   1  12
ATOM     12  C   UNL     1      14.540  -8.869 -29.367  1.00  0.00     0.063 A 
ATOM     13  C   UNL     1      16.501  -8.897 -27.930  1.00  0.00     0.047 A 
ATOM     14  C   UNL     1      15.772  -8.323 -28.974  1.00  0.00     0.020 A 
ATOM     15  C   UNL     1      16.001 -10.017 -27.256  1.00  0.00     0.119 A 
ATOM     16  C   UNL     1      14.764 -10.554 -27.624  1.00  0.00     0.093 A 
ATOM     17  C   UNL     1      14.023  -9.980 -28.667  1.00  0.00     0.130 A 
BRANCH  15  18
ATOM     18  O   UNL     1      16.722 -10.600 -26.216  1.00  0.00    -0.508 OA
ATOM     19  H   UNL     1      16.523 -11.541 -25.896  1.00  0.00     0.293 HD
ENDBRANCH  15  18
BRANCH  17  20
ATOM     20  O   UNL     1      12.768 -10.495 -28.992  1.00  0.00    -0.507 OA
ATOM     21  H   UNL     1      12.040  -9.911 -29.388  1.00  0.00     0.293 HD
ENDBRANCH  17  20
ENDBRANCH   1  12
BRANCH   2  22
ATOM     22  O   UNL     1      13.228  -6.321 -29.086  1.00  0.00    -0.502 OA
ATOM     23  H   UNL     1      12.872  -6.729 -28.230  1.00  0.00     0.293 HD
ENDBRANCH   2  22
BRANCH   6  24
ATOM     24  O   UNL     1      10.875  -5.552 -33.807  1.00  0.00    -0.507 OA
ATOM     25  H   UNL     1      11.010  -4.779 -34.440  1.00  0.00     0.293 HD
ENDBRANCH   6  24
BRANCH   8  26
ATOM     26  O   UNL     1      12.438  -9.428 -36.169  1.00  0.00    -0.508 OA
ATOM     27  H   UNL     1      11.701  -9.362 -36.862  1.00  0.00     0.293 HD
ENDBRANCH   8  26
TORSDOF 6
ENDMDL
MODEL 9
REMARK VINA RESULT:    -5.123      1.738      2.122
REMARK INTER + INTRA:          -6.549
REMARK INTER:                  -6.245
REMARK INTRA:                  -0.304
REMARK UNBOUND:                -0.377
REMARK SMILES O=c1c(O)c(-c2ccc(O)cc2O)oc2cc(O)cc(O)c12
REMARK SMILES IDX 5 1 3 2 2 3 1 4 22 5 20 6 19 7 17 8 16 9 15 10 14 11 6 12
REMARK SMILES IDX 8 13 7 14 9 15 11 16 12 17 10 18 13 20 4 22 21 24 18 26
REMARK H PARENT 10 19 13 21 4 23 21 25 18 27
REMARK Flexibility Score: inf
ROOT
ATOM      1  C   UNL     1      16.134  -7.086 -32.431  1.00  0.00     0.184 A 
ATOM      2  C   UNL     1      15.686  -5.799 -32.767  1.00  0.00     0.208 A 
ATOM      3  C   UNL     1      16.501  -4.983 -33.568  1.00  0.00     0.238 A 
ATOM      4  O   UNL     1      16.128  -3.805 -33.804  1.00  0.00    -0.285 OA
ATOM      5  C   UNL     1      17.727  -5.486 -34.068  1.00  0.00     0.111 A 
ATOM      6  C   UNL     1      18.612  -4.764 -34.925  1.00  0.00     0.134 A 
ATOM      7  C   UNL     1      19.848  -5.325 -35.271  1.00  0.00     0.093 A 
ATOM      8  C   UNL     1      20.203  -6.606 -34.844  1.00  0.00     0.123 A 
ATOM      9  C   UNL     1      19.324  -7.340 -34.053  1.00  0.00     0.094 A 
ATOM     10  C   UNL     1      18.100  -6.794 -33.659  1.00  0.00     0.146 A 
ATOM     11  O   UNL     1      17.301  -7.521 -32.887  1.00  0.00    -0.451 OA
ENDROOT
BRANCH   1  12
ATOM     12  C   UNL     1      15.329  -7.992 -31.586  1.00  0.00     0.063 A 
ATOM     13  C   UNL     1      15.029  -9.128 -29.457  1.00  0.00     0.047 A 
ATOM     14  C   UNL     1      15.770  -8.280 -30.285  1.00  0.00     0.020 A 
ATOM     15  C   UNL     1      13.830  -9.686 -29.915  1.00  0.00     0.119 A 
ATOM     16  C   UNL     1      13.370  -9.385 -31.200  1.00  0.00     0.093 A 
ATOM     17  C   UNL     1      14.105  -8.531 -32.036  1.00  0.00     0.130 A 
BRANCH  15  18
ATOM     18  O   UNL     1      13.086 -10.535 -29.099  1.00  0.00    -0.508 OA
ATOM     19  H   UNL     1      12.272 -10.205 -28.594  1.00  0.00     0.293 HD
ENDBRANCH  15  18
BRANCH  17  20
ATOM     20  O   UNL     1      13.611  -8.200 -33.297  1.00  0.00    -0.507 OA
ATOM     21  H   UNL     1      12.923  -8.778 -33.767  1.00  0.00     0.293 HD
ENDBRANCH  17  20
ENDBRANCH   1  12
BRANCH   2  22
ATOM     22  O   UNL     1      14.440  -5.352 -32.319  1.00  0.00    -0.502 OA
ATOM     23  H   UNL     1      14.341  -4.694 -31.555  1.00  0.00     0.293 HD
ENDBRANCH   2  22
BRANCH   6  24
ATOM     24  O   UNL     1      18.319  -3.515 -35.480  1.00  0.00    -0.507 OA
ATOM     25  H   UNL     1      17.394  -3.189 -35.715  1.00  0.00     0.293 HD
ENDBRANCH   6  24
BRANCH   8  26
ATOM     26  O   UNL     1      21.428  -7.163 -35.207  1.00  0.00    -0.508 OA
ATOM     27  H   UNL     1      22.065  -6.679 -35.830  1.00  0.00     0.293 HD
ENDBRANCH   8  26
TORSDOF 6
ENDMDL
