MODEL 1
REMARK VINA RESULT:    -2.996      0.000      0.000
REMARK INTER + INTRA:          -3.506
REMARK INTER:                  -3.258
REMARK INTRA:                  -0.248
REMARK UNBOUND:                -0.248
REMARK SMILES CC(C)c1cc2c(cc1O)[C@@]1(C)CCCC(C)(C)[C@H]1CC2=O
REMARK SMILES IDX 4 1 9 2 8 3 7 4 6 5 5 6 21 7 22 8 20 9 19 10 11 11 13 12
REMARK SMILES IDX 14 13 15 14 16 15 17 16 18 17 12 18 2 19 1 20 3 21 10 22
REMARK H PARENT 10 23
REMARK Flexibility Score: inf
ROOT
ATOM      1  C   UNL     1       8.871 -29.132  17.715  1.00  0.00    -0.003 A 
ATOM      2  C   UNL     1       9.454 -28.776  16.486  1.00  0.00     0.119 A 
ATOM      3  C   UNL     1       9.251 -29.575  15.355  1.00  0.00     0.051 A 
ATOM      4  C   UNL     1       8.447 -30.738  15.401  1.00  0.00    -0.027 A 
ATOM      5  C   UNL     1       7.936 -31.133  16.655  1.00  0.00     0.022 A 
ATOM      6  C   UNL     1       8.129 -30.321  17.787  1.00  0.00     0.020 A 
ATOM      7  C   UNL     1       7.267 -32.429  16.796  1.00  0.00     0.163 C 
ATOM      8  O   UNL     1       6.641 -32.722  17.852  1.00  0.00    -0.294 OA
ATOM      9  C   UNL     1       7.393 -33.435  15.709  1.00  0.00     0.086 C 
ATOM     10  C   UNL     1       7.188 -32.773  14.322  1.00  0.00     0.013 C 
ATOM     11  C   UNL     1       8.213 -31.567  14.108  1.00  0.00    -0.003 C 
ATOM     12  C   UNL     1       9.605 -32.130  13.687  1.00  0.00     0.012 C 
ATOM     13  C   UNL     1       9.565 -33.121  12.521  1.00  0.00     0.001 C 
ATOM     14  C   UNL     1       8.627 -34.293  12.808  1.00  0.00     0.007 C 
ATOM     15  C   UNL     1       7.182 -33.850  13.147  1.00  0.00    -0.031 C 
ATOM     16  C   UNL     1       6.478 -33.304  11.875  1.00  0.00     0.011 C 
ATOM     17  C   UNL     1       6.383 -35.125  13.537  1.00  0.00     0.011 C 
ATOM     18  C   UNL     1       7.653 -30.588  13.019  1.00  0.00     0.017 C 
ENDROOT
BRANCH   1  19
ATOM     19  C   UNL     1       9.073 -28.276  18.957  1.00  0.00     0.017 C 
ATOM     20  C   UNL     1       7.778 -27.558  19.356  1.00  0.00     0.012 C 
ATOM     21  C   UNL     1       9.620 -29.114  20.120  1.00  0.00     0.012 C 
ENDBRANCH   1  19
BRANCH   2  22
ATOM     22  O   UNL     1      10.239 -27.626  16.382  1.00  0.00    -0.508 OA
ATOM     23  H   UNL     1      10.242 -27.056  15.544  1.00  0.00     0.293 HD
ENDBRANCH   2  22
TORSDOF 2
ENDMDL
MODEL 2
REMARK VINA RESULT:    -1.487      1.992      6.347
REMARK INTER + INTRA:          -1.866
REMARK INTER:                  -2.664
REMARK INTRA:                   0.798
REMARK UNBOUND:                -0.248
REMARK SMILES CC(C)c1cc2c(cc1O)[C@@]1(C)CCCC(C)(C)[C@H]1CC2=O
REMARK SMILES IDX 4 1 9 2 8 3 7 4 6 5 5 6 21 7 22 8 20 9 19 10 11 11 13 12
REMARK SMILES IDX 14 13 15 14 16 15 17 16 18 17 12 18 2 19 1 20 3 21 10 22
REMARK H PARENT 10 23
REMARK Flexibility Score: inf
ROOT
ATOM      1  C   UNL     1      10.058 -32.682  13.078  1.00  0.00    -0.003 A 
ATOM      2  C   UNL     1       9.050 -33.461  13.674  1.00  0.00     0.119 A 
ATOM      3  C   UNL     1       8.322 -32.957  14.757  1.00  0.00     0.051 A 
ATOM      4  C   UNL     1       8.553 -31.659  15.270  1.00  0.00    -0.027 A 
ATOM      5  C   UNL     1       9.621 -30.919  14.722  1.00  0.00     0.022 A 
ATOM      6  C   UNL     1      10.342 -31.420  13.624  1.00  0.00     0.020 A 
ATOM      7  C   UNL     1      10.030 -29.657  15.344  1.00  0.00     0.163 C 
ATOM      8  O   UNL     1      10.850 -28.889  14.770  1.00  0.00    -0.294 OA
ATOM      9  C   UNL     1       9.527 -29.319  16.702  1.00  0.00     0.086 C 
ATOM     10  C   UNL     1       8.007 -29.606  16.811  1.00  0.00     0.013 C 
ATOM     11  C   UNL     1       7.686 -31.127  16.444  1.00  0.00    -0.003 C 
ATOM     12  C   UNL     1       7.996 -32.039  17.670  1.00  0.00     0.012 C 
ATOM     13  C   UNL     1       7.365 -31.575  18.985  1.00  0.00     0.001 C 
ATOM     14  C   UNL     1       7.764 -30.140  19.327  1.00  0.00     0.007 C 
ATOM     15  C   UNL     1       7.414 -29.126  18.210  1.00  0.00    -0.031 C 
ATOM     16  C   UNL     1       5.875 -28.921  18.137  1.00  0.00     0.011 C 
ATOM     17  C   UNL     1       7.985 -27.745  18.637  1.00  0.00     0.011 C 
ATOM     18  C   UNL     1       6.184 -31.259  16.015  1.00  0.00     0.017 C 
ENDROOT
BRANCH   1  19
ATOM     19  C   UNL     1      10.860 -33.206  11.896  1.00  0.00     0.017 C 
ATOM     20  C   UNL     1      12.274 -32.614  11.875  1.00  0.00     0.012 C 
ATOM     21  C   UNL     1      10.904 -34.739  11.898  1.00  0.00     0.012 C 
ENDBRANCH   1  19
BRANCH   2  22
ATOM     22  O   UNL     1       8.768 -34.741  13.191  1.00  0.00    -0.508 OA
ATOM     23  H   UNL     1       7.984 -35.281  13.538  1.00  0.00     0.293 HD
ENDBRANCH   2  22
TORSDOF 2
ENDMDL
MODEL 3
REMARK VINA RESULT:    -1.372      1.403      1.907
REMARK INTER + INTRA:          -1.740
REMARK INTER:                  -1.933
REMARK INTRA:                   0.193
REMARK UNBOUND:                -0.248
REMARK SMILES CC(C)c1cc2c(cc1O)[C@@]1(C)CCCC(C)(C)[C@H]1CC2=O
REMARK SMILES IDX 4 1 9 2 8 3 7 4 6 5 5 6 21 7 22 8 20 9 19 10 11 11 13 12
REMARK SMILES IDX 14 13 15 14 16 15 17 16 18 17 12 18 2 19 1 20 3 21 10 22
REMARK H PARENT 10 23
REMARK Flexibility Score: inf
ROOT
ATOM      1  C   UNL     1      10.011 -28.804  15.671  1.00  0.00    -0.003 A 
ATOM      2  C   UNL     1      10.353 -28.913  14.312  1.00  0.00     0.119 A 
ATOM      3  C   UNL     1       9.805 -29.936  13.530  1.00  0.00     0.051 A 
ATOM      4  C   UNL     1       8.885 -30.869  14.064  1.00  0.00    -0.027 A 
ATOM      5  C   UNL     1       8.613 -30.804  15.446  1.00  0.00     0.022 A 
ATOM      6  C   UNL     1       9.153 -29.767  16.228  1.00  0.00     0.020 A 
ATOM      7  C   UNL     1       7.827 -31.861  16.087  1.00  0.00     0.163 C 
ATOM      8  O   UNL     1       7.414 -31.733  17.272  1.00  0.00    -0.294 OA
ATOM      9  C   UNL     1       7.580 -33.131  15.353  1.00  0.00     0.086 C 
ATOM     10  C   UNL     1       7.166 -32.844  13.886  1.00  0.00     0.013 C 
ATOM     11  C   UNL     1       8.268 -31.959  13.144  1.00  0.00    -0.003 C 
ATOM     12  C   UNL     1       9.448 -32.867  12.684  1.00  0.00     0.012 C 
ATOM     13  C   UNL     1       9.026 -34.112  11.899  1.00  0.00     0.001 C 
ATOM     14  C   UNL     1       8.028 -34.963  12.685  1.00  0.00     0.007 C 
ATOM     15  C   UNL     1       6.763 -34.179  13.114  1.00  0.00    -0.031 C 
ATOM     16  C   UNL     1       5.875 -33.876  11.875  1.00  0.00     0.011 C 
ATOM     17  C   UNL     1       5.907 -35.124  14.003  1.00  0.00     0.011 C 
ATOM     18  C   UNL     1       7.618 -31.225  11.921  1.00  0.00     0.017 C 
ENDROOT
BRANCH   1  19
ATOM     19  C   UNL     1      10.590 -27.697  16.540  1.00  0.00     0.017 C 
ATOM     20  C   UNL     1      10.104 -27.816  17.991  1.00  0.00     0.012 C 
ATOM     21  C   UNL     1      12.122 -27.688  16.472  1.00  0.00     0.012 C 
ENDBRANCH   1  19
BRANCH   2  22
ATOM     22  O   UNL     1      11.240 -28.005  13.731  1.00  0.00    -0.508 OA
ATOM     23  H   UNL     1      12.178 -28.274  13.459  1.00  0.00     0.293 HD
ENDBRANCH   2  22
TORSDOF 2
ENDMDL
MODEL 4
REMARK VINA RESULT:    -0.647      1.378      3.022
REMARK INTER + INTRA:          -0.951
REMARK INTER:                  -1.595
REMARK INTRA:                   0.644
REMARK UNBOUND:                -0.248
REMARK SMILES CC(C)c1cc2c(cc1O)[C@@]1(C)CCCC(C)(C)[C@H]1CC2=O
REMARK SMILES IDX 4 1 9 2 8 3 7 4 6 5 5 6 21 7 22 8 20 9 19 10 11 11 13 12
REMARK SMILES IDX 14 13 15 14 16 15 17 16 18 17 12 18 2 19 1 20 3 21 10 22
REMARK H PARENT 10 23
REMARK Flexibility Score: inf
ROOT
ATOM      1  C   UNL     1       8.074 -28.969  17.884  1.00  0.00    -0.003 A 
ATOM      2  C   UNL     1       6.967 -29.825  18.030  1.00  0.00     0.119 A 
ATOM      3  C   UNL     1       6.792 -30.900  17.152  1.00  0.00     0.051 A 
ATOM      4  C   UNL     1       7.716 -31.175  16.118  1.00  0.00    -0.027 A 
ATOM      5  C   UNL     1       8.776 -30.263  15.926  1.00  0.00     0.022 A 
ATOM      6  C   UNL     1       8.960 -29.191  16.818  1.00  0.00     0.020 A 
ATOM      7  C   UNL     1       9.644 -30.388  14.753  1.00  0.00     0.163 C 
ATOM      8  O   UNL     1      10.703 -29.708  14.656  1.00  0.00    -0.294 OA
ATOM      9  C   UNL     1       9.229 -31.271  13.631  1.00  0.00     0.086 C 
ATOM     10  C   UNL     1       8.703 -32.628  14.168  1.00  0.00     0.013 C 
ATOM     11  C   UNL     1       7.503 -32.408  15.198  1.00  0.00    -0.003 C 
ATOM     12  C   UNL     1       6.180 -32.150  14.415  1.00  0.00     0.012 C 
ATOM     13  C   UNL     1       5.875 -33.179  13.322  1.00  0.00     0.001 C 
ATOM     14  C   UNL     1       7.024 -33.296  12.321  1.00  0.00     0.007 C 
ATOM     15  C   UNL     1       8.379 -33.646  12.985  1.00  0.00    -0.031 C 
ATOM     16  C   UNL     1       8.365 -35.117  13.485  1.00  0.00     0.011 C 
ATOM     17  C   UNL     1       9.467 -33.607  11.875  1.00  0.00     0.011 C 
ATOM     18  C   UNL     1       7.368 -33.665  16.124  1.00  0.00     0.017 C 
ENDROOT
BRANCH   1  19
ATOM     19  C   UNL     1       8.289 -27.796  18.830  1.00  0.00     0.017 C 
ATOM     20  C   UNL     1       6.953 -27.226  19.323  1.00  0.00     0.012 C 
ATOM     21  C   UNL     1       9.186 -28.196  20.008  1.00  0.00     0.012 C 
ENDBRANCH   1  19
BRANCH   2  22
ATOM     22  O   UNL     1       6.037 -29.610  19.049  1.00  0.00    -0.508 OA
ATOM     23  H   UNL     1       6.320 -29.318  19.977  1.00  0.00     0.293 HD
ENDBRANCH   2  22
TORSDOF 2
ENDMDL
