MODEL 1
REMARK VINA RESULT:    -3.870      0.000      0.000
REMARK INTER + INTRA:          -8.808
REMARK INTER:                  -7.037
REMARK INTRA:                  -1.772
REMARK UNBOUND:                -1.772
REMARK SMILES CCCCCCCCCCCCCC[C@@H](C)C(=O)[O-]
REMARK SMILES IDX 9 1 10 2 11 3 12 4 13 5 14 6 15 7 16 8 17 9 18 10 19 11 8 12
REMARK SMILES IDX 7 13 6 14 5 15 4 16 3 17 2 18 1 19
REMARK H PARENT
REMARK Flexibility Score: inf
ROOT
ATOM      1  C   UNL     1     156.465 153.096 163.985  1.00  0.00     0.000 C 
ENDROOT
BRANCH   1   2
ATOM      2  C   UNL     1     157.458 154.137 163.440  1.00  0.00     0.000 C 
BRANCH   2   3
ATOM      3  C   UNL     1     158.554 153.508 162.563  1.00  0.00     0.000 C 
BRANCH   3   4
ATOM      4  C   UNL     1     159.934 153.519 163.243  1.00  0.00     0.000 C 
BRANCH   4   5
ATOM      5  C   UNL     1     160.108 152.378 164.262  1.00  0.00     0.001 C 
BRANCH   5   6
ATOM      6  C   UNL     1     160.055 152.801 165.745  1.00  0.00     0.009 C 
BRANCH   6   7
ATOM      7  C   UNL     1     161.214 152.271 166.621  1.00  0.00     0.032 C 
ATOM      8  C   UNL     1     161.946 151.090 165.970  1.00  0.00     0.014 C 
BRANCH   7   9
ATOM      9  C   UNL     1     162.187 153.384 166.902  1.00  0.00     0.044 C 
ATOM     10  O   UNL     1     162.447 153.724 168.087  1.00  0.00    -0.550 OA
ATOM     11  O   UNL     1     162.814 154.038 165.849  1.00  0.00    -0.550 OA
ENDBRANCH   7   9
ENDBRANCH   6   7
ENDBRANCH   5   6
ENDBRANCH   4   5
ENDBRANCH   3   4
ENDBRANCH   2   3
ENDBRANCH   1   2
BRANCH   1  12
ATOM     12  C   UNL     1     155.701 153.602 165.220  1.00  0.00     0.000 C 
BRANCH  12  13
ATOM     13  C   UNL     1     156.618 154.312 166.231  1.00  0.00    -0.000 C 
BRANCH  13  14
ATOM     14  C   UNL     1     156.193 155.765 166.502  1.00  0.00    -0.000 C 
BRANCH  14  15
ATOM     15  C   UNL     1     154.673 156.001 166.375  1.00  0.00    -0.000 C 
BRANCH  15  16
ATOM     16  C   UNL     1     154.336 157.064 165.312  1.00  0.00    -0.000 C 
BRANCH  16  17
ATOM     17  C   UNL     1     152.989 156.785 164.612  1.00  0.00    -0.000 C 
BRANCH  17  18
ATOM     18  C   UNL     1     153.135 156.082 163.253  1.00  0.00    -0.003 C 
ATOM     19  C   UNL     1     154.540 156.202 162.666  1.00  0.00     0.004 C 
ENDBRANCH  17  18
ENDBRANCH  16  17
ENDBRANCH  15  16
ENDBRANCH  14  15
ENDBRANCH  13  14
ENDBRANCH  12  13
ENDBRANCH   1  12
TORSDOF 14
ENDMDL
MODEL 2
REMARK VINA RESULT:    -3.764     12.993     16.493
REMARK INTER + INTRA:          -8.617
REMARK INTER:                  -5.961
REMARK INTRA:                  -2.656
REMARK UNBOUND:                -1.772
REMARK SMILES CCCCCCCCCCCCCC[C@@H](C)C(=O)[O-]
REMARK SMILES IDX 9 1 10 2 11 3 12 4 13 5 14 6 15 7 16 8 17 9 18 10 19 11 8 12
REMARK SMILES IDX 7 13 6 14 5 15 4 16 3 17 2 18 1 19
REMARK H PARENT
REMARK Flexibility Score: inf
ROOT
ATOM      1  C   UNL     1     167.154 153.315 180.588  1.00  0.00     0.000 C 
ENDROOT
BRANCH   1   2
ATOM      2  C   UNL     1     166.135 154.392 180.177  1.00  0.00     0.000 C 
BRANCH   2   3
ATOM      3  C   UNL     1     166.800 155.631 179.558  1.00  0.00     0.000 C 
BRANCH   3   4
ATOM      4  C   UNL     1     166.062 156.935 179.906  1.00  0.00     0.000 C 
BRANCH   4   5
ATOM      5  C   UNL     1     165.094 157.389 178.797  1.00  0.00     0.001 C 
BRANCH   5   6
ATOM      6  C   UNL     1     165.547 157.075 177.355  1.00  0.00     0.009 C 
BRANCH   6   7
ATOM      7  C   UNL     1     164.415 157.055 176.302  1.00  0.00     0.032 C 
ATOM      8  C   UNL     1     164.855 156.409 174.982  1.00  0.00     0.014 C 
BRANCH   7   9
ATOM      9  C   UNL     1     163.221 156.324 176.856  1.00  0.00     0.044 C 
ATOM     10  O   UNL     1     162.108 156.904 176.964  1.00  0.00    -0.550 OA
ATOM     11  O   UNL     1     163.340 154.995 177.243  1.00  0.00    -0.550 OA
ENDBRANCH   7   9
ENDBRANCH   6   7
ENDBRANCH   5   6
ENDBRANCH   4   5
ENDBRANCH   3   4
ENDBRANCH   2   3
ENDBRANCH   1   2
BRANCH   1  12
ATOM     12  C   UNL     1     168.509 153.488 179.881  1.00  0.00     0.000 C 
BRANCH  12  13
ATOM     13  C   UNL     1     168.978 152.201 179.181  1.00  0.00    -0.000 C 
BRANCH  13  14
ATOM     14  C   UNL     1     167.815 151.259 178.825  1.00  0.00    -0.000 C 
BRANCH  14  15
ATOM     15  C   UNL     1     167.368 151.355 177.350  1.00  0.00    -0.000 C 
BRANCH  15  16
ATOM     16  C   UNL     1     166.095 152.204 177.182  1.00  0.00    -0.000 C 
BRANCH  16  17
ATOM     17  C   UNL     1     166.393 153.590 176.571  1.00  0.00    -0.000 C 
BRANCH  17  18
ATOM     18  C   UNL     1     167.795 153.701 175.950  1.00  0.00    -0.003 C 
ATOM     19  C   UNL     1     168.536 154.970 176.366  1.00  0.00     0.004 C 
ENDBRANCH  17  18
ENDBRANCH  16  17
ENDBRANCH  15  16
ENDBRANCH  14  15
ENDBRANCH  13  14
ENDBRANCH  12  13
ENDBRANCH   1  12
TORSDOF 14
ENDMDL
MODEL 3
REMARK VINA RESULT:    -3.728     14.160     16.756
REMARK INTER + INTRA:          -8.551
REMARK INTER:                  -5.987
REMARK INTRA:                  -2.564
REMARK UNBOUND:                -1.772
REMARK SMILES CCCCCCCCCCCCCC[C@@H](C)C(=O)[O-]
REMARK SMILES IDX 9 1 10 2 11 3 12 4 13 5 14 6 15 7 16 8 17 9 18 10 19 11 8 12
REMARK SMILES IDX 7 13 6 14 5 15 4 16 3 17 2 18 1 19
REMARK H PARENT
REMARK Flexibility Score: inf
ROOT
ATOM      1  C   UNL     1     169.042 152.419 179.222  1.00  0.00     0.000 C 
ENDROOT
BRANCH   1   2
ATOM      2  C   UNL     1     168.482 153.627 179.993  1.00  0.00     0.000 C 
BRANCH   2   3
ATOM      3  C   UNL     1     167.074 153.370 180.554  1.00  0.00     0.000 C 
BRANCH   3   4
ATOM      4  C   UNL     1     166.126 154.563 180.340  1.00  0.00     0.000 C 
BRANCH   4   5
ATOM      5  C   UNL     1     166.761 155.689 179.503  1.00  0.00     0.001 C 
BRANCH   5   6
ATOM      6  C   UNL     1     165.825 156.357 178.474  1.00  0.00     0.009 C 
BRANCH   6   7
ATOM      7  C   UNL     1     164.332 156.397 178.874  1.00  0.00     0.032 C 
ATOM      8  C   UNL     1     163.935 157.730 179.522  1.00  0.00     0.014 C 
BRANCH   7   9
ATOM      9  C   UNL     1     163.476 156.142 177.662  1.00  0.00     0.044 C 
ATOM     10  O   UNL     1     163.323 154.973 177.220  1.00  0.00    -0.550 OA
ATOM     11  O   UNL     1     162.839 157.202 177.029  1.00  0.00    -0.550 OA
ENDBRANCH   7   9
ENDBRANCH   6   7
ENDBRANCH   5   6
ENDBRANCH   4   5
ENDBRANCH   3   4
ENDBRANCH   2   3
ENDBRANCH   1   2
BRANCH   1  12
ATOM     12  C   UNL     1     167.964 151.364 178.918  1.00  0.00     0.000 C 
BRANCH  12  13
ATOM     13  C   UNL     1     167.527 151.375 177.443  1.00  0.00    -0.000 C 
BRANCH  13  14
ATOM     14  C   UNL     1     166.186 152.096 177.225  1.00  0.00    -0.000 C 
BRANCH  14  15
ATOM     15  C   UNL     1     166.327 153.479 176.553  1.00  0.00    -0.000 C 
BRANCH  15  16
ATOM     16  C   UNL     1     167.766 153.750 176.077  1.00  0.00    -0.000 C 
BRANCH  16  17
ATOM     17  C   UNL     1     167.895 155.104 175.346  1.00  0.00    -0.000 C 
BRANCH  17  18
ATOM     18  C   UNL     1     169.160 155.891 175.726  1.00  0.00    -0.003 C 
ATOM     19  C   UNL     1     169.817 155.384 177.008  1.00  0.00     0.004 C 
ENDBRANCH  17  18
ENDBRANCH  16  17
ENDBRANCH  15  16
ENDBRANCH  14  15
ENDBRANCH  13  14
ENDBRANCH  12  13
ENDBRANCH   1  12
TORSDOF 14
ENDMDL
MODEL 4
REMARK VINA RESULT:    -3.707     12.868     16.419
REMARK INTER + INTRA:          -8.513
REMARK INTER:                  -5.875
REMARK INTRA:                  -2.637
REMARK UNBOUND:                -1.772
REMARK SMILES CCCCCCCCCCCCCC[C@@H](C)C(=O)[O-]
REMARK SMILES IDX 9 1 10 2 11 3 12 4 13 5 14 6 15 7 16 8 17 9 18 10 19 11 8 12
REMARK SMILES IDX 7 13 6 14 5 15 4 16 3 17 2 18 1 19
REMARK H PARENT
REMARK Flexibility Score: inf
ROOT
ATOM      1  C   UNL     1     166.715 153.671 176.249  1.00  0.00     0.000 C 
ENDROOT
BRANCH   1   2
ATOM      2  C   UNL     1     168.188 154.099 176.376  1.00  0.00     0.000 C 
BRANCH   2   3
ATOM      3  C   UNL     1     168.460 155.477 175.750  1.00  0.00     0.000 C 
BRANCH   3   4
ATOM      4  C   UNL     1     168.262 156.629 176.750  1.00  0.00     0.000 C 
BRANCH   4   5
ATOM      5  C   UNL     1     167.027 157.493 176.432  1.00  0.00     0.001 C 
BRANCH   5   6
ATOM      6  C   UNL     1     165.723 157.070 177.141  1.00  0.00     0.009 C 
BRANCH   6   7
ATOM      7  C   UNL     1     164.471 157.018 176.235  1.00  0.00     0.032 C 
ATOM      8  C   UNL     1     164.781 156.457 174.841  1.00  0.00     0.014 C 
BRANCH   7   9
ATOM      9  C   UNL     1     163.404 156.187 176.895  1.00  0.00     0.044 C 
ATOM     10  O   UNL     1     163.646 155.007 177.262  1.00  0.00    -0.550 OA
ATOM     11  O   UNL     1     162.142 156.726 177.113  1.00  0.00    -0.550 OA
ENDBRANCH   7   9
ENDBRANCH   6   7
ENDBRANCH   5   6
ENDBRANCH   4   5
ENDBRANCH   3   4
ENDBRANCH   2   3
ENDBRANCH   1   2
BRANCH   1  12
ATOM     12  C   UNL     1     166.343 152.544 177.227  1.00  0.00     0.000 C 
BRANCH  12  13
ATOM     13  C   UNL     1     167.426 151.455 177.311  1.00  0.00    -0.000 C 
BRANCH  13  14
ATOM     14  C   UNL     1     167.689 150.987 178.752  1.00  0.00    -0.000 C 
BRANCH  14  15
ATOM     15  C   UNL     1     168.876 151.705 179.431  1.00  0.00    -0.000 C 
BRANCH  15  16
ATOM     16  C   UNL     1     168.409 152.766 180.445  1.00  0.00    -0.000 C 
BRANCH  16  17
ATOM     17  C   UNL     1     168.647 154.204 179.937  1.00  0.00    -0.000 C 
BRANCH  17  18
ATOM     18  C   UNL     1     167.381 155.077 179.943  1.00  0.00    -0.003 C 
ATOM     19  C   UNL     1     166.150 154.339 180.463  1.00  0.00     0.004 C 
ENDBRANCH  17  18
ENDBRANCH  16  17
ENDBRANCH  15  16
ENDBRANCH  14  15
ENDBRANCH  13  14
ENDBRANCH  12  13
ENDBRANCH   1  12
TORSDOF 14
ENDMDL
MODEL 5
REMARK VINA RESULT:    -3.677     13.983     16.865
REMARK INTER + INTRA:          -8.457
REMARK INTER:                  -5.838
REMARK INTRA:                  -2.619
REMARK UNBOUND:                -1.772
REMARK SMILES CCCCCCCCCCCCCC[C@@H](C)C(=O)[O-]
REMARK SMILES IDX 9 1 10 2 11 3 12 4 13 5 14 6 15 7 16 8 17 9 18 10 19 11 8 12
REMARK SMILES IDX 7 13 6 14 5 15 4 16 3 17 2 18 1 19
REMARK H PARENT
REMARK Flexibility Score: inf
ROOT
ATOM      1  C   UNL     1     167.860 152.150 180.627  1.00  0.00     0.000 C 
ENDROOT
BRANCH   1   2
ATOM      2  C   UNL     1     167.841 153.640 180.246  1.00  0.00     0.000 C 
BRANCH   2   3
ATOM      3  C   UNL     1     166.500 154.317 180.572  1.00  0.00     0.000 C 
BRANCH   3   4
ATOM      4  C   UNL     1     166.652 155.820 180.863  1.00  0.00     0.000 C 
BRANCH   4   5
ATOM      5  C   UNL     1     165.590 156.678 180.151  1.00  0.00     0.001 C 
BRANCH   5   6
ATOM      6  C   UNL     1     164.518 155.891 179.369  1.00  0.00     0.009 C 
BRANCH   6   7
ATOM      7  C   UNL     1     163.783 156.694 178.271  1.00  0.00     0.032 C 
ATOM      8  C   UNL     1     163.213 155.793 177.168  1.00  0.00     0.014 C 
BRANCH   7   9
ATOM      9  C   UNL     1     162.677 157.505 178.892  1.00  0.00     0.044 C 
ATOM     10  O   UNL     1     162.559 158.732 178.633  1.00  0.00    -0.550 OA
ATOM     11  O   UNL     1     161.771 156.897 179.751  1.00  0.00    -0.550 OA
ENDBRANCH   7   9
ENDBRANCH   6   7
ENDBRANCH   5   6
ENDBRANCH   4   5
ENDBRANCH   3   4
ENDBRANCH   2   3
ENDBRANCH   1   2
BRANCH   1  12
ATOM     12  C   UNL     1     168.163 151.239 179.426  1.00  0.00     0.000 C 
BRANCH  12  13
ATOM     13  C   UNL     1     168.701 152.019 178.215  1.00  0.00    -0.000 C 
BRANCH  13  14
ATOM     14  C   UNL     1     167.907 151.741 176.927  1.00  0.00    -0.000 C 
BRANCH  14  15
ATOM     15  C   UNL     1     166.376 151.748 177.128  1.00  0.00    -0.000 C 
BRANCH  15  16
ATOM     16  C   UNL     1     165.808 153.177 177.221  1.00  0.00    -0.000 C 
BRANCH  16  17
ATOM     17  C   UNL     1     166.523 154.153 176.261  1.00  0.00    -0.000 C 
BRANCH  17  18
ATOM     18  C   UNL     1     167.189 155.341 176.975  1.00  0.00    -0.003 C 
ATOM     19  C   UNL     1     166.909 156.680 176.296  1.00  0.00     0.004 C 
ENDBRANCH  17  18
ENDBRANCH  16  17
ENDBRANCH  15  16
ENDBRANCH  14  15
ENDBRANCH  13  14
ENDBRANCH  12  13
ENDBRANCH   1  12
TORSDOF 14
ENDMDL
MODEL 6
REMARK VINA RESULT:    -3.673     12.742     16.317
REMARK INTER + INTRA:          -8.451
REMARK INTER:                  -6.029
REMARK INTRA:                  -2.421
REMARK UNBOUND:                -1.772
REMARK SMILES CCCCCCCCCCCCCC[C@@H](C)C(=O)[O-]
REMARK SMILES IDX 9 1 10 2 11 3 12 4 13 5 14 6 15 7 16 8 17 9 18 10 19 11 8 12
REMARK SMILES IDX 7 13 6 14 5 15 4 16 3 17 2 18 1 19
REMARK H PARENT
REMARK Flexibility Score: inf
ROOT
ATOM      1  C   UNL     1     166.621 155.586 176.360  1.00  0.00     0.000 C 
ENDROOT
BRANCH   1   2
ATOM      2  C   UNL     1     167.185 156.119 177.689  1.00  0.00     0.000 C 
BRANCH   2   3
ATOM      3  C   UNL     1     166.128 156.855 178.528  1.00  0.00     0.000 C 
BRANCH   3   4
ATOM      4  C   UNL     1     165.108 155.898 179.166  1.00  0.00     0.000 C 
BRANCH   4   5
ATOM      5  C   UNL     1     163.649 156.327 178.921  1.00  0.00     0.001 C 
BRANCH   5   6
ATOM      6  C   UNL     1     163.157 156.195 177.464  1.00  0.00     0.009 C 
BRANCH   6   7
ATOM      7  C   UNL     1     162.972 157.532 176.710  1.00  0.00     0.032 C 
ATOM      8  C   UNL     1     163.734 157.564 175.379  1.00  0.00     0.014 C 
BRANCH   7   9
ATOM      9  C   UNL     1     161.507 157.777 176.468  1.00  0.00     0.044 C 
ATOM     10  O   UNL     1     160.639 157.294 177.243  1.00  0.00    -0.550 OA
ATOM     11  O   UNL     1     161.103 158.551 175.387  1.00  0.00    -0.550 OA
ENDBRANCH   7   9
ENDBRANCH   6   7
ENDBRANCH   5   6
ENDBRANCH   4   5
ENDBRANCH   3   4
ENDBRANCH   2   3
ENDBRANCH   1   2
BRANCH   1  12
ATOM     12  C   UNL     1     166.847 154.075 176.188  1.00  0.00     0.000 C 
BRANCH  12  13
ATOM     13  C   UNL     1     165.812 153.232 176.952  1.00  0.00    -0.000 C 
BRANCH  13  14
ATOM     14  C   UNL     1     166.299 151.800 177.230  1.00  0.00    -0.000 C 
BRANCH  14  15
ATOM     15  C   UNL     1     167.836 151.649 177.193  1.00  0.00    -0.000 C 
BRANCH  15  16
ATOM     16  C   UNL     1     168.453 151.639 178.603  1.00  0.00    -0.000 C 
BRANCH  16  17
ATOM     17  C   UNL     1     169.282 152.911 178.887  1.00  0.00    -0.000 C 
BRANCH  17  18
ATOM     18  C   UNL     1     168.684 153.803 179.988  1.00  0.00    -0.003 C 
ATOM     19  C   UNL     1     167.312 153.327 180.463  1.00  0.00     0.004 C 
ENDBRANCH  17  18
ENDBRANCH  16  17
ENDBRANCH  15  16
ENDBRANCH  14  15
ENDBRANCH  13  14
ENDBRANCH  12  13
ENDBRANCH   1  12
TORSDOF 14
ENDMDL
MODEL 7
REMARK VINA RESULT:    -3.661      1.547      2.152
REMARK INTER + INTRA:          -8.429
REMARK INTER:                  -7.381
REMARK INTRA:                  -1.048
REMARK UNBOUND:                -1.772
REMARK SMILES CCCCCCCCCCCCCC[C@@H](C)C(=O)[O-]
REMARK SMILES IDX 9 1 10 2 11 3 12 4 13 5 14 6 15 7 16 8 17 9 18 10 19 11 8 12
REMARK SMILES IDX 7 13 6 14 5 15 4 16 3 17 2 18 1 19
REMARK H PARENT
REMARK Flexibility Score: inf
ROOT
ATOM      1  C   UNL     1     157.764 153.912 163.238  1.00  0.00     0.000 C 
ENDROOT
BRANCH   1   2
ATOM      2  C   UNL     1     157.830 152.375 163.201  1.00  0.00     0.000 C 
BRANCH   2   3
ATOM      3  C   UNL     1     159.136 151.825 163.796  1.00  0.00     0.000 C 
BRANCH   3   4
ATOM      4  C   UNL     1     159.191 151.958 165.327  1.00  0.00     0.000 C 
BRANCH   4   5
ATOM      5  C   UNL     1     160.605 151.739 165.897  1.00  0.00     0.001 C 
BRANCH   5   6
ATOM      6  C   UNL     1     161.043 152.741 166.985  1.00  0.00     0.009 C 
BRANCH   6   7
ATOM      7  C   UNL     1     162.568 152.819 167.230  1.00  0.00     0.032 C 
ATOM      8  C   UNL     1     163.056 154.260 167.427  1.00  0.00     0.014 C 
BRANCH   7   9
ATOM      9  C   UNL     1     162.931 151.987 168.431  1.00  0.00     0.044 C 
ATOM     10  O   UNL     1     162.166 151.937 169.430  1.00  0.00    -0.550 OA
ATOM     11  O   UNL     1     164.113 151.258 168.437  1.00  0.00    -0.550 OA
ENDBRANCH   7   9
ENDBRANCH   6   7
ENDBRANCH   5   6
ENDBRANCH   4   5
ENDBRANCH   3   4
ENDBRANCH   2   3
ENDBRANCH   1   2
BRANCH   1  12
ATOM     12  C   UNL     1     156.401 154.431 163.727  1.00  0.00     0.000 C 
BRANCH  12  13
ATOM     13  C   UNL     1     155.920 153.716 165.001  1.00  0.00    -0.000 C 
BRANCH  13  14
ATOM     14  C   UNL     1     155.832 154.656 166.215  1.00  0.00    -0.000 C 
BRANCH  14  15
ATOM     15  C   UNL     1     155.817 156.154 165.840  1.00  0.00    -0.000 C 
BRANCH  15  16
ATOM     16  C   UNL     1     154.411 156.770 165.965  1.00  0.00    -0.000 C 
BRANCH  16  17
ATOM     17  C   UNL     1     153.716 156.925 164.596  1.00  0.00    -0.000 C 
BRANCH  17  18
ATOM     18  C   UNL     1     153.614 158.382 164.117  1.00  0.00    -0.003 C 
ATOM     19  C   UNL     1     153.944 158.549 162.635  1.00  0.00     0.004 C 
ENDBRANCH  17  18
ENDBRANCH  16  17
ENDBRANCH  15  16
ENDBRANCH  14  15
ENDBRANCH  13  14
ENDBRANCH  12  13
ENDBRANCH   1  12
TORSDOF 14
ENDMDL
MODEL 8
REMARK VINA RESULT:    -3.629     12.629     16.061
REMARK INTER + INTRA:          -8.371
REMARK INTER:                  -5.977
REMARK INTRA:                  -2.394
REMARK UNBOUND:                -1.772
REMARK SMILES CCCCCCCCCCCCCC[C@@H](C)C(=O)[O-]
REMARK SMILES IDX 9 1 10 2 11 3 12 4 13 5 14 6 15 7 16 8 17 9 18 10 19 11 8 12
REMARK SMILES IDX 7 13 6 14 5 15 4 16 3 17 2 18 1 19
REMARK H PARENT
REMARK Flexibility Score: inf
ROOT
ATOM      1  C   UNL     1     166.435 155.654 178.392  1.00  0.00     0.000 C 
ENDROOT
BRANCH   1   2
ATOM      2  C   UNL     1     167.322 155.942 177.168  1.00  0.00     0.000 C 
BRANCH   2   3
ATOM      3  C   UNL     1     166.795 157.109 176.317  1.00  0.00     0.000 C 
BRANCH   3   4
ATOM      4  C   UNL     1     166.121 156.635 175.017  1.00  0.00     0.000 C 
BRANCH   4   5
ATOM      5  C   UNL     1     164.595 156.481 175.156  1.00  0.00     0.001 C 
BRANCH   5   6
ATOM      6  C   UNL     1     163.934 157.377 176.225  1.00  0.00     0.009 C 
BRANCH   6   7
ATOM      7  C   UNL     1     162.670 156.783 176.888  1.00  0.00     0.032 C 
ATOM      8  C   UNL     1     162.808 156.669 178.412  1.00  0.00     0.014 C 
BRANCH   7   9
ATOM      9  C   UNL     1     161.473 157.628 176.544  1.00  0.00     0.044 C 
ATOM     10  O   UNL     1     161.409 158.227 175.438  1.00  0.00    -0.550 OA
ATOM     11  O   UNL     1     160.423 157.741 177.446  1.00  0.00    -0.550 OA
ENDBRANCH   7   9
ENDBRANCH   6   7
ENDBRANCH   5   6
ENDBRANCH   4   5
ENDBRANCH   3   4
ENDBRANCH   2   3
ENDBRANCH   1   2
BRANCH   1  12
ATOM     12  C   UNL     1     165.637 154.347 178.245  1.00  0.00     0.000 C 
BRANCH  12  13
ATOM     13  C   UNL     1     166.066 153.528 177.016  1.00  0.00    -0.000 C 
BRANCH  13  14
ATOM     14  C   UNL     1     165.823 152.019 177.191  1.00  0.00    -0.000 C 
BRANCH  14  15
ATOM     15  C   UNL     1     167.101 151.220 177.529  1.00  0.00    -0.000 C 
BRANCH  15  16
ATOM     16  C   UNL     1     168.383 152.013 177.214  1.00  0.00    -0.000 C 
BRANCH  16  17
ATOM     17  C   UNL     1     169.245 152.254 178.472  1.00  0.00    -0.000 C 
BRANCH  17  18
ATOM     18  C   UNL     1     169.833 153.672 178.554  1.00  0.00    -0.003 C 
ATOM     19  C   UNL     1     169.588 154.344 179.903  1.00  0.00     0.004 C 
ENDBRANCH  17  18
ENDBRANCH  16  17
ENDBRANCH  15  16
ENDBRANCH  14  15
ENDBRANCH  13  14
ENDBRANCH  12  13
ENDBRANCH   1  12
TORSDOF 14
ENDMDL
MODEL 9
REMARK VINA RESULT:    -3.616      1.673      2.902
REMARK INTER + INTRA:          -8.346
REMARK INTER:                  -7.141
REMARK INTRA:                  -1.206
REMARK UNBOUND:                -1.772
REMARK SMILES CCCCCCCCCCCCCC[C@@H](C)C(=O)[O-]
REMARK SMILES IDX 9 1 10 2 11 3 12 4 13 5 14 6 15 7 16 8 17 9 18 10 19 11 8 12
REMARK SMILES IDX 7 13 6 14 5 15 4 16 3 17 2 18 1 19
REMARK H PARENT
REMARK Flexibility Score: inf
ROOT
ATOM      1  C   UNL     1     156.557 153.219 164.177  1.00  0.00     0.000 C 
ENDROOT
BRANCH   1   2
ATOM      2  C   UNL     1     157.738 153.025 163.209  1.00  0.00     0.000 C 
BRANCH   2   3
ATOM      3  C   UNL     1     159.101 153.230 163.890  1.00  0.00     0.000 C 
BRANCH   3   4
ATOM      4  C   UNL     1     159.247 152.403 165.179  1.00  0.00     0.000 C 
BRANCH   4   5
ATOM      5  C   UNL     1     160.716 152.197 165.594  1.00  0.00     0.001 C 
BRANCH   5   6
ATOM      6  C   UNL     1     161.084 152.710 167.002  1.00  0.00     0.009 C 
BRANCH   6   7
ATOM      7  C   UNL     1     162.600 152.789 167.296  1.00  0.00     0.032 C 
ATOM      8  C   UNL     1     163.068 154.223 167.575  1.00  0.00     0.014 C 
BRANCH   7   9
ATOM      9  C   UNL     1     162.935 151.904 168.467  1.00  0.00     0.044 C 
ATOM     10  O   UNL     1     162.208 151.899 169.495  1.00  0.00    -0.550 OA
ATOM     11  O   UNL     1     164.049 151.076 168.413  1.00  0.00    -0.550 OA
ENDBRANCH   7   9
ENDBRANCH   6   7
ENDBRANCH   5   6
ENDBRANCH   4   5
ENDBRANCH   3   4
ENDBRANCH   2   3
ENDBRANCH   1   2
BRANCH   1  12
ATOM     12  C   UNL     1     156.204 154.702 164.384  1.00  0.00     0.000 C 
BRANCH  12  13
ATOM     13  C   UNL     1     154.732 155.009 164.059  1.00  0.00    -0.000 C 
BRANCH  13  14
ATOM     14  C   UNL     1     154.322 156.440 164.447  1.00  0.00    -0.000 C 
BRANCH  14  15
ATOM     15  C   UNL     1     154.336 156.698 165.969  1.00  0.00    -0.000 C 
BRANCH  15  16
ATOM     16  C   UNL     1     153.430 155.715 166.733  1.00  0.00    -0.000 C 
BRANCH  16  17
ATOM     17  C   UNL     1     154.049 155.272 168.076  1.00  0.00    -0.000 C 
BRANCH  17  18
ATOM     18  C   UNL     1     154.980 154.055 167.953  1.00  0.00    -0.003 C 
ATOM     19  C   UNL     1     154.304 152.847 167.309  1.00  0.00     0.004 C 
ENDBRANCH  17  18
ENDBRANCH  16  17
ENDBRANCH  15  16
ENDBRANCH  14  15
ENDBRANCH  13  14
ENDBRANCH  12  13
ENDBRANCH   1  12
TORSDOF 14
ENDMDL
