MODEL 1
REMARK VINA RESULT:    -4.588      0.000      0.000
REMARK INTER + INTRA:          -9.210
REMARK INTER:                  -8.611
REMARK INTRA:                  -0.599
REMARK UNBOUND:                -0.599
REMARK SMILES O=C([O-])CCCCCCCCCCCCCCC(=O)[O-]
REMARK SMILES IDX 10 1 9 2 8 3 7 4 6 5 5 6 4 7 2 8 1 9 3 10 11 11 12 12 13 13
REMARK SMILES IDX 14 14 15 15 16 16 17 17 18 18 19 19 20 20
REMARK H PARENT
REMARK Flexibility Score: inf
ROOT
ATOM      1  C   UNL     1      38.197  31.988  28.456  1.00  0.00     0.000 C 
ENDROOT
BRANCH   1   2
ATOM      2  C   UNL     1      39.479  32.600  29.048  1.00  0.00     0.000 C 
BRANCH   2   3
ATOM      3  C   UNL     1      40.372  31.537  29.722  1.00  0.00     0.000 C 
BRANCH   3   4
ATOM      4  C   UNL     1      41.840  31.972  29.866  1.00  0.00     0.000 C 
BRANCH   4   5
ATOM      5  C   UNL     1      42.107  33.374  29.296  1.00  0.00     0.000 C 
BRANCH   5   6
ATOM      6  C   UNL     1      43.604  33.626  29.024  1.00  0.00     0.006 C 
BRANCH   6   7
ATOM      7  C   UNL     1      44.008  35.107  29.114  1.00  0.00     0.053 C 
BRANCH   7   8
ATOM      8  C   UNL     1      44.100  35.758  27.772  1.00  0.00     0.041 C 
ATOM      9  O   UNL     1      44.293  36.997  27.680  1.00  0.00    -0.550 OA
ATOM     10  O   UNL     1      43.961  34.997  26.618  1.00  0.00    -0.550 OA
ENDBRANCH   7   8
ENDBRANCH   6   7
ENDBRANCH   5   6
ENDBRANCH   4   5
ENDBRANCH   3   4
ENDBRANCH   2   3
ENDBRANCH   1   2
BRANCH   1  11
ATOM     11  C   UNL     1      37.518  30.996  29.412  1.00  0.00     0.000 C 
BRANCH  11  12
ATOM     12  C   UNL     1      36.473  30.115  28.706  1.00  0.00     0.000 C 
BRANCH  12  13
ATOM     13  C   UNL     1      36.285  28.747  29.387  1.00  0.00     0.000 C 
BRANCH  13  14
ATOM     14  C   UNL     1      34.884  28.503  29.978  1.00  0.00     0.000 C 
BRANCH  14  15
ATOM     15  C   UNL     1      33.760  28.635  28.937  1.00  0.00     0.000 C 
BRANCH  15  16
ATOM     16  C   UNL     1      32.822  27.411  28.922  1.00  0.00     0.006 C 
BRANCH  16  17
ATOM     17  C   UNL     1      31.789  27.440  27.786  1.00  0.00     0.053 C 
BRANCH  17  18
ATOM     18  C   UNL     1      32.247  26.688  26.579  1.00  0.00     0.041 C 
ATOM     19  O   UNL     1      32.636  27.310  25.557  1.00  0.00    -0.550 OA
ATOM     20  O   UNL     1      32.227  25.299  26.572  1.00  0.00    -0.550 OA
ENDBRANCH  17  18
ENDBRANCH  16  17
ENDBRANCH  15  16
ENDBRANCH  14  15
ENDBRANCH  13  14
ENDBRANCH  12  13
ENDBRANCH  11  12
ENDBRANCH   1  11
TORSDOF 15
ENDMDL
MODEL 2
REMARK VINA RESULT:    -3.702     12.156     13.022
REMARK INTER + INTRA:          -7.547
REMARK INTER:                  -6.861
REMARK INTRA:                  -0.686
REMARK UNBOUND:                -0.599
REMARK SMILES O=C([O-])CCCCCCCCCCCCCCC(=O)[O-]
REMARK SMILES IDX 10 1 9 2 8 3 7 4 6 5 5 6 4 7 2 8 1 9 3 10 11 11 12 12 13 13
REMARK SMILES IDX 14 14 15 15 16 16 17 17 18 18 19 19 20 20
REMARK H PARENT
REMARK Flexibility Score: inf
ROOT
ATOM      1  C   UNL     1      41.361  26.534  18.012  1.00  0.00     0.000 C 
ENDROOT
BRANCH   1   2
ATOM      2  C   UNL     1      41.754  28.018  18.113  1.00  0.00     0.000 C 
BRANCH   2   3
ATOM      3  C   UNL     1      41.463  28.787  16.808  1.00  0.00     0.000 C 
BRANCH   3   4
ATOM      4  C   UNL     1      42.649  29.634  16.318  1.00  0.00     0.000 C 
BRANCH   4   5
ATOM      5  C   UNL     1      42.239  31.058  15.911  1.00  0.00     0.000 C 
BRANCH   5   6
ATOM      6  C   UNL     1      43.379  32.079  16.107  1.00  0.00     0.006 C 
BRANCH   6   7
ATOM      7  C   UNL     1      44.612  31.804  15.231  1.00  0.00     0.053 C 
BRANCH   7   8
ATOM      8  C   UNL     1      45.766  31.271  16.017  1.00  0.00     0.041 C 
ATOM      9  O   UNL     1      45.900  31.574  17.231  1.00  0.00    -0.550 OA
ATOM     10  O   UNL     1      46.703  30.447  15.408  1.00  0.00    -0.550 OA
ENDBRANCH   7   8
ENDBRANCH   6   7
ENDBRANCH   5   6
ENDBRANCH   4   5
ENDBRANCH   3   4
ENDBRANCH   2   3
ENDBRANCH   1   2
BRANCH   1  11
ATOM     11  C   UNL     1      40.357  26.263  16.882  1.00  0.00     0.000 C 
BRANCH  11  12
ATOM     12  C   UNL     1      38.902  26.226  17.378  1.00  0.00     0.000 C 
BRANCH  12  13
ATOM     13  C   UNL     1      37.876  26.256  16.231  1.00  0.00     0.000 C 
BRANCH  13  14
ATOM     14  C   UNL     1      36.508  25.631  16.565  1.00  0.00     0.000 C 
BRANCH  14  15
ATOM     15  C   UNL     1      35.396  26.064  15.596  1.00  0.00     0.000 C 
BRANCH  15  16
ATOM     16  C   UNL     1      34.996  27.543  15.780  1.00  0.00     0.006 C 
BRANCH  16  17
ATOM     17  C   UNL     1      35.095  28.373  14.492  1.00  0.00     0.053 C 
BRANCH  17  18
ATOM     18  C   UNL     1      34.870  29.831  14.734  1.00  0.00     0.041 C 
ATOM     19  O   UNL     1      34.630  30.602  13.769  1.00  0.00    -0.550 OA
ATOM     20  O   UNL     1      34.945  30.344  16.023  1.00  0.00    -0.550 OA
ENDBRANCH  17  18
ENDBRANCH  16  17
ENDBRANCH  15  16
ENDBRANCH  14  15
ENDBRANCH  13  14
ENDBRANCH  12  13
ENDBRANCH  11  12
ENDBRANCH   1  11
TORSDOF 15
ENDMDL
MODEL 3
REMARK VINA RESULT:    -3.681     12.306     16.279
REMARK INTER + INTRA:          -7.507
REMARK INTER:                  -6.845
REMARK INTRA:                  -0.662
REMARK UNBOUND:                -0.599
REMARK SMILES O=C([O-])CCCCCCCCCCCCCCC(=O)[O-]
REMARK SMILES IDX 10 1 9 2 8 3 7 4 6 5 5 6 4 7 2 8 1 9 3 10 11 11 12 12 13 13
REMARK SMILES IDX 14 14 15 15 16 16 17 17 18 18 19 19 20 20
REMARK H PARENT
REMARK Flexibility Score: inf
ROOT
ATOM      1  C   UNL     1      40.605  26.591  18.317  1.00  0.00     0.000 C 
ENDROOT
BRANCH   1   2
ATOM      2  C   UNL     1      39.805  26.462  17.009  1.00  0.00     0.000 C 
BRANCH   2   3
ATOM      3  C   UNL     1      38.335  26.068  17.263  1.00  0.00     0.000 C 
BRANCH   3   4
ATOM      4  C   UNL     1      37.486  26.009  15.983  1.00  0.00     0.000 C 
BRANCH   4   5
ATOM      5  C   UNL     1      35.984  25.848  16.267  1.00  0.00     0.000 C 
BRANCH   5   6
ATOM      6  C   UNL     1      35.112  26.742  15.362  1.00  0.00     0.006 C 
BRANCH   6   7
ATOM      7  C   UNL     1      34.847  28.140  15.945  1.00  0.00     0.053 C 
BRANCH   7   8
ATOM      8  C   UNL     1      34.942  29.218  14.914  1.00  0.00     0.041 C 
ATOM      9  O   UNL     1      34.851  30.426  15.250  1.00  0.00    -0.550 OA
ATOM     10  O   UNL     1      35.120  28.888  13.577  1.00  0.00    -0.550 OA
ENDBRANCH   7   8
ENDBRANCH   6   7
ENDBRANCH   5   6
ENDBRANCH   4   5
ENDBRANCH   3   4
ENDBRANCH   2   3
ENDBRANCH   1   2
BRANCH   1  11
ATOM     11  C   UNL     1      41.469  27.861  18.360  1.00  0.00     0.000 C 
BRANCH  11  12
ATOM     12  C   UNL     1      41.781  28.412  16.958  1.00  0.00     0.000 C 
BRANCH  12  13
ATOM     13  C   UNL     1      41.874  29.949  16.926  1.00  0.00     0.000 C 
BRANCH  13  14
ATOM     14  C   UNL     1      42.502  30.535  15.648  1.00  0.00     0.000 C 
BRANCH  14  15
ATOM     15  C   UNL     1      43.326  31.806  15.911  1.00  0.00     0.000 C 
BRANCH  15  16
ATOM     16  C   UNL     1      44.743  31.727  15.307  1.00  0.00     0.006 C 
BRANCH  16  17
ATOM     17  C   UNL     1      45.786  31.122  16.259  1.00  0.00     0.053 C 
BRANCH  17  18
ATOM     18  C   UNL     1      46.891  30.431  15.529  1.00  0.00     0.041 C 
ATOM     19  O   UNL     1      47.909  30.034  16.153  1.00  0.00    -0.550 OA
ATOM     20  O   UNL     1      46.809  30.240  14.155  1.00  0.00    -0.550 OA
ENDBRANCH  17  18
ENDBRANCH  16  17
ENDBRANCH  15  16
ENDBRANCH  14  15
ENDBRANCH  13  14
ENDBRANCH  12  13
ENDBRANCH  11  12
ENDBRANCH   1  11
TORSDOF 15
ENDMDL
MODEL 4
REMARK VINA RESULT:    -3.660     12.406     13.171
REMARK INTER + INTRA:          -7.468
REMARK INTER:                  -6.797
REMARK INTRA:                  -0.671
REMARK UNBOUND:                -0.599
REMARK SMILES O=C([O-])CCCCCCCCCCCCCCC(=O)[O-]
REMARK SMILES IDX 10 1 9 2 8 3 7 4 6 5 5 6 4 7 2 8 1 9 3 10 11 11 12 12 13 13
REMARK SMILES IDX 14 14 15 15 16 16 17 17 18 18 19 19 20 20
REMARK H PARENT
REMARK Flexibility Score: inf
ROOT
ATOM      1  C   UNL     1      41.314  27.618  18.267  1.00  0.00     0.000 C 
ENDROOT
BRANCH   1   2
ATOM      2  C   UNL     1      41.748  28.222  16.920  1.00  0.00     0.000 C 
BRANCH   2   3
ATOM      3  C   UNL     1      41.968  29.746  17.010  1.00  0.00     0.000 C 
BRANCH   3   4
ATOM      4  C   UNL     1      42.546  30.359  15.723  1.00  0.00     0.000 C 
BRANCH   4   5
ATOM      5  C   UNL     1      43.169  31.746  15.948  1.00  0.00     0.000 C 
BRANCH   5   6
ATOM      6  C   UNL     1      44.614  31.837  15.417  1.00  0.00     0.006 C 
BRANCH   6   7
ATOM      7  C   UNL     1      45.658  31.210  16.356  1.00  0.00     0.053 C 
BRANCH   7   8
ATOM      8  C   UNL     1      46.750  30.510  15.613  1.00  0.00     0.041 C 
ATOM      9  O   UNL     1      47.763  30.087  16.225  1.00  0.00    -0.550 OA
ATOM     10  O   UNL     1      46.654  30.333  14.239  1.00  0.00    -0.550 OA
ENDBRANCH   7   8
ENDBRANCH   6   7
ENDBRANCH   5   6
ENDBRANCH   4   5
ENDBRANCH   3   4
ENDBRANCH   2   3
ENDBRANCH   1   2
BRANCH   1  11
ATOM     11  C   UNL     1      40.559  26.290  18.105  1.00  0.00     0.000 C 
BRANCH  11  12
ATOM     12  C   UNL     1      39.680  26.259  16.843  1.00  0.00     0.000 C 
BRANCH  12  13
ATOM     13  C   UNL     1      38.188  26.042  17.158  1.00  0.00     0.000 C 
BRANCH  13  14
ATOM     14  C   UNL     1      37.283  25.865  15.924  1.00  0.00     0.000 C 
BRANCH  14  15
ATOM     15  C   UNL     1      35.785  25.905  16.266  1.00  0.00     0.000 C 
BRANCH  15  16
ATOM     16  C   UNL     1      34.994  26.854  15.342  1.00  0.00     0.006 C 
BRANCH  16  17
ATOM     17  C   UNL     1      34.940  28.303  15.848  1.00  0.00     0.053 C 
BRANCH  17  18
ATOM     18  C   UNL     1      35.004  29.298  14.735  1.00  0.00     0.041 C 
ATOM     19  O   UNL     1      34.755  30.511  14.957  1.00  0.00    -0.550 OA
ATOM     20  O   UNL     1      35.321  28.886  13.446  1.00  0.00    -0.550 OA
ENDBRANCH  17  18
ENDBRANCH  16  17
ENDBRANCH  15  16
ENDBRANCH  14  15
ENDBRANCH  13  14
ENDBRANCH  12  13
ENDBRANCH  11  12
ENDBRANCH   1  11
TORSDOF 15
ENDMDL
MODEL 5
REMARK VINA RESULT:    -3.597     13.378     15.715
REMARK INTER + INTRA:          -7.350
REMARK INTER:                  -6.707
REMARK INTRA:                  -0.643
REMARK UNBOUND:                -0.599
REMARK SMILES O=C([O-])CCCCCCCCCCCCCCC(=O)[O-]
REMARK SMILES IDX 10 1 9 2 8 3 7 4 6 5 5 6 4 7 2 8 1 9 3 10 11 11 12 12 13 13
REMARK SMILES IDX 14 14 15 15 16 16 17 17 18 18 19 19 20 20
REMARK H PARENT
REMARK Flexibility Score: inf
ROOT
ATOM      1  C   UNL     1      40.274  27.116  17.706  1.00  0.00     0.000 C 
ENDROOT
BRANCH   1   2
ATOM      2  C   UNL     1      39.515  26.356  16.604  1.00  0.00     0.000 C 
BRANCH   2   3
ATOM      3  C   UNL     1      38.097  25.945  17.054  1.00  0.00     0.000 C 
BRANCH   3   4
ATOM      4  C   UNL     1      37.132  25.695  15.883  1.00  0.00     0.000 C 
BRANCH   4   5
ATOM      5  C   UNL     1      35.662  25.946  16.256  1.00  0.00     0.000 C 
BRANCH   5   6
ATOM      6  C   UNL     1      34.972  26.943  15.303  1.00  0.00     0.006 C 
BRANCH   6   7
ATOM      7  C   UNL     1      34.959  28.389  15.825  1.00  0.00     0.053 C 
BRANCH   7   8
ATOM      8  C   UNL     1      34.949  29.397  14.721  1.00  0.00     0.041 C 
ATOM      9  O   UNL     1      34.641  30.593  14.958  1.00  0.00    -0.550 OA
ATOM     10  O   UNL     1      35.270  29.013  13.426  1.00  0.00    -0.550 OA
ENDBRANCH   7   8
ENDBRANCH   6   7
ENDBRANCH   5   6
ENDBRANCH   4   5
ENDBRANCH   3   4
ENDBRANCH   2   3
ENDBRANCH   1   2
BRANCH   1  11
ATOM     11  C   UNL     1      41.476  26.329  18.249  1.00  0.00     0.000 C 
BRANCH  11  12
ATOM     12  C   UNL     1      42.108  25.409  17.190  1.00  0.00     0.000 C 
BRANCH  12  13
ATOM     13  C   UNL     1      43.205  24.496  17.767  1.00  0.00     0.000 C 
BRANCH  13  14
ATOM     14  C   UNL     1      43.860  23.543  16.750  1.00  0.00     0.000 C 
BRANCH  14  15
ATOM     15  C   UNL     1      44.555  22.343  17.411  1.00  0.00     0.000 C 
BRANCH  15  16
ATOM     16  C   UNL     1      44.061  20.993  16.852  1.00  0.00     0.006 C 
BRANCH  16  17
ATOM     17  C   UNL     1      42.991  20.318  17.725  1.00  0.00     0.053 C 
BRANCH  17  18
ATOM     18  C   UNL     1      41.906  19.690  16.913  1.00  0.00     0.041 C 
ATOM     19  O   UNL     1      40.910  19.172  17.482  1.00  0.00    -0.550 OA
ATOM     20  O   UNL     1      41.999  19.658  15.527  1.00  0.00    -0.550 OA
ENDBRANCH  17  18
ENDBRANCH  16  17
ENDBRANCH  15  16
ENDBRANCH  14  15
ENDBRANCH  13  14
ENDBRANCH  12  13
ENDBRANCH  11  12
ENDBRANCH   1  11
TORSDOF 15
ENDMDL
MODEL 6
REMARK VINA RESULT:    -3.561     13.285     15.048
REMARK INTER + INTRA:          -7.283
REMARK INTER:                  -6.613
REMARK INTRA:                  -0.670
REMARK UNBOUND:                -0.599
REMARK SMILES O=C([O-])CCCCCCCCCCCCCCC(=O)[O-]
REMARK SMILES IDX 10 1 9 2 8 3 7 4 6 5 5 6 4 7 2 8 1 9 3 10 11 11 12 12 13 13
REMARK SMILES IDX 14 14 15 15 16 16 17 17 18 18 19 19 20 20
REMARK H PARENT
REMARK Flexibility Score: inf
ROOT
ATOM      1  C   UNL     1      41.542  26.501  18.390  1.00  0.00     0.000 C 
ENDROOT
BRANCH   1   2
ATOM      2  C   UNL     1      41.989  25.471  17.338  1.00  0.00     0.000 C 
BRANCH   2   3
ATOM      3  C   UNL     1      43.229  24.674  17.795  1.00  0.00     0.000 C 
BRANCH   3   4
ATOM      4  C   UNL     1      43.648  23.573  16.806  1.00  0.00     0.000 C 
BRANCH   4   5
ATOM      5  C   UNL     1      44.564  22.515  17.442  1.00  0.00     0.000 C 
BRANCH   5   6
ATOM      6  C   UNL     1      44.200  21.081  17.007  1.00  0.00     0.006 C 
BRANCH   6   7
ATOM      7  C   UNL     1      43.058  20.458  17.828  1.00  0.00     0.053 C 
BRANCH   7   8
ATOM      8  C   UNL     1      42.030  19.796  16.968  1.00  0.00     0.041 C 
ATOM      9  O   UNL     1      42.137  19.828  15.715  1.00  0.00    -0.550 OA
ATOM     10  O   UNL     1      40.947  19.152  17.549  1.00  0.00    -0.550 OA
ENDBRANCH   7   8
ENDBRANCH   6   7
ENDBRANCH   5   6
ENDBRANCH   4   5
ENDBRANCH   3   4
ENDBRANCH   2   3
ENDBRANCH   1   2
BRANCH   1  11
ATOM     11  C   UNL     1      40.023  26.730  18.386  1.00  0.00     0.000 C 
BRANCH  11  12
ATOM     12  C   UNL     1      39.379  26.404  17.028  1.00  0.00     0.000 C 
BRANCH  12  13
ATOM     13  C   UNL     1      38.003  25.726  17.165  1.00  0.00     0.000 C 
BRANCH  13  14
ATOM     14  C   UNL     1      37.141  25.741  15.890  1.00  0.00     0.000 C 
BRANCH  14  15
ATOM     15  C   UNL     1      35.641  25.915  16.179  1.00  0.00     0.000 C 
BRANCH  15  16
ATOM     16  C   UNL     1      34.970  26.927  15.228  1.00  0.00     0.006 C 
BRANCH  16  17
ATOM     17  C   UNL     1      34.943  28.362  15.773  1.00  0.00     0.053 C 
BRANCH  17  18
ATOM     18  C   UNL     1      34.995  29.387  14.686  1.00  0.00     0.041 C 
ATOM     19  O   UNL     1      34.889  30.609  14.965  1.00  0.00    -0.550 OA
ATOM     20  O   UNL     1      35.140  28.993  13.362  1.00  0.00    -0.550 OA
ENDBRANCH  17  18
ENDBRANCH  16  17
ENDBRANCH  15  16
ENDBRANCH  14  15
ENDBRANCH  13  14
ENDBRANCH  12  13
ENDBRANCH  11  12
ENDBRANCH   1  11
TORSDOF 15
ENDMDL
MODEL 7
REMARK VINA RESULT:    -3.529     13.819     14.444
REMARK INTER + INTRA:          -7.222
REMARK INTER:                  -6.512
REMARK INTRA:                  -0.710
REMARK UNBOUND:                -0.599
REMARK SMILES O=C([O-])CCCCCCCCCCCCCCC(=O)[O-]
REMARK SMILES IDX 10 1 9 2 8 3 7 4 6 5 5 6 4 7 2 8 1 9 3 10 11 11 12 12 13 13
REMARK SMILES IDX 14 14 15 15 16 16 17 17 18 18 19 19 20 20
REMARK H PARENT
REMARK Flexibility Score: inf
ROOT
ATOM      1  C   UNL     1      40.878  27.195  18.078  1.00  0.00     0.000 C 
ENDROOT
BRANCH   1   2
ATOM      2  C   UNL     1      41.484  27.834  16.816  1.00  0.00     0.000 C 
BRANCH   2   3
ATOM      3  C   UNL     1      41.823  29.325  17.025  1.00  0.00     0.000 C 
BRANCH   3   4
ATOM      4  C   UNL     1      42.657  29.930  15.883  1.00  0.00     0.000 C 
BRANCH   4   5
ATOM      5  C   UNL     1      42.951  31.425  16.084  1.00  0.00     0.000 C 
BRANCH   5   6
ATOM      6  C   UNL     1      44.347  31.827  15.567  1.00  0.00     0.006 C 
BRANCH   6   7
ATOM      7  C   UNL     1      45.496  31.406  16.498  1.00  0.00     0.053 C 
BRANCH   7   8
ATOM      8  C   UNL     1      46.572  30.659  15.778  1.00  0.00     0.041 C 
ATOM      9  O   UNL     1      47.579  30.239  16.403  1.00  0.00    -0.550 OA
ATOM     10  O   UNL     1      46.470  30.436  14.411  1.00  0.00    -0.550 OA
ENDBRANCH   7   8
ENDBRANCH   6   7
ENDBRANCH   5   6
ENDBRANCH   4   5
ENDBRANCH   3   4
ENDBRANCH   2   3
ENDBRANCH   1   2
BRANCH   1  11
ATOM     11  C   UNL     1      41.643  25.943  18.532  1.00  0.00     0.000 C 
BRANCH  11  12
ATOM     12  C   UNL     1      42.230  25.148  17.354  1.00  0.00     0.000 C 
BRANCH  12  13
ATOM     13  C   UNL     1      43.517  24.389  17.726  1.00  0.00     0.000 C 
BRANCH  13  14
ATOM     14  C   UNL     1      43.991  23.362  16.681  1.00  0.00     0.000 C 
BRANCH  14  15
ATOM     15  C   UNL     1      44.733  22.168  17.304  1.00  0.00     0.000 C 
BRANCH  15  16
ATOM     16  C   UNL     1      44.155  20.812  16.849  1.00  0.00     0.006 C 
BRANCH  16  17
ATOM     17  C   UNL     1      42.912  20.376  17.638  1.00  0.00     0.053 C 
BRANCH  17  18
ATOM     18  C   UNL     1      41.899  19.695  16.775  1.00  0.00     0.041 C 
ATOM     19  O   UNL     1      42.031  19.697  15.524  1.00  0.00    -0.550 OA
ATOM     20  O   UNL     1      40.798  19.072  17.349  1.00  0.00    -0.550 OA
ENDBRANCH  17  18
ENDBRANCH  16  17
ENDBRANCH  15  16
ENDBRANCH  14  15
ENDBRANCH  13  14
ENDBRANCH  12  13
ENDBRANCH  11  12
ENDBRANCH   1  11
TORSDOF 15
ENDMDL
MODEL 8
REMARK VINA RESULT:    -3.501     13.802     16.845
REMARK INTER + INTRA:          -7.170
REMARK INTER:                  -6.490
REMARK INTRA:                  -0.680
REMARK UNBOUND:                -0.599
REMARK SMILES O=C([O-])CCCCCCCCCCCCCCC(=O)[O-]
REMARK SMILES IDX 10 1 9 2 8 3 7 4 6 5 5 6 4 7 2 8 1 9 3 10 11 11 12 12 13 13
REMARK SMILES IDX 14 14 15 15 16 16 17 17 18 18 19 19 20 20
REMARK H PARENT
REMARK Flexibility Score: inf
ROOT
ATOM      1  C   UNL     1      41.564  25.821  18.375  1.00  0.00     0.000 C 
ENDROOT
BRANCH   1   2
ATOM      2  C   UNL     1      42.342  25.139  17.235  1.00  0.00     0.000 C 
BRANCH   2   3
ATOM      3  C   UNL     1      43.498  24.265  17.763  1.00  0.00     0.000 C 
BRANCH   3   4
ATOM      4  C   UNL     1      43.982  23.212  16.752  1.00  0.00     0.000 C 
BRANCH   4   5
ATOM      5  C   UNL     1      44.587  21.969  17.424  1.00  0.00     0.000 C 
BRANCH   5   6
ATOM      6  C   UNL     1      43.528  20.890  17.732  1.00  0.00     0.006 C 
BRANCH   6   7
ATOM      7  C   UNL     1      42.928  20.237  16.476  1.00  0.00     0.053 C 
BRANCH   7   8
ATOM      8  C   UNL     1      41.691  19.453  16.774  1.00  0.00     0.041 C 
ATOM      9  O   UNL     1      41.248  19.390  17.949  1.00  0.00    -0.550 OA
ATOM     10  O   UNL     1      41.030  18.781  15.754  1.00  0.00    -0.550 OA
ENDBRANCH   7   8
ENDBRANCH   6   7
ENDBRANCH   5   6
ENDBRANCH   4   5
ENDBRANCH   3   4
ENDBRANCH   2   3
ENDBRANCH   1   2
BRANCH   1  11
ATOM     11  C   UNL     1      40.790  27.061  17.904  1.00  0.00     0.000 C 
BRANCH  11  12
ATOM     12  C   UNL     1      41.456  27.754  16.703  1.00  0.00     0.000 C 
BRANCH  12  13
ATOM     13  C   UNL     1      42.083  29.112  17.068  1.00  0.00     0.000 C 
BRANCH  13  14
ATOM     14  C   UNL     1      42.328  30.056  15.876  1.00  0.00     0.000 C 
BRANCH  14  15
ATOM     15  C   UNL     1      42.955  31.398  16.289  1.00  0.00     0.000 C 
BRANCH  15  16
ATOM     16  C   UNL     1      44.301  31.662  15.585  1.00  0.00     0.006 C 
BRANCH  16  17
ATOM     17  C   UNL     1      45.525  31.364  16.463  1.00  0.00     0.053 C 
BRANCH  17  18
ATOM     18  C   UNL     1      46.591  30.623  15.722  1.00  0.00     0.041 C 
ATOM     19  O   UNL     1      46.485  30.434  14.483  1.00  0.00    -0.550 OA
ATOM     20  O   UNL     1      47.695  30.123  16.402  1.00  0.00    -0.550 OA
ENDBRANCH  17  18
ENDBRANCH  16  17
ENDBRANCH  15  16
ENDBRANCH  14  15
ENDBRANCH  13  14
ENDBRANCH  12  13
ENDBRANCH  11  12
ENDBRANCH   1  11
TORSDOF 15
ENDMDL
MODEL 9
REMARK VINA RESULT:    -3.489     12.348     13.101
REMARK INTER + INTRA:          -7.147
REMARK INTER:                  -6.804
REMARK INTRA:                  -0.342
REMARK UNBOUND:                -0.599
REMARK SMILES O=C([O-])CCCCCCCCCCCCCCC(=O)[O-]
REMARK SMILES IDX 10 1 9 2 8 3 7 4 6 5 5 6 4 7 2 8 1 9 3 10 11 11 12 12 13 13
REMARK SMILES IDX 14 14 15 15 16 16 17 17 18 18 19 19 20 20
REMARK H PARENT
REMARK Flexibility Score: inf
ROOT
ATOM      1  C   UNL     1      41.335  28.832  17.028  1.00  0.00     0.000 C 
ENDROOT
BRANCH   1   2
ATOM      2  C   UNL     1      42.509  29.529  16.318  1.00  0.00     0.000 C 
BRANCH   2   3
ATOM      3  C   UNL     1      42.212  31.014  16.024  1.00  0.00     0.000 C 
BRANCH   3   4
ATOM      4  C   UNL     1      43.455  31.916  16.111  1.00  0.00     0.000 C 
BRANCH   4   5
ATOM      5  C   UNL     1      44.729  31.231  15.591  1.00  0.00     0.000 C 
BRANCH   5   6
ATOM      6  C   UNL     1      45.935  31.437  16.530  1.00  0.00     0.006 C 
BRANCH   6   7
ATOM      7  C   UNL     1      46.982  30.314  16.446  1.00  0.00     0.053 C 
BRANCH   7   8
ATOM      8  C   UNL     1      47.632  30.237  15.102  1.00  0.00     0.041 C 
ATOM      9  O   UNL     1      46.934  30.076  14.069  1.00  0.00    -0.550 OA
ATOM     10  O   UNL     1      49.013  30.331  14.990  1.00  0.00    -0.550 OA
ENDBRANCH   7   8
ENDBRANCH   6   7
ENDBRANCH   5   6
ENDBRANCH   4   5
ENDBRANCH   3   4
ENDBRANCH   2   3
ENDBRANCH   1   2
BRANCH   1  11
ATOM     11  C   UNL     1      41.794  27.911  18.169  1.00  0.00     0.000 C 
BRANCH  11  12
ATOM     12  C   UNL     1      41.383  26.446  17.947  1.00  0.00     0.000 C 
BRANCH  12  13
ATOM     13  C   UNL     1      40.357  26.276  16.812  1.00  0.00     0.000 C 
BRANCH  13  14
ATOM     14  C   UNL     1      38.895  26.130  17.274  1.00  0.00     0.000 C 
BRANCH  14  15
ATOM     15  C   UNL     1      37.885  26.260  16.123  1.00  0.00     0.000 C 
BRANCH  15  16
ATOM     16  C   UNL     1      36.474  25.777  16.519  1.00  0.00     0.006 C 
BRANCH  16  17
ATOM     17  C   UNL     1      35.374  26.227  15.546  1.00  0.00     0.053 C 
BRANCH  17  18
ATOM     18  C   UNL     1      34.873  27.602  15.848  1.00  0.00     0.041 C 
ATOM     19  O   UNL     1      35.036  28.531  15.015  1.00  0.00    -0.550 OA
ATOM     20  O   UNL     1      34.242  27.866  17.058  1.00  0.00    -0.550 OA
ENDBRANCH  17  18
ENDBRANCH  16  17
ENDBRANCH  15  16
ENDBRANCH  14  15
ENDBRANCH  13  14
ENDBRANCH  12  13
ENDBRANCH  11  12
ENDBRANCH   1  11
TORSDOF 15
ENDMDL
