MODEL 1
REMARK VINA RESULT:     5.350      0.000      0.000
REMARK INTER + INTRA:          11.837
REMARK INTER:                  12.230
REMARK INTRA:                  -0.393
REMARK UNBOUND:                -0.393
REMARK SMILES CCCCCCCCCCCCCCCCCCCCCCCC(=O)[O-]
REMARK SMILES IDX 13 1 14 2 15 3 16 4 17 5 18 6 19 7 20 8 21 9 22 10 23 11
REMARK SMILES IDX 24 12 25 13 26 14 12 15 11 16 10 17 9 18 8 19 7 20 6 21 5 22
REMARK SMILES IDX 4 23 3 24 2 25 1 26
REMARK H PARENT
REMARK Flexibility Score: inf
ROOT
ATOM      1  C   UNL     1      -3.377  -3.398  -1.135  1.00  0.00     0.000 C 
ENDROOT
BRANCH   1   2
ATOM      2  C   UNL     1      -3.756  -2.140  -0.326  1.00  0.00     0.000 C 
BRANCH   2   3
ATOM      3  C   UNL     1      -3.079  -0.832  -0.786  1.00  0.00     0.000 C 
BRANCH   3   4
ATOM      4  C   UNL     1      -2.289  -0.929  -2.106  1.00  0.00     0.000 C 
BRANCH   4   5
ATOM      5  C   UNL     1      -1.446   0.325  -2.392  1.00  0.00     0.000 C 
BRANCH   5   6
ATOM      6  C   UNL     1      -1.850   1.524  -1.516  1.00  0.00     0.000 C 
BRANCH   6   7
ATOM      7  C   UNL     1      -0.802   2.653  -1.426  1.00  0.00     0.000 C 
BRANCH   7   8
ATOM      8  C   UNL     1      -0.141   2.819  -0.047  1.00  0.00     0.000 C 
BRANCH   8   9
ATOM      9  C   UNL     1       0.496   4.207   0.146  1.00  0.00     0.000 C 
BRANCH   9  10
ATOM     10  C   UNL     1       1.367   4.629  -1.047  1.00  0.00     0.006 C 
BRANCH  10  11
ATOM     11  C   UNL     1       2.288   5.810  -0.715  1.00  0.00     0.053 C 
BRANCH  11  12
ATOM     12  C   UNL     1       3.527   5.335  -0.023  1.00  0.00     0.041 C 
ATOM     13  O   UNL     1       4.552   6.065   0.017  1.00  0.00    -0.550 OA
ATOM     14  O   UNL     1       3.550   4.083   0.583  1.00  0.00    -0.550 OA
ENDBRANCH  11  12
ENDBRANCH  10  11
ENDBRANCH   9  10
ENDBRANCH   8   9
ENDBRANCH   7   8
ENDBRANCH   6   7
ENDBRANCH   5   6
ENDBRANCH   4   5
ENDBRANCH   3   4
ENDBRANCH   2   3
ENDBRANCH   1   2
BRANCH   1  15
ATOM     15  C   UNL     1      -3.363  -4.707  -0.326  1.00  0.00     0.000 C 
BRANCH  15  16
ATOM     16  C   UNL     1      -2.169  -5.636  -0.622  1.00  0.00     0.000 C 
BRANCH  16  17
ATOM     17  C   UNL     1      -0.864  -4.882  -0.961  1.00  0.00     0.000 C 
BRANCH  17  18
ATOM     18  C   UNL     1      -0.548  -3.776   0.061  1.00  0.00    -0.000 C 
BRANCH  18  19
ATOM     19  C   UNL     1       0.078  -2.531  -0.588  1.00  0.00    -0.000 C 
BRANCH  19  20
ATOM     20  C   UNL     1       0.013  -1.293   0.324  1.00  0.00    -0.000 C 
BRANCH  20  21
ATOM     21  C   UNL     1       0.914  -0.147  -0.165  1.00  0.00    -0.000 C 
BRANCH  21  22
ATOM     22  C   UNL     1       1.570  -0.444  -1.525  1.00  0.00    -0.000 C 
BRANCH  22  23
ATOM     23  C   UNL     1       1.932   0.837  -2.296  1.00  0.00    -0.000 C 
BRANCH  23  24
ATOM     24  C   UNL     1       2.916   1.732  -1.523  1.00  0.00    -0.000 C 
BRANCH  24  25
ATOM     25  C   UNL     1       3.566   1.002  -0.336  1.00  0.00    -0.003 C 
ATOM     26  C   UNL     1       4.995   0.548  -0.636  1.00  0.00     0.004 C 
ENDBRANCH  24  25
ENDBRANCH  23  24
ENDBRANCH  22  23
ENDBRANCH  21  22
ENDBRANCH  20  21
ENDBRANCH  19  20
ENDBRANCH  18  19
ENDBRANCH  17  18
ENDBRANCH  16  17
ENDBRANCH  15  16
ENDBRANCH   1  15
TORSDOF 22
ENDMDL
MODEL 2
REMARK VINA RESULT:     5.362      4.140      8.644
REMARK INTER + INTRA:          11.864
REMARK INTER:                  12.556
REMARK INTRA:                  -0.692
REMARK UNBOUND:                -0.393
REMARK SMILES CCCCCCCCCCCCCCCCCCCCCCCC(=O)[O-]
REMARK SMILES IDX 13 1 14 2 15 3 16 4 17 5 18 6 19 7 20 8 21 9 22 10 23 11
REMARK SMILES IDX 24 12 25 13 26 14 12 15 11 16 10 17 9 18 8 19 7 20 6 21 5 22
REMARK SMILES IDX 4 23 3 24 2 25 1 26
REMARK H PARENT
REMARK Flexibility Score: inf
ROOT
ATOM      1  C   UNL     1       3.340   3.136  -0.908  1.00  0.00     0.000 C 
ENDROOT
BRANCH   1   2
ATOM      2  C   UNL     1       3.711   1.831  -0.173  1.00  0.00     0.000 C 
BRANCH   2   3
ATOM      3  C   UNL     1       3.123   0.541  -0.784  1.00  0.00     0.000 C 
BRANCH   3   4
ATOM      4  C   UNL     1       2.072   0.757  -1.891  1.00  0.00     0.000 C 
BRANCH   4   5
ATOM      5  C   UNL     1       1.417  -0.553  -2.357  1.00  0.00     0.000 C 
BRANCH   5   6
ATOM      6  C   UNL     1       1.431  -1.644  -1.272  1.00  0.00     0.000 C 
BRANCH   6   7
ATOM      7  C   UNL     1       0.373  -2.754  -1.442  1.00  0.00     0.000 C 
BRANCH   7   8
ATOM      8  C   UNL     1      -0.249  -3.267  -0.132  1.00  0.00     0.000 C 
BRANCH   8   9
ATOM      9  C   UNL     1      -0.476  -4.789  -0.136  1.00  0.00     0.000 C 
BRANCH   9  10
ATOM     10  C   UNL     1      -1.623  -5.214  -1.066  1.00  0.00     0.006 C 
BRANCH  10  11
ATOM     11  C   UNL     1      -3.005  -4.932  -0.462  1.00  0.00     0.053 C 
BRANCH  11  12
ATOM     12  C   UNL     1      -3.849  -6.168  -0.476  1.00  0.00     0.041 C 
ATOM     13  O   UNL     1      -3.366  -7.261  -0.874  1.00  0.00    -0.550 OA
ATOM     14  O   UNL     1      -5.170  -6.114  -0.046  1.00  0.00    -0.550 OA
ENDBRANCH  11  12
ENDBRANCH  10  11
ENDBRANCH   9  10
ENDBRANCH   8   9
ENDBRANCH   7   8
ENDBRANCH   6   7
ENDBRANCH   5   6
ENDBRANCH   4   5
ENDBRANCH   3   4
ENDBRANCH   2   3
ENDBRANCH   1   2
BRANCH   1  15
ATOM     15  C   UNL     1       3.281   4.387  -0.013  1.00  0.00     0.000 C 
BRANCH  15  16
ATOM     16  C   UNL     1       2.286   5.467  -0.477  1.00  0.00     0.000 C 
BRANCH  16  17
ATOM     17  C   UNL     1       0.875   4.919  -0.791  1.00  0.00     0.000 C 
BRANCH  17  18
ATOM     18  C   UNL     1       0.443   3.823   0.199  1.00  0.00    -0.000 C 
BRANCH  18  19
ATOM     19  C   UNL     1      -0.184   2.606  -0.500  1.00  0.00    -0.000 C 
BRANCH  19  20
ATOM     20  C   UNL     1      -0.327   1.394   0.438  1.00  0.00    -0.000 C 
BRANCH  20  21
ATOM     21  C   UNL     1      -0.861   0.146  -0.282  1.00  0.00    -0.000 C 
BRANCH  21  22
ATOM     22  C   UNL     1      -1.779   0.490  -1.470  1.00  0.00    -0.000 C 
BRANCH  22  23
ATOM     23  C   UNL     1      -1.923  -0.677  -2.460  1.00  0.00    -0.000 C 
BRANCH  23  24
ATOM     24  C   UNL     1      -2.800  -1.815  -1.909  1.00  0.00    -0.000 C 
BRANCH  24  25
ATOM     25  C   UNL     1      -3.796  -1.324  -0.845  1.00  0.00    -0.003 C 
ATOM     26  C   UNL     1      -3.712  -2.127   0.454  1.00  0.00     0.004 C 
ENDBRANCH  24  25
ENDBRANCH  23  24
ENDBRANCH  22  23
ENDBRANCH  21  22
ENDBRANCH  20  21
ENDBRANCH  19  20
ENDBRANCH  18  19
ENDBRANCH  17  18
ENDBRANCH  16  17
ENDBRANCH  15  16
ENDBRANCH   1  15
TORSDOF 22
ENDMDL
MODEL 3
REMARK VINA RESULT:     5.579      2.982      7.542
REMARK INTER + INTRA:          12.360
REMARK INTER:                  12.077
REMARK INTRA:                   0.283
REMARK UNBOUND:                -0.393
REMARK SMILES CCCCCCCCCCCCCCCCCCCCCCCC(=O)[O-]
REMARK SMILES IDX 13 1 14 2 15 3 16 4 17 5 18 6 19 7 20 8 21 9 22 10 23 11
REMARK SMILES IDX 24 12 25 13 26 14 12 15 11 16 10 17 9 18 8 19 7 20 6 21 5 22
REMARK SMILES IDX 4 23 3 24 2 25 1 26
REMARK H PARENT
REMARK Flexibility Score: inf
ROOT
ATOM      1  C   UNL     1       3.205   3.122  -0.789  1.00  0.00     0.000 C 
ENDROOT
BRANCH   1   2
ATOM      2  C   UNL     1       3.770   4.379  -0.096  1.00  0.00     0.000 C 
BRANCH   2   3
ATOM      3  C   UNL     1       3.045   5.699  -0.434  1.00  0.00     0.000 C 
BRANCH   3   4
ATOM      4  C   UNL     1       1.539   5.565  -0.732  1.00  0.00     0.000 C 
BRANCH   4   5
ATOM      5  C   UNL     1       0.869   4.436   0.069  1.00  0.00     0.000 C 
BRANCH   5   6
ATOM      6  C   UNL     1      -0.325   3.810  -0.672  1.00  0.00     0.000 C 
BRANCH   6   7
ATOM      7  C   UNL     1      -0.298   2.271  -0.779  1.00  0.00     0.000 C 
BRANCH   7   8
ATOM      8  C   UNL     1      -1.510   1.646  -1.493  1.00  0.00     0.000 C 
BRANCH   8   9
ATOM      9  C   UNL     1      -1.762   0.187  -1.073  1.00  0.00     0.000 C 
BRANCH   9  10
ATOM     10  C   UNL     1      -2.189  -0.702  -2.251  1.00  0.00     0.006 C 
BRANCH  10  11
ATOM     11  C   UNL     1      -3.054  -1.889  -1.808  1.00  0.00     0.053 C 
BRANCH  11  12
ATOM     12  C   UNL     1      -3.837  -1.543  -0.580  1.00  0.00     0.041 C 
ATOM     13  O   UNL     1      -4.954  -0.970  -0.681  1.00  0.00    -0.550 OA
ATOM     14  O   UNL     1      -3.334  -1.856   0.677  1.00  0.00    -0.550 OA
ENDBRANCH  11  12
ENDBRANCH  10  11
ENDBRANCH   9  10
ENDBRANCH   8   9
ENDBRANCH   7   8
ENDBRANCH   6   7
ENDBRANCH   5   6
ENDBRANCH   4   5
ENDBRANCH   3   4
ENDBRANCH   2   3
ENDBRANCH   1   2
BRANCH   1  15
ATOM     15  C   UNL     1       3.406   1.809  -0.012  1.00  0.00     0.000 C 
BRANCH  15  16
ATOM     16  C   UNL     1       3.094   0.530  -0.811  1.00  0.00     0.000 C 
BRANCH  16  17
ATOM     17  C   UNL     1       2.132   0.758  -1.998  1.00  0.00     0.000 C 
BRANCH  17  18
ATOM     18  C   UNL     1       1.220  -0.456  -2.249  1.00  0.00    -0.000 C 
BRANCH  18  19
ATOM     19  C   UNL     1       0.836  -1.187  -0.952  1.00  0.00    -0.000 C 
BRANCH  19  20
ATOM     20  C   UNL     1       0.531  -2.678  -1.181  1.00  0.00    -0.000 C 
BRANCH  20  21
ATOM     21  C   UNL     1      -0.402  -3.265  -0.111  1.00  0.00    -0.000 C 
BRANCH  21  22
ATOM     22  C   UNL     1      -0.549  -4.794  -0.221  1.00  0.00    -0.000 C 
BRANCH  22  23
ATOM     23  C   UNL     1      -1.779  -5.209  -1.046  1.00  0.00    -0.000 C 
BRANCH  23  24
ATOM     24  C   UNL     1      -3.104  -4.819  -0.367  1.00  0.00    -0.000 C 
BRANCH  24  25
ATOM     25  C   UNL     1      -4.107  -5.984  -0.327  1.00  0.00    -0.003 C 
ATOM     26  C   UNL     1      -3.493  -7.305  -0.794  1.00  0.00     0.004 C 
ENDBRANCH  24  25
ENDBRANCH  23  24
ENDBRANCH  22  23
ENDBRANCH  21  22
ENDBRANCH  20  21
ENDBRANCH  19  20
ENDBRANCH  18  19
ENDBRANCH  17  18
ENDBRANCH  16  17
ENDBRANCH  15  16
ENDBRANCH   1  15
TORSDOF 22
ENDMDL
MODEL 4
REMARK VINA RESULT:     5.676      1.009      3.463
REMARK INTER + INTRA:          12.584
REMARK INTER:                  12.964
REMARK INTRA:                  -0.380
REMARK UNBOUND:                -0.393
REMARK SMILES CCCCCCCCCCCCCCCCCCCCCCCC(=O)[O-]
REMARK SMILES IDX 13 1 14 2 15 3 16 4 17 5 18 6 19 7 20 8 21 9 22 10 23 11
REMARK SMILES IDX 24 12 25 13 26 14 12 15 11 16 10 17 9 18 8 19 7 20 6 21 5 22
REMARK SMILES IDX 4 23 3 24 2 25 1 26
REMARK H PARENT
REMARK Flexibility Score: inf
ROOT
ATOM      1  C   UNL     1      -0.474  -4.468   0.156  1.00  0.00     0.000 C 
ENDROOT
BRANCH   1   2
ATOM      2  C   UNL     1       0.010  -3.042  -0.180  1.00  0.00     0.000 C 
BRANCH   2   3
ATOM      3  C   UNL     1       0.628  -2.870  -1.584  1.00  0.00     0.000 C 
BRANCH   3   4
ATOM      4  C   UNL     1       1.738  -1.806  -1.688  1.00  0.00     0.000 C 
BRANCH   4   5
ATOM      5  C   UNL     1       1.287  -0.543  -2.440  1.00  0.00     0.000 C 
BRANCH   5   6
ATOM      6  C   UNL     1       2.081   0.710  -2.028  1.00  0.00     0.000 C 
BRANCH   6   7
ATOM      7  C   UNL     1       2.718   0.651  -0.624  1.00  0.00     0.000 C 
BRANCH   7   8
ATOM      8  C   UNL     1       3.759   1.747  -0.334  1.00  0.00     0.000 C 
BRANCH   8   9
ATOM      9  C   UNL     1       3.427   3.081  -1.025  1.00  0.00     0.000 C 
BRANCH   9  10
ATOM     10  C   UNL     1       2.603   4.021  -0.132  1.00  0.00     0.006 C 
BRANCH  10  11
ATOM     11  C   UNL     1       2.394   5.402  -0.765  1.00  0.00     0.053 C 
BRANCH  11  12
ATOM     12  C   UNL     1       3.490   6.338  -0.363  1.00  0.00     0.041 C 
ATOM     13  O   UNL     1       4.575   5.888   0.091  1.00  0.00    -0.550 OA
ATOM     14  O   UNL     1       3.315   7.712  -0.493  1.00  0.00    -0.550 OA
ENDBRANCH  11  12
ENDBRANCH  10  11
ENDBRANCH   9  10
ENDBRANCH   8   9
ENDBRANCH   7   8
ENDBRANCH   6   7
ENDBRANCH   5   6
ENDBRANCH   4   5
ENDBRANCH   3   4
ENDBRANCH   2   3
ENDBRANCH   1   2
BRANCH   1  15
ATOM     15  C   UNL     1      -1.107  -5.230  -1.022  1.00  0.00     0.000 C 
BRANCH  15  16
ATOM     16  C   UNL     1      -2.485  -5.850  -0.725  1.00  0.00     0.000 C 
BRANCH  16  17
ATOM     17  C   UNL     1      -3.573  -4.809  -0.377  1.00  0.00     0.000 C 
BRANCH  17  18
ATOM     18  C   UNL     1      -3.355  -3.473  -1.108  1.00  0.00    -0.000 C 
BRANCH  18  19
ATOM     19  C   UNL     1      -3.730  -2.256  -0.246  1.00  0.00    -0.000 C 
BRANCH  19  20
ATOM     20  C   UNL     1      -3.623  -0.929  -1.017  1.00  0.00    -0.000 C 
BRANCH  20  21
ATOM     21  C   UNL     1      -2.377  -0.862  -1.914  1.00  0.00    -0.000 C 
BRANCH  21  22
ATOM     22  C   UNL     1      -1.488   0.357  -1.610  1.00  0.00    -0.000 C 
BRANCH  22  23
ATOM     23  C   UNL     1      -0.795   0.252  -0.241  1.00  0.00    -0.000 C 
BRANCH  23  24
ATOM     24  C   UNL     1      -0.219   1.599   0.234  1.00  0.00    -0.000 C 
BRANCH  24  25
ATOM     25  C   UNL     1      -0.435   2.723  -0.793  1.00  0.00    -0.003 C 
ATOM     26  C   UNL     1      -0.269   4.116  -0.182  1.00  0.00     0.004 C 
ENDBRANCH  24  25
ENDBRANCH  23  24
ENDBRANCH  22  23
ENDBRANCH  21  22
ENDBRANCH  20  21
ENDBRANCH  19  20
ENDBRANCH  18  19
ENDBRANCH  17  18
ENDBRANCH  16  17
ENDBRANCH  15  16
ENDBRANCH   1  15
TORSDOF 22
ENDMDL
MODEL 5
REMARK VINA RESULT:     5.758      1.018      4.917
REMARK INTER + INTRA:          12.771
REMARK INTER:                  14.258
REMARK INTRA:                  -1.487
REMARK UNBOUND:                -0.393
REMARK SMILES CCCCCCCCCCCCCCCCCCCCCCCC(=O)[O-]
REMARK SMILES IDX 13 1 14 2 15 3 16 4 17 5 18 6 19 7 20 8 21 9 22 10 23 11
REMARK SMILES IDX 24 12 25 13 26 14 12 15 11 16 10 17 9 18 8 19 7 20 6 21 5 22
REMARK SMILES IDX 4 23 3 24 2 25 1 26
REMARK H PARENT
REMARK Flexibility Score: inf
ROOT
ATOM      1  C   UNL     1      -0.542   0.520   0.535  1.00  0.00     0.000 C 
ENDROOT
BRANCH   1   2
ATOM      2  C   UNL     1       0.374  -0.713   0.389  1.00  0.00     0.000 C 
BRANCH   2   3
ATOM      3  C   UNL     1       0.696  -1.126  -1.062  1.00  0.00     0.000 C 
BRANCH   3   4
ATOM      4  C   UNL     1       2.031  -0.592  -1.617  1.00  0.00     0.000 C 
BRANCH   4   5
ATOM      5  C   UNL     1       1.856   0.658  -2.495  1.00  0.00     0.000 C 
BRANCH   5   6
ATOM      6  C   UNL     1       2.616   1.880  -1.948  1.00  0.00     0.000 C 
BRANCH   6   7
ATOM      7  C   UNL     1       3.083   1.760  -0.483  1.00  0.00     0.000 C 
BRANCH   7   8
ATOM      8  C   UNL     1       2.826   3.004   0.386  1.00  0.00     0.000 C 
BRANCH   8   9
ATOM      9  C   UNL     1       1.416   3.588   0.189  1.00  0.00     0.000 C 
BRANCH   9  10
ATOM     10  C   UNL     1       1.441   5.044  -0.299  1.00  0.00     0.006 C 
BRANCH  10  11
ATOM     11  C   UNL     1       2.699   5.370  -1.115  1.00  0.00     0.053 C 
BRANCH  11  12
ATOM     12  C   UNL     1       3.555   6.361  -0.392  1.00  0.00     0.041 C 
ATOM     13  O   UNL     1       4.604   5.985   0.197  1.00  0.00    -0.550 OA
ATOM     14  O   UNL     1       3.197   7.705  -0.370  1.00  0.00    -0.550 OA
ENDBRANCH  11  12
ENDBRANCH  10  11
ENDBRANCH   9  10
ENDBRANCH   8   9
ENDBRANCH   7   8
ENDBRANCH   6   7
ENDBRANCH   5   6
ENDBRANCH   4   5
ENDBRANCH   3   4
ENDBRANCH   2   3
ENDBRANCH   1   2
BRANCH   1  15
ATOM     15  C   UNL     1      -0.656   1.394  -0.727  1.00  0.00     0.000 C 
BRANCH  15  16
ATOM     16  C   UNL     1      -1.829   1.035  -1.658  1.00  0.00     0.000 C 
BRANCH  16  17
ATOM     17  C   UNL     1      -1.612  -0.269  -2.457  1.00  0.00     0.000 C 
BRANCH  17  18
ATOM     18  C   UNL     1      -2.632  -1.359  -2.082  1.00  0.00    -0.000 C 
BRANCH  18  19
ATOM     19  C   UNL     1      -3.274  -1.121  -0.705  1.00  0.00    -0.000 C 
BRANCH  19  20
ATOM     20  C   UNL     1      -3.607  -2.433   0.028  1.00  0.00    -0.000 C 
BRANCH  20  21
ATOM     21  C   UNL     1      -3.755  -3.626  -0.929  1.00  0.00    -0.000 C 
BRANCH  21  22
ATOM     22  C   UNL     1      -3.786  -4.979  -0.194  1.00  0.00    -0.000 C 
BRANCH  22  23
ATOM     23  C   UNL     1      -2.553  -5.845  -0.503  1.00  0.00    -0.000 C 
BRANCH  23  24
ATOM     24  C   UNL     1      -1.458  -5.066  -1.253  1.00  0.00    -0.000 C 
BRANCH  24  25
ATOM     25  C   UNL     1      -0.206  -4.836  -0.389  1.00  0.00    -0.003 C 
ATOM     26  C   UNL     1      -0.434  -3.799   0.711  1.00  0.00     0.004 C 
ENDBRANCH  24  25
ENDBRANCH  23  24
ENDBRANCH  22  23
ENDBRANCH  21  22
ENDBRANCH  20  21
ENDBRANCH  19  20
ENDBRANCH  18  19
ENDBRANCH  17  18
ENDBRANCH  16  17
ENDBRANCH  15  16
ENDBRANCH   1  15
TORSDOF 22
ENDMDL
MODEL 6
REMARK VINA RESULT:     5.794      2.749      7.232
REMARK INTER + INTRA:          12.854
REMARK INTER:                  12.594
REMARK INTRA:                   0.260
REMARK UNBOUND:                -0.393
REMARK SMILES CCCCCCCCCCCCCCCCCCCCCCCC(=O)[O-]
REMARK SMILES IDX 13 1 14 2 15 3 16 4 17 5 18 6 19 7 20 8 21 9 22 10 23 11
REMARK SMILES IDX 24 12 25 13 26 14 12 15 11 16 10 17 9 18 8 19 7 20 6 21 5 22
REMARK SMILES IDX 4 23 3 24 2 25 1 26
REMARK H PARENT
REMARK Flexibility Score: inf
ROOT
ATOM      1  C   UNL     1      -0.540   0.462   0.340  1.00  0.00     0.000 C 
ENDROOT
BRANCH   1   2
ATOM      2  C   UNL     1       0.239  -0.870   0.347  1.00  0.00     0.000 C 
BRANCH   2   3
ATOM      3  C   UNL     1       0.510  -1.482  -1.043  1.00  0.00     0.000 C 
BRANCH   3   4
ATOM      4  C   UNL     1       0.199  -2.986  -1.172  1.00  0.00     0.000 C 
BRANCH   4   5
ATOM      5  C   UNL     1      -0.206  -3.629   0.165  1.00  0.00     0.000 C 
BRANCH   5   6
ATOM      6  C   UNL     1      -0.649  -5.095   0.009  1.00  0.00     0.000 C 
BRANCH   6   7
ATOM      7  C   UNL     1      -1.605  -5.370  -1.170  1.00  0.00     0.000 C 
BRANCH   7   8
ATOM      8  C   UNL     1      -2.851  -6.203  -0.819  1.00  0.00     0.000 C 
BRANCH   8   9
ATOM      9  C   UNL     1      -3.998  -5.348  -0.252  1.00  0.00     0.000 C 
BRANCH   9  10
ATOM     10  C   UNL     1      -3.612  -3.869  -0.096  1.00  0.00     0.006 C 
BRANCH  10  11
ATOM     11  C   UNL     1      -3.470  -3.152  -1.445  1.00  0.00     0.053 C 
BRANCH  11  12
ATOM     12  C   UNL     1      -3.170  -1.700  -1.242  1.00  0.00     0.041 C 
ATOM     13  O   UNL     1      -3.569  -1.109  -0.204  1.00  0.00    -0.550 OA
ATOM     14  O   UNL     1      -2.446  -0.998  -2.199  1.00  0.00    -0.550 OA
ENDBRANCH  11  12
ENDBRANCH  10  11
ENDBRANCH   9  10
ENDBRANCH   8   9
ENDBRANCH   7   8
ENDBRANCH   6   7
ENDBRANCH   5   6
ENDBRANCH   4   5
ENDBRANCH   3   4
ENDBRANCH   2   3
ENDBRANCH   1   2
BRANCH   1  15
ATOM     15  C   UNL     1      -0.616   1.159  -1.030  1.00  0.00     0.000 C 
BRANCH  15  16
ATOM     16  C   UNL     1      -0.622   2.699  -0.971  1.00  0.00     0.000 C 
BRANCH  16  17
ATOM     17  C   UNL     1       0.049   3.276   0.295  1.00  0.00     0.000 C 
BRANCH  17  18
ATOM     18  C   UNL     1       0.495   4.736   0.103  1.00  0.00    -0.000 C 
BRANCH  18  19
ATOM     19  C   UNL     1       1.496   4.904  -1.053  1.00  0.00    -0.000 C 
BRANCH  19  20
ATOM     20  C   UNL     1       2.642   5.871  -0.707  1.00  0.00    -0.000 C 
BRANCH  20  21
ATOM     21  C   UNL     1       3.806   5.177   0.016  1.00  0.00    -0.000 C 
BRANCH  21  22
ATOM     22  C   UNL     1       3.468   3.737   0.445  1.00  0.00    -0.000 C 
BRANCH  22  23
ATOM     23  C   UNL     1       3.393   2.771  -0.748  1.00  0.00    -0.000 C 
BRANCH  23  24
ATOM     24  C   UNL     1       3.381   1.294  -0.312  1.00  0.00    -0.000 C 
BRANCH  24  25
ATOM     25  C   UNL     1       2.850   0.362  -1.414  1.00  0.00    -0.003 C 
ATOM     26  C   UNL     1       2.078   1.114  -2.499  1.00  0.00     0.004 C 
ENDBRANCH  24  25
ENDBRANCH  23  24
ENDBRANCH  22  23
ENDBRANCH  21  22
ENDBRANCH  20  21
ENDBRANCH  19  20
ENDBRANCH  18  19
ENDBRANCH  17  18
ENDBRANCH  16  17
ENDBRANCH  15  16
ENDBRANCH   1  15
TORSDOF 22
ENDMDL
MODEL 7
REMARK VINA RESULT:     5.798      4.138      8.252
REMARK INTER + INTRA:          12.862
REMARK INTER:                  13.283
REMARK INTRA:                  -0.422
REMARK UNBOUND:                -0.393
REMARK SMILES CCCCCCCCCCCCCCCCCCCCCCCC(=O)[O-]
REMARK SMILES IDX 13 1 14 2 15 3 16 4 17 5 18 6 19 7 20 8 21 9 22 10 23 11
REMARK SMILES IDX 24 12 25 13 26 14 12 15 11 16 10 17 9 18 8 19 7 20 6 21 5 22
REMARK SMILES IDX 4 23 3 24 2 25 1 26
REMARK H PARENT
REMARK Flexibility Score: inf
ROOT
ATOM      1  C   UNL     1       0.314   4.128  -0.013  1.00  0.00     0.000 C 
ENDROOT
BRANCH   1   2
ATOM      2  C   UNL     1      -0.104   2.762  -0.595  1.00  0.00     0.000 C 
BRANCH   2   3
ATOM      3  C   UNL     1      -0.209   1.613   0.430  1.00  0.00     0.000 C 
BRANCH   3   4
ATOM      4  C   UNL     1      -0.799   0.298  -0.114  1.00  0.00     0.000 C 
BRANCH   4   5
ATOM      5  C   UNL     1      -1.250   0.406  -1.581  1.00  0.00     0.000 C 
BRANCH   5   6
ATOM      6  C   UNL     1      -2.282  -0.668  -1.966  1.00  0.00     0.000 C 
BRANCH   6   7
ATOM      7  C   UNL     1      -3.519  -0.750  -1.047  1.00  0.00     0.000 C 
BRANCH   7   8
ATOM      8  C   UNL     1      -3.779  -2.134  -0.427  1.00  0.00     0.000 C 
BRANCH   8   9
ATOM      9  C   UNL     1      -3.060  -3.269  -1.178  1.00  0.00     0.000 C 
BRANCH   9  10
ATOM     10  C   UNL     1      -2.808  -4.498  -0.292  1.00  0.00     0.006 C 
BRANCH  10  11
ATOM     11  C   UNL     1      -2.744  -5.802  -1.099  1.00  0.00     0.053 C 
BRANCH  11  12
ATOM     12  C   UNL     1      -3.785  -6.766  -0.626  1.00  0.00     0.041 C 
ATOM     13  O   UNL     1      -3.595  -8.007  -0.730  1.00  0.00    -0.550 OA
ATOM     14  O   UNL     1      -4.968  -6.296  -0.066  1.00  0.00    -0.550 OA
ENDBRANCH  11  12
ENDBRANCH  10  11
ENDBRANCH   9  10
ENDBRANCH   8   9
ENDBRANCH   7   8
ENDBRANCH   6   7
ENDBRANCH   5   6
ENDBRANCH   4   5
ENDBRANCH   3   4
ENDBRANCH   2   3
ENDBRANCH   1   2
BRANCH   1  15
ATOM     15  C   UNL     1       1.097   5.031  -0.982  1.00  0.00     0.000 C 
BRANCH  15  16
ATOM     16  C   UNL     1       2.393   5.629  -0.403  1.00  0.00     0.000 C 
BRANCH  16  17
ATOM     17  C   UNL     1       3.442   4.568  -0.000  1.00  0.00     0.000 C 
BRANCH  17  18
ATOM     18  C   UNL     1       3.321   3.283  -0.838  1.00  0.00    -0.000 C 
BRANCH  18  19
ATOM     19  C   UNL     1       3.580   2.011  -0.014  1.00  0.00    -0.000 C 
BRANCH  19  20
ATOM     20  C   UNL     1       3.179   0.729  -0.764  1.00  0.00    -0.000 C 
BRANCH  20  21
ATOM     21  C   UNL     1       2.284   1.008  -1.981  1.00  0.00    -0.000 C 
BRANCH  21  22
ATOM     22  C   UNL     1       1.389  -0.190  -2.350  1.00  0.00    -0.000 C 
BRANCH  22  23
ATOM     23  C   UNL     1       1.844  -1.494  -1.675  1.00  0.00    -0.000 C 
BRANCH  23  24
ATOM     24  C   UNL     1       0.770  -2.595  -1.733  1.00  0.00    -0.000 C 
BRANCH  24  25
ATOM     25  C   UNL     1       0.082  -2.815  -0.375  1.00  0.00    -0.003 C 
ATOM     26  C   UNL     1       0.052  -4.287   0.038  1.00  0.00     0.004 C 
ENDBRANCH  24  25
ENDBRANCH  23  24
ENDBRANCH  22  23
ENDBRANCH  21  22
ENDBRANCH  20  21
ENDBRANCH  19  20
ENDBRANCH  18  19
ENDBRANCH  17  18
ENDBRANCH  16  17
ENDBRANCH  15  16
ENDBRANCH   1  15
TORSDOF 22
ENDMDL
MODEL 8
REMARK VINA RESULT:     6.022      4.079      7.327
REMARK INTER + INTRA:          13.375
REMARK INTER:                  13.399
REMARK INTRA:                  -0.025
REMARK UNBOUND:                -0.393
REMARK SMILES CCCCCCCCCCCCCCCCCCCCCCCC(=O)[O-]
REMARK SMILES IDX 13 1 14 2 15 3 16 4 17 5 18 6 19 7 20 8 21 9 22 10 23 11
REMARK SMILES IDX 24 12 25 13 26 14 12 15 11 16 10 17 9 18 8 19 7 20 6 21 5 22
REMARK SMILES IDX 4 23 3 24 2 25 1 26
REMARK H PARENT
REMARK Flexibility Score: inf
ROOT
ATOM      1  C   UNL     1       0.396  -0.859   0.364  1.00  0.00     0.000 C 
ENDROOT
BRANCH   1   2
ATOM      2  C   UNL     1      -0.661   0.265   0.347  1.00  0.00     0.000 C 
BRANCH   2   3
ATOM      3  C   UNL     1      -0.633   1.177  -0.897  1.00  0.00     0.000 C 
BRANCH   3   4
ATOM      4  C   UNL     1      -1.703   0.869  -1.963  1.00  0.00     0.000 C 
BRANCH   4   5
ATOM      5  C   UNL     1      -1.967  -0.638  -2.128  1.00  0.00     0.000 C 
BRANCH   5   6
ATOM      6  C   UNL     1      -3.131  -1.136  -1.254  1.00  0.00     0.000 C 
BRANCH   6   7
ATOM      7  C   UNL     1      -3.281  -2.669  -1.172  1.00  0.00     0.000 C 
BRANCH   7   8
ATOM      8  C   UNL     1      -2.877  -3.293   0.175  1.00  0.00     0.000 C 
BRANCH   8   9
ATOM      9  C   UNL     1      -1.490  -3.957   0.132  1.00  0.00     0.000 C 
BRANCH   9  10
ATOM     10  C   UNL     1      -1.518  -5.343  -0.529  1.00  0.00     0.006 C 
BRANCH  10  11
ATOM     11  C   UNL     1      -2.796  -5.580  -1.345  1.00  0.00     0.053 C 
BRANCH  11  12
ATOM     12  C   UNL     1      -3.708  -6.529  -0.632  1.00  0.00     0.041 C 
ATOM     13  O   UNL     1      -3.508  -7.771  -0.695  1.00  0.00    -0.550 OA
ATOM     14  O   UNL     1      -4.781  -6.041   0.106  1.00  0.00    -0.550 OA
ENDBRANCH  11  12
ENDBRANCH  10  11
ENDBRANCH   9  10
ENDBRANCH   8   9
ENDBRANCH   7   8
ENDBRANCH   6   7
ENDBRANCH   5   6
ENDBRANCH   4   5
ENDBRANCH   3   4
ENDBRANCH   2   3
ENDBRANCH   1   2
BRANCH   1  15
ATOM     15  C   UNL     1       0.311  -1.844  -0.815  1.00  0.00     0.000 C 
BRANCH  15  16
ATOM     16  C   UNL     1       1.303  -1.568  -1.961  1.00  0.00     0.000 C 
BRANCH  16  17
ATOM     17  C   UNL     1       2.325  -0.454  -1.644  1.00  0.00     0.000 C 
BRANCH  17  18
ATOM     18  C   UNL     1       2.070   0.821  -2.468  1.00  0.00    -0.000 C 
BRANCH  18  19
ATOM     19  C   UNL     1       2.683   2.075  -1.824  1.00  0.00    -0.000 C 
BRANCH  19  20
ATOM     20  C   UNL     1       2.975   1.889  -0.324  1.00  0.00    -0.000 C 
BRANCH  20  21
ATOM     21  C   UNL     1       2.835   3.194   0.475  1.00  0.00    -0.000 C 
BRANCH  21  22
ATOM     22  C   UNL     1       1.370   3.638   0.640  1.00  0.00    -0.000 C 
BRANCH  22  23
ATOM     23  C   UNL     1       0.985   4.767  -0.330  1.00  0.00    -0.000 C 
BRANCH  23  24
ATOM     24  C   UNL     1       2.193   5.307  -1.117  1.00  0.00    -0.000 C 
BRANCH  24  25
ATOM     25  C   UNL     1       2.934   6.423  -0.362  1.00  0.00    -0.003 C 
ATOM     26  C   UNL     1       4.382   6.052  -0.038  1.00  0.00     0.004 C 
ENDBRANCH  24  25
ENDBRANCH  23  24
ENDBRANCH  22  23
ENDBRANCH  21  22
ENDBRANCH  20  21
ENDBRANCH  19  20
ENDBRANCH  18  19
ENDBRANCH  17  18
ENDBRANCH  16  17
ENDBRANCH  15  16
ENDBRANCH   1  15
TORSDOF 22
ENDMDL
MODEL 9
REMARK VINA RESULT:     6.250      1.115      5.476
REMARK INTER + INTRA:          13.895
REMARK INTER:                  14.776
REMARK INTRA:                  -0.881
REMARK UNBOUND:                -0.393
REMARK SMILES CCCCCCCCCCCCCCCCCCCCCCCC(=O)[O-]
REMARK SMILES IDX 13 1 14 2 15 3 16 4 17 5 18 6 19 7 20 8 21 9 22 10 23 11
REMARK SMILES IDX 24 12 25 13 26 14 12 15 11 16 10 17 9 18 8 19 7 20 6 21 5 22
REMARK SMILES IDX 4 23 3 24 2 25 1 26
REMARK H PARENT
REMARK Flexibility Score: inf
ROOT
ATOM      1  C   UNL     1      -0.385   1.391  -0.536  1.00  0.00     0.000 C 
ENDROOT
BRANCH   1   2
ATOM      2  C   UNL     1      -0.435   0.336   0.588  1.00  0.00     0.000 C 
BRANCH   2   3
ATOM      3  C   UNL     1       0.497  -0.878   0.394  1.00  0.00     0.000 C 
BRANCH   3   4
ATOM      4  C   UNL     1       0.393  -1.575  -0.976  1.00  0.00     0.000 C 
BRANCH   4   5
ATOM      5  C   UNL     1       1.558  -1.223  -1.916  1.00  0.00     0.000 C 
BRANCH   5   6
ATOM      6  C   UNL     1       1.997   0.247  -1.794  1.00  0.00     0.000 C 
BRANCH   6   7
ATOM      7  C   UNL     1       3.293   0.481  -0.991  1.00  0.00     0.000 C 
BRANCH   7   8
ATOM      8  C   UNL     1       3.432   1.884  -0.374  1.00  0.00     0.000 C 
BRANCH   8   9
ATOM      9  C   UNL     1       2.594   2.945  -1.110  1.00  0.00     0.000 C 
BRANCH   9  10
ATOM     10  C   UNL     1       2.043   4.023  -0.165  1.00  0.00     0.006 C 
BRANCH  10  11
ATOM     11  C   UNL     1       2.188   5.438  -0.739  1.00  0.00     0.053 C 
BRANCH  11  12
ATOM     12  C   UNL     1       3.484   6.051  -0.311  1.00  0.00     0.041 C 
ATOM     13  O   UNL     1       3.682   7.286  -0.457  1.00  0.00    -0.550 OA
ATOM     14  O   UNL     1       4.477   5.257   0.253  1.00  0.00    -0.550 OA
ENDBRANCH  11  12
ENDBRANCH  10  11
ENDBRANCH   9  10
ENDBRANCH   8   9
ENDBRANCH   7   8
ENDBRANCH   6   7
ENDBRANCH   5   6
ENDBRANCH   4   5
ENDBRANCH   3   4
ENDBRANCH   2   3
ENDBRANCH   1   2
BRANCH   1  15
ATOM     15  C   UNL     1      -1.583   1.363  -1.502  1.00  0.00     0.000 C 
BRANCH  15  16
ATOM     16  C   UNL     1      -1.491   0.303  -2.616  1.00  0.00     0.000 C 
BRANCH  16  17
ATOM     17  C   UNL     1      -2.231  -1.013  -2.285  1.00  0.00     0.000 C 
BRANCH  17  18
ATOM     18  C   UNL     1      -3.352  -0.806  -1.252  1.00  0.00    -0.000 C 
BRANCH  18  19
ATOM     19  C   UNL     1      -3.407  -1.930  -0.204  1.00  0.00    -0.000 C 
BRANCH  19  20
ATOM     20  C   UNL     1      -2.834  -3.258  -0.729  1.00  0.00    -0.000 C 
BRANCH  20  21
ATOM     21  C   UNL     1      -1.608  -3.732   0.067  1.00  0.00    -0.000 C 
BRANCH  21  22
ATOM     22  C   UNL     1      -1.215  -5.185  -0.254  1.00  0.00    -0.000 C 
BRANCH  22  23
ATOM     23  C   UNL     1      -2.105  -5.809  -1.342  1.00  0.00    -0.000 C 
BRANCH  23  24
ATOM     24  C   UNL     1      -3.146  -6.785  -0.765  1.00  0.00    -0.000 C 
BRANCH  24  25
ATOM     25  C   UNL     1      -4.480  -6.094  -0.438  1.00  0.00    -0.003 C 
ATOM     26  C   UNL     1      -4.887  -6.263   1.027  1.00  0.00     0.004 C 
ENDBRANCH  24  25
ENDBRANCH  23  24
ENDBRANCH  22  23
ENDBRANCH  21  22
ENDBRANCH  20  21
ENDBRANCH  19  20
ENDBRANCH  18  19
ENDBRANCH  17  18
ENDBRANCH  16  17
ENDBRANCH  15  16
ENDBRANCH   1  15
TORSDOF 22
ENDMDL
