MODEL 1
REMARK VINA RESULT:    -5.072      0.000      0.000
REMARK INTER + INTRA:          -5.072
REMARK INTER:                  -5.072
REMARK INTRA:                   0.000
REMARK UNBOUND:                 0.000
REMARK SMILES CC(C)=C1CC[C@H](C)CC1=O
REMARK SMILES IDX 8 1 7 2 6 3 5 4 4 5 2 6 1 7 3 8 10 9 11 10 9 11
REMARK H PARENT
REMARK Flexibility Score: inf
ROOT
ATOM      1  C   UNL     1     138.003 185.684 193.075  1.00  0.00     0.008 C 
ATOM      2  C   UNL     1     137.977 186.340 191.685  1.00  0.00    -0.006 C 
ATOM      3  C   UNL     1     138.696 185.487 190.624  1.00  0.00     0.008 C 
ATOM      4  C   UNL     1     137.976 184.162 190.329  1.00  0.00     0.039 C 
ATOM      5  C   UNL     1     136.487 184.341 190.060  1.00  0.00    -0.006 C 
ATOM      6  C   UNL     1     135.812 183.492 189.231  1.00  0.00    -0.070 C 
ATOM      7  C   UNL     1     134.348 183.689 188.911  1.00  0.00     0.039 C 
ATOM      8  C   UNL     1     136.510 182.330 188.562  1.00  0.00     0.039 C 
ATOM      9  C   UNL     1     135.799 185.412 190.840  1.00  0.00     0.159 C 
ATOM     10  O   UNL     1     134.596 185.292 191.194  1.00  0.00    -0.295 OA
ATOM     11  C   UNL     1     136.544 186.655 191.232  1.00  0.00     0.084 C 
ENDROOT
TORSDOF 0
ENDMDL
MODEL 2
REMARK VINA RESULT:    -4.984      0.982      1.081
REMARK INTER + INTRA:          -4.984
REMARK INTER:                  -4.984
REMARK INTRA:                   0.000
REMARK UNBOUND:                 0.000
REMARK SMILES CC(C)=C1CC[C@H](C)CC1=O
REMARK SMILES IDX 8 1 7 2 6 3 5 4 4 5 2 6 1 7 3 8 10 9 11 10 9 11
REMARK H PARENT
REMARK Flexibility Score: inf
ROOT
ATOM      1  C   UNL     1     137.588 184.287 192.739  1.00  0.00     0.008 C 
ATOM      2  C   UNL     1     137.733 185.142 191.470  1.00  0.00    -0.006 C 
ATOM      3  C   UNL     1     138.351 184.354 190.302  1.00  0.00     0.008 C 
ATOM      4  C   UNL     1     137.440 183.229 189.786  1.00  0.00     0.039 C 
ATOM      5  C   UNL     1     136.014 183.695 189.519  1.00  0.00    -0.006 C 
ATOM      6  C   UNL     1     135.248 183.107 188.554  1.00  0.00    -0.070 C 
ATOM      7  C   UNL     1     133.852 183.595 188.239  1.00  0.00     0.039 C 
ATOM      8  C   UNL     1     135.778 181.961 187.722  1.00  0.00     0.039 C 
ATOM      9  C   UNL     1     135.474 184.733 190.446  1.00  0.00     0.159 C 
ATOM     10  O   UNL     1     134.252 184.764 190.753  1.00  0.00    -0.295 OA
ATOM     11  C   UNL     1     136.392 185.759 191.044  1.00  0.00     0.084 C 
ENDROOT
TORSDOF 0
ENDMDL
MODEL 3
REMARK VINA RESULT:    -4.888      1.078      1.224
REMARK INTER + INTRA:          -4.888
REMARK INTER:                  -4.888
REMARK INTRA:                   0.000
REMARK UNBOUND:                 0.000
REMARK SMILES CC(C)=C1CC[C@H](C)CC1=O
REMARK SMILES IDX 8 1 7 2 6 3 5 4 4 5 2 6 1 7 3 8 10 9 11 10 9 11
REMARK H PARENT
REMARK Flexibility Score: inf
ROOT
ATOM      1  C   UNL     1     136.603 185.850 194.060  1.00  0.00     0.008 C 
ATOM      2  C   UNL     1     136.868 186.626 192.760  1.00  0.00    -0.006 C 
ATOM      3  C   UNL     1     138.128 186.128 192.030  1.00  0.00     0.008 C 
ATOM      4  C   UNL     1     137.983 184.699 191.485  1.00  0.00     0.039 C 
ATOM      5  C   UNL     1     136.698 184.493 190.692  1.00  0.00    -0.006 C 
ATOM      6  C   UNL     1     136.636 183.590 189.670  1.00  0.00    -0.070 C 
ATOM      7  C   UNL     1     135.387 183.414 188.838  1.00  0.00     0.039 C 
ATOM      8  C   UNL     1     137.834 182.747 189.295  1.00  0.00     0.039 C 
ATOM      9  C   UNL     1     135.498 185.239 191.173  1.00  0.00     0.159 C 
ATOM     10  O   UNL     1     134.340 184.755 191.063  1.00  0.00    -0.295 OA
ATOM     11  C   UNL     1     135.656 186.586 191.816  1.00  0.00     0.084 C 
ENDROOT
TORSDOF 0
ENDMDL
MODEL 4
REMARK VINA RESULT:    -4.830      1.510      2.007
REMARK INTER + INTRA:          -4.830
REMARK INTER:                  -4.830
REMARK INTRA:                   0.000
REMARK UNBOUND:                 0.000
REMARK SMILES CC(C)=C1CC[C@H](C)CC1=O
REMARK SMILES IDX 8 1 7 2 6 3 5 4 4 5 2 6 1 7 3 8 10 9 11 10 9 11
REMARK H PARENT
REMARK Flexibility Score: inf
ROOT
ATOM      1  C   UNL     1     136.923 183.657 192.202  1.00  0.00     0.008 C 
ATOM      2  C   UNL     1     137.264 184.500 190.964  1.00  0.00    -0.006 C 
ATOM      3  C   UNL     1     138.021 183.688 189.896  1.00  0.00     0.008 C 
ATOM      4  C   UNL     1     137.163 182.582 189.261  1.00  0.00     0.039 C 
ATOM      5  C   UNL     1     135.801 183.080 188.796  1.00  0.00    -0.006 C 
ATOM      6  C   UNL     1     135.163 182.505 187.735  1.00  0.00    -0.070 C 
ATOM      7  C   UNL     1     133.837 183.023 187.227  1.00  0.00     0.039 C 
ATOM      8  C   UNL     1     135.776 181.340 186.990  1.00  0.00     0.039 C 
ATOM      9  C   UNL     1     135.162 184.137 189.634  1.00  0.00     0.159 C 
ATOM     10  O   UNL     1     133.910 184.200 189.767  1.00  0.00    -0.295 OA
ATOM     11  C   UNL     1     136.012 185.146 190.352  1.00  0.00     0.084 C 
ENDROOT
TORSDOF 0
ENDMDL
MODEL 5
REMARK VINA RESULT:    -4.785      1.703      4.134
REMARK INTER + INTRA:          -4.785
REMARK INTER:                  -4.785
REMARK INTRA:                   0.000
REMARK UNBOUND:                 0.000
REMARK SMILES CC(C)=C1CC[C@H](C)CC1=O
REMARK SMILES IDX 8 1 7 2 6 3 5 4 4 5 2 6 1 7 3 8 10 9 11 10 9 11
REMARK H PARENT
REMARK Flexibility Score: inf
ROOT
ATOM      1  C   UNL     1     136.256 181.586 189.837  1.00  0.00     0.008 C 
ATOM      2  C   UNL     1     136.616 182.922 189.168  1.00  0.00    -0.006 C 
ATOM      3  C   UNL     1     135.387 183.831 188.984  1.00  0.00     0.008 C 
ATOM      4  C   UNL     1     134.800 184.327 190.314  1.00  0.00     0.039 C 
ATOM      5  C   UNL     1     135.854 184.908 191.248  1.00  0.00    -0.006 C 
ATOM      6  C   UNL     1     135.542 185.896 192.138  1.00  0.00    -0.070 C 
ATOM      7  C   UNL     1     136.587 186.522 193.032  1.00  0.00     0.039 C 
ATOM      8  C   UNL     1     134.135 186.440 192.243  1.00  0.00     0.039 C 
ATOM      9  C   UNL     1     137.197 184.258 191.216  1.00  0.00     0.159 C 
ATOM     10  O   UNL     1     137.912 184.180 192.251  1.00  0.00    -0.295 OA
ATOM     11  C   UNL     1     137.717 183.666 189.938  1.00  0.00     0.084 C 
ENDROOT
TORSDOF 0
ENDMDL
MODEL 6
REMARK VINA RESULT:    -4.694      1.907      2.926
REMARK INTER + INTRA:          -4.694
REMARK INTER:                  -4.694
REMARK INTRA:                   0.000
REMARK UNBOUND:                 0.000
REMARK SMILES CC(C)=C1CC[C@H](C)CC1=O
REMARK SMILES IDX 8 1 7 2 6 3 5 4 4 5 2 6 1 7 3 8 10 9 11 10 9 11
REMARK H PARENT
REMARK Flexibility Score: inf
ROOT
ATOM      1  C   UNL     1     137.254 186.400 190.641  1.00  0.00     0.008 C 
ATOM      2  C   UNL     1     136.593 185.220 191.371  1.00  0.00    -0.006 C 
ATOM      3  C   UNL     1     135.155 184.965 190.883  1.00  0.00     0.008 C 
ATOM      4  C   UNL     1     135.090 184.474 189.429  1.00  0.00     0.039 C 
ATOM      5  C   UNL     1     136.043 183.317 189.149  1.00  0.00    -0.006 C 
ATOM      6  C   UNL     1     135.753 182.376 188.204  1.00  0.00    -0.070 C 
ATOM      7  C   UNL     1     136.660 181.193 187.954  1.00  0.00     0.039 C 
ATOM      8  C   UNL     1     134.484 182.454 187.384  1.00  0.00     0.039 C 
ATOM      9  C   UNL     1     137.346 183.345 189.876  1.00  0.00     0.159 C 
ATOM     10  O   UNL     1     138.397 182.888 189.351  1.00  0.00    -0.295 OA
ATOM     11  C   UNL     1     137.429 183.937 191.253  1.00  0.00     0.084 C 
ENDROOT
TORSDOF 0
ENDMDL
MODEL 7
REMARK VINA RESULT:    -4.552      2.536      5.597
REMARK INTER + INTRA:          -4.552
REMARK INTER:                  -4.552
REMARK INTRA:                   0.000
REMARK UNBOUND:                 0.000
REMARK SMILES CC(C)=C1CC[C@H](C)CC1=O
REMARK SMILES IDX 8 1 7 2 6 3 5 4 4 5 2 6 1 7 3 8 10 9 11 10 9 11
REMARK H PARENT
REMARK Flexibility Score: inf
ROOT
ATOM      1  C   UNL     1     132.546 181.342 187.071  1.00  0.00     0.008 C 
ATOM      2  C   UNL     1     133.518 182.257 186.309  1.00  0.00    -0.006 C 
ATOM      3  C   UNL     1     133.467 183.711 186.813  1.00  0.00     0.008 C 
ATOM      4  C   UNL     1     133.991 183.869 188.249  1.00  0.00     0.039 C 
ATOM      5  C   UNL     1     135.341 183.196 188.465  1.00  0.00    -0.006 C 
ATOM      6  C   UNL     1     136.233 183.680 189.380  1.00  0.00    -0.070 C 
ATOM      7  C   UNL     1     137.597 183.057 189.567  1.00  0.00     0.039 C 
ATOM      8  C   UNL     1     135.909 184.891 190.225  1.00  0.00     0.039 C 
ATOM      9  C   UNL     1     135.574 181.926 187.716  1.00  0.00     0.159 C 
ATOM     10  O   UNL     1     136.275 180.999 188.203  1.00  0.00    -0.295 OA
ATOM     11  C   UNL     1     134.959 181.727 186.362  1.00  0.00     0.084 C 
ENDROOT
TORSDOF 0
ENDMDL
MODEL 8
REMARK VINA RESULT:    -4.268      2.214      3.230
REMARK INTER + INTRA:          -4.268
REMARK INTER:                  -4.268
REMARK INTRA:                   0.000
REMARK UNBOUND:                 0.000
REMARK SMILES CC(C)=C1CC[C@H](C)CC1=O
REMARK SMILES IDX 8 1 7 2 6 3 5 4 4 5 2 6 1 7 3 8 10 9 11 10 9 11
REMARK H PARENT
REMARK Flexibility Score: inf
ROOT
ATOM      1  C   UNL     1     135.005 184.112 191.377  1.00  0.00     0.008 C 
ATOM      2  C   UNL     1     135.724 184.676 190.141  1.00  0.00    -0.006 C 
ATOM      3  C   UNL     1     137.181 184.188 190.041  1.00  0.00     0.008 C 
ATOM      4  C   UNL     1     137.293 182.679 189.774  1.00  0.00     0.039 C 
ATOM      5  C   UNL     1     136.414 182.212 188.621  1.00  0.00    -0.006 C 
ATOM      6  C   UNL     1     136.771 181.145 187.847  1.00  0.00    -0.070 C 
ATOM      7  C   UNL     1     135.937 180.704 186.665  1.00  0.00     0.039 C 
ATOM      8  C   UNL     1     138.043 180.374 188.115  1.00  0.00     0.039 C 
ATOM      9  C   UNL     1     135.101 182.906 188.468  1.00  0.00     0.159 C 
ATOM     10  O   UNL     1     134.085 182.297 188.036  1.00  0.00    -0.295 OA
ATOM     11  C   UNL     1     134.965 184.353 188.845  1.00  0.00     0.084 C 
ENDROOT
TORSDOF 0
ENDMDL
MODEL 9
REMARK VINA RESULT:    -4.260      2.517      5.493
REMARK INTER + INTRA:          -4.260
REMARK INTER:                  -4.260
REMARK INTRA:                   0.000
REMARK UNBOUND:                 0.000
REMARK SMILES CC(C)=C1CC[C@H](C)CC1=O
REMARK SMILES IDX 8 1 7 2 6 3 5 4 4 5 2 6 1 7 3 8 10 9 11 10 9 11
REMARK H PARENT
REMARK Flexibility Score: inf
ROOT
ATOM      1  C   UNL     1     136.635 179.899 185.712  1.00  0.00     0.008 C 
ATOM      2  C   UNL     1     135.937 179.613 187.051  1.00  0.00    -0.006 C 
ATOM      3  C   UNL     1     136.904 179.714 188.245  1.00  0.00     0.008 C 
ATOM      4  C   UNL     1     137.414 181.143 188.488  1.00  0.00     0.039 C 
ATOM      5  C   UNL     1     136.294 182.176 188.521  1.00  0.00    -0.006 C 
ATOM      6  C   UNL     1     136.401 183.309 189.275  1.00  0.00    -0.070 C 
ATOM      7  C   UNL     1     135.276 184.316 189.362  1.00  0.00     0.039 C 
ATOM      8  C   UNL     1     137.640 183.593 190.093  1.00  0.00     0.039 C 
ATOM      9  C   UNL     1     135.145 181.935 187.598  1.00  0.00     0.159 C 
ATOM     10  O   UNL     1     134.517 182.892 187.072  1.00  0.00    -0.295 OA
ATOM     11  C   UNL     1     134.726 180.532 187.269  1.00  0.00     0.084 C 
ENDROOT
TORSDOF 0
ENDMDL
