MODEL 1
REMARK VINA RESULT:    -4.795      0.000      0.000
REMARK INTER + INTRA:          -7.108
REMARK INTER:                  -6.757
REMARK INTRA:                  -0.351
REMARK UNBOUND:                -0.351
REMARK SMILES CCCCCCCCC(=O)[O-]
REMARK SMILES IDX 6 1 7 2 8 3 9 4 10 5 11 6 5 7 4 8 3 9 2 10 1 11
REMARK H PARENT
REMARK Flexibility Score: inf
ROOT
ATOM      1  C   UNL     1      -5.090   6.636   6.882  1.00  0.00     0.000 C 
ENDROOT
BRANCH   1   2
ATOM      2  C   UNL     1      -6.069   6.966   8.024  1.00  0.00     0.006 C 
BRANCH   2   3
ATOM      3  C   UNL     1      -6.929   5.779   8.486  1.00  0.00     0.053 C 
BRANCH   3   4
ATOM      4  C   UNL     1      -8.354   5.912   8.046  1.00  0.00     0.041 C 
ATOM      5  O   UNL     1      -8.902   7.045   8.009  1.00  0.00    -0.550 OA
ATOM      6  O   UNL     1      -9.085   4.782   7.704  1.00  0.00    -0.550 OA
ENDBRANCH   3   4
ENDBRANCH   2   3
ENDBRANCH   1   2
BRANCH   1   7
ATOM      7  C   UNL     1      -4.388   7.884   6.321  1.00  0.00     0.000 C 
BRANCH   7   8
ATOM      8  C   UNL     1      -3.723   7.636   4.955  1.00  0.00    -0.000 C 
BRANCH   8   9
ATOM      9  C   UNL     1      -3.749   6.174   4.470  1.00  0.00    -0.000 C 
BRANCH   9  10
ATOM     10  C   UNL     1      -2.415   5.446   4.687  1.00  0.00    -0.003 C 
ATOM     11  C   UNL     1      -2.592   4.235   5.599  1.00  0.00     0.004 C 
ENDBRANCH   9  10
ENDBRANCH   8   9
ENDBRANCH   7   8
ENDBRANCH   1   7
TORSDOF 7
ENDMDL
MODEL 2
REMARK VINA RESULT:    -4.793      3.368      5.536
REMARK INTER + INTRA:          -7.106
REMARK INTER:                  -6.859
REMARK INTRA:                  -0.247
REMARK UNBOUND:                -0.351
REMARK SMILES CCCCCCCCC(=O)[O-]
REMARK SMILES IDX 6 1 7 2 8 3 9 4 10 5 11 6 5 7 4 8 3 9 2 10 1 11
REMARK H PARENT
REMARK Flexibility Score: inf
ROOT
ATOM      1  C   UNL     1      -3.464   6.795   4.696  1.00  0.00     0.000 C 
ENDROOT
BRANCH   1   2
ATOM      2  C   UNL     1      -3.494   5.270   4.906  1.00  0.00     0.006 C 
BRANCH   2   3
ATOM      3  C   UNL     1      -2.150   4.663   5.344  1.00  0.00     0.053 C 
BRANCH   3   4
ATOM      4  C   UNL     1      -2.312   3.281   5.897  1.00  0.00     0.041 C 
ATOM      5  O   UNL     1      -2.021   3.042   7.098  1.00  0.00    -0.550 OA
ATOM      6  O   UNL     1      -2.755   2.252   5.077  1.00  0.00    -0.550 OA
ENDBRANCH   3   4
ENDBRANCH   2   3
ENDBRANCH   1   2
BRANCH   1   7
ATOM      7  C   UNL     1      -4.254   7.558   5.774  1.00  0.00     0.000 C 
BRANCH   7   8
ATOM      8  C   UNL     1      -5.010   6.625   6.737  1.00  0.00    -0.000 C 
BRANCH   8   9
ATOM      9  C   UNL     1      -5.604   7.309   7.983  1.00  0.00    -0.000 C 
BRANCH   9  10
ATOM     10  C   UNL     1      -6.907   6.654   8.462  1.00  0.00    -0.003 C 
ATOM     11  C   UNL     1      -7.719   7.615   9.327  1.00  0.00     0.004 C 
ENDBRANCH   9  10
ENDBRANCH   8   9
ENDBRANCH   7   8
ENDBRANCH   1   7
TORSDOF 7
ENDMDL
MODEL 3
REMARK VINA RESULT:    -4.421      3.161      5.506
REMARK INTER + INTRA:          -6.581
REMARK INTER:                  -6.355
REMARK INTRA:                  -0.226
REMARK UNBOUND:                -0.351
REMARK SMILES CCCCCCCCC(=O)[O-]
REMARK SMILES IDX 6 1 7 2 8 3 9 4 10 5 11 6 5 7 4 8 3 9 2 10 1 11
REMARK H PARENT
REMARK Flexibility Score: inf
ROOT
ATOM      1  C   UNL     1      -4.304   7.983   6.266  1.00  0.00     0.000 C 
ENDROOT
BRANCH   1   2
ATOM      2  C   UNL     1      -3.690   7.528   4.929  1.00  0.00     0.006 C 
BRANCH   2   3
ATOM      3  C   UNL     1      -3.885   6.035   4.617  1.00  0.00     0.053 C 
BRANCH   3   4
ATOM      4  C   UNL     1      -2.727   5.208   5.085  1.00  0.00     0.041 C 
ATOM      5  O   UNL     1      -1.588   5.366   4.574  1.00  0.00    -0.550 OA
ATOM      6  O   UNL     1      -2.914   4.243   6.066  1.00  0.00    -0.550 OA
ENDBRANCH   3   4
ENDBRANCH   2   3
ENDBRANCH   1   2
BRANCH   1   7
ATOM      7  C   UNL     1      -5.160   6.890   6.930  1.00  0.00     0.000 C 
BRANCH   7   8
ATOM      8  C   UNL     1      -5.860   7.373   8.212  1.00  0.00    -0.000 C 
BRANCH   8   9
ATOM      9  C   UNL     1      -6.861   6.378   8.828  1.00  0.00    -0.000 C 
BRANCH   9  10
ATOM     10  C   UNL     1      -8.300   6.590   8.333  1.00  0.00    -0.003 C 
ATOM     11  C   UNL     1      -8.887   5.295   7.779  1.00  0.00     0.004 C 
ENDBRANCH   9  10
ENDBRANCH   8   9
ENDBRANCH   7   8
ENDBRANCH   1   7
TORSDOF 7
ENDMDL
MODEL 4
REMARK VINA RESULT:    -4.165     18.472     19.824
REMARK INTER + INTRA:          -6.220
REMARK INTER:                  -5.604
REMARK INTRA:                  -0.616
REMARK UNBOUND:                -0.351
REMARK SMILES CCCCCCCCC(=O)[O-]
REMARK SMILES IDX 6 1 7 2 8 3 9 4 10 5 11 6 5 7 4 8 3 9 2 10 1 11
REMARK H PARENT
REMARK Flexibility Score: inf
ROOT
ATOM      1  C   UNL     1       0.512  -4.998  -6.093  1.00  0.00     0.000 C 
ENDROOT
BRANCH   1   2
ATOM      2  C   UNL     1       1.890  -5.039  -6.779  1.00  0.00     0.006 C 
BRANCH   2   3
ATOM      3  C   UNL     1       1.859  -4.724  -8.284  1.00  0.00     0.053 C 
BRANCH   3   4
ATOM      4  C   UNL     1       2.326  -5.883  -9.109  1.00  0.00     0.041 C 
ATOM      5  O   UNL     1       1.492  -6.607  -9.714  1.00  0.00    -0.550 OA
ATOM      6  O   UNL     1       3.680  -6.181  -9.187  1.00  0.00    -0.550 OA
ENDBRANCH   3   4
ENDBRANCH   2   3
ENDBRANCH   1   2
BRANCH   1   7
ATOM      7  C   UNL     1      -0.636  -4.726  -7.081  1.00  0.00     0.000 C 
BRANCH   7   8
ATOM      8  C   UNL     1      -1.253  -3.326  -6.911  1.00  0.00    -0.000 C 
BRANCH   8   9
ATOM      9  C   UNL     1      -1.336  -2.485  -8.199  1.00  0.00    -0.000 C 
BRANCH   9  10
ATOM     10  C   UNL     1      -0.120  -1.568  -8.395  1.00  0.00    -0.003 C 
ATOM     11  C   UNL     1       0.378  -1.617  -9.837  1.00  0.00     0.004 C 
ENDBRANCH   9  10
ENDBRANCH   8   9
ENDBRANCH   7   8
ENDBRANCH   1   7
TORSDOF 7
ENDMDL
MODEL 5
REMARK VINA RESULT:    -4.065     15.707     17.964
REMARK INTER + INTRA:          -6.080
REMARK INTER:                  -5.733
REMARK INTRA:                  -0.347
REMARK UNBOUND:                -0.351
REMARK SMILES CCCCCCCCC(=O)[O-]
REMARK SMILES IDX 6 1 7 2 8 3 9 4 10 5 11 6 5 7 4 8 3 9 2 10 1 11
REMARK H PARENT
REMARK Flexibility Score: inf
ROOT
ATOM      1  C   UNL     1       7.531   5.762  -4.788  1.00  0.00     0.000 C 
ENDROOT
BRANCH   1   2
ATOM      2  C   UNL     1       6.914   5.223  -3.485  1.00  0.00     0.006 C 
BRANCH   2   3
ATOM      3  C   UNL     1       7.650   5.659  -2.207  1.00  0.00     0.053 C 
BRANCH   3   4
ATOM      4  C   UNL     1       7.763   4.543  -1.215  1.00  0.00     0.041 C 
ATOM      5  O   UNL     1       6.727   3.992  -0.760  1.00  0.00    -0.550 OA
ATOM      6  O   UNL     1       9.013   4.131  -0.772  1.00  0.00    -0.550 OA
ENDBRANCH   3   4
ENDBRANCH   2   3
ENDBRANCH   1   2
BRANCH   1   7
ATOM      7  C   UNL     1       9.063   5.618  -4.825  1.00  0.00     0.000 C 
BRANCH   7   8
ATOM      8  C   UNL     1       9.577   5.023  -6.148  1.00  0.00    -0.000 C 
BRANCH   8   9
ATOM      9  C   UNL     1       8.489   4.698  -7.188  1.00  0.00    -0.000 C 
BRANCH   9  10
ATOM     10  C   UNL     1       8.978   3.749  -8.292  1.00  0.00    -0.003 C 
ATOM     11  C   UNL     1       9.995   2.749  -7.747  1.00  0.00     0.004 C 
ENDBRANCH   9  10
ENDBRANCH   8   9
ENDBRANCH   7   8
ENDBRANCH   1   7
TORSDOF 7
ENDMDL
MODEL 6
REMARK VINA RESULT:    -3.973     17.909     19.702
REMARK INTER + INTRA:          -5.950
REMARK INTER:                  -5.410
REMARK INTRA:                  -0.540
REMARK UNBOUND:                -0.351
REMARK SMILES CCCCCCCCC(=O)[O-]
REMARK SMILES IDX 6 1 7 2 8 3 9 4 10 5 11 6 5 7 4 8 3 9 2 10 1 11
REMARK H PARENT
REMARK Flexibility Score: inf
ROOT
ATOM      1  C   UNL     1       0.051  -6.692  -7.909  1.00  0.00     0.000 C 
ENDROOT
BRANCH   1   2
ATOM      2  C   UNL     1       0.576  -6.141  -6.571  1.00  0.00     0.006 C 
BRANCH   2   3
ATOM      3  C   UNL     1       1.761  -5.170  -6.706  1.00  0.00     0.053 C 
BRANCH   3   4
ATOM      4  C   UNL     1       2.205  -5.020  -8.128  1.00  0.00     0.041 C 
ATOM      5  O   UNL     1       2.982  -5.867  -8.641  1.00  0.00    -0.550 OA
ATOM      6  O   UNL     1       1.784  -3.929  -8.876  1.00  0.00    -0.550 OA
ENDBRANCH   3   4
ENDBRANCH   2   3
ENDBRANCH   1   2
BRANCH   1   7
ATOM      7  C   UNL     1      -1.441  -6.389  -8.132  1.00  0.00     0.000 C 
BRANCH   7   8
ATOM      8  C   UNL     1      -1.702  -4.926  -8.537  1.00  0.00    -0.000 C 
BRANCH   8   9
ATOM      9  C   UNL     1      -2.290  -4.034  -7.428  1.00  0.00    -0.000 C 
BRANCH   9  10
ATOM     10  C   UNL     1      -1.293  -2.986  -6.910  1.00  0.00    -0.003 C 
ATOM     11  C   UNL     1      -0.993  -1.938  -7.978  1.00  0.00     0.004 C 
ENDBRANCH   9  10
ENDBRANCH   8   9
ENDBRANCH   7   8
ENDBRANCH   1   7
TORSDOF 7
ENDMDL
MODEL 7
REMARK VINA RESULT:    -3.950     16.598     18.878
REMARK INTER + INTRA:          -5.917
REMARK INTER:                  -5.472
REMARK INTRA:                  -0.445
REMARK UNBOUND:                -0.351
REMARK SMILES CCCCCCCCC(=O)[O-]
REMARK SMILES IDX 6 1 7 2 8 3 9 4 10 5 11 6 5 7 4 8 3 9 2 10 1 11
REMARK H PARENT
REMARK Flexibility Score: inf
ROOT
ATOM      1  C   UNL     1       7.639   6.251  -6.626  1.00  0.00     0.000 C 
ENDROOT
BRANCH   1   2
ATOM      2  C   UNL     1       8.030   5.447  -5.373  1.00  0.00     0.006 C 
BRANCH   2   3
ATOM      3  C   UNL     1       8.085   6.275  -4.079  1.00  0.00     0.053 C 
BRANCH   3   4
ATOM      4  C   UNL     1       6.947   5.956  -3.160  1.00  0.00     0.041 C 
ATOM      5  O   UNL     1       6.336   4.861  -3.264  1.00  0.00    -0.550 OA
ATOM      6  O   UNL     1       6.542   6.882  -2.208  1.00  0.00    -0.550 OA
ENDBRANCH   3   4
ENDBRANCH   2   3
ENDBRANCH   1   2
BRANCH   1   7
ATOM      7  C   UNL     1       7.686   5.408  -7.913  1.00  0.00     0.000 C 
BRANCH   7   8
ATOM      8  C   UNL     1       8.904   5.730  -8.797  1.00  0.00    -0.000 C 
BRANCH   8   9
ATOM      9  C   UNL     1       9.830   4.537  -9.099  1.00  0.00    -0.000 C 
BRANCH   9  10
ATOM     10  C   UNL     1       9.297   3.208  -8.543  1.00  0.00    -0.003 C 
ATOM     11  C   UNL     1      10.333   2.532  -7.649  1.00  0.00     0.004 C 
ENDBRANCH   9  10
ENDBRANCH   8   9
ENDBRANCH   7   8
ENDBRANCH   1   7
TORSDOF 7
ENDMDL
MODEL 8
REMARK VINA RESULT:    -3.797     18.113     18.930
REMARK INTER + INTRA:          -5.702
REMARK INTER:                  -5.032
REMARK INTRA:                  -0.670
REMARK UNBOUND:                -0.351
REMARK SMILES CCCCCCCCC(=O)[O-]
REMARK SMILES IDX 6 1 7 2 8 3 9 4 10 5 11 6 5 7 4 8 3 9 2 10 1 11
REMARK H PARENT
REMARK Flexibility Score: inf
ROOT
ATOM      1  C   UNL     1      -1.780  -3.800  -7.083  1.00  0.00     0.000 C 
ENDROOT
BRANCH   1   2
ATOM      2  C   UNL     1      -0.691  -4.883  -7.197  1.00  0.00     0.006 C 
BRANCH   2   3
ATOM      3  C   UNL     1       0.574  -4.599  -6.371  1.00  0.00     0.053 C 
BRANCH   3   4
ATOM      4  C   UNL     1       1.809  -5.120  -7.039  1.00  0.00     0.041 C 
ATOM      5  O   UNL     1       2.864  -5.292  -6.374  1.00  0.00    -0.550 OA
ATOM      6  O   UNL     1       1.802  -5.388  -8.401  1.00  0.00    -0.550 OA
ENDBRANCH   3   4
ENDBRANCH   2   3
ENDBRANCH   1   2
BRANCH   1   7
ATOM      7  C   UNL     1      -2.597  -3.640  -8.378  1.00  0.00     0.000 C 
BRANCH   7   8
ATOM      8  C   UNL     1      -2.513  -2.221  -8.967  1.00  0.00    -0.000 C 
BRANCH   8   9
ATOM      9  C   UNL     1      -1.299  -1.391  -8.511  1.00  0.00    -0.000 C 
BRANCH   9  10
ATOM     10  C   UNL     1      -0.257  -1.192  -9.622  1.00  0.00    -0.003 C 
ATOM     11  C   UNL     1       0.913  -2.159  -9.458  1.00  0.00     0.004 C 
ENDBRANCH   9  10
ENDBRANCH   8   9
ENDBRANCH   7   8
ENDBRANCH   1   7
TORSDOF 7
ENDMDL
MODEL 9
REMARK VINA RESULT:    -3.728     17.648     19.054
REMARK INTER + INTRA:          -5.605
REMARK INTER:                  -4.836
REMARK INTRA:                  -0.769
REMARK UNBOUND:                -0.351
REMARK SMILES CCCCCCCCC(=O)[O-]
REMARK SMILES IDX 6 1 7 2 8 3 9 4 10 5 11 6 5 7 4 8 3 9 2 10 1 11
REMARK H PARENT
REMARK Flexibility Score: inf
ROOT
ATOM      1  C   UNL     1       1.329  -3.043  -9.172  1.00  0.00     0.000 C 
ENDROOT
BRANCH   1   2
ATOM      2  C   UNL     1       0.053  -2.257  -9.526  1.00  0.00     0.006 C 
BRANCH   2   3
ATOM      3  C   UNL     1      -0.827  -1.897  -8.318  1.00  0.00     0.053 C 
BRANCH   3   4
ATOM      4  C   UNL     1      -1.490  -3.103  -7.728  1.00  0.00     0.041 C 
ATOM      5  O   UNL     1      -1.548  -3.247  -6.478  1.00  0.00    -0.550 OA
ATOM      6  O   UNL     1      -2.019  -4.082  -8.558  1.00  0.00    -0.550 OA
ENDBRANCH   3   4
ENDBRANCH   2   3
ENDBRANCH   1   2
BRANCH   1   7
ATOM      7  C   UNL     1       1.316  -4.479  -9.724  1.00  0.00     0.000 C 
BRANCH   7   8
ATOM      8  C   UNL     1       1.763  -5.525  -8.687  1.00  0.00    -0.000 C 
BRANCH   8   9
ATOM      9  C   UNL     1       2.105  -4.962  -7.295  1.00  0.00    -0.000 C 
BRANCH   9  10
ATOM     10  C   UNL     1       1.097  -5.381  -6.215  1.00  0.00    -0.003 C 
ATOM     11  C   UNL     1       0.188  -6.499  -6.716  1.00  0.00     0.004 C 
ENDBRANCH   9  10
ENDBRANCH   8   9
ENDBRANCH   7   8
ENDBRANCH   1   7
TORSDOF 7
ENDMDL
