MODEL 1
REMARK VINA RESULT:    -4.264      0.000      0.000
REMARK INTER + INTRA:          -4.664
REMARK INTER:                  -4.637
REMARK INTRA:                  -0.027
REMARK UNBOUND:                -0.027
REMARK SMILES COc1ccccc1O
REMARK SMILES IDX 3 1 4 2 5 3 6 4 7 5 8 6 2 7 1 8 9 9
REMARK H PARENT 9 10
REMARK Flexibility Score: inf
ROOT
ATOM      1  C   UNL     1     112.365   8.823 -24.368  1.00  0.00     0.160 A 
ATOM      2  C   UNL     1     112.910   9.222 -25.605  1.00  0.00     0.050 A 
ATOM      3  C   UNL     1     112.363   8.752 -26.803  1.00  0.00     0.004 A 
ATOM      4  C   UNL     1     111.272   7.882 -26.780  1.00  0.00     0.004 A 
ATOM      5  C   UNL     1     110.724   7.479 -25.559  1.00  0.00     0.050 A 
ATOM      6  C   UNL     1     111.265   7.944 -24.354  1.00  0.00     0.157 A 
ENDROOT
BRANCH   1   7
ATOM      7  O   UNL     1     112.889   9.275 -23.146  1.00  0.00    -0.493 OA
ATOM      8  C   UNL     1     113.579  10.507 -22.969  1.00  0.00     0.278 C 
ENDBRANCH   1   7
BRANCH   6   9
ATOM      9  O   UNL     1     110.693   7.522 -23.154  1.00  0.00    -0.504 OA
ATOM     10  H   UNL     1     110.219   8.163 -22.528  1.00  0.00     0.293 HD
ENDBRANCH   6   9
TORSDOF 2
ENDMDL
MODEL 2
REMARK VINA RESULT:    -4.156     15.854     17.176
REMARK INTER + INTRA:          -4.547
REMARK INTER:                  -4.521
REMARK INTRA:                  -0.026
REMARK UNBOUND:                -0.027
REMARK SMILES COc1ccccc1O
REMARK SMILES IDX 3 1 4 2 5 3 6 4 7 5 8 6 2 7 1 8 9 9
REMARK H PARENT 9 10
REMARK Flexibility Score: inf
ROOT
ATOM      1  C   UNL     1     110.847   7.863 -41.751  1.00  0.00     0.160 A 
ATOM      2  C   UNL     1     110.007   7.766 -40.622  1.00  0.00     0.050 A 
ATOM      3  C   UNL     1     110.131   8.680 -39.571  1.00  0.00     0.004 A 
ATOM      4  C   UNL     1     111.088   9.693 -39.632  1.00  0.00     0.004 A 
ATOM      5  C   UNL     1     111.925   9.797 -40.745  1.00  0.00     0.050 A 
ATOM      6  C   UNL     1     111.810   8.888 -41.804  1.00  0.00     0.157 A 
ENDROOT
BRANCH   1   7
ATOM      7  O   UNL     1     110.751   6.964 -42.825  1.00  0.00    -0.493 OA
ATOM      8  C   UNL     1     109.600   6.181 -43.124  1.00  0.00     0.278 C 
ENDBRANCH   1   7
BRANCH   6   9
ATOM      9  O   UNL     1     112.662   9.022 -42.900  1.00  0.00    -0.504 OA
ATOM     10  H   UNL     1     112.754   8.297 -43.603  1.00  0.00     0.293 HD
ENDBRANCH   6   9
TORSDOF 2
ENDMDL
MODEL 3
REMARK VINA RESULT:    -4.041      1.523      3.483
REMARK INTER + INTRA:          -4.422
REMARK INTER:                  -4.382
REMARK INTRA:                  -0.041
REMARK UNBOUND:                -0.027
REMARK SMILES COc1ccccc1O
REMARK SMILES IDX 3 1 4 2 5 3 6 4 7 5 8 6 2 7 1 8 9 9
REMARK H PARENT 9 10
REMARK Flexibility Score: inf
ROOT
ATOM      1  C   UNL     1     113.282   8.950 -25.130  1.00  0.00     0.160 A 
ATOM      2  C   UNL     1     114.363   9.774 -25.506  1.00  0.00     0.050 A 
ATOM      3  C   UNL     1     114.908  10.683 -24.594  1.00  0.00     0.004 A 
ATOM      4  C   UNL     1     114.384  10.781 -23.305  1.00  0.00     0.004 A 
ATOM      5  C   UNL     1     113.313   9.970 -22.922  1.00  0.00     0.050 A 
ATOM      6  C   UNL     1     112.759   9.056 -23.827  1.00  0.00     0.157 A 
ENDROOT
BRANCH   1   7
ATOM      7  O   UNL     1     112.710   8.026 -26.019  1.00  0.00    -0.493 OA
ATOM      8  C   UNL     1     112.036   8.374 -27.224  1.00  0.00     0.278 C 
ENDBRANCH   1   7
BRANCH   6   9
ATOM      9  O   UNL     1     111.691   8.262 -23.412  1.00  0.00    -0.504 OA
ATOM     10  H   UNL     1     111.131   7.726 -24.066  1.00  0.00     0.293 HD
ENDBRANCH   6   9
TORSDOF 2
ENDMDL
MODEL 4
REMARK VINA RESULT:    -4.029      1.325      3.209
REMARK INTER + INTRA:          -4.409
REMARK INTER:                  -4.384
REMARK INTRA:                  -0.025
REMARK UNBOUND:                -0.027
REMARK SMILES COc1ccccc1O
REMARK SMILES IDX 3 1 4 2 5 3 6 4 7 5 8 6 2 7 1 8 9 9
REMARK H PARENT 9 10
REMARK Flexibility Score: inf
ROOT
ATOM      1  C   UNL     1     111.575   7.825 -25.429  1.00  0.00     0.160 A 
ATOM      2  C   UNL     1     112.571   8.380 -26.258  1.00  0.00     0.050 A 
ATOM      3  C   UNL     1     113.581   9.178 -25.711  1.00  0.00     0.004 A 
ATOM      4  C   UNL     1     113.609   9.428 -24.338  1.00  0.00     0.004 A 
ATOM      5  C   UNL     1     112.628   8.882 -23.508  1.00  0.00     0.050 A 
ATOM      6  C   UNL     1     111.611   8.083 -24.045  1.00  0.00     0.157 A 
ENDROOT
BRANCH   1   7
ATOM      7  O   UNL     1     110.546   7.020 -25.943  1.00  0.00    -0.493 OA
ATOM      8  C   UNL     1     110.360   6.730 -27.324  1.00  0.00     0.278 C 
ENDBRANCH   1   7
BRANCH   6   9
ATOM      9  O   UNL     1     110.647   7.554 -23.187  1.00  0.00    -0.504 OA
ATOM     10  H   UNL     1     110.571   7.842 -22.219  1.00  0.00     0.293 HD
ENDBRANCH   6   9
TORSDOF 2
ENDMDL
MODEL 5
REMARK VINA RESULT:    -3.977     15.362     16.593
REMARK INTER + INTRA:          -4.353
REMARK INTER:                  -4.310
REMARK INTRA:                  -0.042
REMARK UNBOUND:                -0.027
REMARK SMILES COc1ccccc1O
REMARK SMILES IDX 3 1 4 2 5 3 6 4 7 5 8 6 2 7 1 8 9 9
REMARK H PARENT 9 10
REMARK Flexibility Score: inf
ROOT
ATOM      1  C   UNL     1     111.160   8.911 -40.829  1.00  0.00     0.160 A 
ATOM      2  C   UNL     1     110.177   8.237 -40.075  1.00  0.00     0.050 A 
ATOM      3  C   UNL     1     109.620   7.044 -40.546  1.00  0.00     0.004 A 
ATOM      4  C   UNL     1     110.036   6.512 -41.767  1.00  0.00     0.004 A 
ATOM      5  C   UNL     1     111.008   7.171 -42.522  1.00  0.00     0.050 A 
ATOM      6  C   UNL     1     111.572   8.366 -42.061  1.00  0.00     0.157 A 
ENDROOT
BRANCH   1   7
ATOM      7  O   UNL     1     111.740  10.111 -40.388  1.00  0.00    -0.493 OA
ATOM      8  C   UNL     1     112.596  10.226 -39.256  1.00  0.00     0.278 C 
ENDBRANCH   1   7
BRANCH   6   9
ATOM      9  O   UNL     1     112.541   8.998 -42.840  1.00  0.00    -0.504 OA
ATOM     10  H   UNL     1     113.040   9.820 -42.519  1.00  0.00     0.293 HD
ENDBRANCH   6   9
TORSDOF 2
ENDMDL
MODEL 6
REMARK VINA RESULT:    -3.901     15.677     16.954
REMARK INTER + INTRA:          -4.270
REMARK INTER:                  -4.223
REMARK INTRA:                  -0.046
REMARK UNBOUND:                -0.027
REMARK SMILES COc1ccccc1O
REMARK SMILES IDX 3 1 4 2 5 3 6 4 7 5 8 6 2 7 1 8 9 9
REMARK H PARENT 9 10
REMARK Flexibility Score: inf
ROOT
ATOM      1  C   UNL     1     110.989   6.964 -40.899  1.00  0.00     0.160 A 
ATOM      2  C   UNL     1     110.190   5.898 -40.439  1.00  0.00     0.050 A 
ATOM      3  C   UNL     1     109.334   5.226 -41.318  1.00  0.00     0.004 A 
ATOM      4  C   UNL     1     109.268   5.608 -42.659  1.00  0.00     0.004 A 
ATOM      5  C   UNL     1     110.055   6.663 -43.125  1.00  0.00     0.050 A 
ATOM      6  C   UNL     1     110.914   7.343 -42.253  1.00  0.00     0.157 A 
ENDROOT
BRANCH   1   7
ATOM      7  O   UNL     1     111.858   7.662 -40.046  1.00  0.00    -0.493 OA
ATOM      8  C   UNL     1     111.464   8.720 -39.179  1.00  0.00     0.278 C 
ENDBRANCH   1   7
BRANCH   6   9
ATOM      9  O   UNL     1     111.686   8.392 -42.753  1.00  0.00    -0.504 OA
ATOM     10  H   UNL     1     111.272   9.202 -43.198  1.00  0.00     0.293 HD
ENDBRANCH   6   9
TORSDOF 2
ENDMDL
MODEL 7
REMARK VINA RESULT:    -3.790      1.769      3.739
REMARK INTER + INTRA:          -4.149
REMARK INTER:                  -4.118
REMARK INTRA:                  -0.031
REMARK UNBOUND:                -0.027
REMARK SMILES COc1ccccc1O
REMARK SMILES IDX 3 1 4 2 5 3 6 4 7 5 8 6 2 7 1 8 9 9
REMARK H PARENT 9 10
REMARK Flexibility Score: inf
ROOT
ATOM      1  C   UNL     1     112.932   8.657 -24.412  1.00  0.00     0.160 A 
ATOM      2  C   UNL     1     113.072   9.441 -23.249  1.00  0.00     0.050 A 
ATOM      3  C   UNL     1     113.971  10.511 -23.223  1.00  0.00     0.004 A 
ATOM      4  C   UNL     1     114.737  10.810 -24.351  1.00  0.00     0.004 A 
ATOM      5  C   UNL     1     114.606  10.040 -25.508  1.00  0.00     0.050 A 
ATOM      6  C   UNL     1     113.709   8.965 -25.545  1.00  0.00     0.157 A 
ENDROOT
BRANCH   1   7
ATOM      7  O   UNL     1     112.040   7.574 -24.475  1.00  0.00    -0.493 OA
ATOM      8  C   UNL     1     110.701   7.603 -23.993  1.00  0.00     0.278 C 
ENDBRANCH   1   7
BRANCH   6   9
ATOM      9  O   UNL     1     113.604   8.218 -26.718  1.00  0.00    -0.504 OA
ATOM     10  H   UNL     1     114.336   8.206 -27.418  1.00  0.00     0.293 HD
ENDBRANCH   6   9
TORSDOF 2
ENDMDL
MODEL 8
REMARK VINA RESULT:    -3.681     15.630     16.802
REMARK INTER + INTRA:          -4.031
REMARK INTER:                  -3.984
REMARK INTRA:                  -0.046
REMARK UNBOUND:                -0.027
REMARK SMILES COc1ccccc1O
REMARK SMILES IDX 3 1 4 2 5 3 6 4 7 5 8 6 2 7 1 8 9 9
REMARK H PARENT 9 10
REMARK Flexibility Score: inf
ROOT
ATOM      1  C   UNL     1     111.466   7.367 -41.672  1.00  0.00     0.160 A 
ATOM      2  C   UNL     1     110.680   6.970 -42.774  1.00  0.00     0.050 A 
ATOM      3  C   UNL     1     109.676   6.010 -42.615  1.00  0.00     0.004 A 
ATOM      4  C   UNL     1     109.446   5.438 -41.362  1.00  0.00     0.004 A 
ATOM      5  C   UNL     1     110.218   5.824 -40.265  1.00  0.00     0.050 A 
ATOM      6  C   UNL     1     111.227   6.784 -40.413  1.00  0.00     0.157 A 
ENDROOT
BRANCH   1   7
ATOM      7  O   UNL     1     112.483   8.327 -41.794  1.00  0.00    -0.493 OA
ATOM      8  C   UNL     1     112.268   9.734 -41.810  1.00  0.00     0.278 C 
ENDBRANCH   1   7
BRANCH   6   9
ATOM      9  O   UNL     1     111.979   7.146 -39.296  1.00  0.00    -0.504 OA
ATOM     10  H   UNL     1     112.015   6.574 -38.461  1.00  0.00     0.293 HD
ENDBRANCH   6   9
TORSDOF 2
ENDMDL
MODEL 9
REMARK VINA RESULT:    -3.565      2.061      3.585
REMARK INTER + INTRA:          -3.904
REMARK INTER:                  -3.860
REMARK INTRA:                  -0.045
REMARK UNBOUND:                -0.027
REMARK SMILES COc1ccccc1O
REMARK SMILES IDX 3 1 4 2 5 3 6 4 7 5 8 6 2 7 1 8 9 9
REMARK H PARENT 9 10
REMARK Flexibility Score: inf
ROOT
ATOM      1  C   UNL     1     112.378   8.236 -26.407  1.00  0.00     0.160 A 
ATOM      2  C   UNL     1     111.050   7.763 -26.397  1.00  0.00     0.050 A 
ATOM      3  C   UNL     1     110.450   7.370 -25.197  1.00  0.00     0.004 A 
ATOM      4  C   UNL     1     111.164   7.443 -24.000  1.00  0.00     0.004 A 
ATOM      5  C   UNL     1     112.480   7.910 -23.999  1.00  0.00     0.050 A 
ATOM      6  C   UNL     1     113.091   8.306 -25.195  1.00  0.00     0.157 A 
ENDROOT
BRANCH   1   7
ATOM      7  O   UNL     1     113.013   8.639 -27.592  1.00  0.00    -0.493 OA
ATOM      8  C   UNL     1     113.460   7.752 -28.612  1.00  0.00     0.278 C 
ENDBRANCH   1   7
BRANCH   6   9
ATOM      9  O   UNL     1     114.407   8.767 -25.157  1.00  0.00    -0.504 OA
ATOM     10  H   UNL     1     114.647   9.730 -25.362  1.00  0.00     0.293 HD
ENDBRANCH   6   9
TORSDOF 2
ENDMDL
