MODEL 1
REMARK VINA RESULT:    -9.115      0.000      0.000
REMARK INTER + INTRA:         -10.981
REMARK INTER:                 -10.713
REMARK INTRA:                  -0.268
REMARK UNBOUND:                -0.268
REMARK SMILES O=c1c(O)c(-c2ccc(O)cc2)oc2cc(O)cc(O)c12
REMARK SMILES IDX 5 1 3 2 2 3 1 4 21 5 19 6 18 7 16 8 15 9 14 10 13 11 6 12
REMARK SMILES IDX 7 13 8 14 9 15 12 16 11 17 10 18 4 20 20 22 17 24
REMARK H PARENT 10 19 4 21 20 23 17 25
REMARK Flexibility Score: inf
ROOT
ATOM      1  C   UNL     1       8.023  -6.981 -10.274  1.00  0.00     0.180 A 
ATOM      2  C   UNL     1       8.618  -8.212 -10.602  1.00  0.00     0.208 A 
ATOM      3  C   UNL     1       9.885  -8.216 -11.206  1.00  0.00     0.238 A 
ATOM      4  O   UNL     1      10.436  -9.322 -11.448  1.00  0.00    -0.285 OA
ATOM      5  C   UNL     1      10.534  -6.991 -11.490  1.00  0.00     0.111 A 
ATOM      6  C   UNL     1      11.802  -6.876 -12.137  1.00  0.00     0.134 A 
ATOM      7  C   UNL     1      12.408  -5.619 -12.248  1.00  0.00     0.093 A 
ATOM      8  C   UNL     1      11.766  -4.466 -11.797  1.00  0.00     0.123 A 
ATOM      9  C   UNL     1      10.501  -4.560 -11.218  1.00  0.00     0.094 A 
ATOM     10  C   UNL     1       9.885  -5.805 -11.059  1.00  0.00     0.146 A 
ATOM     11  O   UNL     1       8.685  -5.851 -10.492  1.00  0.00    -0.452 OA
ENDROOT
BRANCH   1  12
ATOM     12  C   UNL     1       6.679  -6.894  -9.658  1.00  0.00     0.021 A 
ATOM     13  C   UNL     1       6.563  -6.608  -8.287  1.00  0.00     0.016 A 
ATOM     14  C   UNL     1       5.303  -6.500  -7.691  1.00  0.00     0.047 A 
ATOM     15  C   UNL     1       4.146  -6.661  -8.456  1.00  0.00     0.115 A 
ATOM     16  C   UNL     1       5.509  -7.036 -10.428  1.00  0.00     0.016 A 
ATOM     17  C   UNL     1       4.250  -6.925  -9.828  1.00  0.00     0.047 A 
BRANCH  15  18
ATOM     18  O   UNL     1       2.897  -6.551  -7.848  1.00  0.00    -0.508 OA
ATOM     19  H   UNL     1       2.213  -7.297  -7.903  1.00  0.00     0.293 HD
ENDBRANCH  15  18
ENDBRANCH   1  12
BRANCH   2  20
ATOM     20  O   UNL     1       7.968  -9.411 -10.293  1.00  0.00    -0.502 OA
ATOM     21  H   UNL     1       7.035  -9.624 -10.623  1.00  0.00     0.293 HD
ENDBRANCH   2  20
BRANCH   6  22
ATOM     22  O   UNL     1      12.488  -7.953 -12.706  1.00  0.00    -0.507 OA
ATOM     23  H   UNL     1      12.317  -8.922 -12.488  1.00  0.00     0.293 HD
ENDBRANCH   6  22
BRANCH   8  24
ATOM     24  O   UNL     1      12.393  -3.230 -11.939  1.00  0.00    -0.508 OA
ATOM     25  H   UNL     1      11.861  -2.378 -12.075  1.00  0.00     0.293 HD
ENDBRANCH   8  24
TORSDOF 5
ENDMDL
MODEL 2
REMARK VINA RESULT:    -8.531      4.588     10.427
REMARK INTER + INTRA:         -10.295
REMARK INTER:                 -10.030
REMARK INTRA:                  -0.266
REMARK UNBOUND:                -0.268
REMARK SMILES O=c1c(O)c(-c2ccc(O)cc2)oc2cc(O)cc(O)c12
REMARK SMILES IDX 5 1 3 2 2 3 1 4 21 5 19 6 18 7 16 8 15 9 14 10 13 11 6 12
REMARK SMILES IDX 7 13 8 14 9 15 12 16 11 17 10 18 4 20 20 22 17 24
REMARK H PARENT 10 19 4 21 20 23 17 25
REMARK Flexibility Score: inf
ROOT
ATOM      1  C   UNL     1       1.337  -6.414  -8.146  1.00  0.00     0.180 A 
ATOM      2  C   UNL     1       0.620  -7.514  -7.643  1.00  0.00     0.208 A 
ATOM      3  C   UNL     1      -0.675  -7.309  -7.139  1.00  0.00     0.238 A 
ATOM      4  O   UNL     1      -1.333  -8.305  -6.740  1.00  0.00    -0.285 OA
ATOM      5  C   UNL     1      -1.230  -6.007  -7.129  1.00  0.00     0.111 A 
ATOM      6  C   UNL     1      -2.516  -5.677  -6.605  1.00  0.00     0.134 A 
ATOM      7  C   UNL     1      -3.015  -4.380  -6.766  1.00  0.00     0.093 A 
ATOM      8  C   UNL     1      -2.251  -3.383  -7.373  1.00  0.00     0.123 A 
ATOM      9  C   UNL     1      -0.968  -3.679  -7.835  1.00  0.00     0.094 A 
ATOM     10  C   UNL     1      -0.456  -4.974  -7.721  1.00  0.00     0.146 A 
ATOM     11  O   UNL     1       0.765  -5.217  -8.184  1.00  0.00    -0.452 OA
ENDROOT
BRANCH   1  12
ATOM     12  C   UNL     1       2.715  -6.546  -8.671  1.00  0.00     0.021 A 
ATOM     13  C   UNL     1       3.806  -6.263  -7.830  1.00  0.00     0.016 A 
ATOM     14  C   UNL     1       5.116  -6.403  -8.299  1.00  0.00     0.047 A 
ATOM     15  C   UNL     1       5.353  -6.840  -9.604  1.00  0.00     0.115 A 
ATOM     16  C   UNL     1       2.962  -7.004  -9.978  1.00  0.00     0.016 A 
ATOM     17  C   UNL     1       4.274  -7.144 -10.443  1.00  0.00     0.047 A 
BRANCH  15  18
ATOM     18  O   UNL     1       6.664  -6.974 -10.058  1.00  0.00    -0.508 OA
ATOM     19  H   UNL     1       7.075  -6.302 -10.696  1.00  0.00     0.293 HD
ENDBRANCH  15  18
ENDBRANCH   1  12
BRANCH   2  20
ATOM     20  O   UNL     1       1.178  -8.795  -7.683  1.00  0.00    -0.502 OA
ATOM     21  H   UNL     1       0.769  -9.581  -7.192  1.00  0.00     0.293 HD
ENDBRANCH   2  20
BRANCH   6  22
ATOM     22  O   UNL     1      -3.324  -6.574  -5.900  1.00  0.00    -0.507 OA
ATOM     23  H   UNL     1      -3.003  -7.439  -5.493  1.00  0.00     0.293 HD
ENDBRANCH   6  22
BRANCH   8  24
ATOM     24  O   UNL     1      -2.774  -2.099  -7.502  1.00  0.00    -0.508 OA
ATOM     25  H   UNL     1      -3.286  -1.815  -8.331  1.00  0.00     0.293 HD
ENDBRANCH   8  24
TORSDOF 5
ENDMDL
MODEL 3
REMARK VINA RESULT:    -8.408      4.358     10.669
REMARK INTER + INTRA:         -10.150
REMARK INTER:                  -9.867
REMARK INTRA:                  -0.284
REMARK UNBOUND:                -0.268
REMARK SMILES O=c1c(O)c(-c2ccc(O)cc2)oc2cc(O)cc(O)c12
REMARK SMILES IDX 5 1 3 2 2 3 1 4 21 5 19 6 18 7 16 8 15 9 14 10 13 11 6 12
REMARK SMILES IDX 7 13 8 14 9 15 12 16 11 17 10 18 4 20 20 22 17 24
REMARK H PARENT 10 19 4 21 20 23 17 25
REMARK Flexibility Score: inf
ROOT
ATOM      1  C   UNL     1       1.589  -6.401  -8.203  1.00  0.00     0.180 A 
ATOM      2  C   UNL     1       0.897  -5.178  -8.162  1.00  0.00     0.208 A 
ATOM      3  C   UNL     1      -0.377  -5.136  -7.574  1.00  0.00     0.238 A 
ATOM      4  O   UNL     1      -0.969  -4.028  -7.491  1.00  0.00    -0.285 OA
ATOM      5  C   UNL     1      -0.951  -6.320  -7.050  1.00  0.00     0.111 A 
ATOM      6  C   UNL     1      -2.251  -6.402  -6.468  1.00  0.00     0.134 A 
ATOM      7  C   UNL     1      -2.663  -7.596  -5.864  1.00  0.00     0.093 A 
ATOM      8  C   UNL     1      -1.850  -8.728  -5.877  1.00  0.00     0.123 A 
ATOM      9  C   UNL     1      -0.601  -8.677  -6.496  1.00  0.00     0.094 A 
ATOM     10  C   UNL     1      -0.146  -7.489  -7.076  1.00  0.00     0.146 A 
ATOM     11  O   UNL     1       1.054  -7.479  -7.644  1.00  0.00    -0.452 OA
ENDROOT
BRANCH   1  12
ATOM     12  C   UNL     1       2.925  -6.529  -8.828  1.00  0.00     0.021 A 
ATOM     13  C   UNL     1       4.075  -6.267  -8.064  1.00  0.00     0.016 A 
ATOM     14  C   UNL     1       5.347  -6.404  -8.629  1.00  0.00     0.047 A 
ATOM     15  C   UNL     1       5.487  -6.818  -9.956  1.00  0.00     0.115 A 
ATOM     16  C   UNL     1       3.074  -6.965 -10.159  1.00  0.00     0.016 A 
ATOM     17  C   UNL     1       4.348  -7.101 -10.719  1.00  0.00     0.047 A 
BRANCH  15  18
ATOM     18  O   UNL     1       6.761  -6.949 -10.505  1.00  0.00    -0.508 OA
ATOM     19  H   UNL     1       7.470  -7.526 -10.066  1.00  0.00     0.293 HD
ENDBRANCH  15  18
ENDBRANCH   1  12
BRANCH   2  20
ATOM     20  O   UNL     1       1.491  -4.016  -8.665  1.00  0.00    -0.502 OA
ATOM     21  H   UNL     1       0.999  -3.132  -8.714  1.00  0.00     0.293 HD
ENDBRANCH   2  20
BRANCH   6  22
ATOM     22  O   UNL     1      -3.179  -5.357  -6.482  1.00  0.00    -0.507 OA
ATOM     23  H   UNL     1      -3.690  -5.031  -5.676  1.00  0.00     0.293 HD
ENDBRANCH   6  22
BRANCH   8  24
ATOM     24  O   UNL     1      -2.299  -9.904  -5.280  1.00  0.00    -0.508 OA
ATOM     25  H   UNL     1      -3.175 -10.336  -5.551  1.00  0.00     0.293 HD
ENDBRANCH   8  24
TORSDOF 5
ENDMDL
MODEL 4
REMARK VINA RESULT:    -7.200      1.839      6.806
REMARK INTER + INTRA:          -8.730
REMARK INTER:                  -9.164
REMARK INTRA:                   0.433
REMARK UNBOUND:                -0.268
REMARK SMILES O=c1c(O)c(-c2ccc(O)cc2)oc2cc(O)cc(O)c12
REMARK SMILES IDX 5 1 3 2 2 3 1 4 21 5 19 6 18 7 16 8 15 9 14 10 13 11 6 12
REMARK SMILES IDX 7 13 8 14 9 15 12 16 11 17 10 18 4 20 20 22 17 24
REMARK H PARENT 10 19 4 21 20 23 17 25
REMARK Flexibility Score: inf
ROOT
ATOM      1  C   UNL     1      11.250  -6.319 -12.121  1.00  0.00     0.180 A 
ATOM      2  C   UNL     1      11.362  -7.714 -12.250  1.00  0.00     0.208 A 
ATOM      3  C   UNL     1      10.374  -8.531 -11.678  1.00  0.00     0.238 A 
ATOM      4  O   UNL     1      10.450  -9.777 -11.842  1.00  0.00    -0.285 OA
ATOM      5  C   UNL     1       9.297  -7.946 -10.970  1.00  0.00     0.111 A 
ATOM      6  C   UNL     1       8.262  -8.679 -10.316  1.00  0.00     0.134 A 
ATOM      7  C   UNL     1       7.176  -7.993  -9.759  1.00  0.00     0.093 A 
ATOM      8  C   UNL     1       7.119  -6.600  -9.774  1.00  0.00     0.123 A 
ATOM      9  C   UNL     1       8.155  -5.870 -10.358  1.00  0.00     0.094 A 
ATOM     10  C   UNL     1       9.234  -6.528 -10.955  1.00  0.00     0.146 A 
ATOM     11  O   UNL     1      10.194  -5.797 -11.510  1.00  0.00    -0.452 OA
ENDROOT
BRANCH   1  12
ATOM     12  C   UNL     1      12.264  -5.393 -12.676  1.00  0.00     0.021 A 
ATOM     13  C   UNL     1      12.363  -4.088 -12.164  1.00  0.00     0.016 A 
ATOM     14  C   UNL     1      13.328  -3.205 -12.658  1.00  0.00     0.047 A 
ATOM     15  C   UNL     1      14.214  -3.617 -13.656  1.00  0.00     0.115 A 
ATOM     16  C   UNL     1      13.173  -5.808 -13.667  1.00  0.00     0.016 A 
ATOM     17  C   UNL     1      14.138  -4.923 -14.157  1.00  0.00     0.047 A 
BRANCH  15  18
ATOM     18  O   UNL     1      15.171  -2.726 -14.138  1.00  0.00    -0.508 OA
ATOM     19  H   UNL     1      14.996  -1.728 -14.171  1.00  0.00     0.293 HD
ENDBRANCH  15  18
ENDBRANCH   1  12
BRANCH   2  20
ATOM     20  O   UNL     1      12.422  -8.271 -12.972  1.00  0.00    -0.502 OA
ATOM     21  H   UNL     1      12.882  -9.127 -12.687  1.00  0.00     0.293 HD
ENDBRANCH   2  20
BRANCH   6  22
ATOM     22  O   UNL     1       8.267 -10.069 -10.163  1.00  0.00    -0.507 OA
ATOM     23  H   UNL     1       7.597 -10.695 -10.581  1.00  0.00     0.293 HD
ENDBRANCH   6  22
BRANCH   8  24
ATOM     24  O   UNL     1       6.031  -5.950  -9.196  1.00  0.00    -0.508 OA
ATOM     25  H   UNL     1       6.126  -5.039  -8.763  1.00  0.00     0.293 HD
ENDBRANCH   8  24
TORSDOF 5
ENDMDL
MODEL 5
REMARK VINA RESULT:    -7.058      2.905      4.993
REMARK INTER + INTRA:          -8.563
REMARK INTER:                  -8.922
REMARK INTRA:                   0.359
REMARK UNBOUND:                -0.268
REMARK SMILES O=c1c(O)c(-c2ccc(O)cc2)oc2cc(O)cc(O)c12
REMARK SMILES IDX 5 1 3 2 2 3 1 4 21 5 19 6 18 7 16 8 15 9 14 10 13 11 6 12
REMARK SMILES IDX 7 13 8 14 9 15 12 16 11 17 10 18 4 20 20 22 17 24
REMARK H PARENT 10 19 4 21 20 23 17 25
REMARK Flexibility Score: inf
ROOT
ATOM      1  C   UNL     1      11.242  -6.844 -12.092  1.00  0.00     0.180 A 
ATOM      2  C   UNL     1      11.314  -5.607 -11.427  1.00  0.00     0.208 A 
ATOM      3  C   UNL     1      12.210  -4.634 -11.896  1.00  0.00     0.238 A 
ATOM      4  O   UNL     1      12.232  -3.509 -11.331  1.00  0.00    -0.285 OA
ATOM      5  C   UNL     1      13.035  -4.914 -13.012  1.00  0.00     0.111 A 
ATOM      6  C   UNL     1      14.008  -4.017 -13.547  1.00  0.00     0.134 A 
ATOM      7  C   UNL     1      14.674  -4.349 -14.733  1.00  0.00     0.093 A 
ATOM      8  C   UNL     1      14.453  -5.571 -15.366  1.00  0.00     0.123 A 
ATOM      9  C   UNL     1      13.548  -6.481 -14.819  1.00  0.00     0.094 A 
ATOM     10  C   UNL     1      12.840  -6.163 -13.657  1.00  0.00     0.146 A 
ATOM     11  O   UNL     1      11.980  -7.053 -13.175  1.00  0.00    -0.452 OA
ENDROOT
BRANCH   1  12
ATOM     12  C   UNL     1      10.340  -7.928 -11.642  1.00  0.00     0.021 A 
ATOM     13  C   UNL     1      10.689  -9.267 -11.889  1.00  0.00     0.016 A 
ATOM     14  C   UNL     1       9.863 -10.307 -11.453  1.00  0.00     0.047 A 
ATOM     15  C   UNL     1       8.687 -10.025 -10.753  1.00  0.00     0.115 A 
ATOM     16  C   UNL     1       9.163  -7.652 -10.919  1.00  0.00     0.016 A 
ATOM     17  C   UNL     1       8.340  -8.695 -10.484  1.00  0.00     0.047 A 
BRANCH  15  18
ATOM     18  O   UNL     1       7.873 -11.072 -10.326  1.00  0.00    -0.508 OA
ATOM     19  H   UNL     1       7.858 -11.370  -9.356  1.00  0.00     0.293 HD
ENDBRANCH  15  18
ENDBRANCH   1  12
BRANCH   2  20
ATOM     20  O   UNL     1      10.474  -5.342 -10.341  1.00  0.00    -0.502 OA
ATOM     21  H   UNL     1       9.996  -4.457 -10.227  1.00  0.00     0.293 HD
ENDBRANCH   2  20
BRANCH   6  22
ATOM     22  O   UNL     1      14.373  -2.811 -12.942  1.00  0.00    -0.507 OA
ATOM     23  H   UNL     1      14.037  -1.903 -13.223  1.00  0.00     0.293 HD
ENDBRANCH   6  22
BRANCH   8  24
ATOM     24  O   UNL     1      15.145  -5.874 -16.537  1.00  0.00    -0.508 OA
ATOM     25  H   UNL     1      15.150  -6.811 -16.922  1.00  0.00     0.293 HD
ENDBRANCH   8  24
TORSDOF 5
ENDMDL
MODEL 6
REMARK VINA RESULT:    -6.935      5.569     11.154
REMARK INTER + INTRA:          -8.419
REMARK INTER:                  -8.236
REMARK INTRA:                  -0.183
REMARK UNBOUND:                -0.268
REMARK SMILES O=c1c(O)c(-c2ccc(O)cc2)oc2cc(O)cc(O)c12
REMARK SMILES IDX 5 1 3 2 2 3 1 4 21 5 19 6 18 7 16 8 15 9 14 10 13 11 6 12
REMARK SMILES IDX 7 13 8 14 9 15 12 16 11 17 10 18 4 20 20 22 17 24
REMARK H PARENT 10 19 4 21 20 23 17 25
REMARK Flexibility Score: inf
ROOT
ATOM      1  C   UNL     1       0.848  -4.503  -8.239  1.00  0.00     0.180 A 
ATOM      2  C   UNL     1       0.162  -4.470  -9.466  1.00  0.00     0.208 A 
ATOM      3  C   UNL     1      -1.187  -4.083  -9.481  1.00  0.00     0.238 A 
ATOM      4  O   UNL     1      -1.781  -4.003 -10.588  1.00  0.00    -0.285 OA
ATOM      5  C   UNL     1      -1.839  -3.749  -8.269  1.00  0.00     0.111 A 
ATOM      6  C   UNL     1      -3.214  -3.382  -8.162  1.00  0.00     0.134 A 
ATOM      7  C   UNL     1      -3.718  -2.945  -6.931  1.00  0.00     0.093 A 
ATOM      8  C   UNL     1      -2.916  -2.925  -5.791  1.00  0.00     0.123 A 
ATOM      9  C   UNL     1      -1.587  -3.339  -5.870  1.00  0.00     0.094 A 
ATOM     10  C   UNL     1      -1.044  -3.746  -7.093  1.00  0.00     0.146 A 
ATOM     11  O   UNL     1       0.229  -4.121  -7.128  1.00  0.00    -0.452 OA
ENDROOT
BRANCH   1  12
ATOM     12  C   UNL     1       2.264  -4.925  -8.139  1.00  0.00     0.021 A 
ATOM     13  C   UNL     1       3.233  -3.999  -7.716  1.00  0.00     0.016 A 
ATOM     14  C   UNL     1       4.573  -4.383  -7.593  1.00  0.00     0.047 A 
ATOM     15  C   UNL     1       4.957  -5.696  -7.876  1.00  0.00     0.115 A 
ATOM     16  C   UNL     1       2.655  -6.251  -8.402  1.00  0.00     0.016 A 
ATOM     17  C   UNL     1       3.995  -6.631  -8.277  1.00  0.00     0.047 A 
BRANCH  15  18
ATOM     18  O   UNL     1       6.295  -6.064  -7.749  1.00  0.00    -0.508 OA
ATOM     19  H   UNL     1       7.001  -5.400  -7.452  1.00  0.00     0.293 HD
ENDBRANCH  15  18
ENDBRANCH   1  12
BRANCH   2  20
ATOM     20  O   UNL     1       0.831  -4.782 -10.653  1.00  0.00    -0.502 OA
ATOM     21  H   UNL     1       1.780  -4.483 -10.837  1.00  0.00     0.293 HD
ENDBRANCH   2  20
BRANCH   6  22
ATOM     22  O   UNL     1      -4.125  -3.454  -9.220  1.00  0.00    -0.507 OA
ATOM     23  H   UNL     1      -4.636  -4.282  -9.483  1.00  0.00     0.293 HD
ENDBRANCH   6  22
BRANCH   8  24
ATOM     24  O   UNL     1      -3.456  -2.500  -4.579  1.00  0.00    -0.508 OA
ATOM     25  H   UNL     1      -2.919  -2.528  -3.720  1.00  0.00     0.293 HD
ENDBRANCH   8  24
TORSDOF 5
ENDMDL
MODEL 7
REMARK VINA RESULT:    -6.859      2.081      4.142
REMARK INTER + INTRA:          -8.329
REMARK INTER:                  -8.263
REMARK INTRA:                  -0.066
REMARK UNBOUND:                -0.268
REMARK SMILES O=c1c(O)c(-c2ccc(O)cc2)oc2cc(O)cc(O)c12
REMARK SMILES IDX 5 1 3 2 2 3 1 4 21 5 19 6 18 7 16 8 15 9 14 10 13 11 6 12
REMARK SMILES IDX 7 13 8 14 9 15 12 16 11 17 10 18 4 20 20 22 17 24
REMARK H PARENT 10 19 4 21 20 23 17 25
REMARK Flexibility Score: inf
ROOT
ATOM      1  C   UNL     1      10.368  -5.493 -11.608  1.00  0.00     0.180 A 
ATOM      2  C   UNL     1      11.067  -4.399 -11.069  1.00  0.00     0.208 A 
ATOM      3  C   UNL     1      12.273  -4.001 -11.668  1.00  0.00     0.238 A 
ATOM      4  O   UNL     1      12.868  -2.988 -11.215  1.00  0.00    -0.285 OA
ATOM      5  C   UNL     1      12.772  -4.710 -12.787  1.00  0.00     0.111 A 
ATOM      6  C   UNL     1      14.004  -4.420 -13.448  1.00  0.00     0.134 A 
ATOM      7  C   UNL     1      14.334  -5.103 -14.624  1.00  0.00     0.093 A 
ATOM      8  C   UNL     1      13.512  -6.111 -15.127  1.00  0.00     0.123 A 
ATOM      9  C   UNL     1      12.335  -6.445 -14.456  1.00  0.00     0.094 A 
ATOM     10  C   UNL     1      11.960  -5.755 -13.299  1.00  0.00     0.146 A 
ATOM     11  O   UNL     1      10.827  -6.096 -12.697  1.00  0.00    -0.452 OA
ENDROOT
BRANCH   1  12
ATOM     12  C   UNL     1       9.103  -5.987 -11.017  1.00  0.00     0.021 A 
ATOM     13  C   UNL     1       7.985  -5.138 -10.965  1.00  0.00     0.016 A 
ATOM     14  C   UNL     1       6.775  -5.592 -10.431  1.00  0.00     0.047 A 
ATOM     15  C   UNL     1       6.662  -6.901  -9.958  1.00  0.00     0.115 A 
ATOM     16  C   UNL     1       8.976  -7.311 -10.556  1.00  0.00     0.016 A 
ATOM     17  C   UNL     1       7.764  -7.762 -10.024  1.00  0.00     0.047 A 
BRANCH  15  18
ATOM     18  O   UNL     1       5.450  -7.340  -9.428  1.00  0.00    -0.508 OA
ATOM     19  H   UNL     1       5.407  -8.107  -8.767  1.00  0.00     0.293 HD
ENDBRANCH  15  18
ENDBRANCH   1  12
BRANCH   2  20
ATOM     20  O   UNL     1      10.545  -3.698  -9.978  1.00  0.00    -0.502 OA
ATOM     21  H   UNL     1       9.550  -3.631  -9.801  1.00  0.00     0.293 HD
ENDBRANCH   2  20
BRANCH   6  22
ATOM     22  O   UNL     1      14.942  -3.495 -12.978  1.00  0.00    -0.507 OA
ATOM     23  H   UNL     1      14.721  -2.563 -12.663  1.00  0.00     0.293 HD
ENDBRANCH   6  22
BRANCH   8  24
ATOM     24  O   UNL     1      13.880  -6.781 -16.292  1.00  0.00    -0.508 OA
ATOM     25  H   UNL     1      13.461  -7.667 -16.549  1.00  0.00     0.293 HD
ENDBRANCH   8  24
TORSDOF 5
ENDMDL
MODEL 8
REMARK VINA RESULT:    -6.733      4.274      7.471
REMARK INTER + INTRA:          -8.181
REMARK INTER:                  -7.904
REMARK INTRA:                  -0.277
REMARK UNBOUND:                -0.268
REMARK SMILES O=c1c(O)c(-c2ccc(O)cc2)oc2cc(O)cc(O)c12
REMARK SMILES IDX 5 1 3 2 2 3 1 4 21 5 19 6 18 7 16 8 15 9 14 10 13 11 6 12
REMARK SMILES IDX 7 13 8 14 9 15 12 16 11 17 10 18 4 20 20 22 17 24
REMARK H PARENT 10 19 4 21 20 23 17 25
REMARK Flexibility Score: inf
ROOT
ATOM      1  C   UNL     1       1.540  -5.160  -8.878  1.00  0.00     0.180 A 
ATOM      2  C   UNL     1       2.270  -4.521  -7.861  1.00  0.00     0.208 A 
ATOM      3  C   UNL     1       3.640  -4.798  -7.729  1.00  0.00     0.238 A 
ATOM      4  O   UNL     1       4.300  -4.183  -6.851  1.00  0.00    -0.285 OA
ATOM      5  C   UNL     1       4.260  -5.723  -8.604  1.00  0.00     0.111 A 
ATOM      6  C   UNL     1       5.632  -6.110  -8.536  1.00  0.00     0.134 A 
ATOM      7  C   UNL     1       6.167  -6.932  -9.534  1.00  0.00     0.093 A 
ATOM      8  C   UNL     1       5.368  -7.434 -10.560  1.00  0.00     0.123 A 
ATOM      9  C   UNL     1       4.012  -7.112 -10.603  1.00  0.00     0.094 A 
ATOM     10  C   UNL     1       3.455  -6.263  -9.641  1.00  0.00     0.146 A 
ATOM     11  O   UNL     1       2.163  -5.971  -9.725  1.00  0.00    -0.452 OA
ENDROOT
BRANCH   1  12
ATOM     12  C   UNL     1       0.088  -4.938  -9.064  1.00  0.00     0.021 A 
ATOM     13  C   UNL     1      -0.828  -5.652  -8.273  1.00  0.00     0.016 A 
ATOM     14  C   UNL     1      -2.203  -5.441  -8.417  1.00  0.00     0.047 A 
ATOM     15  C   UNL     1      -2.679  -4.506  -9.340  1.00  0.00     0.115 A 
ATOM     16  C   UNL     1      -0.397  -3.983  -9.977  1.00  0.00     0.016 A 
ATOM     17  C   UNL     1      -1.773  -3.774 -10.118  1.00  0.00     0.047 A 
BRANCH  15  18
ATOM     18  O   UNL     1      -4.051  -4.307  -9.472  1.00  0.00    -0.508 OA
ATOM     19  H   UNL     1      -4.495  -3.449  -9.163  1.00  0.00     0.293 HD
ENDBRANCH  15  18
ENDBRANCH   1  12
BRANCH   2  20
ATOM     20  O   UNL     1       1.644  -3.595  -7.021  1.00  0.00    -0.502 OA
ATOM     21  H   UNL     1       0.646  -3.427  -7.046  1.00  0.00     0.293 HD
ENDBRANCH   2  20
BRANCH   6  22
ATOM     22  O   UNL     1       6.496  -5.739  -7.502  1.00  0.00    -0.507 OA
ATOM     23  H   UNL     1       6.262  -5.762  -6.521  1.00  0.00     0.293 HD
ENDBRANCH   6  22
BRANCH   8  24
ATOM     24  O   UNL     1       5.932  -8.263 -11.528  1.00  0.00    -0.508 OA
ATOM     25  H   UNL     1       6.223  -9.210 -11.312  1.00  0.00     0.293 HD
ENDBRANCH   8  24
TORSDOF 5
ENDMDL
MODEL 9
REMARK VINA RESULT:    -6.404      1.748      3.610
REMARK INTER + INTRA:          -7.795
REMARK INTER:                  -7.543
REMARK INTRA:                  -0.252
REMARK UNBOUND:                -0.268
REMARK SMILES O=c1c(O)c(-c2ccc(O)cc2)oc2cc(O)cc(O)c12
REMARK SMILES IDX 5 1 3 2 2 3 1 4 21 5 19 6 18 7 16 8 15 9 14 10 13 11 6 12
REMARK SMILES IDX 7 13 8 14 9 15 12 16 11 17 10 18 4 20 20 22 17 24
REMARK H PARENT 10 19 4 21 20 23 17 25
REMARK Flexibility Score: inf
ROOT
ATOM      1  C   UNL     1       6.516  -6.813 -10.036  1.00  0.00     0.180 A 
ATOM      2  C   UNL     1       7.272  -5.674 -10.363  1.00  0.00     0.208 A 
ATOM      3  C   UNL     1       8.593  -5.838 -10.809  1.00  0.00     0.238 A 
ATOM      4  O   UNL     1       9.246  -4.819 -11.152  1.00  0.00    -0.285 OA
ATOM      5  C   UNL     1       9.147  -7.137 -10.906  1.00  0.00     0.111 A 
ATOM      6  C   UNL     1      10.488  -7.419 -11.307  1.00  0.00     0.134 A 
ATOM      7  C   UNL     1      10.888  -8.747 -11.493  1.00  0.00     0.093 A 
ATOM      8  C   UNL     1      10.019  -9.805 -11.230  1.00  0.00     0.123 A 
ATOM      9  C   UNL     1       8.725  -9.544 -10.780  1.00  0.00     0.094 A 
ATOM     10  C   UNL     1       8.284  -8.227 -10.620  1.00  0.00     0.146 A 
ATOM     11  O   UNL     1       7.042  -8.021 -10.200  1.00  0.00    -0.452 OA
ENDROOT
BRANCH   1  12
ATOM     12  C   UNL     1       5.125  -6.719  -9.535  1.00  0.00     0.021 A 
ATOM     13  C   UNL     1       4.061  -7.080 -10.378  1.00  0.00     0.016 A 
ATOM     14  C   UNL     1       2.741  -7.020  -9.918  1.00  0.00     0.047 A 
ATOM     15  C   UNL     1       2.471  -6.614  -8.609  1.00  0.00     0.115 A 
ATOM     16  C   UNL     1       4.847  -6.330  -8.211  1.00  0.00     0.016 A 
ATOM     17  C   UNL     1       3.526  -6.273  -7.755  1.00  0.00     0.047 A 
BRANCH  15  18
ATOM     18  O   UNL     1       1.151  -6.559  -8.165  1.00  0.00    -0.508 OA
ATOM     19  H   UNL     1       0.886  -6.899  -7.247  1.00  0.00     0.293 HD
ENDBRANCH  15  18
ENDBRANCH   1  12
BRANCH   2  20
ATOM     20  O   UNL     1       6.697  -4.402 -10.281  1.00  0.00    -0.502 OA
ATOM     21  H   UNL     1       6.783  -3.718 -11.023  1.00  0.00     0.293 HD
ENDBRANCH   2  20
BRANCH   6  22
ATOM     22  O   UNL     1      11.464  -6.438 -11.507  1.00  0.00    -0.507 OA
ATOM     23  H   UNL     1      11.570  -5.896 -12.351  1.00  0.00     0.293 HD
ENDBRANCH   6  22
BRANCH   8  24
ATOM     24  O   UNL     1      10.457 -11.115 -11.412  1.00  0.00    -0.508 OA
ATOM     25  H   UNL     1      11.165 -11.526 -10.813  1.00  0.00     0.293 HD
ENDBRANCH   8  24
TORSDOF 5
ENDMDL
