MODEL 1
REMARK VINA RESULT:    -4.855      0.000      0.000
REMARK INTER + INTRA:         -11.499
REMARK INTER:                  -9.113
REMARK INTRA:                  -2.386
REMARK UNBOUND:                -2.386
REMARK SMILES CCCCCCCCC=CCCCCCCCC(=O)[O-]
REMARK SMILES IDX 10 1 9 2 11 3 12 4 13 5 14 6 15 7 16 8 17 9 18 10 19 11
REMARK SMILES IDX 20 12 8 13 7 14 6 15 5 16 4 17 3 18 2 19 1 20
REMARK H PARENT
REMARK Flexibility Score: inf
ROOT
ATOM      1  C   UNL     1      29.078  14.566   0.976  1.00  0.00    -0.031 C 
ATOM      2  C   UNL     1      29.019  15.909   1.015  1.00  0.00    -0.031 C 
ENDROOT
BRANCH   1   3
ATOM      3  C   UNL     1      28.655  13.719  -0.201  1.00  0.00     0.027 C 
BRANCH   3   4
ATOM      4  C   UNL     1      29.740  12.700  -0.574  1.00  0.00     0.004 C 
BRANCH   4   5
ATOM      5  C   UNL     1      30.971  13.372  -1.206  1.00  0.00     0.000 C 
BRANCH   5   6
ATOM      6  C   UNL     1      30.595  14.282  -2.394  1.00  0.00     0.000 C 
BRANCH   6   7
ATOM      7  C   UNL     1      31.341  15.629  -2.405  1.00  0.00     0.000 C 
BRANCH   7   8
ATOM      8  C   UNL     1      30.689  16.721  -3.271  1.00  0.00     0.006 C 
BRANCH   8   9
ATOM      9  C   UNL     1      29.252  16.371  -3.683  1.00  0.00     0.053 C 
BRANCH   9  10
ATOM     10  C   UNL     1      29.111  16.414  -5.171  1.00  0.00     0.041 C 
ATOM     11  O   UNL     1      28.396  17.297  -5.714  1.00  0.00    -0.550 OA
ATOM     12  O   UNL     1      29.739  15.457  -5.957  1.00  0.00    -0.550 OA
ENDBRANCH   9  10
ENDBRANCH   8   9
ENDBRANCH   7   8
ENDBRANCH   6   7
ENDBRANCH   5   6
ENDBRANCH   4   5
ENDBRANCH   3   4
ENDBRANCH   1   3
BRANCH   2  13
ATOM     13  C   UNL     1      28.530  16.759  -0.133  1.00  0.00     0.027 C 
BRANCH  13  14
ATOM     14  C   UNL     1      29.064  18.200  -0.070  1.00  0.00     0.004 C 
BRANCH  14  15
ATOM     15  C   UNL     1      28.029  19.253   0.381  1.00  0.00     0.000 C 
BRANCH  15  16
ATOM     16  C   UNL     1      28.211  19.789   1.813  1.00  0.00     0.000 C 
BRANCH  16  17
ATOM     17  C   UNL     1      29.601  19.486   2.396  1.00  0.00    -0.000 C 
BRANCH  17  18
ATOM     18  C   UNL     1      29.540  18.547   3.612  1.00  0.00    -0.000 C 
BRANCH  18  19
ATOM     19  C   UNL     1      28.129  18.001   3.872  1.00  0.00    -0.003 C 
ATOM     20  C   UNL     1      27.850  17.895   5.367  1.00  0.00     0.004 C 
ENDBRANCH  18  19
ENDBRANCH  17  18
ENDBRANCH  16  17
ENDBRANCH  15  16
ENDBRANCH  14  15
ENDBRANCH  13  14
ENDBRANCH   2  13
TORSDOF 15
ENDMDL
MODEL 2
REMARK VINA RESULT:    -4.782      4.239      7.897
REMARK INTER + INTRA:         -11.362
REMARK INTER:                  -9.265
REMARK INTRA:                  -2.098
REMARK UNBOUND:                -2.386
REMARK SMILES CCCCCCCCC=CCCCCCCCC(=O)[O-]
REMARK SMILES IDX 10 1 9 2 11 3 12 4 13 5 14 6 15 7 16 8 17 9 18 10 19 11
REMARK SMILES IDX 20 12 8 13 7 14 6 15 5 16 4 17 3 18 2 19 1 20
REMARK H PARENT
REMARK Flexibility Score: inf
ROOT
ATOM      1  C   UNL     1      27.239  19.487  -0.298  1.00  0.00    -0.031 C 
ATOM      2  C   UNL     1      27.697  18.486  -1.070  1.00  0.00    -0.031 C 
ENDROOT
BRANCH   1   3
ATOM      3  C   UNL     1      27.180  19.453   1.211  1.00  0.00     0.027 C 
BRANCH   3   4
ATOM      4  C   UNL     1      28.321  20.269   1.833  1.00  0.00     0.004 C 
BRANCH   4   5
ATOM      5  C   UNL     1      29.532  19.390   2.192  1.00  0.00     0.000 C 
BRANCH   5   6
ATOM      6  C   UNL     1      29.274  18.524   3.442  1.00  0.00     0.000 C 
BRANCH   6   7
ATOM      7  C   UNL     1      28.806  17.092   3.120  1.00  0.00     0.000 C 
BRANCH   7   8
ATOM      8  C   UNL     1      28.056  16.387   4.263  1.00  0.00     0.006 C 
BRANCH   8   9
ATOM      9  C   UNL     1      28.213  17.108   5.609  1.00  0.00     0.053 C 
BRANCH   9  10
ATOM     10  C   UNL     1      28.903  16.223   6.598  1.00  0.00     0.041 C 
ATOM     11  O   UNL     1      28.923  16.533   7.819  1.00  0.00    -0.550 OA
ATOM     12  O   UNL     1      29.554  15.075   6.168  1.00  0.00    -0.550 OA
ENDBRANCH   9  10
ENDBRANCH   8   9
ENDBRANCH   7   8
ENDBRANCH   6   7
ENDBRANCH   5   6
ENDBRANCH   4   5
ENDBRANCH   3   4
ENDBRANCH   1   3
BRANCH   2  13
ATOM     13  C   UNL     1      28.234  17.185  -0.523  1.00  0.00     0.027 C 
BRANCH  13  14
ATOM     14  C   UNL     1      29.754  17.050  -0.706  1.00  0.00     0.004 C 
BRANCH  14  15
ATOM     15  C   UNL     1      30.262  15.598  -0.842  1.00  0.00     0.000 C 
BRANCH  15  16
ATOM     16  C   UNL     1      31.208  15.335  -2.029  1.00  0.00     0.000 C 
BRANCH  16  17
ATOM     17  C   UNL     1      31.098  16.400  -3.133  1.00  0.00    -0.000 C 
BRANCH  17  18
ATOM     18  C   UNL     1      30.105  16.003  -4.238  1.00  0.00    -0.000 C 
BRANCH  18  19
ATOM     19  C   UNL     1      28.938  16.991  -4.372  1.00  0.00    -0.003 C 
ATOM     20  C   UNL     1      27.603  16.298  -4.118  1.00  0.00     0.004 C 
ENDBRANCH  18  19
ENDBRANCH  17  18
ENDBRANCH  16  17
ENDBRANCH  15  16
ENDBRANCH  14  15
ENDBRANCH  13  14
ENDBRANCH   2  13
TORSDOF 15
ENDMDL
MODEL 3
REMARK VINA RESULT:    -4.766      4.250      6.688
REMARK INTER + INTRA:         -11.332
REMARK INTER:                 -10.104
REMARK INTRA:                  -1.228
REMARK UNBOUND:                -2.386
REMARK SMILES CCCCCCCCC=CCCCCCCCC(=O)[O-]
REMARK SMILES IDX 10 1 9 2 11 3 12 4 13 5 14 6 15 7 16 8 17 9 18 10 19 11
REMARK SMILES IDX 20 12 8 13 7 14 6 15 5 16 4 17 3 18 2 19 1 20
REMARK H PARENT
REMARK Flexibility Score: inf
ROOT
ATOM      1  C   UNL     1      24.907  20.185  -0.207  1.00  0.00    -0.031 C 
ATOM      2  C   UNL     1      25.398  20.091   1.042  1.00  0.00    -0.031 C 
ENDROOT
BRANCH   1   3
ATOM      3  C   UNL     1      25.380  19.363  -1.382  1.00  0.00     0.027 C 
BRANCH   3   4
ATOM      4  C   UNL     1      26.420  20.125  -2.214  1.00  0.00     0.004 C 
BRANCH   4   5
ATOM      5  C   UNL     1      25.997  20.258  -3.687  1.00  0.00     0.000 C 
BRANCH   5   6
ATOM      6  C   UNL     1      25.928  21.731  -4.144  1.00  0.00     0.000 C 
BRANCH   6   7
ATOM      7  C   UNL     1      27.303  22.346  -4.464  1.00  0.00     0.000 C 
BRANCH   7   8
ATOM      8  C   UNL     1      27.490  22.782  -5.927  1.00  0.00     0.006 C 
BRANCH   8   9
ATOM      9  C   UNL     1      26.158  22.956  -6.669  1.00  0.00     0.053 C 
BRANCH   9  10
ATOM     10  C   UNL     1      26.213  22.288  -8.006  1.00  0.00     0.041 C 
ATOM     11  O   UNL     1      26.852  21.212  -8.150  1.00  0.00    -0.550 OA
ATOM     12  O   UNL     1      25.589  22.870  -9.101  1.00  0.00    -0.550 OA
ENDBRANCH   9  10
ENDBRANCH   8   9
ENDBRANCH   7   8
ENDBRANCH   6   7
ENDBRANCH   5   6
ENDBRANCH   4   5
ENDBRANCH   3   4
ENDBRANCH   1   3
BRANCH   2  13
ATOM     13  C   UNL     1      26.490  19.128   1.442  1.00  0.00     0.027 C 
BRANCH  13  14
ATOM     14  C   UNL     1      27.892  19.754   1.351  1.00  0.00     0.004 C 
BRANCH  14  15
ATOM     15  C   UNL     1      29.020  18.761   0.996  1.00  0.00     0.000 C 
BRANCH  15  16
ATOM     16  C   UNL     1      28.799  17.938  -0.287  1.00  0.00     0.000 C 
BRANCH  16  17
ATOM     17  C   UNL     1      30.102  17.356  -0.859  1.00  0.00    -0.000 C 
BRANCH  17  18
ATOM     18  C   UNL     1      30.156  15.823  -0.764  1.00  0.00    -0.000 C 
BRANCH  18  19
ATOM     19  C   UNL     1      30.834  15.175  -1.979  1.00  0.00    -0.003 C 
ATOM     20  C   UNL     1      31.321  16.233  -2.964  1.00  0.00     0.004 C 
ENDBRANCH  18  19
ENDBRANCH  17  18
ENDBRANCH  16  17
ENDBRANCH  15  16
ENDBRANCH  14  15
ENDBRANCH  13  14
ENDBRANCH   2  13
TORSDOF 15
ENDMDL
MODEL 4
REMARK VINA RESULT:    -4.743      2.148      5.818
REMARK INTER + INTRA:         -11.289
REMARK INTER:                  -8.636
REMARK INTRA:                  -2.652
REMARK UNBOUND:                -2.386
REMARK SMILES CCCCCCCCC=CCCCCCCCC(=O)[O-]
REMARK SMILES IDX 10 1 9 2 11 3 12 4 13 5 14 6 15 7 16 8 17 9 18 10 19 11
REMARK SMILES IDX 20 12 8 13 7 14 6 15 5 16 4 17 3 18 2 19 1 20
REMARK H PARENT
REMARK Flexibility Score: inf
ROOT
ATOM      1  C   UNL     1      27.412  16.152   1.901  1.00  0.00    -0.031 C 
ATOM      2  C   UNL     1      27.967  16.088   0.678  1.00  0.00    -0.031 C 
ENDROOT
BRANCH   1   3
ATOM      3  C   UNL     1      28.180  16.362   3.185  1.00  0.00     0.027 C 
BRANCH   3   4
ATOM      4  C   UNL     1      28.086  17.818   3.659  1.00  0.00     0.004 C 
BRANCH   4   5
ATOM      5  C   UNL     1      29.395  18.590   3.423  1.00  0.00     0.000 C 
BRANCH   5   6
ATOM      6  C   UNL     1      29.261  19.638   2.298  1.00  0.00     0.000 C 
BRANCH   6   7
ATOM      7  C   UNL     1      27.807  19.896   1.860  1.00  0.00     0.000 C 
BRANCH   7   8
ATOM      8  C   UNL     1      27.526  19.635   0.371  1.00  0.00     0.006 C 
BRANCH   8   9
ATOM      9  C   UNL     1      26.027  19.624   0.043  1.00  0.00     0.053 C 
BRANCH   9  10
ATOM     10  C   UNL     1      25.816  19.558  -1.436  1.00  0.00     0.041 C 
ATOM     11  O   UNL     1      26.625  20.125  -2.217  1.00  0.00    -0.550 OA
ATOM     12  O   UNL     1      24.706  18.901  -1.952  1.00  0.00    -0.550 OA
ENDBRANCH   9  10
ENDBRANCH   8   9
ENDBRANCH   7   8
ENDBRANCH   6   7
ENDBRANCH   5   6
ENDBRANCH   4   5
ENDBRANCH   3   4
ENDBRANCH   1   3
BRANCH   2  13
ATOM     13  C   UNL     1      29.448  16.235   0.422  1.00  0.00     0.027 C 
BRANCH  13  14
ATOM     14  C   UNL     1      29.763  17.330  -0.610  1.00  0.00     0.004 C 
BRANCH  14  15
ATOM     15  C   UNL     1      29.054  17.158  -1.971  1.00  0.00     0.000 C 
BRANCH  15  16
ATOM     16  C   UNL     1      29.757  16.221  -2.971  1.00  0.00     0.000 C 
BRANCH  16  17
ATOM     17  C   UNL     1      31.257  16.051  -2.682  1.00  0.00    -0.000 C 
BRANCH  17  18
ATOM     18  C   UNL     1      31.608  14.636  -2.193  1.00  0.00    -0.000 C 
BRANCH  18  19
ATOM     19  C   UNL     1      30.390  13.703  -2.147  1.00  0.00    -0.003 C 
ATOM     20  C   UNL     1      30.303  12.982  -0.805  1.00  0.00     0.004 C 
ENDBRANCH  18  19
ENDBRANCH  17  18
ENDBRANCH  16  17
ENDBRANCH  15  16
ENDBRANCH  14  15
ENDBRANCH  13  14
ENDBRANCH   2  13
TORSDOF 15
ENDMDL
MODEL 5
REMARK VINA RESULT:    -4.710      3.191      6.449
REMARK INTER + INTRA:         -11.227
REMARK INTER:                  -9.564
REMARK INTRA:                  -1.663
REMARK UNBOUND:                -2.386
REMARK SMILES CCCCCCCCC=CCCCCCCCC(=O)[O-]
REMARK SMILES IDX 10 1 9 2 11 3 12 4 13 5 14 6 15 7 16 8 17 9 18 10 19 11
REMARK SMILES IDX 20 12 8 13 7 14 6 15 5 16 4 17 3 18 2 19 1 20
REMARK H PARENT
REMARK Flexibility Score: inf
ROOT
ATOM      1  C   UNL     1      29.355  18.564   0.524  1.00  0.00    -0.031 C 
ATOM      2  C   UNL     1      29.586  17.381  -0.074  1.00  0.00    -0.031 C 
ENDROOT
BRANCH   1   3
ATOM      3  C   UNL     1      28.311  18.800   1.590  1.00  0.00     0.027 C 
BRANCH   3   4
ATOM      4  C   UNL     1      27.067  19.486   1.010  1.00  0.00     0.004 C 
BRANCH   4   5
ATOM      5  C   UNL     1      27.046  19.443  -0.527  1.00  0.00     0.000 C 
BRANCH   5   6
ATOM      6  C   UNL     1      25.656  19.788  -1.103  1.00  0.00     0.000 C 
BRANCH   6   7
ATOM      7  C   UNL     1      25.553  19.604  -2.628  1.00  0.00     0.000 C 
BRANCH   7   8
ATOM      8  C   UNL     1      26.395  20.589  -3.455  1.00  0.00     0.006 C 
BRANCH   8   9
ATOM      9  C   UNL     1      25.540  21.628  -4.192  1.00  0.00     0.053 C 
BRANCH   9  10
ATOM     10  C   UNL     1      26.406  22.540  -5.001  1.00  0.00     0.041 C 
ATOM     11  O   UNL     1      27.589  22.777  -4.638  1.00  0.00    -0.550 OA
ATOM     12  O   UNL     1      25.898  23.156  -6.137  1.00  0.00    -0.550 OA
ENDBRANCH   9  10
ENDBRANCH   8   9
ENDBRANCH   7   8
ENDBRANCH   6   7
ENDBRANCH   5   6
ENDBRANCH   4   5
ENDBRANCH   3   4
ENDBRANCH   1   3
BRANCH   2  13
ATOM     13  C   UNL     1      28.832  16.115   0.256  1.00  0.00     0.027 C 
BRANCH  13  14
ATOM     14  C   UNL     1      29.703  14.855   0.113  1.00  0.00     0.004 C 
BRANCH  14  15
ATOM     15  C   UNL     1      29.825  14.315  -1.328  1.00  0.00     0.000 C 
BRANCH  15  16
ATOM     16  C   UNL     1      31.211  14.474  -1.980  1.00  0.00     0.000 C 
BRANCH  16  17
ATOM     17  C   UNL     1      31.393  15.830  -2.681  1.00  0.00    -0.000 C 
BRANCH  17  18
ATOM     18  C   UNL     1      30.421  16.023  -3.857  1.00  0.00    -0.000 C 
BRANCH  18  19
ATOM     19  C   UNL     1      29.440  17.182  -3.634  1.00  0.00    -0.003 C 
ATOM     20  C   UNL     1      27.995  16.703  -3.740  1.00  0.00     0.004 C 
ENDBRANCH  18  19
ENDBRANCH  17  18
ENDBRANCH  16  17
ENDBRANCH  15  16
ENDBRANCH  14  15
ENDBRANCH  13  14
ENDBRANCH   2  13
TORSDOF 15
ENDMDL
MODEL 6
REMARK VINA RESULT:    -4.701      3.574      7.223
REMARK INTER + INTRA:         -11.209
REMARK INTER:                  -8.695
REMARK INTRA:                  -2.514
REMARK UNBOUND:                -2.386
REMARK SMILES CCCCCCCCC=CCCCCCCCC(=O)[O-]
REMARK SMILES IDX 10 1 9 2 11 3 12 4 13 5 14 6 15 7 16 8 17 9 18 10 19 11
REMARK SMILES IDX 20 12 8 13 7 14 6 15 5 16 4 17 3 18 2 19 1 20
REMARK H PARENT
REMARK Flexibility Score: inf
ROOT
ATOM      1  C   UNL     1      28.299  15.312  -0.287  1.00  0.00    -0.031 C 
ATOM      2  C   UNL     1      28.876  14.253  -0.883  1.00  0.00    -0.031 C 
ENDROOT
BRANCH   1   3
ATOM      3  C   UNL     1      29.004  16.262   0.652  1.00  0.00     0.027 C 
BRANCH   3   4
ATOM      4  C   UNL     1      29.565  17.476  -0.099  1.00  0.00     0.004 C 
BRANCH   4   5
ATOM      5  C   UNL     1      28.610  18.680  -0.047  1.00  0.00     0.000 C 
BRANCH   5   6
ATOM      6  C   UNL     1      28.221  19.056   1.398  1.00  0.00     0.000 C 
BRANCH   6   7
ATOM      7  C   UNL     1      29.422  19.424   2.289  1.00  0.00     0.000 C 
BRANCH   7   8
ATOM      8  C   UNL     1      29.479  18.681   3.634  1.00  0.00     0.006 C 
BRANCH   8   9
ATOM      9  C   UNL     1      28.207  17.872   3.919  1.00  0.00     0.053 C 
BRANCH   9  10
ATOM     10  C   UNL     1      28.548  16.588   4.608  1.00  0.00     0.041 C 
ATOM     11  O   UNL     1      29.407  16.572   5.529  1.00  0.00    -0.550 OA
ATOM     12  O   UNL     1      27.943  15.403   4.210  1.00  0.00    -0.550 OA
ENDBRANCH   9  10
ENDBRANCH   8   9
ENDBRANCH   7   8
ENDBRANCH   6   7
ENDBRANCH   5   6
ENDBRANCH   4   5
ENDBRANCH   3   4
ENDBRANCH   1   3
BRANCH   2  13
ATOM     13  C   UNL     1      30.328  13.878  -0.700  1.00  0.00     0.027 C 
BRANCH  13  14
ATOM     14  C   UNL     1      31.161  14.104  -1.972  1.00  0.00     0.004 C 
BRANCH  14  15
ATOM     15  C   UNL     1      31.392  15.587  -2.337  1.00  0.00     0.000 C 
BRANCH  15  16
ATOM     16  C   UNL     1      30.832  16.028  -3.702  1.00  0.00     0.000 C 
BRANCH  16  17
ATOM     17  C   UNL     1      29.454  16.701  -3.597  1.00  0.00    -0.000 C 
BRANCH  17  18
ATOM     18  C   UNL     1      28.339  15.871  -4.255  1.00  0.00    -0.000 C 
BRANCH  18  19
ATOM     19  C   UNL     1      28.873  14.635  -4.991  1.00  0.00    -0.003 C 
ATOM     20  C   UNL     1      28.276  13.354  -4.415  1.00  0.00     0.004 C 
ENDBRANCH  18  19
ENDBRANCH  17  18
ENDBRANCH  16  17
ENDBRANCH  15  16
ENDBRANCH  14  15
ENDBRANCH  13  14
ENDBRANCH   2  13
TORSDOF 15
ENDMDL
MODEL 7
REMARK VINA RESULT:    -4.687      1.804      3.512
REMARK INTER + INTRA:         -11.184
REMARK INTER:                  -8.725
REMARK INTRA:                  -2.459
REMARK UNBOUND:                -2.386
REMARK SMILES CCCCCCCCC=CCCCCCCCC(=O)[O-]
REMARK SMILES IDX 10 1 9 2 11 3 12 4 13 5 14 6 15 7 16 8 17 9 18 10 19 11
REMARK SMILES IDX 20 12 8 13 7 14 6 15 5 16 4 17 3 18 2 19 1 20
REMARK H PARENT
REMARK Flexibility Score: inf
ROOT
ATOM      1  C   UNL     1      27.340  16.881   3.412  1.00  0.00    -0.031 C 
ATOM      2  C   UNL     1      27.901  18.010   3.881  1.00  0.00    -0.031 C 
ENDROOT
BRANCH   1   3
ATOM      3  C   UNL     1      28.065  15.830   2.604  1.00  0.00     0.027 C 
BRANCH   3   4
ATOM      4  C   UNL     1      27.257  15.423   1.365  1.00  0.00     0.004 C 
BRANCH   4   5
ATOM      5  C   UNL     1      27.956  15.833   0.058  1.00  0.00     0.000 C 
BRANCH   5   6
ATOM      6  C   UNL     1      29.456  16.129   0.266  1.00  0.00     0.000 C 
BRANCH   6   7
ATOM      7  C   UNL     1      30.121  16.837  -0.929  1.00  0.00     0.000 C 
BRANCH   7   8
ATOM      8  C   UNL     1      30.913  15.911  -1.868  1.00  0.00     0.006 C 
BRANCH   8   9
ATOM      9  C   UNL     1      31.091  16.502  -3.273  1.00  0.00     0.053 C 
BRANCH   9  10
ATOM     10  C   UNL     1      29.887  16.221  -4.114  1.00  0.00     0.041 C 
ATOM     11  O   UNL     1      29.299  17.161  -4.712  1.00  0.00    -0.550 OA
ATOM     12  O   UNL     1      29.393  14.927  -4.211  1.00  0.00    -0.550 OA
ENDBRANCH   9  10
ENDBRANCH   8   9
ENDBRANCH   7   8
ENDBRANCH   6   7
ENDBRANCH   5   6
ENDBRANCH   4   5
ENDBRANCH   3   4
ENDBRANCH   1   3
BRANCH   2  13
ATOM     13  C   UNL     1      29.353  18.372   3.672  1.00  0.00     0.027 C 
BRANCH  13  14
ATOM     14  C   UNL     1      29.569  19.244   2.424  1.00  0.00     0.004 C 
BRANCH  14  15
ATOM     15  C   UNL     1      28.290  19.908   1.870  1.00  0.00     0.000 C 
BRANCH  15  16
ATOM     16  C   UNL     1      27.876  19.470   0.453  1.00  0.00     0.000 C 
BRANCH  16  17
ATOM     17  C   UNL     1      26.353  19.348   0.283  1.00  0.00    -0.000 C 
BRANCH  17  18
ATOM     18  C   UNL     1      25.591  19.581   1.598  1.00  0.00    -0.000 C 
BRANCH  18  19
ATOM     19  C   UNL     1      24.658  20.798   1.538  1.00  0.00    -0.003 C 
ATOM     20  C   UNL     1      23.759  20.738   0.307  1.00  0.00     0.004 C 
ENDBRANCH  18  19
ENDBRANCH  17  18
ENDBRANCH  16  17
ENDBRANCH  15  16
ENDBRANCH  14  15
ENDBRANCH  13  14
ENDBRANCH   2  13
TORSDOF 15
ENDMDL
MODEL 8
REMARK VINA RESULT:    -4.663      4.155      7.825
REMARK INTER + INTRA:         -11.138
REMARK INTER:                  -9.516
REMARK INTRA:                  -1.623
REMARK UNBOUND:                -2.386
REMARK SMILES CCCCCCCCC=CCCCCCCCC(=O)[O-]
REMARK SMILES IDX 10 1 9 2 11 3 12 4 13 5 14 6 15 7 16 8 17 9 18 10 19 11
REMARK SMILES IDX 20 12 8 13 7 14 6 15 5 16 4 17 3 18 2 19 1 20
REMARK H PARENT
REMARK Flexibility Score: inf
ROOT
ATOM      1  C   UNL     1      29.014  16.447   0.225  1.00  0.00    -0.031 C 
ATOM      2  C   UNL     1      29.579  15.425  -0.442  1.00  0.00    -0.031 C 
ENDROOT
BRANCH   1   3
ATOM      3  C   UNL     1      29.398  17.899   0.062  1.00  0.00     0.027 C 
BRANCH   3   4
ATOM      4  C   UNL     1      28.204  18.825   0.327  1.00  0.00     0.004 C 
BRANCH   4   5
ATOM      5  C   UNL     1      28.458  19.772   1.511  1.00  0.00     0.000 C 
BRANCH   5   6
ATOM      6  C   UNL     1      29.705  19.368   2.326  1.00  0.00     0.000 C 
BRANCH   6   7
ATOM      7  C   UNL     1      29.380  18.803   3.721  1.00  0.00     0.000 C 
BRANCH   7   8
ATOM      8  C   UNL     1      28.999  17.313   3.740  1.00  0.00     0.006 C 
BRANCH   8   9
ATOM      9  C   UNL     1      27.926  16.988   4.787  1.00  0.00     0.053 C 
BRANCH   9  10
ATOM     10  C   UNL     1      28.560  16.523   6.059  1.00  0.00     0.041 C 
ATOM     11  O   UNL     1      28.945  17.359   6.918  1.00  0.00    -0.550 OA
ATOM     12  O   UNL     1      28.760  15.166   6.281  1.00  0.00    -0.550 OA
ENDBRANCH   9  10
ENDBRANCH   8   9
ENDBRANCH   7   8
ENDBRANCH   6   7
ENDBRANCH   5   6
ENDBRANCH   4   5
ENDBRANCH   3   4
ENDBRANCH   1   3
BRANCH   2  13
ATOM     13  C   UNL     1      30.676  15.598  -1.465  1.00  0.00     0.027 C 
BRANCH  13  14
ATOM     14  C   UNL     1      31.283  14.258  -1.913  1.00  0.00     0.004 C 
BRANCH  14  15
ATOM     15  C   UNL     1      30.277  13.089  -1.993  1.00  0.00     0.000 C 
BRANCH  15  16
ATOM     16  C   UNL     1      30.895  11.697  -2.220  1.00  0.00     0.000 C 
BRANCH  16  17
ATOM     17  C   UNL     1      30.240  10.601  -1.362  1.00  0.00    -0.000 C 
BRANCH  17  18
ATOM     18  C   UNL     1      29.326  11.176  -0.268  1.00  0.00    -0.000 C 
BRANCH  18  19
ATOM     19  C   UNL     1      29.924  11.042   1.139  1.00  0.00    -0.003 C 
ATOM     20  C   UNL     1      30.284  12.408   1.714  1.00  0.00     0.004 C 
ENDBRANCH  18  19
ENDBRANCH  17  18
ENDBRANCH  16  17
ENDBRANCH  15  16
ENDBRANCH  14  15
ENDBRANCH  13  14
ENDBRANCH   2  13
TORSDOF 15
ENDMDL
MODEL 9
REMARK VINA RESULT:    -4.639      2.340      4.288
REMARK INTER + INTRA:         -11.093
REMARK INTER:                  -8.891
REMARK INTRA:                  -2.202
REMARK UNBOUND:                -2.386
REMARK SMILES CCCCCCCCC=CCCCCCCCC(=O)[O-]
REMARK SMILES IDX 10 1 9 2 11 3 12 4 13 5 14 6 15 7 16 8 17 9 18 10 19 11
REMARK SMILES IDX 20 12 8 13 7 14 6 15 5 16 4 17 3 18 2 19 1 20
REMARK H PARENT
REMARK Flexibility Score: inf
ROOT
ATOM      1  C   UNL     1      28.271  19.371   0.521  1.00  0.00    -0.031 C 
ATOM      2  C   UNL     1      27.588  19.663   1.642  1.00  0.00    -0.031 C 
ENDROOT
BRANCH   1   3
ATOM      3  C   UNL     1      28.252  18.029  -0.174  1.00  0.00     0.027 C 
BRANCH   3   4
ATOM      4  C   UNL     1      29.667  17.453  -0.313  1.00  0.00     0.004 C 
BRANCH   4   5
ATOM      5  C   UNL     1      29.677  15.917  -0.227  1.00  0.00     0.000 C 
BRANCH   5   6
ATOM      6  C   UNL     1      30.426  15.271  -1.411  1.00  0.00     0.000 C 
BRANCH   6   7
ATOM      7  C   UNL     1      31.102  16.289  -2.349  1.00  0.00     0.000 C 
BRANCH   7   8
ATOM      8  C   UNL     1      30.520  16.341  -3.771  1.00  0.00     0.006 C 
BRANCH   8   9
ATOM      9  C   UNL     1      29.081  16.872  -3.804  1.00  0.00     0.053 C 
BRANCH   9  10
ATOM     10  C   UNL     1      28.659  17.154  -5.211  1.00  0.00     0.041 C 
ATOM     11  O   UNL     1      27.845  18.083  -5.454  1.00  0.00    -0.550 OA
ATOM     12  O   UNL     1      29.138  16.367  -6.251  1.00  0.00    -0.550 OA
ENDBRANCH   9  10
ENDBRANCH   8   9
ENDBRANCH   7   8
ENDBRANCH   6   7
ENDBRANCH   5   6
ENDBRANCH   4   5
ENDBRANCH   3   4
ENDBRANCH   1   3
BRANCH   2  13
ATOM     13  C   UNL     1      26.690  18.680   2.356  1.00  0.00     0.027 C 
BRANCH  13  14
ATOM     14  C   UNL     1      25.235  19.168   2.445  1.00  0.00     0.004 C 
BRANCH  14  15
ATOM     15  C   UNL     1      24.997  20.593   1.900  1.00  0.00     0.000 C 
BRANCH  15  16
ATOM     16  C   UNL     1      23.977  20.703   0.751  1.00  0.00     0.000 C 
BRANCH  16  17
ATOM     17  C   UNL     1      24.623  20.582  -0.639  1.00  0.00    -0.000 C 
BRANCH  17  18
ATOM     18  C   UNL     1      24.535  19.157  -1.209  1.00  0.00    -0.000 C 
BRANCH  18  19
ATOM     19  C   UNL     1      25.484  18.931  -2.394  1.00  0.00    -0.003 C 
ATOM     20  C   UNL     1      26.373  20.149  -2.624  1.00  0.00     0.004 C 
ENDBRANCH  18  19
ENDBRANCH  17  18
ENDBRANCH  16  17
ENDBRANCH  15  16
ENDBRANCH  14  15
ENDBRANCH  13  14
ENDBRANCH   2  13
TORSDOF 15
ENDMDL
