MODEL 1
REMARK VINA RESULT:    -5.844      0.000      0.000
REMARK INTER + INTRA:          -6.015
REMARK INTER:                  -6.015
REMARK INTRA:                   0.000
REMARK UNBOUND:                 0.000
REMARK SMILES Nc1ncnc2nc[nH]c12
REMARK SMILES IDX 8 1 7 2 6 3 5 4 4 5 3 6 2 7 10 8 9 9 1 11
REMARK H PARENT 9 10 1 12 1 13
REMARK Flexibility Score: inf
ROOT
ATOM      1  C   UNL     1      -5.544 -31.484 -50.841  1.00  0.00     0.199 A 
ATOM      2  N   UNL     1      -5.164 -31.195 -52.116  1.00  0.00    -0.217 NA
ATOM      3  C   UNL     1      -4.073 -31.964 -52.269  1.00  0.00     0.182 A 
ATOM      4  N   UNL     1      -3.298 -32.054 -53.376  1.00  0.00    -0.215 NA
ATOM      5  C   UNL     1      -2.222 -32.898 -53.343  1.00  0.00     0.226 A 
ATOM      6  N   UNL     1      -1.944 -33.628 -52.216  1.00  0.00    -0.217 NA
ATOM      7  C   UNL     1      -2.725 -33.538 -51.097  1.00  0.00     0.152 A 
ATOM      8  C   UNL     1      -3.816 -32.674 -51.148  1.00  0.00     0.127 A 
ATOM      9  N   UNL     1      -4.741 -32.386 -50.223  1.00  0.00    -0.340 N 
ATOM     10  H   UNL     1      -4.832 -32.760 -49.252  1.00  0.00     0.168 HD
ENDROOT
BRANCH   7  11
ATOM     11  N   UNL     1      -2.417 -34.307 -49.935  1.00  0.00    -0.382 N 
ATOM     12  H   UNL     1      -3.158 -34.885 -49.481  1.00  0.00     0.158 HD
ATOM     13  H   UNL     1      -1.458 -34.309 -49.521  1.00  0.00     0.158 HD
ENDBRANCH   7  11
TORSDOF 1
ENDMDL
MODEL 2
REMARK VINA RESULT:    -5.567      1.381      3.250
REMARK INTER + INTRA:          -5.730
REMARK INTER:                  -5.730
REMARK INTRA:                   0.000
REMARK UNBOUND:                 0.000
REMARK SMILES Nc1ncnc2nc[nH]c12
REMARK SMILES IDX 8 1 7 2 6 3 5 4 4 5 3 6 2 7 10 8 9 9 1 11
REMARK H PARENT 9 10 1 12 1 13
REMARK Flexibility Score: inf
ROOT
ATOM      1  C   UNL     1       0.108 -32.823 -53.078  1.00  0.00     0.199 A 
ATOM      2  N   UNL     1      -0.818 -32.156 -53.821  1.00  0.00    -0.217 NA
ATOM      3  C   UNL     1      -1.940 -32.333 -53.103  1.00  0.00     0.182 A 
ATOM      4  N   UNL     1      -3.174 -31.864 -53.405  1.00  0.00    -0.215 NA
ATOM      5  C   UNL     1      -4.200 -32.149 -52.546  1.00  0.00     0.226 A 
ATOM      6  N   UNL     1      -3.976 -32.890 -51.414  1.00  0.00    -0.217 NA
ATOM      7  C   UNL     1      -2.731 -33.365 -51.108  1.00  0.00     0.152 A 
ATOM      8  C   UNL     1      -1.697 -33.066 -51.993  1.00  0.00     0.127 A 
ATOM      9  N   UNL     1      -0.399 -33.390 -51.954  1.00  0.00    -0.340 N 
ATOM     10  H   UNL     1       0.114 -33.947 -51.235  1.00  0.00     0.168 HD
ENDROOT
BRANCH   7  11
ATOM     11  N   UNL     1      -2.521 -34.134 -49.925  1.00  0.00    -0.382 N 
ATOM     12  H   UNL     1      -2.459 -33.658 -48.997  1.00  0.00     0.158 HD
ATOM     13  H   UNL     1      -2.426 -35.173 -49.959  1.00  0.00     0.158 HD
ENDBRANCH   7  11
TORSDOF 1
ENDMDL
MODEL 3
REMARK VINA RESULT:    -5.423      1.129      3.069
REMARK INTER + INTRA:          -5.581
REMARK INTER:                  -5.581
REMARK INTRA:                   0.000
REMARK UNBOUND:                 0.000
REMARK SMILES Nc1ncnc2nc[nH]c12
REMARK SMILES IDX 8 1 7 2 6 3 5 4 4 5 3 6 2 7 10 8 9 9 1 11
REMARK H PARENT 9 10 1 12 1 13
REMARK Flexibility Score: inf
ROOT
ATOM      1  C   UNL     1      -1.866 -33.464 -52.453  1.00  0.00     0.199 A 
ATOM      2  N   UNL     1      -2.262 -32.785 -53.564  1.00  0.00    -0.217 NA
ATOM      3  C   UNL     1      -3.370 -32.157 -53.135  1.00  0.00     0.182 A 
ATOM      4  N   UNL     1      -4.165 -31.336 -53.860  1.00  0.00    -0.215 NA
ATOM      5  C   UNL     1      -5.256 -30.786 -53.245  1.00  0.00     0.226 A 
ATOM      6  N   UNL     1      -5.528 -31.064 -51.930  1.00  0.00    -0.217 NA
ATOM      7  C   UNL     1      -4.727 -31.893 -51.196  1.00  0.00     0.152 A 
ATOM      8  C   UNL     1      -3.620 -32.445 -51.837  1.00  0.00     0.127 A 
ATOM      9  N   UNL     1      -2.675 -33.276 -51.380  1.00  0.00    -0.340 N 
ATOM     10  H   UNL     1      -2.574 -33.689 -50.426  1.00  0.00     0.168 HD
ENDROOT
BRANCH   7  11
ATOM     11  N   UNL     1      -5.029 -32.169 -49.829  1.00  0.00    -0.382 N 
ATOM     12  H   UNL     1      -5.960 -32.565 -49.570  1.00  0.00     0.158 HD
ATOM     13  H   UNL     1      -4.337 -31.983 -49.070  1.00  0.00     0.158 HD
ENDBRANCH   7  11
TORSDOF 1
ENDMDL
MODEL 4
REMARK VINA RESULT:    -5.286      1.191      1.966
REMARK INTER + INTRA:          -5.441
REMARK INTER:                  -5.441
REMARK INTRA:                   0.000
REMARK UNBOUND:                 0.000
REMARK SMILES Nc1ncnc2nc[nH]c12
REMARK SMILES IDX 8 1 7 2 6 3 5 4 4 5 3 6 2 7 10 8 9 9 1 11
REMARK H PARENT 9 10 1 12 1 13
REMARK Flexibility Score: inf
ROOT
ATOM      1  C   UNL     1      -5.496 -30.567 -53.618  1.00  0.00     0.199 A 
ATOM      2  N   UNL     1      -4.468 -31.089 -54.341  1.00  0.00    -0.217 NA
ATOM      3  C   UNL     1      -3.822 -31.829 -53.424  1.00  0.00     0.182 A 
ATOM      4  N   UNL     1      -2.706 -32.571 -53.625  1.00  0.00    -0.215 NA
ATOM      5  C   UNL     1      -2.191 -33.261 -52.562  1.00  0.00     0.226 A 
ATOM      6  N   UNL     1      -2.794 -33.199 -51.332  1.00  0.00    -0.217 NA
ATOM      7  C   UNL     1      -3.920 -32.451 -51.128  1.00  0.00     0.152 A 
ATOM      8  C   UNL     1      -4.432 -31.754 -52.219  1.00  0.00     0.127 A 
ATOM      9  N   UNL     1      -5.502 -30.955 -52.317  1.00  0.00    -0.340 N 
ATOM     10  H   UNL     1      -6.187 -30.687 -51.576  1.00  0.00     0.168 HD
ENDROOT
BRANCH   7  11
ATOM     11  N   UNL     1      -4.531 -32.401 -49.839  1.00  0.00    -0.382 N 
ATOM     12  H   UNL     1      -3.996 -32.032 -49.021  1.00  0.00     0.158 HD
ATOM     13  H   UNL     1      -5.512 -32.726 -49.688  1.00  0.00     0.158 HD
ENDBRANCH   7  11
TORSDOF 1
ENDMDL
MODEL 5
REMARK VINA RESULT:    -5.134      2.979      4.330
REMARK INTER + INTRA:          -5.285
REMARK INTER:                  -5.285
REMARK INTRA:                   0.000
REMARK UNBOUND:                 0.000
REMARK SMILES Nc1ncnc2nc[nH]c12
REMARK SMILES IDX 8 1 7 2 6 3 5 4 4 5 3 6 2 7 10 8 9 9 1 11
REMARK H PARENT 9 10 1 12 1 13
REMARK Flexibility Score: inf
ROOT
ATOM      1  C   UNL     1      -7.956 -30.894 -48.663  1.00  0.00     0.199 A 
ATOM      2  N   UNL     1      -7.614 -29.578 -48.718  1.00  0.00    -0.217 NA
ATOM      3  C   UNL     1      -6.726 -29.557 -49.726  1.00  0.00     0.182 A 
ATOM      4  N   UNL     1      -6.069 -28.472 -50.200  1.00  0.00    -0.215 NA
ATOM      5  C   UNL     1      -5.197 -28.649 -51.240  1.00  0.00     0.226 A 
ATOM      6  N   UNL     1      -5.002 -29.894 -51.781  1.00  0.00    -0.217 NA
ATOM      7  C   UNL     1      -5.665 -30.990 -51.303  1.00  0.00     0.152 A 
ATOM      8  C   UNL     1      -6.548 -30.793 -50.244  1.00  0.00     0.127 A 
ATOM      9  N   UNL     1      -7.322 -31.663 -49.583  1.00  0.00    -0.340 N 
ATOM     10  H   UNL     1      -7.422 -32.692 -49.732  1.00  0.00     0.168 HD
ENDROOT
BRANCH   7  11
ATOM     11  N   UNL     1      -5.446 -32.277 -51.881  1.00  0.00    -0.382 N 
ATOM     12  H   UNL     1      -5.316 -32.370 -52.913  1.00  0.00     0.158 HD
ATOM     13  H   UNL     1      -5.412 -33.139 -51.294  1.00  0.00     0.158 HD
ENDBRANCH   7  11
TORSDOF 1
ENDMDL
MODEL 6
REMARK VINA RESULT:    -5.022      2.628      4.608
REMARK INTER + INTRA:          -5.169
REMARK INTER:                  -5.169
REMARK INTRA:                   0.000
REMARK UNBOUND:                 0.000
REMARK SMILES Nc1ncnc2nc[nH]c12
REMARK SMILES IDX 8 1 7 2 6 3 5 4 4 5 3 6 2 7 10 8 9 9 1 11
REMARK H PARENT 9 10 1 12 1 13
REMARK Flexibility Score: inf
ROOT
ATOM      1  C   UNL     1      -5.222 -32.093 -52.029  1.00  0.00     0.199 A 
ATOM      2  N   UNL     1      -4.884 -30.788 -52.212  1.00  0.00    -0.217 NA
ATOM      3  C   UNL     1      -5.559 -30.177 -51.225  1.00  0.00     0.182 A 
ATOM      4  N   UNL     1      -5.571 -28.849 -50.955  1.00  0.00    -0.215 NA
ATOM      5  C   UNL     1      -6.324 -28.412 -49.900  1.00  0.00     0.226 A 
ATOM      6  N   UNL     1      -7.044 -29.300 -49.143  1.00  0.00    -0.217 NA
ATOM      7  C   UNL     1      -7.034 -30.640 -49.414  1.00  0.00     0.152 A 
ATOM      8  C   UNL     1      -6.262 -31.069 -50.491  1.00  0.00     0.127 A 
ATOM      9  N   UNL     1      -6.063 -32.298 -50.984  1.00  0.00    -0.340 N 
ATOM     10  H   UNL     1      -6.456 -33.207 -50.651  1.00  0.00     0.168 HD
ENDROOT
BRANCH   7  11
ATOM     11  N   UNL     1      -7.791 -31.546 -48.612  1.00  0.00    -0.382 N 
ATOM     12  H   UNL     1      -7.301 -32.219 -47.981  1.00  0.00     0.158 HD
ATOM     13  H   UNL     1      -8.834 -31.557 -48.638  1.00  0.00     0.158 HD
ENDBRANCH   7  11
TORSDOF 1
ENDMDL
MODEL 7
REMARK VINA RESULT:    -4.958      2.451      3.180
REMARK INTER + INTRA:          -5.102
REMARK INTER:                  -5.102
REMARK INTRA:                   0.000
REMARK UNBOUND:                 0.000
REMARK SMILES Nc1ncnc2nc[nH]c12
REMARK SMILES IDX 8 1 7 2 6 3 5 4 4 5 3 6 2 7 10 8 9 9 1 11
REMARK H PARENT 9 10 1 12 1 13
REMARK Flexibility Score: inf
ROOT
ATOM      1  C   UNL     1      -5.279 -28.013 -51.610  1.00  0.00     0.199 A 
ATOM      2  N   UNL     1      -5.287 -28.391 -52.918  1.00  0.00    -0.217 NA
ATOM      3  C   UNL     1      -5.273 -29.731 -52.827  1.00  0.00     0.182 A 
ATOM      4  N   UNL     1      -5.273 -30.610 -53.857  1.00  0.00    -0.215 NA
ATOM      5  C   UNL     1      -5.257 -31.947 -53.564  1.00  0.00     0.226 A 
ATOM      6  N   UNL     1      -5.243 -32.375 -52.262  1.00  0.00    -0.217 NA
ATOM      7  C   UNL     1      -5.242 -31.489 -51.221  1.00  0.00     0.152 A 
ATOM      8  C   UNL     1      -5.258 -30.132 -51.535  1.00  0.00     0.127 A 
ATOM      9  N   UNL     1      -5.262 -29.055 -50.740  1.00  0.00    -0.340 N 
ATOM     10  H   UNL     1      -5.254 -29.013 -49.697  1.00  0.00     0.168 HD
ENDROOT
BRANCH   7  11
ATOM     11  N   UNL     1      -5.227 -31.956 -49.872  1.00  0.00    -0.382 N 
ATOM     12  H   UNL     1      -6.069 -31.835 -49.268  1.00  0.00     0.158 HD
ATOM     13  H   UNL     1      -4.385 -32.423 -49.467  1.00  0.00     0.158 HD
ENDBRANCH   7  11
TORSDOF 1
ENDMDL
MODEL 8
REMARK VINA RESULT:    -4.884      1.839      1.939
REMARK INTER + INTRA:          -5.027
REMARK INTER:                  -5.027
REMARK INTRA:                   0.000
REMARK UNBOUND:                 0.000
REMARK SMILES Nc1ncnc2nc[nH]c12
REMARK SMILES IDX 8 1 7 2 6 3 5 4 4 5 3 6 2 7 10 8 9 9 1 11
REMARK H PARENT 9 10 1 12 1 13
REMARK Flexibility Score: inf
ROOT
ATOM      1  C   UNL     1      -4.676 -31.282 -52.529  1.00  0.00     0.199 A 
ATOM      2  N   UNL     1      -3.700 -30.335 -52.595  1.00  0.00    -0.217 NA
ATOM      3  C   UNL     1      -2.635 -30.989 -52.100  1.00  0.00     0.182 A 
ATOM      4  N   UNL     1      -1.385 -30.493 -51.943  1.00  0.00    -0.215 NA
ATOM      5  C   UNL     1      -0.426 -31.316 -51.418  1.00  0.00     0.226 A 
ATOM      6  N   UNL     1      -0.732 -32.605 -51.065  1.00  0.00    -0.217 NA
ATOM      7  C   UNL     1      -1.994 -33.107 -51.222  1.00  0.00     0.152 A 
ATOM      8  C   UNL     1      -2.958 -32.257 -51.757  1.00  0.00     0.127 A 
ATOM      9  N   UNL     1      -4.254 -32.468 -52.022  1.00  0.00    -0.340 N 
ATOM     10  H   UNL     1      -4.817 -33.335 -51.877  1.00  0.00     0.168 HD
ENDROOT
BRANCH   7  11
ATOM     11  N   UNL     1      -2.289 -34.452 -50.848  1.00  0.00    -0.382 N 
ATOM     12  H   UNL     1      -3.166 -34.667 -50.322  1.00  0.00     0.158 HD
ATOM     13  H   UNL     1      -1.646 -35.239 -51.088  1.00  0.00     0.158 HD
ENDBRANCH   7  11
TORSDOF 1
ENDMDL
MODEL 9
REMARK VINA RESULT:    -4.860      2.197      3.604
REMARK INTER + INTRA:          -5.002
REMARK INTER:                  -5.002
REMARK INTRA:                   0.000
REMARK UNBOUND:                 0.000
REMARK SMILES Nc1ncnc2nc[nH]c12
REMARK SMILES IDX 8 1 7 2 6 3 5 4 4 5 3 6 2 7 10 8 9 9 1 11
REMARK H PARENT 9 10 1 12 1 13
REMARK Flexibility Score: inf
ROOT
ATOM      1  C   UNL     1      -0.618 -29.996 -51.591  1.00  0.00     0.199 A 
ATOM      2  N   UNL     1      -0.132 -31.186 -51.145  1.00  0.00    -0.217 NA
ATOM      3  C   UNL     1      -1.231 -31.959 -51.143  1.00  0.00     0.182 A 
ATOM      4  N   UNL     1      -1.302 -33.261 -50.776  1.00  0.00    -0.215 NA
ATOM      5  C   UNL     1      -2.518 -33.884 -50.842  1.00  0.00     0.226 A 
ATOM      6  N   UNL     1      -3.629 -33.201 -51.267  1.00  0.00    -0.217 NA
ATOM      7  C   UNL     1      -3.559 -31.887 -51.637  1.00  0.00     0.152 A 
ATOM      8  C   UNL     1      -2.314 -31.267 -51.564  1.00  0.00     0.127 A 
ATOM      9  N   UNL     1      -1.949 -30.013 -51.857  1.00  0.00    -0.340 N 
ATOM     10  H   UNL     1      -2.538 -29.226 -52.207  1.00  0.00     0.168 HD
ENDROOT
BRANCH   7  11
ATOM     11  N   UNL     1      -4.728 -31.196 -52.077  1.00  0.00    -0.382 N 
ATOM     12  H   UNL     1      -5.621 -31.289 -51.544  1.00  0.00     0.158 HD
ATOM     13  H   UNL     1      -4.716 -30.592 -52.928  1.00  0.00     0.158 HD
ENDBRANCH   7  11
TORSDOF 1
ENDMDL
