MODEL 1
REMARK VINA RESULT:    -5.606      0.000      0.000
REMARK INTER + INTRA:         -12.294
REMARK INTER:                  -9.702
REMARK INTRA:                  -2.593
REMARK UNBOUND:                -2.593
REMARK SMILES OC[C@@H]1O[C@H](O[C@@H]2[C@@H](O)[C@H](O)[C@H](O[C@@H]3[C@H](O)[C@@H](O)[C@@H](O)O[C@@H]3CO)O[C@H]2CO)[C@@H](O)[C@@H](O)[C@@H]1O
REMARK SMILES IDX 7 1 26 2 25 3 12 4 10 5 8 6 6 7 5 8 3 9 33 10 4 11 31 12
REMARK SMILES IDX 29 13 2 14 1 15 34 17 32 19 30 21 27 23 28 24 9 26 11 28
REMARK SMILES IDX 13 30 14 31 22 32 15 33 21 34 17 35 19 36 23 37 24 38 16 40
REMARK SMILES IDX 18 42 20 44
REMARK H PARENT 1 16 34 18 32 20 30 22 28 25 9 27 11 29 24 39 16 41 18 43
REMARK H PARENT 20 45
REMARK Flexibility Score: inf
ROOT
ATOM      1  C   UNL     1      15.424  42.815  57.871  1.00  0.00     0.184 C 
ATOM      2  C   UNL     1      16.214  42.005  56.799  1.00  0.00     0.178 C 
ATOM      3  O   UNL     1      17.207  41.187  57.397  1.00  0.00    -0.341 OA
ATOM      4  C   UNL     1      18.148  41.931  58.147  1.00  0.00     0.282 C 
ATOM      5  C   UNL     1      17.467  42.626  59.341  1.00  0.00     0.202 C 
ATOM      6  C   UNL     1      16.355  43.562  58.860  1.00  0.00     0.180 C 
ENDROOT
BRANCH   1   7
ATOM      7  O   UNL     1      14.404  43.651  57.325  1.00  0.00    -0.341 OA
BRANCH   7   8
ATOM      8  C   UNL     1      13.068  43.216  57.566  1.00  0.00     0.282 C 
ATOM      9  C   UNL     1      11.586  42.615  59.266  1.00  0.00     0.178 C 
ATOM     10  C   UNL     1      10.494  43.617  58.819  1.00  0.00     0.177 C 
ATOM     11  O   UNL     1      12.874  43.129  58.969  1.00  0.00    -0.341 OA
ATOM     12  C   UNL     1      10.640  43.902  57.315  1.00  0.00     0.179 C 
ATOM     13  C   UNL     1      12.104  44.271  56.984  1.00  0.00     0.202 C 
BRANCH   9  14
ATOM     14  C   UNL     1      11.501  42.321  60.765  1.00  0.00     0.191 C 
BRANCH  14  15
ATOM     15  O   UNL     1      12.340  43.199  61.460  1.00  0.00    -0.394 OA
ATOM     16  H   UNL     1      12.258  42.957  62.421  1.00  0.00     0.210 HD
ENDBRANCH  14  15
ENDBRANCH   9  14
BRANCH  10  17
ATOM     17  O   UNL     1      10.618  44.825  59.528  1.00  0.00    -0.387 OA
ATOM     18  H   UNL     1       9.769  45.324  59.398  1.00  0.00     0.211 HD
ENDBRANCH  10  17
BRANCH  12  19
ATOM     19  O   UNL     1      10.244  42.766  56.586  1.00  0.00    -0.387 OA
ATOM     20  H   UNL     1       9.416  43.013  56.097  1.00  0.00     0.211 HD
ENDBRANCH  12  19
BRANCH  13  21
ATOM     21  O   UNL     1      12.284  44.378  55.598  1.00  0.00    -0.385 OA
ATOM     22  H   UNL     1      12.608  43.493  55.282  1.00  0.00     0.211 HD
ENDBRANCH  13  21
ENDBRANCH   7   8
ENDBRANCH   1   7
BRANCH   2  23
ATOM     23  C   UNL     1      15.282  41.067  56.011  1.00  0.00     0.191 C 
BRANCH  23  24
ATOM     24  O   UNL     1      15.807  40.785  54.745  1.00  0.00    -0.394 OA
ATOM     25  H   UNL     1      15.767  41.634  54.228  1.00  0.00     0.210 HD
ENDBRANCH  23  24
ENDBRANCH   2  23
BRANCH   6  26
ATOM     26  O   UNL     1      15.596  44.004  59.957  1.00  0.00    -0.387 OA
ATOM     27  H   UNL     1      15.207  43.197  60.388  1.00  0.00     0.211 HD
ENDBRANCH   6  26
BRANCH   5  28
ATOM     28  O   UNL     1      18.414  43.367  60.061  1.00  0.00    -0.385 OA
ATOM     29  H   UNL     1      18.571  44.210  59.552  1.00  0.00     0.211 HD
ENDBRANCH   5  28
BRANCH   4  30
ATOM     30  O   UNL     1      18.816  42.886  57.324  1.00  0.00    -0.341 OA
BRANCH  30  31
ATOM     31  C   UNL     1      20.052  42.394  56.816  1.00  0.00     0.184 C 
ATOM     32  C   UNL     1      20.197  42.769  55.319  1.00  0.00     0.178 C 
ATOM     33  C   UNL     1      21.241  43.041  57.564  1.00  0.00     0.180 C 
ATOM     34  O   UNL     1      20.142  44.178  55.143  1.00  0.00    -0.342 OA
ATOM     35  C   UNL     1      21.255  44.553  57.302  1.00  0.00     0.201 C 
ATOM     36  C   UNL     1      21.234  44.830  55.781  1.00  0.00     0.279 C 
BRANCH  32  37
ATOM     37  C   UNL     1      19.136  42.087  54.430  1.00  0.00     0.191 C 
BRANCH  37  38
ATOM     38  O   UNL     1      18.822  40.796  54.891  1.00  0.00    -0.394 OA
ATOM     39  H   UNL     1      19.665  40.400  55.231  1.00  0.00     0.210 HD
ENDBRANCH  37  38
ENDBRANCH  32  37
BRANCH  33  40
ATOM     40  O   UNL     1      21.164  42.802  58.943  1.00  0.00    -0.387 OA
ATOM     41  H   UNL     1      21.313  41.828  59.068  1.00  0.00     0.211 HD
ENDBRANCH  33  40
BRANCH  35  42
ATOM     42  O   UNL     1      22.398  45.122  57.889  1.00  0.00    -0.385 OA
ATOM     43  H   UNL     1      22.910  45.550  57.150  1.00  0.00     0.211 HD
ENDBRANCH  35  42
BRANCH  36  44
ATOM     44  O   UNL     1      22.460  44.471  55.191  1.00  0.00    -0.366 OA
ATOM     45  H   UNL     1      23.020  45.288  55.190  1.00  0.00     0.213 HD
ENDBRANCH  36  44
ENDBRANCH  30  31
ENDBRANCH   4  30
TORSDOF 18
ENDMDL
MODEL 2
REMARK VINA RESULT:    -5.492      1.766      8.541
REMARK INTER + INTRA:         -12.098
REMARK INTER:                  -9.598
REMARK INTRA:                  -2.500
REMARK UNBOUND:                -2.593
REMARK SMILES OC[C@@H]1O[C@H](O[C@@H]2[C@@H](O)[C@H](O)[C@H](O[C@@H]3[C@H](O)[C@@H](O)[C@@H](O)O[C@@H]3CO)O[C@H]2CO)[C@@H](O)[C@@H](O)[C@@H]1O
REMARK SMILES IDX 7 1 26 2 25 3 12 4 10 5 8 6 6 7 5 8 3 9 33 10 4 11 31 12
REMARK SMILES IDX 29 13 2 14 1 15 34 17 32 19 30 21 27 23 28 24 9 26 11 28
REMARK SMILES IDX 13 30 14 31 22 32 15 33 21 34 17 35 19 36 23 37 24 38 16 40
REMARK SMILES IDX 18 42 20 44
REMARK H PARENT 1 16 34 18 32 20 30 22 28 25 9 27 11 29 24 39 16 41 18 43
REMARK H PARENT 20 45
REMARK Flexibility Score: inf
ROOT
ATOM      1  C   UNL     1      16.380  42.695  58.425  1.00  0.00     0.184 C 
ATOM      2  C   UNL     1      15.679  41.598  59.280  1.00  0.00     0.178 C 
ATOM      3  O   UNL     1      14.751  40.854  58.506  1.00  0.00    -0.341 OA
ATOM      4  C   UNL     1      13.739  41.664  57.941  1.00  0.00     0.282 C 
ATOM      5  C   UNL     1      14.340  42.669  56.940  1.00  0.00     0.202 C 
ATOM      6  C   UNL     1      15.375  43.565  57.627  1.00  0.00     0.180 C 
ENDROOT
BRANCH   1   7
ATOM      7  O   UNL     1      17.333  43.470  59.153  1.00  0.00    -0.341 OA
BRANCH   7   8
ATOM      8  C   UNL     1      18.698  43.211  58.834  1.00  0.00     0.282 C 
ATOM      9  C   UNL     1      20.148  42.809  57.051  1.00  0.00     0.178 C 
ATOM     10  C   UNL     1      21.126  43.941  57.445  1.00  0.00     0.177 C 
ATOM     11  O   UNL     1      18.823  43.152  57.423  1.00  0.00    -0.341 OA
ATOM     12  C   UNL     1      21.029  44.202  58.958  1.00  0.00     0.179 C 
ATOM     13  C   UNL     1      19.550  44.380  59.372  1.00  0.00     0.202 C 
BRANCH   9  14
ATOM     14  C   UNL     1      20.187  42.530  55.546  1.00  0.00     0.191 C 
BRANCH  14  15
ATOM     15  O   UNL     1      19.305  43.398  54.890  1.00  0.00    -0.394 OA
ATOM     16  H   UNL     1      19.582  44.317  55.146  1.00  0.00     0.210 HD
ENDBRANCH  14  15
ENDBRANCH   9  14
BRANCH  10  17
ATOM     17  O   UNL     1      20.810  45.125  56.755  1.00  0.00    -0.387 OA
ATOM     18  H   UNL     1      20.808  45.858  57.426  1.00  0.00     0.211 HD
ENDBRANCH  10  17
BRANCH  12  19
ATOM     19  O   UNL     1      21.606  43.125  59.654  1.00  0.00    -0.387 OA
ATOM     20  H   UNL     1      20.872  42.489  59.859  1.00  0.00     0.211 HD
ENDBRANCH  12  19
BRANCH  13  21
ATOM     21  O   UNL     1      19.435  44.459  60.767  1.00  0.00    -0.385 OA
ATOM     22  H   UNL     1      18.487  44.260  60.989  1.00  0.00     0.211 HD
ENDBRANCH  13  21
ENDBRANCH   7   8
ENDBRANCH   1   7
BRANCH   2  23
ATOM     23  C   UNL     1      16.700  40.589  59.839  1.00  0.00     0.191 C 
BRANCH  23  24
ATOM     24  O   UNL     1      16.336  40.165  61.122  1.00  0.00    -0.394 OA
ATOM     25  H   UNL     1      16.149  39.190  61.055  1.00  0.00     0.210 HD
ENDBRANCH  23  24
ENDBRANCH   2  23
BRANCH   6  26
ATOM     26  O   UNL     1      16.077  44.308  56.664  1.00  0.00    -0.387 OA
ATOM     27  H   UNL     1      16.624  44.978  57.153  1.00  0.00     0.211 HD
ENDBRANCH   6  26
BRANCH   5  28
ATOM     28  O   UNL     1      13.323  43.469  56.403  1.00  0.00    -0.385 OA
ATOM     29  H   UNL     1      12.504  43.302  56.947  1.00  0.00     0.211 HD
ENDBRANCH   5  28
BRANCH   4  30
ATOM     30  O   UNL     1      13.004  42.345  58.956  1.00  0.00    -0.341 OA
BRANCH  30  31
ATOM     31  C   UNL     1      11.641  41.933  59.009  1.00  0.00     0.184 C 
ATOM     32  C   UNL     1      11.356  41.219  60.355  1.00  0.00     0.178 C 
ATOM     33  C   UNL     1      10.701  43.158  58.935  1.00  0.00     0.180 C 
ATOM     34  O   UNL     1      11.631  42.079  61.451  1.00  0.00    -0.342 OA
ATOM     35  C   UNL     1      10.915  44.048  60.168  1.00  0.00     0.201 C 
ATOM     36  C   UNL     1      10.770  43.211  61.459  1.00  0.00     0.279 C 
BRANCH  32  37
ATOM     37  C   UNL     1      12.146  39.902  60.509  1.00  0.00     0.191 C 
BRANCH  37  38
ATOM     38  O   UNL     1      13.403  40.115  61.104  1.00  0.00    -0.394 OA
ATOM     39  H   UNL     1      13.418  39.581  61.940  1.00  0.00     0.210 HD
ENDBRANCH  37  38
ENDBRANCH  32  37
BRANCH  33  40
ATOM     40  O   UNL     1      10.928  43.903  57.770  1.00  0.00    -0.387 OA
ATOM     41  H   UNL     1      11.913  43.959  57.659  1.00  0.00     0.211 HD
ENDBRANCH  33  40
BRANCH  35  42
ATOM     42  O   UNL     1       9.982  45.099  60.155  1.00  0.00    -0.385 OA
ATOM     43  H   UNL     1       9.753  45.282  61.106  1.00  0.00     0.211 HD
ENDBRANCH  35  42
BRANCH  36  44
ATOM     44  O   UNL     1       9.430  42.835  61.664  1.00  0.00    -0.366 OA
ATOM     45  H   UNL     1       9.191  43.130  62.578  1.00  0.00     0.213 HD
ENDBRANCH  36  44
ENDBRANCH  30  31
ENDBRANCH   4  30
TORSDOF 18
ENDMDL
MODEL 3
REMARK VINA RESULT:    -5.458      2.031      2.774
REMARK INTER + INTRA:         -12.039
REMARK INTER:                  -9.462
REMARK INTRA:                  -2.577
REMARK UNBOUND:                -2.593
REMARK SMILES OC[C@@H]1O[C@H](O[C@@H]2[C@@H](O)[C@H](O)[C@H](O[C@@H]3[C@H](O)[C@@H](O)[C@@H](O)O[C@@H]3CO)O[C@H]2CO)[C@@H](O)[C@@H](O)[C@@H]1O
REMARK SMILES IDX 7 1 26 2 25 3 12 4 10 5 8 6 6 7 5 8 3 9 33 10 4 11 31 12
REMARK SMILES IDX 29 13 2 14 1 15 34 17 32 19 30 21 27 23 28 24 9 26 11 28
REMARK SMILES IDX 13 30 14 31 22 32 15 33 21 34 17 35 19 36 23 37 24 38 16 40
REMARK SMILES IDX 18 42 20 44
REMARK H PARENT 1 16 34 18 32 20 30 22 28 25 9 27 11 29 24 39 16 41 18 43
REMARK H PARENT 20 45
REMARK Flexibility Score: inf
ROOT
ATOM      1  C   UNL     1      14.467  42.025  59.292  1.00  0.00     0.184 C 
ATOM      2  C   UNL     1      15.371  42.237  58.041  1.00  0.00     0.178 C 
ATOM      3  O   UNL     1      16.247  41.138  57.843  1.00  0.00    -0.341 OA
ATOM      4  C   UNL     1      17.098  40.912  58.950  1.00  0.00     0.282 C 
ATOM      5  C   UNL     1      16.280  40.520  60.196  1.00  0.00     0.202 C 
ATOM      6  C   UNL     1      15.275  41.619  60.551  1.00  0.00     0.180 C 
ENDROOT
BRANCH   1   7
ATOM      7  O   UNL     1      13.558  43.099  59.534  1.00  0.00    -0.341 OA
BRANCH   7   8
ATOM      8  C   UNL     1      12.203  42.714  59.741  1.00  0.00     0.282 C 
ATOM      9  C   UNL     1      10.570  42.469  61.390  1.00  0.00     0.178 C 
ATOM     10  C   UNL     1       9.531  43.346  60.650  1.00  0.00     0.177 C 
ATOM     11  O   UNL     1      11.884  42.920  61.108  1.00  0.00    -0.341 OA
ATOM     12  C   UNL     1       9.813  43.312  59.138  1.00  0.00     0.179 C 
ATOM     13  C   UNL     1      11.304  43.615  58.869  1.00  0.00     0.202 C 
BRANCH   9  14
ATOM     14  C   UNL     1      10.349  42.494  62.905  1.00  0.00     0.191 C 
BRANCH  14  15
ATOM     15  O   UNL     1       9.037  42.899  63.177  1.00  0.00    -0.394 OA
ATOM     16  H   UNL     1       8.534  42.071  63.400  1.00  0.00     0.210 HD
ENDBRANCH  14  15
ENDBRANCH   9  14
BRANCH  10  17
ATOM     17  O   UNL     1       9.605  44.676  61.098  1.00  0.00    -0.387 OA
ATOM     18  H   UNL     1      10.425  44.749  61.654  1.00  0.00     0.211 HD
ENDBRANCH  10  17
BRANCH  12  19
ATOM     19  O   UNL     1       9.472  42.045  58.630  1.00  0.00    -0.387 OA
ATOM     20  H   UNL     1       8.672  42.171  58.056  1.00  0.00     0.211 HD
ENDBRANCH  12  19
BRANCH  13  21
ATOM     21  O   UNL     1      11.608  43.431  57.512  1.00  0.00    -0.385 OA
ATOM     22  H   UNL     1      10.831  43.773  56.995  1.00  0.00     0.211 HD
ENDBRANCH  13  21
ENDBRANCH   7   8
ENDBRANCH   1   7
BRANCH   2  23
ATOM     23  C   UNL     1      14.529  42.369  56.759  1.00  0.00     0.191 C 
BRANCH  23  24
ATOM     24  O   UNL     1      14.136  43.696  56.551  1.00  0.00    -0.394 OA
ATOM     25  H   UNL     1      13.193  43.665  56.234  1.00  0.00     0.210 HD
ENDBRANCH  23  24
ENDBRANCH   2  23
BRANCH   6  26
ATOM     26  O   UNL     1      14.386  41.153  61.534  1.00  0.00    -0.387 OA
ATOM     27  H   UNL     1      14.572  41.666  62.365  1.00  0.00     0.211 HD
ENDBRANCH   6  26
BRANCH   5  28
ATOM     28  O   UNL     1      17.141  40.315  61.283  1.00  0.00    -0.385 OA
ATOM     29  H   UNL     1      16.678  40.668  62.092  1.00  0.00     0.211 HD
ENDBRANCH   5  28
BRANCH   4  30
ATOM     30  O   UNL     1      17.902  42.059  59.218  1.00  0.00    -0.341 OA
BRANCH  30  31
ATOM     31  C   UNL     1      19.283  41.826  58.958  1.00  0.00     0.184 C 
ATOM     32  C   UNL     1      19.797  42.825  57.890  1.00  0.00     0.178 C 
ATOM     33  C   UNL     1      20.121  42.056  60.237  1.00  0.00     0.180 C 
ATOM     34  O   UNL     1      19.619  44.166  58.325  1.00  0.00    -0.342 OA
ATOM     35  C   UNL     1      20.020  43.526  60.664  1.00  0.00     0.201 C 
ATOM     36  C   UNL     1      20.397  44.450  59.483  1.00  0.00     0.279 C 
BRANCH  32  37
ATOM     37  C   UNL     1      19.125  42.625  56.516  1.00  0.00     0.191 C 
BRANCH  37  38
ATOM     38  O   UNL     1      17.942  43.377  56.400  1.00  0.00    -0.394 OA
ATOM     39  H   UNL     1      17.367  43.127  57.168  1.00  0.00     0.210 HD
ENDBRANCH  37  38
ENDBRANCH  32  37
BRANCH  33  40
ATOM     40  O   UNL     1      19.688  41.230  61.284  1.00  0.00    -0.387 OA
ATOM     41  H   UNL     1      20.438  40.611  61.483  1.00  0.00     0.211 HD
ENDBRANCH  33  40
BRANCH  35  42
ATOM     42  O   UNL     1      20.871  43.758  61.759  1.00  0.00    -0.385 OA
ATOM     43  H   UNL     1      21.713  43.263  61.569  1.00  0.00     0.211 HD
ENDBRANCH  35  42
BRANCH  36  44
ATOM     44  O   UNL     1      21.774  44.373  59.207  1.00  0.00    -0.366 OA
ATOM     45  H   UNL     1      22.182  43.865  59.952  1.00  0.00     0.213 HD
ENDBRANCH  36  44
ENDBRANCH  30  31
ENDBRANCH   4  30
TORSDOF 18
ENDMDL
MODEL 4
REMARK VINA RESULT:    -5.259      2.875      8.197
REMARK INTER + INTRA:         -11.694
REMARK INTER:                  -8.637
REMARK INTRA:                  -3.057
REMARK UNBOUND:                -2.593
REMARK SMILES OC[C@@H]1O[C@H](O[C@@H]2[C@@H](O)[C@H](O)[C@H](O[C@@H]3[C@H](O)[C@@H](O)[C@@H](O)O[C@@H]3CO)O[C@H]2CO)[C@@H](O)[C@@H](O)[C@@H]1O
REMARK SMILES IDX 7 1 26 2 25 3 12 4 10 5 8 6 6 7 5 8 3 9 33 10 4 11 31 12
REMARK SMILES IDX 29 13 2 14 1 15 34 17 32 19 30 21 27 23 28 24 9 26 11 28
REMARK SMILES IDX 13 30 14 31 22 32 15 33 21 34 17 35 19 36 23 37 24 38 16 40
REMARK SMILES IDX 18 42 20 44
REMARK H PARENT 1 16 34 18 32 20 30 22 28 25 9 27 11 29 24 39 16 41 18 43
REMARK H PARENT 20 45
REMARK Flexibility Score: inf
ROOT
ATOM      1  C   UNL     1      13.321  41.796  56.392  1.00  0.00     0.184 C 
ATOM      2  C   UNL     1      12.741  40.550  57.126  1.00  0.00     0.178 C 
ATOM      3  O   UNL     1      11.324  40.521  57.055  1.00  0.00    -0.341 OA
ATOM      4  C   UNL     1      10.726  41.668  57.626  1.00  0.00     0.282 C 
ATOM      5  C   UNL     1      11.114  42.935  56.840  1.00  0.00     0.202 C 
ATOM      6  C   UNL     1      12.634  43.117  56.824  1.00  0.00     0.180 C 
ENDROOT
BRANCH   1   7
ATOM      7  O   UNL     1      14.746  41.871  56.425  1.00  0.00    -0.341 OA
BRANCH   7   8
ATOM      8  C   UNL     1      15.304  42.296  57.665  1.00  0.00     0.282 C 
ATOM      9  C   UNL     1      16.295  41.509  59.625  1.00  0.00     0.178 C 
ATOM     10  C   UNL     1      17.541  42.417  59.492  1.00  0.00     0.177 C 
ATOM     11  O   UNL     1      15.806  41.155  58.342  1.00  0.00    -0.341 OA
ATOM     12  C   UNL     1      17.182  43.670  58.675  1.00  0.00     0.179 C 
ATOM     13  C   UNL     1      16.470  43.262  57.365  1.00  0.00     0.202 C 
BRANCH   9  14
ATOM     14  C   UNL     1      16.611  40.232  60.408  1.00  0.00     0.191 C 
BRANCH  14  15
ATOM     15  O   UNL     1      15.716  40.109  61.478  1.00  0.00    -0.394 OA
ATOM     16  H   UNL     1      15.253  40.985  61.551  1.00  0.00     0.210 HD
ENDBRANCH  14  15
ENDBRANCH   9  14
BRANCH  10  17
ATOM     17  O   UNL     1      18.581  41.729  58.841  1.00  0.00    -0.387 OA
ATOM     18  H   UNL     1      19.396  42.291  58.926  1.00  0.00     0.211 HD
ENDBRANCH  10  17
BRANCH  12  19
ATOM     19  O   UNL     1      16.351  44.504  59.445  1.00  0.00    -0.387 OA
ATOM     20  H   UNL     1      16.905  45.278  59.729  1.00  0.00     0.211 HD
ENDBRANCH  12  19
BRANCH  13  21
ATOM     21  O   UNL     1      15.995  44.396  56.689  1.00  0.00    -0.385 OA
ATOM     22  H   UNL     1      16.616  45.140  56.907  1.00  0.00     0.211 HD
ENDBRANCH  13  21
ENDBRANCH   7   8
ENDBRANCH   1   7
BRANCH   2  23
ATOM     23  C   UNL     1      13.243  39.242  56.487  1.00  0.00     0.191 C 
BRANCH  23  24
ATOM     24  O   UNL     1      14.513  38.904  56.970  1.00  0.00    -0.394 OA
ATOM     25  H   UNL     1      14.624  37.928  56.813  1.00  0.00     0.210 HD
ENDBRANCH  23  24
ENDBRANCH   2  23
BRANCH   6  26
ATOM     26  O   UNL     1      12.983  44.131  55.917  1.00  0.00    -0.387 OA
ATOM     27  H   UNL     1      12.526  44.962  56.216  1.00  0.00     0.211 HD
ENDBRANCH   6  26
BRANCH   5  28
ATOM     28  O   UNL     1      10.522  44.060  57.431  1.00  0.00    -0.385 OA
ATOM     29  H   UNL     1       9.635  43.770  57.784  1.00  0.00     0.211 HD
ENDBRANCH   5  28
BRANCH   4  30
ATOM     30  O   UNL     1      11.084  41.801  59.000  1.00  0.00    -0.341 OA
BRANCH  30  31
ATOM     31  C   UNL     1      10.129  41.201  59.871  1.00  0.00     0.184 C 
ATOM     32  C   UNL     1      10.838  40.640  61.130  1.00  0.00     0.178 C 
ATOM     33  C   UNL     1       9.105  42.253  60.357  1.00  0.00     0.180 C 
ATOM     34  O   UNL     1      11.527  41.670  61.824  1.00  0.00    -0.342 OA
ATOM     35  C   UNL     1       9.819  43.321  61.195  1.00  0.00     0.201 C 
ATOM     36  C   UNL     1      10.631  42.653  62.329  1.00  0.00     0.279 C 
BRANCH  32  37
ATOM     37  C   UNL     1      11.810  39.487  60.800  1.00  0.00     0.191 C 
BRANCH  37  38
ATOM     38  O   UNL     1      13.066  39.967  60.388  1.00  0.00    -0.394 OA
ATOM     39  H   UNL     1      13.265  39.538  59.515  1.00  0.00     0.210 HD
ENDBRANCH  37  38
ENDBRANCH  32  37
BRANCH  33  40
ATOM     40  O   UNL     1       8.449  42.860  59.277  1.00  0.00    -0.387 OA
ATOM     41  H   UNL     1       7.476  42.733  59.431  1.00  0.00     0.211 HD
ENDBRANCH  33  40
BRANCH  35  42
ATOM     42  O   UNL     1       8.871  44.212  61.729  1.00  0.00    -0.385 OA
ATOM     43  H   UNL     1       7.977  43.827  61.521  1.00  0.00     0.211 HD
ENDBRANCH  35  42
BRANCH  36  44
ATOM     44  O   UNL     1       9.775  42.113  63.306  1.00  0.00    -0.366 OA
ATOM     45  H   UNL     1       9.118  42.820  63.526  1.00  0.00     0.213 HD
ENDBRANCH  36  44
ENDBRANCH  30  31
ENDBRANCH   4  30
TORSDOF 18
ENDMDL
MODEL 5
REMARK VINA RESULT:    -5.246      6.579      9.525
REMARK INTER + INTRA:         -11.672
REMARK INTER:                  -8.926
REMARK INTRA:                  -2.746
REMARK UNBOUND:                -2.593
REMARK SMILES OC[C@@H]1O[C@H](O[C@@H]2[C@@H](O)[C@H](O)[C@H](O[C@@H]3[C@H](O)[C@@H](O)[C@@H](O)O[C@@H]3CO)O[C@H]2CO)[C@@H](O)[C@@H](O)[C@@H]1O
REMARK SMILES IDX 7 1 26 2 25 3 12 4 10 5 8 6 6 7 5 8 3 9 33 10 4 11 31 12
REMARK SMILES IDX 29 13 2 14 1 15 34 17 32 19 30 21 27 23 28 24 9 26 11 28
REMARK SMILES IDX 13 30 14 31 22 32 15 33 21 34 17 35 19 36 23 37 24 38 16 40
REMARK SMILES IDX 18 42 20 44
REMARK H PARENT 1 16 34 18 32 20 30 22 28 25 9 27 11 29 24 39 16 41 18 43
REMARK H PARENT 20 45
REMARK Flexibility Score: inf
ROOT
ATOM      1  C   UNL     1       9.215  42.296  54.826  1.00  0.00     0.184 C 
ATOM      2  C   UNL     1       8.206  41.872  55.935  1.00  0.00     0.178 C 
ATOM      3  O   UNL     1       7.832  42.976  56.743  1.00  0.00    -0.341 OA
ATOM      4  C   UNL     1       8.938  43.583  57.383  1.00  0.00     0.282 C 
ATOM      5  C   UNL     1       9.904  44.188  56.347  1.00  0.00     0.202 C 
ATOM      6  C   UNL     1      10.410  43.110  55.385  1.00  0.00     0.180 C 
ENDROOT
BRANCH   1   7
ATOM      7  O   UNL     1       9.620  41.223  53.975  1.00  0.00    -0.341 OA
BRANCH   7   8
ATOM      8  C   UNL     1       9.227  41.347  52.611  1.00  0.00     0.282 C 
ATOM      9  C   UNL     1       8.150  42.771  51.109  1.00  0.00     0.178 C 
ATOM     10  C   UNL     1       9.323  42.775  50.099  1.00  0.00     0.177 C 
ATOM     11  O   UNL     1       8.640  42.626  52.431  1.00  0.00    -0.341 OA
ATOM     12  C   UNL     1      10.135  41.477  50.247  1.00  0.00     0.179 C 
ATOM     13  C   UNL     1      10.491  41.240  51.732  1.00  0.00     0.202 C 
BRANCH   9  14
ATOM     14  C   UNL     1       7.326  44.058  51.020  1.00  0.00     0.191 C 
BRANCH  14  15
ATOM     15  O   UNL     1       6.839  44.386  52.290  1.00  0.00    -0.394 OA
ATOM     16  H   UNL     1       5.890  44.091  52.306  1.00  0.00     0.210 HD
ENDBRANCH  14  15
ENDBRANCH   9  14
BRANCH  10  17
ATOM     17  O   UNL     1      10.169  43.873  50.336  1.00  0.00    -0.387 OA
ATOM     18  H   UNL     1       9.626  44.692  50.193  1.00  0.00     0.211 HD
ENDBRANCH  10  17
BRANCH  12  19
ATOM     19  O   UNL     1       9.383  40.399  49.745  1.00  0.00    -0.387 OA
ATOM     20  H   UNL     1       9.939  39.584  49.858  1.00  0.00     0.211 HD
ENDBRANCH  12  19
BRANCH  13  21
ATOM     21  O   UNL     1      11.091  39.984  51.901  1.00  0.00    -0.385 OA
ATOM     22  H   UNL     1      12.066  40.110  51.759  1.00  0.00     0.211 HD
ENDBRANCH  13  21
ENDBRANCH   7   8
ENDBRANCH   1   7
BRANCH   2  23
ATOM     23  C   UNL     1       6.910  41.310  55.324  1.00  0.00     0.191 C 
BRANCH  23  24
ATOM     24  O   UNL     1       6.458  42.119  54.275  1.00  0.00    -0.394 OA
ATOM     25  H   UNL     1       5.495  42.299  54.452  1.00  0.00     0.210 HD
ENDBRANCH  23  24
ENDBRANCH   2  23
BRANCH   6  26
ATOM     26  O   UNL     1      11.096  43.709  54.315  1.00  0.00    -0.387 OA
ATOM     27  H   UNL     1      11.160  43.031  53.591  1.00  0.00     0.211 HD
ENDBRANCH   6  26
BRANCH   5  28
ATOM     28  O   UNL     1      10.998  44.771  57.002  1.00  0.00    -0.385 OA
ATOM     29  H   UNL     1      11.034  45.725  56.714  1.00  0.00     0.211 HD
ENDBRANCH   5  28
BRANCH   4  30
ATOM     30  O   UNL     1       9.620  42.650  58.220  1.00  0.00    -0.341 OA
BRANCH  30  31
ATOM     31  C   UNL     1       9.226  42.755  59.584  1.00  0.00     0.184 C 
ATOM     32  C   UNL     1       9.099  41.342  60.210  1.00  0.00     0.178 C 
ATOM     33  C   UNL     1      10.295  43.519  60.400  1.00  0.00     0.180 C 
ATOM     34  O   UNL     1      10.331  40.641  60.128  1.00  0.00    -0.342 OA
ATOM     35  C   UNL     1      11.606  42.723  60.405  1.00  0.00     0.201 C 
ATOM     36  C   UNL     1      11.350  41.278  60.891  1.00  0.00     0.279 C 
BRANCH  32  37
ATOM     37  C   UNL     1       7.974  40.505  59.565  1.00  0.00     0.191 C 
BRANCH  37  38
ATOM     38  O   UNL     1       6.920  41.315  59.105  1.00  0.00    -0.394 OA
ATOM     39  H   UNL     1       6.282  40.717  58.637  1.00  0.00     0.210 HD
ENDBRANCH  37  38
ENDBRANCH  32  37
BRANCH  33  40
ATOM     40  O   UNL     1      10.520  44.797  59.869  1.00  0.00    -0.387 OA
ATOM     41  H   UNL     1      11.071  44.669  59.053  1.00  0.00     0.211 HD
ENDBRANCH  33  40
BRANCH  35  42
ATOM     42  O   UNL     1      12.541  43.362  61.239  1.00  0.00    -0.385 OA
ATOM     43  H   UNL     1      12.120  44.216  61.529  1.00  0.00     0.211 HD
ENDBRANCH  35  42
BRANCH  36  44
ATOM     44  O   UNL     1      11.049  41.257  62.265  1.00  0.00    -0.366 OA
ATOM     45  H   UNL     1      11.245  42.165  62.608  1.00  0.00     0.213 HD
ENDBRANCH  36  44
ENDBRANCH  30  31
ENDBRANCH   4  30
TORSDOF 18
ENDMDL
MODEL 6
REMARK VINA RESULT:    -5.179      4.609      8.131
REMARK INTER + INTRA:         -11.557
REMARK INTER:                  -9.190
REMARK INTRA:                  -2.366
REMARK UNBOUND:                -2.593
REMARK SMILES OC[C@@H]1O[C@H](O[C@@H]2[C@@H](O)[C@H](O)[C@H](O[C@@H]3[C@H](O)[C@@H](O)[C@@H](O)O[C@@H]3CO)O[C@H]2CO)[C@@H](O)[C@@H](O)[C@@H]1O
REMARK SMILES IDX 7 1 26 2 25 3 12 4 10 5 8 6 6 7 5 8 3 9 33 10 4 11 31 12
REMARK SMILES IDX 29 13 2 14 1 15 34 17 32 19 30 21 27 23 28 24 9 26 11 28
REMARK SMILES IDX 13 30 14 31 22 32 15 33 21 34 17 35 19 36 23 37 24 38 16 40
REMARK SMILES IDX 18 42 20 44
REMARK H PARENT 1 16 34 18 32 20 30 22 28 25 9 27 11 29 24 39 16 41 18 43
REMARK H PARENT 20 45
REMARK Flexibility Score: inf
ROOT
ATOM      1  C   UNL     1       9.889  42.752  56.102  1.00  0.00     0.184 C 
ATOM      2  C   UNL     1       9.493  42.499  57.587  1.00  0.00     0.178 C 
ATOM      3  O   UNL     1       9.826  43.608  58.408  1.00  0.00    -0.341 OA
ATOM      4  C   UNL     1      11.208  43.911  58.381  1.00  0.00     0.282 C 
ATOM      5  C   UNL     1      11.643  44.346  56.969  1.00  0.00     0.202 C 
ATOM      6  C   UNL     1      11.352  43.242  55.948  1.00  0.00     0.180 C 
ENDROOT
BRANCH   1   7
ATOM      7  O   UNL     1       9.569  41.670  55.228  1.00  0.00    -0.341 OA
BRANCH   7   8
ATOM      8  C   UNL     1       8.685  41.993  54.158  1.00  0.00     0.282 C 
ATOM      9  C   UNL     1       8.590  43.047  52.078  1.00  0.00     0.178 C 
ATOM     10  C   UNL     1       7.972  41.823  51.361  1.00  0.00     0.177 C 
ATOM     11  O   UNL     1       9.437  42.623  53.133  1.00  0.00    -0.341 OA
ATOM     12  C   UNL     1       7.199  40.965  52.378  1.00  0.00     0.179 C 
ATOM     13  C   UNL     1       8.084  40.681  53.613  1.00  0.00     0.202 C 
BRANCH   9  14
ATOM     14  C   UNL     1       9.396  43.918  51.111  1.00  0.00     0.191 C 
BRANCH  14  15
ATOM     15  O   UNL     1       8.962  43.682  49.801  1.00  0.00    -0.394 OA
ATOM     16  H   UNL     1       9.385  42.828  49.521  1.00  0.00     0.210 HD
ENDBRANCH  14  15
ENDBRANCH   9  14
BRANCH  10  17
ATOM     17  O   UNL     1       8.982  41.038  50.776  1.00  0.00    -0.387 OA
ATOM     18  H   UNL     1       9.770  41.084  51.379  1.00  0.00     0.211 HD
ENDBRANCH  10  17
BRANCH  12  19
ATOM     19  O   UNL     1       6.027  41.643  52.761  1.00  0.00    -0.387 OA
ATOM     20  H   UNL     1       5.281  41.240  52.244  1.00  0.00     0.211 HD
ENDBRANCH  12  19
BRANCH  13  21
ATOM     21  O   UNL     1       7.341  40.038  54.614  1.00  0.00    -0.385 OA
ATOM     22  H   UNL     1       6.397  40.327  54.500  1.00  0.00     0.211 HD
ENDBRANCH  13  21
ENDBRANCH   7   8
ENDBRANCH   1   7
BRANCH   2  23
ATOM     23  C   UNL     1       7.976  42.281  57.730  1.00  0.00     0.191 C 
BRANCH  23  24
ATOM     24  O   UNL     1       7.622  40.972  57.384  1.00  0.00    -0.394 OA
ATOM     25  H   UNL     1       8.433  40.413  57.528  1.00  0.00     0.210 HD
ENDBRANCH  23  24
ENDBRANCH   2  23
BRANCH   6  26
ATOM     26  O   UNL     1      11.535  43.736  54.646  1.00  0.00    -0.387 OA
ATOM     27  H   UNL     1      10.902  43.247  54.056  1.00  0.00     0.211 HD
ENDBRANCH   6  26
BRANCH   5  28
ATOM     28  O   UNL     1      13.017  44.628  56.963  1.00  0.00    -0.385 OA
ATOM     29  H   UNL     1      13.266  44.878  57.895  1.00  0.00     0.211 HD
ENDBRANCH   5  28
BRANCH   4  30
ATOM     30  O   UNL     1      11.983  42.799  58.826  1.00  0.00    -0.341 OA
BRANCH  30  31
ATOM     31  C   UNL     1      12.674  43.071  60.042  1.00  0.00     0.184 C 
ATOM     32  C   UNL     1      12.166  42.126  61.162  1.00  0.00     0.178 C 
ATOM     33  C   UNL     1      14.188  42.808  59.876  1.00  0.00     0.180 C 
ATOM     34  O   UNL     1      12.362  40.766  60.802  1.00  0.00    -0.342 OA
ATOM     35  C   UNL     1      14.424  41.319  59.586  1.00  0.00     0.201 C 
ATOM     36  C   UNL     1      13.744  40.452  60.669  1.00  0.00     0.279 C 
BRANCH  32  37
ATOM     37  C   UNL     1      10.685  42.368  61.518  1.00  0.00     0.191 C 
BRANCH  37  38
ATOM     38  O   UNL     1      10.369  41.877  62.797  1.00  0.00    -0.394 OA
ATOM     39  H   UNL     1       9.546  41.332  62.701  1.00  0.00     0.210 HD
ENDBRANCH  37  38
ENDBRANCH  32  37
BRANCH  33  40
ATOM     40  O   UNL     1      14.727  43.582  58.839  1.00  0.00    -0.387 OA
ATOM     41  H   UNL     1      15.713  43.469  58.886  1.00  0.00     0.211 HD
ENDBRANCH  33  40
BRANCH  35  42
ATOM     42  O   UNL     1      15.806  41.062  59.547  1.00  0.00    -0.385 OA
ATOM     43  H   UNL     1      15.971  40.318  60.187  1.00  0.00     0.211 HD
ENDBRANCH  35  42
BRANCH  36  44
ATOM     44  O   UNL     1      14.416  40.568  61.899  1.00  0.00    -0.366 OA
ATOM     45  H   UNL     1      15.348  40.827  61.686  1.00  0.00     0.213 HD
ENDBRANCH  36  44
ENDBRANCH  30  31
ENDBRANCH   4  30
TORSDOF 18
ENDMDL
MODEL 7
REMARK VINA RESULT:    -5.170     11.876     14.714
REMARK INTER + INTRA:         -11.540
REMARK INTER:                  -8.795
REMARK INTRA:                  -2.745
REMARK UNBOUND:                -2.593
REMARK SMILES OC[C@@H]1O[C@H](O[C@@H]2[C@@H](O)[C@H](O)[C@H](O[C@@H]3[C@H](O)[C@@H](O)[C@@H](O)O[C@@H]3CO)O[C@H]2CO)[C@@H](O)[C@@H](O)[C@@H]1O
REMARK SMILES IDX 7 1 26 2 25 3 12 4 10 5 8 6 6 7 5 8 3 9 33 10 4 11 31 12
REMARK SMILES IDX 29 13 2 14 1 15 34 17 32 19 30 21 27 23 28 24 9 26 11 28
REMARK SMILES IDX 13 30 14 31 22 32 15 33 21 34 17 35 19 36 23 37 24 38 16 40
REMARK SMILES IDX 18 42 20 44
REMARK H PARENT 1 16 34 18 32 20 30 22 28 25 9 27 11 29 24 39 16 41 18 43
REMARK H PARENT 20 45
REMARK Flexibility Score: inf
ROOT
ATOM      1  C   UNL     1       9.552  30.761  60.870  1.00  0.00     0.184 C 
ATOM      2  C   UNL     1       9.443  31.160  62.372  1.00  0.00     0.178 C 
ATOM      3  O   UNL     1       8.900  32.462  62.523  1.00  0.00    -0.341 OA
ATOM      4  C   UNL     1       9.673  33.454  61.874  1.00  0.00     0.282 C 
ATOM      5  C   UNL     1       9.683  33.227  60.350  1.00  0.00     0.202 C 
ATOM      6  C   UNL     1      10.253  31.846  60.012  1.00  0.00     0.180 C 
ENDROOT
BRANCH   1   7
ATOM      7  O   UNL     1      10.085  29.453  60.659  1.00  0.00    -0.341 OA
BRANCH   7   8
ATOM      8  C   UNL     1       9.205  28.534  60.018  1.00  0.00     0.282 C 
ATOM      9  C   UNL     1       7.145  28.380  58.933  1.00  0.00     0.178 C 
ATOM     10  C   UNL     1       7.734  27.697  57.675  1.00  0.00     0.177 C 
ATOM     11  O   UNL     1       8.099  29.259  59.506  1.00  0.00    -0.341 OA
ATOM     12  C   UNL     1       9.021  26.944  58.051  1.00  0.00     0.179 C 
ATOM     13  C   UNL     1       9.965  27.872  58.849  1.00  0.00     0.202 C 
BRANCH   9  14
ATOM     14  C   UNL     1       5.875  29.169  58.603  1.00  0.00     0.191 C 
BRANCH  14  15
ATOM     15  O   UNL     1       6.223  30.464  58.202  1.00  0.00    -0.394 OA
ATOM     16  H   UNL     1       7.138  30.625  58.555  1.00  0.00     0.210 HD
ENDBRANCH  14  15
ENDBRANCH   9  14
BRANCH  10  17
ATOM     17  O   UNL     1       8.036  28.658  56.692  1.00  0.00    -0.387 OA
ATOM     18  H   UNL     1       8.139  29.527  57.161  1.00  0.00     0.211 HD
ENDBRANCH  10  17
BRANCH  12  19
ATOM     19  O   UNL     1       8.689  25.810  58.814  1.00  0.00    -0.387 OA
ATOM     20  H   UNL     1       9.282  25.074  58.507  1.00  0.00     0.211 HD
ENDBRANCH  12  19
BRANCH  13  21
ATOM     21  O   UNL     1      11.067  27.155  59.334  1.00  0.00    -0.385 OA
ATOM     22  H   UNL     1      11.352  27.600  60.176  1.00  0.00     0.211 HD
ENDBRANCH  13  21
ENDBRANCH   7   8
ENDBRANCH   1   7
BRANCH   2  23
ATOM     23  C   UNL     1       8.514  30.201  63.138  1.00  0.00     0.191 C 
BRANCH  23  24
ATOM     24  O   UNL     1       8.485  30.512  64.502  1.00  0.00    -0.394 OA
ATOM     25  H   UNL     1       9.433  30.616  64.788  1.00  0.00     0.210 HD
ENDBRANCH  23  24
ENDBRANCH   2  23
BRANCH   6  26
ATOM     26  O   UNL     1      10.040  31.563  58.653  1.00  0.00    -0.387 OA
ATOM     27  H   UNL     1       9.333  30.866  58.606  1.00  0.00     0.211 HD
ENDBRANCH   6  26
BRANCH   5  28
ATOM     28  O   UNL     1      10.465  34.211  59.730  1.00  0.00    -0.385 OA
ATOM     29  H   UNL     1      11.411  34.039  59.991  1.00  0.00     0.211 HD
ENDBRANCH   5  28
BRANCH   4  30
ATOM     30  O   UNL     1      11.004  33.481  62.386  1.00  0.00    -0.341 OA
BRANCH  30  31
ATOM     31  C   UNL     1      11.189  34.504  63.361  1.00  0.00     0.184 C 
ATOM     32  C   UNL     1      11.884  33.918  64.617  1.00  0.00     0.178 C 
ATOM     33  C   UNL     1      12.109  35.617  62.809  1.00  0.00     0.180 C 
ATOM     34  O   UNL     1      13.144  33.353  64.281  1.00  0.00    -0.342 OA
ATOM     35  C   UNL     1      13.506  35.044  62.535  1.00  0.00     0.201 C 
ATOM     36  C   UNL     1      14.050  34.339  63.799  1.00  0.00     0.279 C 
BRANCH  32  37
ATOM     37  C   UNL     1      11.016  32.870  65.343  1.00  0.00     0.191 C 
BRANCH  37  38
ATOM     38  O   UNL     1       9.646  33.174  65.251  1.00  0.00    -0.394 OA
ATOM     39  H   UNL     1       9.197  32.707  66.003  1.00  0.00     0.210 HD
ENDBRANCH  37  38
ENDBRANCH  32  37
BRANCH  33  40
ATOM     40  O   UNL     1      11.586  36.171  61.632  1.00  0.00    -0.387 OA
ATOM     41  H   UNL     1      11.435  37.134  61.818  1.00  0.00     0.211 HD
ENDBRANCH  33  40
BRANCH  35  42
ATOM     42  O   UNL     1      14.370  36.081  62.141  1.00  0.00    -0.385 OA
ATOM     43  H   UNL     1      14.760  36.454  62.977  1.00  0.00     0.211 HD
ENDBRANCH  35  42
BRANCH  36  44
ATOM     44  O   UNL     1      14.365  35.277  64.799  1.00  0.00    -0.366 OA
ATOM     45  H   UNL     1      14.610  36.115  64.331  1.00  0.00     0.213 HD
ENDBRANCH  36  44
ENDBRANCH  30  31
ENDBRANCH   4  30
TORSDOF 18
ENDMDL
MODEL 8
REMARK VINA RESULT:    -5.109      3.833      8.712
REMARK INTER + INTRA:         -11.435
REMARK INTER:                  -8.790
REMARK INTRA:                  -2.645
REMARK UNBOUND:                -2.593
REMARK SMILES OC[C@@H]1O[C@H](O[C@@H]2[C@@H](O)[C@H](O)[C@H](O[C@@H]3[C@H](O)[C@@H](O)[C@@H](O)O[C@@H]3CO)O[C@H]2CO)[C@@H](O)[C@@H](O)[C@@H]1O
REMARK SMILES IDX 7 1 26 2 25 3 12 4 10 5 8 6 6 7 5 8 3 9 33 10 4 11 31 12
REMARK SMILES IDX 29 13 2 14 1 15 34 17 32 19 30 21 27 23 28 24 9 26 11 28
REMARK SMILES IDX 13 30 14 31 22 32 15 33 21 34 17 35 19 36 23 37 24 38 16 40
REMARK SMILES IDX 18 42 20 44
REMARK H PARENT 1 16 34 18 32 20 30 22 28 25 9 27 11 29 24 39 16 41 18 43
REMARK H PARENT 20 45
REMARK Flexibility Score: inf
ROOT
ATOM      1  C   UNL     1      12.316  42.477  56.384  1.00  0.00     0.184 C 
ATOM      2  C   UNL     1      10.868  42.997  56.141  1.00  0.00     0.178 C 
ATOM      3  O   UNL     1       9.946  41.925  56.024  1.00  0.00    -0.341 OA
ATOM      4  C   UNL     1      10.265  41.045  54.963  1.00  0.00     0.282 C 
ATOM      5  C   UNL     1      11.616  40.350  55.220  1.00  0.00     0.202 C 
ATOM      6  C   UNL     1      12.737  41.384  55.369  1.00  0.00     0.180 C 
ENDROOT
BRANCH   1   7
ATOM      7  O   UNL     1      13.286  43.516  56.519  1.00  0.00    -0.341 OA
BRANCH   7   8
ATOM      8  C   UNL     1      13.999  43.525  57.752  1.00  0.00     0.282 C 
ATOM      9  C   UNL     1      14.111  42.496  59.844  1.00  0.00     0.178 C 
ATOM     10  C   UNL     1      15.616  42.154  59.719  1.00  0.00     0.177 C 
ATOM     11  O   UNL     1      13.496  42.478  58.567  1.00  0.00    -0.341 OA
ATOM     12  C   UNL     1      16.294  43.153  58.766  1.00  0.00     0.179 C 
ATOM     13  C   UNL     1      15.490  43.262  57.451  1.00  0.00     0.202 C 
BRANCH   9  14
ATOM     14  C   UNL     1      13.384  41.510  60.762  1.00  0.00     0.191 C 
BRANCH  14  15
ATOM     15  O   UNL     1      14.258  41.080  61.767  1.00  0.00    -0.394 OA
ATOM     16  H   UNL     1      15.110  40.848  61.311  1.00  0.00     0.210 HD
ENDBRANCH  14  15
ENDBRANCH   9  14
BRANCH  10  17
ATOM     17  O   UNL     1      15.782  40.853  59.211  1.00  0.00    -0.387 OA
ATOM     18  H   UNL     1      15.172  40.768  58.431  1.00  0.00     0.211 HD
ENDBRANCH  10  17
BRANCH  12  19
ATOM     19  O   UNL     1      16.379  44.409  59.394  1.00  0.00    -0.387 OA
ATOM     20  H   UNL     1      15.472  44.812  59.354  1.00  0.00     0.211 HD
ENDBRANCH  12  19
BRANCH  13  21
ATOM     21  O   UNL     1      16.006  44.283  56.641  1.00  0.00    -0.385 OA
ATOM     22  H   UNL     1      16.960  44.062  56.473  1.00  0.00     0.211 HD
ENDBRANCH  13  21
ENDBRANCH   7   8
ENDBRANCH   1   7
BRANCH   2  23
ATOM     23  C   UNL     1      10.385  43.871  57.313  1.00  0.00     0.191 C 
BRANCH  23  24
ATOM     24  O   UNL     1      11.006  45.125  57.294  1.00  0.00    -0.394 OA
ATOM     25  H   UNL     1      11.257  45.330  58.234  1.00  0.00     0.210 HD
ENDBRANCH  23  24
ENDBRANCH   2  23
BRANCH   6  26
ATOM     26  O   UNL     1      13.905  40.756  55.830  1.00  0.00    -0.387 OA
ATOM     27  H   UNL     1      13.977  40.949  56.803  1.00  0.00     0.211 HD
ENDBRANCH   6  26
BRANCH   5  28
ATOM     28  O   UNL     1      11.919  39.494  54.151  1.00  0.00    -0.385 OA
ATOM     29  H   UNL     1      11.728  39.998  53.312  1.00  0.00     0.211 HD
ENDBRANCH   5  28
BRANCH   4  30
ATOM     30  O   UNL     1      10.284  41.734  53.715  1.00  0.00    -0.341 OA
BRANCH  30  31
ATOM     31  C   UNL     1       9.058  41.599  53.002  1.00  0.00     0.184 C 
ATOM     32  C   UNL     1       8.603  42.980  52.463  1.00  0.00     0.178 C 
ATOM     33  C   UNL     1       9.242  40.672  51.779  1.00  0.00     0.180 C 
ATOM     34  O   UNL     1       9.589  43.537  51.605  1.00  0.00    -0.342 OA
ATOM     35  C   UNL     1      10.230  41.309  50.792  1.00  0.00     0.201 C 
ATOM     36  C   UNL     1       9.778  42.744  50.439  1.00  0.00     0.279 C 
BRANCH  32  37
ATOM     37  C   UNL     1       8.265  43.977  53.591  1.00  0.00     0.191 C 
BRANCH  37  38
ATOM     38  O   UNL     1       7.681  43.334  54.697  1.00  0.00    -0.394 OA
ATOM     39  H   UNL     1       8.155  42.470  54.810  1.00  0.00     0.210 HD
ENDBRANCH  37  38
ENDBRANCH  32  37
BRANCH  33  40
ATOM     40  O   UNL     1       9.710  39.408  52.165  1.00  0.00    -0.387 OA
ATOM     41  H   UNL     1       9.749  38.858  51.339  1.00  0.00     0.211 HD
ENDBRANCH  33  40
BRANCH  35  42
ATOM     42  O   UNL     1      10.310  40.519  49.631  1.00  0.00    -0.385 OA
ATOM     43  H   UNL     1      10.367  39.574  49.939  1.00  0.00     0.211 HD
ENDBRANCH  35  42
BRANCH  36  44
ATOM     44  O   UNL     1       8.620  42.722  49.640  1.00  0.00    -0.366 OA
ATOM     45  H   UNL     1       8.445  43.660  49.374  1.00  0.00     0.213 HD
ENDBRANCH  36  44
ENDBRANCH  30  31
ENDBRANCH   4  30
TORSDOF 18
ENDMDL
MODEL 9
REMARK VINA RESULT:    -4.989      4.685      8.492
REMARK INTER + INTRA:         -11.228
REMARK INTER:                  -7.934
REMARK INTRA:                  -3.294
REMARK UNBOUND:                -2.593
REMARK SMILES OC[C@@H]1O[C@H](O[C@@H]2[C@@H](O)[C@H](O)[C@H](O[C@@H]3[C@H](O)[C@@H](O)[C@@H](O)O[C@@H]3CO)O[C@H]2CO)[C@@H](O)[C@@H](O)[C@@H]1O
REMARK SMILES IDX 7 1 26 2 25 3 12 4 10 5 8 6 6 7 5 8 3 9 33 10 4 11 31 12
REMARK SMILES IDX 29 13 2 14 1 15 34 17 32 19 30 21 27 23 28 24 9 26 11 28
REMARK SMILES IDX 13 30 14 31 22 32 15 33 21 34 17 35 19 36 23 37 24 38 16 40
REMARK SMILES IDX 18 42 20 44
REMARK H PARENT 1 16 34 18 32 20 30 22 28 25 9 27 11 29 24 39 16 41 18 43
REMARK H PARENT 20 45
REMARK Flexibility Score: inf
ROOT
ATOM      1  C   UNL     1      14.026  41.768  57.434  1.00  0.00     0.184 C 
ATOM      2  C   UNL     1      13.087  42.954  57.806  1.00  0.00     0.178 C 
ATOM      3  O   UNL     1      13.183  43.277  59.185  1.00  0.00    -0.341 OA
ATOM      4  C   UNL     1      12.846  42.189  60.024  1.00  0.00     0.282 C 
ATOM      5  C   UNL     1      13.845  41.030  59.840  1.00  0.00     0.202 C 
ATOM      6  C   UNL     1      13.861  40.555  58.385  1.00  0.00     0.180 C 
ENDROOT
BRANCH   1   7
ATOM      7  O   UNL     1      13.977  41.406  56.054  1.00  0.00    -0.341 OA
BRANCH   7   8
ATOM      8  C   UNL     1      12.735  40.867  55.611  1.00  0.00     0.282 C 
ATOM      9  C   UNL     1      10.837  41.364  54.347  1.00  0.00     0.178 C 
ATOM     10  C   UNL     1      10.963  40.104  53.457  1.00  0.00     0.177 C 
ATOM     11  O   UNL     1      12.120  41.812  54.749  1.00  0.00    -0.341 OA
ATOM     12  C   UNL     1      11.715  39.004  54.224  1.00  0.00     0.179 C 
ATOM     13  C   UNL     1      13.023  39.573  54.822  1.00  0.00     0.202 C 
BRANCH   9  14
ATOM     14  C   UNL     1      10.119  42.501  53.615  1.00  0.00     0.191 C 
BRANCH  14  15
ATOM     15  O   UNL     1      10.567  43.730  54.111  1.00  0.00    -0.394 OA
ATOM     16  H   UNL     1      10.220  44.422  53.489  1.00  0.00     0.210 HD
ENDBRANCH  14  15
ENDBRANCH   9  14
BRANCH  10  17
ATOM     17  O   UNL     1      11.671  40.406  52.279  1.00  0.00    -0.387 OA
ATOM     18  H   UNL     1      12.214  41.215  52.468  1.00  0.00     0.211 HD
ENDBRANCH  10  17
BRANCH  12  19
ATOM     19  O   UNL     1      10.888  38.501  55.245  1.00  0.00    -0.387 OA
ATOM     20  H   UNL     1      10.410  37.717  54.868  1.00  0.00     0.211 HD
ENDBRANCH  12  19
BRANCH  13  21
ATOM     21  O   UNL     1      13.636  38.626  55.655  1.00  0.00    -0.385 OA
ATOM     22  H   UNL     1      14.124  39.134  56.356  1.00  0.00     0.211 HD
ENDBRANCH  13  21
ENDBRANCH   7   8
ENDBRANCH   1   7
BRANCH   2  23
ATOM     23  C   UNL     1      13.462  44.228  57.026  1.00  0.00     0.191 C 
BRANCH  23  24
ATOM     24  O   UNL     1      12.642  44.388  55.904  1.00  0.00    -0.394 OA
ATOM     25  H   UNL     1      13.063  45.096  55.345  1.00  0.00     0.210 HD
ENDBRANCH  23  24
ENDBRANCH   2  23
BRANCH   6  26
ATOM     26  O   UNL     1      14.932  39.668  58.185  1.00  0.00    -0.387 OA
ATOM     27  H   UNL     1      15.619  40.154  57.655  1.00  0.00     0.211 HD
ENDBRANCH   6  26
BRANCH   5  28
ATOM     28  O   UNL     1      13.485  39.959  60.670  1.00  0.00    -0.385 OA
ATOM     29  H   UNL     1      12.787  39.437  60.186  1.00  0.00     0.211 HD
ENDBRANCH   5  28
BRANCH   4  30
ATOM     30  O   UNL     1      11.513  41.746  59.777  1.00  0.00    -0.341 OA
BRANCH  30  31
ATOM     31  C   UNL     1      10.675  41.887  60.920  1.00  0.00     0.184 C 
ATOM     32  C   UNL     1       9.562  42.929  60.636  1.00  0.00     0.178 C 
ATOM     33  C   UNL     1       9.972  40.549  61.246  1.00  0.00     0.180 C 
ATOM     34  O   UNL     1       8.776  42.536  59.520  1.00  0.00    -0.342 OA
ATOM     35  C   UNL     1       9.040  40.161  60.090  1.00  0.00     0.201 C 
ATOM     36  C   UNL     1       8.073  41.325  59.772  1.00  0.00     0.279 C 
BRANCH  32  37
ATOM     37  C   UNL     1      10.120  44.350  60.411  1.00  0.00     0.191 C 
BRANCH  37  38
ATOM     38  O   UNL     1      10.398  44.592  59.054  1.00  0.00    -0.394 OA
ATOM     39  H   UNL     1       9.559  44.925  58.644  1.00  0.00     0.210 HD
ENDBRANCH  37  38
ENDBRANCH  32  37
BRANCH  33  40
ATOM     40  O   UNL     1      10.905  39.526  61.463  1.00  0.00    -0.387 OA
ATOM     41  H   UNL     1      10.700  39.144  62.357  1.00  0.00     0.211 HD
ENDBRANCH  33  40
BRANCH  35  42
ATOM     42  O   UNL     1       8.319  39.004  60.436  1.00  0.00    -0.385 OA
ATOM     43  H   UNL     1       8.995  38.313  60.672  1.00  0.00     0.211 HD
ENDBRANCH  35  42
BRANCH  36  44
ATOM     44  O   UNL     1       7.128  41.485  60.801  1.00  0.00    -0.366 OA
ATOM     45  H   UNL     1       6.375  41.997  60.413  1.00  0.00     0.213 HD
ENDBRANCH  36  44
ENDBRANCH  30  31
ENDBRANCH   4  30
TORSDOF 18
ENDMDL
