MODEL 1
REMARK VINA RESULT:    -6.376      0.000      0.000
REMARK INTER + INTRA:          -8.002
REMARK INTER:                  -7.680
REMARK INTRA:                  -0.321
REMARK UNBOUND:                -0.321
REMARK SMILES O=c1c(O)c(-c2ccc(O)c(O)c2)oc2cc(O)cc(O)c12
REMARK SMILES IDX 5 1 3 2 2 3 1 4 22 5 20 6 19 7 17 8 16 9 15 10 14 11 6 12
REMARK SMILES IDX 7 13 8 14 9 15 13 16 11 17 10 18 12 20 4 22 21 24 18 26
REMARK H PARENT 10 19 12 21 4 23 21 25 18 27
REMARK Flexibility Score: inf
ROOT
ATOM      1  C   UNL     1      25.691  -0.456  14.703  1.00  0.00     0.180 A 
ATOM      2  C   UNL     1      26.303  -1.072  13.598  1.00  0.00     0.208 A 
ATOM      3  C   UNL     1      26.061  -0.561  12.312  1.00  0.00     0.238 A 
ATOM      4  O   UNL     1      26.655  -1.083  11.333  1.00  0.00    -0.285 OA
ATOM      5  C   UNL     1      25.199   0.549  12.147  1.00  0.00     0.111 A 
ATOM      6  C   UNL     1      24.851   1.124  10.887  1.00  0.00     0.134 A 
ATOM      7  C   UNL     1      24.094   2.302  10.853  1.00  0.00     0.093 A 
ATOM      8  C   UNL     1      23.616   2.886  12.028  1.00  0.00     0.123 A 
ATOM      9  C   UNL     1      23.900   2.299  13.258  1.00  0.00     0.094 A 
ATOM     10  C   UNL     1      24.684   1.145  13.328  1.00  0.00     0.146 A 
ATOM     11  O   UNL     1      24.940   0.623  14.522  1.00  0.00    -0.452 OA
ENDROOT
BRANCH   1  12
ATOM     12  C   UNL     1      25.877  -0.953  16.085  1.00  0.00     0.025 A 
ATOM     13  C   UNL     1      24.992  -1.915  16.599  1.00  0.00     0.016 A 
ATOM     14  C   UNL     1      25.162  -2.412  17.893  1.00  0.00     0.051 A 
ATOM     15  C   UNL     1      26.223  -1.971  18.688  1.00  0.00     0.157 A 
ATOM     16  C   UNL     1      26.957  -0.526  16.878  1.00  0.00     0.062 A 
ATOM     17  C   UNL     1      27.130  -1.026  18.178  1.00  0.00     0.158 A 
BRANCH  15  18
ATOM     18  O   UNL     1      26.366  -2.484  19.976  1.00  0.00    -0.504 OA
ATOM     19  H   UNL     1      26.623  -1.901  20.763  1.00  0.00     0.293 HD
ENDBRANCH  15  18
BRANCH  17  20
ATOM     20  O   UNL     1      28.199  -0.592  18.959  1.00  0.00    -0.504 OA
ATOM     21  H   UNL     1      28.662  -1.209  19.617  1.00  0.00     0.293 HD
ENDBRANCH  17  20
ENDBRANCH   1  12
BRANCH   2  22
ATOM     22  O   UNL     1      27.168  -2.154  13.786  1.00  0.00    -0.502 OA
ATOM     23  H   UNL     1      28.156  -2.035  13.977  1.00  0.00     0.293 HD
ENDBRANCH   2  22
BRANCH   6  24
ATOM     24  O   UNL     1      25.200   0.568   9.653  1.00  0.00    -0.507 OA
ATOM     25  H   UNL     1      24.654  -0.120   9.159  1.00  0.00     0.293 HD
ENDBRANCH   6  24
BRANCH   8  26
ATOM     26  O   UNL     1      22.849   4.049  11.982  1.00  0.00    -0.508 OA
ATOM     27  H   UNL     1      23.100   4.827  11.383  1.00  0.00     0.293 HD
ENDBRANCH   8  26
TORSDOF 6
ENDMDL
MODEL 2
REMARK VINA RESULT:    -5.912      3.188      7.178
REMARK INTER + INTRA:          -7.443
REMARK INTER:                  -7.160
REMARK INTRA:                  -0.284
REMARK UNBOUND:                -0.321
REMARK SMILES O=c1c(O)c(-c2ccc(O)c(O)c2)oc2cc(O)cc(O)c12
REMARK SMILES IDX 5 1 3 2 2 3 1 4 22 5 20 6 19 7 17 8 16 9 15 10 14 11 6 12
REMARK SMILES IDX 7 13 8 14 9 15 13 16 11 17 10 18 12 20 4 22 21 24 18 26
REMARK H PARENT 10 19 12 21 4 23 21 25 18 27
REMARK Flexibility Score: inf
ROOT
ATOM      1  C   UNL     1      24.378  -1.456  16.189  1.00  0.00     0.180 A 
ATOM      2  C   UNL     1      24.249  -0.942  17.491  1.00  0.00     0.208 A 
ATOM      3  C   UNL     1      23.407  -1.600  18.402  1.00  0.00     0.238 A 
ATOM      4  O   UNL     1      23.339  -1.166  19.582  1.00  0.00    -0.285 OA
ATOM      5  C   UNL     1      22.693  -2.753  17.996  1.00  0.00     0.111 A 
ATOM      6  C   UNL     1      21.782  -3.475  18.824  1.00  0.00     0.134 A 
ATOM      7  C   UNL     1      21.233  -4.677  18.360  1.00  0.00     0.093 A 
ATOM      8  C   UNL     1      21.509  -5.146  17.074  1.00  0.00     0.123 A 
ATOM      9  C   UNL     1      22.350  -4.418  16.237  1.00  0.00     0.094 A 
ATOM     10  C   UNL     1      22.943  -3.235  16.684  1.00  0.00     0.146 A 
ATOM     11  O   UNL     1      23.747  -2.576  15.858  1.00  0.00    -0.452 OA
ENDROOT
BRANCH   1  12
ATOM     12  C   UNL     1      25.226  -0.804  15.165  1.00  0.00     0.025 A 
ATOM     13  C   UNL     1      26.444  -1.397  14.796  1.00  0.00     0.016 A 
ATOM     14  C   UNL     1      27.249  -0.810  13.818  1.00  0.00     0.051 A 
ATOM     15  C   UNL     1      26.846   0.369  13.182  1.00  0.00     0.157 A 
ATOM     16  C   UNL     1      24.811   0.370  14.509  1.00  0.00     0.062 A 
ATOM     17  C   UNL     1      25.618   0.961  13.525  1.00  0.00     0.158 A 
BRANCH  15  18
ATOM     18  O   UNL     1      27.671   0.933  12.211  1.00  0.00    -0.504 OA
ATOM     19  H   UNL     1      28.437   1.552  12.448  1.00  0.00     0.293 HD
ENDBRANCH  15  18
BRANCH  17  20
ATOM     20  O   UNL     1      25.203   2.127  12.886  1.00  0.00    -0.504 OA
ATOM     21  H   UNL     1      24.224   2.309  12.697  1.00  0.00     0.293 HD
ENDBRANCH  17  20
ENDBRANCH   1  12
BRANCH   2  22
ATOM     22  O   UNL     1      24.979   0.185  17.877  1.00  0.00    -0.502 OA
ATOM     23  H   UNL     1      25.947   0.133  18.172  1.00  0.00     0.293 HD
ENDBRANCH   2  22
BRANCH   6  24
ATOM     24  O   UNL     1      21.368  -3.045  20.088  1.00  0.00    -0.507 OA
ATOM     25  H   UNL     1      21.738  -3.388  20.961  1.00  0.00     0.293 HD
ENDBRANCH   6  24
BRANCH   8  26
ATOM     26  O   UNL     1      20.944  -6.335  16.616  1.00  0.00    -0.508 OA
ATOM     27  H   UNL     1      20.883  -6.547  15.627  1.00  0.00     0.293 HD
ENDBRANCH   8  26
TORSDOF 6
ENDMDL
MODEL 3
REMARK VINA RESULT:    -5.786      2.810      7.165
REMARK INTER + INTRA:          -7.291
REMARK INTER:                  -6.977
REMARK INTRA:                  -0.314
REMARK UNBOUND:                -0.321
REMARK SMILES O=c1c(O)c(-c2ccc(O)c(O)c2)oc2cc(O)cc(O)c12
REMARK SMILES IDX 5 1 3 2 2 3 1 4 22 5 20 6 19 7 17 8 16 9 15 10 14 11 6 12
REMARK SMILES IDX 7 13 8 14 9 15 13 16 11 17 10 18 12 20 4 22 21 24 18 26
REMARK H PARENT 10 19 12 21 4 23 21 25 18 27
REMARK Flexibility Score: inf
ROOT
ATOM      1  C   UNL     1      24.638  -0.955  16.694  1.00  0.00     0.180 A 
ATOM      2  C   UNL     1      23.616  -1.914  16.799  1.00  0.00     0.208 A 
ATOM      3  C   UNL     1      23.025  -2.145  18.052  1.00  0.00     0.238 A 
ATOM      4  O   UNL     1      22.073  -2.965  18.128  1.00  0.00    -0.285 OA
ATOM      5  C   UNL     1      23.474  -1.426  19.186  1.00  0.00     0.111 A 
ATOM      6  C   UNL     1      22.974  -1.607  20.510  1.00  0.00     0.134 A 
ATOM      7  C   UNL     1      23.400  -0.749  21.532  1.00  0.00     0.093 A 
ATOM      8  C   UNL     1      24.356   0.240  21.290  1.00  0.00     0.123 A 
ATOM      9  C   UNL     1      24.893   0.387  20.014  1.00  0.00     0.094 A 
ATOM     10  C   UNL     1      24.462  -0.430  18.966  1.00  0.00     0.146 A 
ATOM     11  O   UNL     1      24.992  -0.250  17.761  1.00  0.00    -0.452 OA
ENDROOT
BRANCH   1  12
ATOM     12  C   UNL     1      25.327  -0.675  15.413  1.00  0.00     0.025 A 
ATOM     13  C   UNL     1      26.387  -1.499  15.003  1.00  0.00     0.016 A 
ATOM     14  C   UNL     1      27.037  -1.266  13.789  1.00  0.00     0.051 A 
ATOM     15  C   UNL     1      26.631  -0.217  12.959  1.00  0.00     0.157 A 
ATOM     16  C   UNL     1      24.905   0.367  14.567  1.00  0.00     0.062 A 
ATOM     17  C   UNL     1      25.556   0.602  13.346  1.00  0.00     0.158 A 
BRANCH  15  18
ATOM     18  O   UNL     1      27.300  -0.006  11.755  1.00  0.00    -0.504 OA
ATOM     19  H   UNL     1      27.095   0.784  11.155  1.00  0.00     0.293 HD
ENDBRANCH  15  18
BRANCH  17  20
ATOM     20  O   UNL     1      25.136   1.641  12.518  1.00  0.00    -0.504 OA
ATOM     21  H   UNL     1      25.791   2.309  12.129  1.00  0.00     0.293 HD
ENDBRANCH  17  20
ENDBRANCH   1  12
BRANCH   2  22
ATOM     22  O   UNL     1      23.173  -2.597  15.662  1.00  0.00    -0.502 OA
ATOM     23  H   UNL     1      22.439  -2.239  15.063  1.00  0.00     0.293 HD
ENDBRANCH   2  22
BRANCH   6  24
ATOM     24  O   UNL     1      22.087  -2.624  20.877  1.00  0.00    -0.507 OA
ATOM     25  H   UNL     1      21.082  -2.549  20.842  1.00  0.00     0.293 HD
ENDBRANCH   6  24
BRANCH   8  26
ATOM     26  O   UNL     1      24.785   1.079  22.317  1.00  0.00    -0.508 OA
ATOM     27  H   UNL     1      24.149   1.715  22.783  1.00  0.00     0.293 HD
ENDBRANCH   8  26
TORSDOF 6
ENDMDL
MODEL 4
REMARK VINA RESULT:    -5.518      5.673      7.848
REMARK INTER + INTRA:          -6.968
REMARK INTER:                  -6.802
REMARK INTRA:                  -0.167
REMARK UNBOUND:                -0.321
REMARK SMILES O=c1c(O)c(-c2ccc(O)c(O)c2)oc2cc(O)cc(O)c12
REMARK SMILES IDX 5 1 3 2 2 3 1 4 22 5 20 6 19 7 17 8 16 9 15 10 14 11 6 12
REMARK SMILES IDX 7 13 8 14 9 15 13 16 11 17 10 18 12 20 4 22 21 24 18 26
REMARK H PARENT 10 19 12 21 4 23 21 25 18 27
REMARK Flexibility Score: inf
ROOT
ATOM      1  C   UNL     1      22.810  -3.047  18.026  1.00  0.00     0.180 A 
ATOM      2  C   UNL     1      22.007  -2.080  18.655  1.00  0.00     0.208 A 
ATOM      3  C   UNL     1      22.625  -0.992  19.293  1.00  0.00     0.238 A 
ATOM      4  O   UNL     1      21.899  -0.101  19.805  1.00  0.00    -0.285 OA
ATOM      5  C   UNL     1      24.037  -0.893  19.307  1.00  0.00     0.111 A 
ATOM      6  C   UNL     1      24.771   0.145  19.957  1.00  0.00     0.134 A 
ATOM      7  C   UNL     1      26.160   0.214  19.794  1.00  0.00     0.093 A 
ATOM      8  C   UNL     1      26.848  -0.755  19.061  1.00  0.00     0.123 A 
ATOM      9  C   UNL     1      26.149  -1.805  18.472  1.00  0.00     0.094 A 
ATOM     10  C   UNL     1      24.758  -1.881  18.585  1.00  0.00     0.146 A 
ATOM     11  O   UNL     1      24.128  -2.893  18.000  1.00  0.00    -0.452 OA
ENDROOT
BRANCH   1  12
ATOM     12  C   UNL     1      22.233  -4.235  17.356  1.00  0.00     0.025 A 
ATOM     13  C   UNL     1      22.474  -4.443  15.989  1.00  0.00     0.016 A 
ATOM     14  C   UNL     1      21.956  -5.567  15.342  1.00  0.00     0.051 A 
ATOM     15  C   UNL     1      21.205  -6.508  16.051  1.00  0.00     0.157 A 
ATOM     16  C   UNL     1      21.495  -5.194  18.073  1.00  0.00     0.062 A 
ATOM     17  C   UNL     1      20.975  -6.325  17.425  1.00  0.00     0.158 A 
BRANCH  15  18
ATOM     18  O   UNL     1      20.699  -7.620  15.378  1.00  0.00    -0.504 OA
ATOM     19  H   UNL     1      20.296  -7.551  14.451  1.00  0.00     0.293 HD
ENDBRANCH  15  18
BRANCH  17  20
ATOM     20  O   UNL     1      20.240  -7.267  18.142  1.00  0.00    -0.504 OA
ATOM     21  H   UNL     1      19.629  -6.996  18.904  1.00  0.00     0.293 HD
ENDBRANCH  17  20
ENDBRANCH   1  12
BRANCH   2  22
ATOM     22  O   UNL     1      20.614  -2.185  18.610  1.00  0.00    -0.502 OA
ATOM     23  H   UNL     1      20.114  -2.450  17.770  1.00  0.00     0.293 HD
ENDBRANCH   2  22
BRANCH   6  24
ATOM     24  O   UNL     1      24.189   1.108  20.787  1.00  0.00    -0.507 OA
ATOM     25  H   UNL     1      24.269   2.104  20.655  1.00  0.00     0.293 HD
ENDBRANCH   6  24
BRANCH   8  26
ATOM     26  O   UNL     1      28.233  -0.687  18.919  1.00  0.00    -0.508 OA
ATOM     27  H   UNL     1      28.825  -1.489  19.097  1.00  0.00     0.293 HD
ENDBRANCH   8  26
TORSDOF 6
ENDMDL
MODEL 5
REMARK VINA RESULT:    -5.465      2.875      3.956
REMARK INTER + INTRA:          -6.905
REMARK INTER:                  -6.598
REMARK INTRA:                  -0.307
REMARK UNBOUND:                -0.321
REMARK SMILES O=c1c(O)c(-c2ccc(O)c(O)c2)oc2cc(O)cc(O)c12
REMARK SMILES IDX 5 1 3 2 2 3 1 4 22 5 20 6 19 7 17 8 16 9 15 10 14 11 6 12
REMARK SMILES IDX 7 13 8 14 9 15 13 16 11 17 10 18 12 20 4 22 21 24 18 26
REMARK H PARENT 10 19 12 21 4 23 21 25 18 27
REMARK Flexibility Score: inf
ROOT
ATOM      1  C   UNL     1      23.941  -1.781  16.032  1.00  0.00     0.180 A 
ATOM      2  C   UNL     1      25.314  -1.670  16.309  1.00  0.00     0.208 A 
ATOM      3  C   UNL     1      26.106  -0.833  15.505  1.00  0.00     0.238 A 
ATOM      4  O   UNL     1      27.324  -0.696  15.793  1.00  0.00    -0.285 OA
ATOM      5  C   UNL     1      25.517  -0.130  14.427  1.00  0.00     0.111 A 
ATOM      6  C   UNL     1      26.231   0.714  13.524  1.00  0.00     0.134 A 
ATOM      7  C   UNL     1      25.525   1.462  12.574  1.00  0.00     0.093 A 
ATOM      8  C   UNL     1      24.138   1.346  12.452  1.00  0.00     0.123 A 
ATOM      9  C   UNL     1      23.439   0.480  13.289  1.00  0.00     0.094 A 
ATOM     10  C   UNL     1      24.111  -0.252  14.271  1.00  0.00     0.146 A 
ATOM     11  O   UNL     1      23.406  -1.059  15.056  1.00  0.00    -0.452 OA
ENDROOT
BRANCH   1  12
ATOM     12  C   UNL     1      23.048  -2.663  16.818  1.00  0.00     0.025 A 
ATOM     13  C   UNL     1      22.789  -3.966  16.364  1.00  0.00     0.016 A 
ATOM     14  C   UNL     1      21.966  -4.821  17.100  1.00  0.00     0.051 A 
ATOM     15  C   UNL     1      21.401  -4.396  18.306  1.00  0.00     0.157 A 
ATOM     16  C   UNL     1      22.496  -2.244  18.042  1.00  0.00     0.062 A 
ATOM     17  C   UNL     1      21.670  -3.102  18.784  1.00  0.00     0.158 A 
BRANCH  15  18
ATOM     18  O   UNL     1      20.582  -5.271  19.018  1.00  0.00    -0.504 OA
ATOM     19  H   UNL     1      19.887  -4.942  19.677  1.00  0.00     0.293 HD
ENDBRANCH  15  18
BRANCH  17  20
ATOM     20  O   UNL     1      21.123  -2.676  19.992  1.00  0.00    -0.504 OA
ATOM     21  H   UNL     1      20.206  -2.981  20.297  1.00  0.00     0.293 HD
ENDBRANCH  17  20
ENDBRANCH   1  12
BRANCH   2  22
ATOM     22  O   UNL     1      25.871  -2.356  17.392  1.00  0.00    -0.502 OA
ATOM     23  H   UNL     1      26.340  -3.248  17.289  1.00  0.00     0.293 HD
ENDBRANCH   2  22
BRANCH   6  24
ATOM     24  O   UNL     1      27.624   0.831  13.502  1.00  0.00    -0.507 OA
ATOM     25  H   UNL     1      28.264   0.057  13.412  1.00  0.00     0.293 HD
ENDBRANCH   6  24
BRANCH   8  26
ATOM     26  O   UNL     1      23.445   2.082  11.492  1.00  0.00    -0.508 OA
ATOM     27  H   UNL     1      23.521   1.871  10.505  1.00  0.00     0.293 HD
ENDBRANCH   8  26
TORSDOF 6
ENDMDL
MODEL 6
REMARK VINA RESULT:    -5.393      5.393      8.113
REMARK INTER + INTRA:          -6.818
REMARK INTER:                  -6.495
REMARK INTRA:                  -0.323
REMARK UNBOUND:                -0.321
REMARK SMILES O=c1c(O)c(-c2ccc(O)c(O)c2)oc2cc(O)cc(O)c12
REMARK SMILES IDX 5 1 3 2 2 3 1 4 22 5 20 6 19 7 17 8 16 9 15 10 14 11 6 12
REMARK SMILES IDX 7 13 8 14 9 15 13 16 11 17 10 18 12 20 4 22 21 24 18 26
REMARK H PARENT 10 19 12 21 4 23 21 25 18 27
REMARK Flexibility Score: inf
ROOT
ATOM      1  C   UNL     1      22.238  -4.475  17.094  1.00  0.00     0.180 A 
ATOM      2  C   UNL     1      21.110  -3.974  17.766  1.00  0.00     0.208 A 
ATOM      3  C   UNL     1      21.237  -2.800  18.527  1.00  0.00     0.238 A 
ATOM      4  O   UNL     1      20.211  -2.327  19.081  1.00  0.00    -0.285 OA
ATOM      5  C   UNL     1      22.492  -2.152  18.618  1.00  0.00     0.111 A 
ATOM      6  C   UNL     1      22.744  -0.979  19.393  1.00  0.00     0.134 A 
ATOM      7  C   UNL     1      23.991  -0.349  19.305  1.00  0.00     0.093 A 
ATOM      8  C   UNL     1      25.016  -0.887  18.523  1.00  0.00     0.123 A 
ATOM      9  C   UNL     1      24.799  -2.063  17.810  1.00  0.00     0.094 A 
ATOM     10  C   UNL     1      23.554  -2.695  17.848  1.00  0.00     0.146 A 
ATOM     11  O   UNL     1      23.385  -3.809  17.145  1.00  0.00    -0.452 OA
ENDROOT
BRANCH   1  12
ATOM     12  C   UNL     1      22.190  -5.721  16.294  1.00  0.00     0.025 A 
ATOM     13  C   UNL     1      22.421  -6.955  16.922  1.00  0.00     0.016 A 
ATOM     14  C   UNL     1      22.360  -8.143  16.192  1.00  0.00     0.051 A 
ATOM     15  C   UNL     1      22.054  -8.121  14.828  1.00  0.00     0.157 A 
ATOM     16  C   UNL     1      21.861  -5.701  14.927  1.00  0.00     0.062 A 
ATOM     17  C   UNL     1      21.798  -6.894  14.191  1.00  0.00     0.158 A 
BRANCH  15  18
ATOM     18  O   UNL     1      22.002  -9.323  14.124  1.00  0.00    -0.504 OA
ATOM     19  H   UNL     1      21.883 -10.214  14.588  1.00  0.00     0.293 HD
ENDBRANCH  15  18
BRANCH  17  20
ATOM     20  O   UNL     1      21.477  -6.865  12.835  1.00  0.00    -0.504 OA
ATOM     21  H   UNL     1      20.564  -7.147  12.499  1.00  0.00     0.293 HD
ENDBRANCH  17  20
ENDBRANCH   1  12
BRANCH   2  22
ATOM     22  O   UNL     1      19.876  -4.618  17.645  1.00  0.00    -0.502 OA
ATOM     23  H   UNL     1      19.736  -5.583  17.919  1.00  0.00     0.293 HD
ENDBRANCH   2  22
BRANCH   6  24
ATOM     24  O   UNL     1      21.819  -0.415  20.276  1.00  0.00    -0.507 OA
ATOM     25  H   UNL     1      21.363  -0.911  21.026  1.00  0.00     0.293 HD
ENDBRANCH   6  24
BRANCH   8  26
ATOM     26  O   UNL     1      26.260  -0.261  18.454  1.00  0.00    -0.508 OA
ATOM     27  H   UNL     1      26.663   0.022  17.569  1.00  0.00     0.293 HD
ENDBRANCH   8  26
TORSDOF 6
ENDMDL
MODEL 7
REMARK VINA RESULT:    -5.386      5.182      6.958
REMARK INTER + INTRA:          -6.809
REMARK INTER:                  -6.693
REMARK INTRA:                  -0.116
REMARK UNBOUND:                -0.321
REMARK SMILES O=c1c(O)c(-c2ccc(O)c(O)c2)oc2cc(O)cc(O)c12
REMARK SMILES IDX 5 1 3 2 2 3 1 4 22 5 20 6 19 7 17 8 16 9 15 10 14 11 6 12
REMARK SMILES IDX 7 13 8 14 9 15 13 16 11 17 10 18 12 20 4 22 21 24 18 26
REMARK H PARENT 10 19 12 21 4 23 21 25 18 27
REMARK Flexibility Score: inf
ROOT
ATOM      1  C   UNL     1      23.777  -2.255  18.505  1.00  0.00     0.180 A 
ATOM      2  C   UNL     1      23.803  -2.897  17.256  1.00  0.00     0.208 A 
ATOM      3  C   UNL     1      22.718  -3.709  16.885  1.00  0.00     0.238 A 
ATOM      4  O   UNL     1      22.723  -4.237  15.743  1.00  0.00    -0.285 OA
ATOM      5  C   UNL     1      21.630  -3.880  17.774  1.00  0.00     0.111 A 
ATOM      6  C   UNL     1      20.497  -4.710  17.519  1.00  0.00     0.134 A 
ATOM      7  C   UNL     1      19.420  -4.701  18.413  1.00  0.00     0.093 A 
ATOM      8  C   UNL     1      19.462  -3.942  19.585  1.00  0.00     0.123 A 
ATOM      9  C   UNL     1      20.588  -3.174  19.873  1.00  0.00     0.094 A 
ATOM     10  C   UNL     1      21.664  -3.134  18.982  1.00  0.00     0.146 A 
ATOM     11  O   UNL     1      22.714  -2.381  19.289  1.00  0.00    -0.452 OA
ENDROOT
BRANCH   1  12
ATOM     12  C   UNL     1      24.895  -1.404  18.977  1.00  0.00     0.025 A 
ATOM     13  C   UNL     1      24.638  -0.081  19.371  1.00  0.00     0.016 A 
ATOM     14  C   UNL     1      25.673   0.731  19.838  1.00  0.00     0.051 A 
ATOM     15  C   UNL     1      26.976   0.233  19.934  1.00  0.00     0.157 A 
ATOM     16  C   UNL     1      26.201  -1.911  19.094  1.00  0.00     0.062 A 
ATOM     17  C   UNL     1      27.243  -1.096  19.564  1.00  0.00     0.158 A 
BRANCH  15  18
ATOM     18  O   UNL     1      27.989   1.068  20.402  1.00  0.00    -0.504 OA
ATOM     19  H   UNL     1      28.229   1.126  21.384  1.00  0.00     0.293 HD
ENDBRANCH  15  18
BRANCH  17  20
ATOM     20  O   UNL     1      28.536  -1.604  19.671  1.00  0.00    -0.504 OA
ATOM     21  H   UNL     1      29.198  -1.537  18.907  1.00  0.00     0.293 HD
ENDBRANCH  17  20
ENDBRANCH   1  12
BRANCH   2  22
ATOM     22  O   UNL     1      24.878  -2.698  16.384  1.00  0.00    -0.502 OA
ATOM     23  H   UNL     1      24.909  -3.104  15.456  1.00  0.00     0.293 HD
ENDBRANCH   2  22
BRANCH   6  24
ATOM     24  O   UNL     1      20.395  -5.575  16.425  1.00  0.00    -0.507 OA
ATOM     25  H   UNL     1      19.796  -5.425  15.629  1.00  0.00     0.293 HD
ENDBRANCH   6  24
BRANCH   8  26
ATOM     26  O   UNL     1      18.391  -3.952  20.476  1.00  0.00    -0.508 OA
ATOM     27  H   UNL     1      18.391  -4.542  21.299  1.00  0.00     0.293 HD
ENDBRANCH   8  26
TORSDOF 6
ENDMDL
MODEL 8
REMARK VINA RESULT:    -5.367      4.766      7.121
REMARK INTER + INTRA:          -6.786
REMARK INTER:                  -6.474
REMARK INTRA:                  -0.312
REMARK UNBOUND:                -0.321
REMARK SMILES O=c1c(O)c(-c2ccc(O)c(O)c2)oc2cc(O)cc(O)c12
REMARK SMILES IDX 5 1 3 2 2 3 1 4 22 5 20 6 19 7 17 8 16 9 15 10 14 11 6 12
REMARK SMILES IDX 7 13 8 14 9 15 13 16 11 17 10 18 12 20 4 22 21 24 18 26
REMARK H PARENT 10 19 12 21 4 23 21 25 18 27
REMARK Flexibility Score: inf
ROOT
ATOM      1  C   UNL     1      23.017  -3.136  17.028  1.00  0.00     0.180 A 
ATOM      2  C   UNL     1      21.783  -2.649  17.492  1.00  0.00     0.208 A 
ATOM      3  C   UNL     1      20.606  -3.330  17.138  1.00  0.00     0.238 A 
ATOM      4  O   UNL     1      19.510  -2.920  17.602  1.00  0.00    -0.285 OA
ATOM      5  C   UNL     1      20.677  -4.479  16.315  1.00  0.00     0.111 A 
ATOM      6  C   UNL     1      19.546  -5.223  15.862  1.00  0.00     0.134 A 
ATOM      7  C   UNL     1      19.743  -6.418  15.159  1.00  0.00     0.093 A 
ATOM      8  C   UNL     1      21.028  -6.860  14.835  1.00  0.00     0.123 A 
ATOM      9  C   UNL     1      22.136  -6.110  15.221  1.00  0.00     0.094 A 
ATOM     10  C   UNL     1      21.974  -4.932  15.955  1.00  0.00     0.146 A 
ATOM     11  O   UNL     1      23.057  -4.252  16.312  1.00  0.00    -0.452 OA
ENDROOT
BRANCH   1  12
ATOM     12  C   UNL     1      24.297  -2.458  17.337  1.00  0.00     0.025 A 
ATOM     13  C   UNL     1      24.812  -1.511  16.437  1.00  0.00     0.016 A 
ATOM     14  C   UNL     1      26.007  -0.845  16.717  1.00  0.00     0.051 A 
ATOM     15  C   UNL     1      26.698  -1.101  17.905  1.00  0.00     0.157 A 
ATOM     16  C   UNL     1      24.982  -2.699  18.541  1.00  0.00     0.062 A 
ATOM     17  C   UNL     1      26.183  -2.030  18.825  1.00  0.00     0.158 A 
BRANCH  15  18
ATOM     18  O   UNL     1      27.890  -0.423  18.157  1.00  0.00    -0.504 OA
ATOM     19  H   UNL     1      28.651  -0.404  17.489  1.00  0.00     0.293 HD
ENDBRANCH  15  18
BRANCH  17  20
ATOM     20  O   UNL     1      26.858  -2.280  20.018  1.00  0.00    -0.504 OA
ATOM     21  H   UNL     1      26.931  -3.215  20.401  1.00  0.00     0.293 HD
ENDBRANCH  17  20
ENDBRANCH   1  12
BRANCH   2  22
ATOM     22  O   UNL     1      21.737  -1.525  18.322  1.00  0.00    -0.502 OA
ATOM     23  H   UNL     1      22.294  -0.697  18.149  1.00  0.00     0.293 HD
ENDBRANCH   2  22
BRANCH   6  24
ATOM     24  O   UNL     1      18.221  -4.821  16.053  1.00  0.00    -0.507 OA
ATOM     25  H   UNL     1      17.428  -5.443  16.067  1.00  0.00     0.293 HD
ENDBRANCH   6  24
BRANCH   8  26
ATOM     26  O   UNL     1      21.214  -8.042  14.121  1.00  0.00    -0.508 OA
ATOM     27  H   UNL     1      22.135  -8.440  13.985  1.00  0.00     0.293 HD
ENDBRANCH   8  26
TORSDOF 6
ENDMDL
MODEL 9
REMARK VINA RESULT:    -5.234      5.572      8.512
REMARK INTER + INTRA:          -6.627
REMARK INTER:                  -6.407
REMARK INTRA:                  -0.219
REMARK UNBOUND:                -0.321
REMARK SMILES O=c1c(O)c(-c2ccc(O)c(O)c2)oc2cc(O)cc(O)c12
REMARK SMILES IDX 5 1 3 2 2 3 1 4 22 5 20 6 19 7 17 8 16 9 15 10 14 11 6 12
REMARK SMILES IDX 7 13 8 14 9 15 13 16 11 17 10 18 12 20 4 22 21 24 18 26
REMARK H PARENT 10 19 12 21 4 23 21 25 18 27
REMARK Flexibility Score: inf
ROOT
ATOM      1  C   UNL     1      21.655  -4.939  16.064  1.00  0.00     0.180 A 
ATOM      2  C   UNL     1      20.980  -4.867  17.294  1.00  0.00     0.208 A 
ATOM      3  C   UNL     1      21.460  -3.994  18.285  1.00  0.00     0.238 A 
ATOM      4  O   UNL     1      20.819  -3.895  19.363  1.00  0.00    -0.285 OA
ATOM      5  C   UNL     1      22.616  -3.216  18.038  1.00  0.00     0.111 A 
ATOM      6  C   UNL     1      23.213  -2.329  18.983  1.00  0.00     0.134 A 
ATOM      7  C   UNL     1      24.279  -1.512  18.586  1.00  0.00     0.093 A 
ATOM      8  C   UNL     1      24.811  -1.599  17.297  1.00  0.00     0.123 A 
ATOM      9  C   UNL     1      24.274  -2.504  16.385  1.00  0.00     0.094 A 
ATOM     10  C   UNL     1      23.187  -3.306  16.740  1.00  0.00     0.146 A 
ATOM     11  O   UNL     1      22.698  -4.149  15.838  1.00  0.00    -0.452 OA
ENDROOT
BRANCH   1  12
ATOM     12  C   UNL     1      21.226  -5.854  14.981  1.00  0.00     0.025 A 
ATOM     13  C   UNL     1      20.054  -5.570  14.261  1.00  0.00     0.016 A 
ATOM     14  C   UNL     1      19.642  -6.408  13.223  1.00  0.00     0.051 A 
ATOM     15  C   UNL     1      20.397  -7.532  12.877  1.00  0.00     0.157 A 
ATOM     16  C   UNL     1      21.996  -6.973  14.618  1.00  0.00     0.062 A 
ATOM     17  C   UNL     1      21.584  -7.815  13.575  1.00  0.00     0.158 A 
BRANCH  15  18
ATOM     18  O   UNL     1      19.959  -8.351  11.838  1.00  0.00    -0.504 OA
ATOM     19  H   UNL     1      19.834  -9.349  11.955  1.00  0.00     0.293 HD
ENDBRANCH  15  18
BRANCH  17  20
ATOM     20  O   UNL     1      22.351  -8.925  13.227  1.00  0.00    -0.504 OA
ATOM     21  H   UNL     1      21.923  -9.800  12.946  1.00  0.00     0.293 HD
ENDBRANCH  17  20
ENDBRANCH   1  12
BRANCH   2  22
ATOM     22  O   UNL     1      19.827  -5.628  17.509  1.00  0.00    -0.502 OA
ATOM     23  H   UNL     1      19.463  -5.815  18.436  1.00  0.00     0.293 HD
ENDBRANCH   2  22
BRANCH   6  24
ATOM     24  O   UNL     1      22.817  -2.233  20.320  1.00  0.00    -0.507 OA
ATOM     25  H   UNL     1      22.671  -1.367  20.816  1.00  0.00     0.293 HD
ENDBRANCH   6  24
BRANCH   8  26
ATOM     26  O   UNL     1      25.883  -0.793  16.915  1.00  0.00    -0.508 OA
ATOM     27  H   UNL     1      26.297  -0.863  15.994  1.00  0.00     0.293 HD
ENDBRANCH   8  26
TORSDOF 6
ENDMDL
