MODEL 1
REMARK VINA RESULT:    -4.658      0.000      0.000
REMARK INTER + INTRA:          -5.087
REMARK INTER:                  -4.930
REMARK INTRA:                  -0.156
REMARK UNBOUND:                -0.156
REMARK SMILES Cc1ccc(C(C)C)cc1
REMARK SMILES IDX 1 1 2 2 3 3 4 4 5 5 9 6 10 7 6 8 7 9 8 10
REMARK H PARENT
REMARK Flexibility Score: inf
ROOT
ATOM      1  C   UNL     1     143.891 183.619 153.157  1.00  0.00     0.044 C 
ATOM      2  C   UNL     1     143.890 183.609 154.657  1.00  0.00    -0.051 A 
ATOM      3  C   UNL     1     142.679 183.573 155.361  1.00  0.00     0.004 A 
ATOM      4  C   UNL     1     142.676 183.526 156.758  1.00  0.00     0.004 A 
ATOM      5  C   UNL     1     143.889 183.503 157.475  1.00  0.00    -0.045 A 
ATOM      6  C   UNL     1     145.099 183.521 156.761  1.00  0.00     0.004 A 
ATOM      7  C   UNL     1     145.099 183.566 155.363  1.00  0.00     0.004 A 
ENDROOT
BRANCH   5   8
ATOM      8  C   UNL     1     143.902 183.451 158.991  1.00  0.00     0.013 C 
ATOM      9  C   UNL     1     143.872 182.002 159.495  1.00  0.00     0.012 C 
ATOM     10  C   UNL     1     142.745 184.264 159.583  1.00  0.00     0.012 C 
ENDBRANCH   5   8
TORSDOF 1
ENDMDL
MODEL 2
REMARK VINA RESULT:    -4.657      0.046      1.532
REMARK INTER + INTRA:          -5.086
REMARK INTER:                  -4.928
REMARK INTRA:                  -0.158
REMARK UNBOUND:                -0.156
REMARK SMILES Cc1ccc(C(C)C)cc1
REMARK SMILES IDX 1 1 2 2 3 3 4 4 5 5 9 6 10 7 6 8 7 9 8 10
REMARK H PARENT
REMARK Flexibility Score: inf
ROOT
ATOM      1  C   UNL     1     143.849 183.681 153.159  1.00  0.00     0.044 C 
ATOM      2  C   UNL     1     143.869 183.599 154.657  1.00  0.00    -0.051 A 
ATOM      3  C   UNL     1     145.088 183.617 155.349  1.00  0.00     0.004 A 
ATOM      4  C   UNL     1     145.107 183.579 156.746  1.00  0.00     0.004 A 
ATOM      5  C   UNL     1     143.904 183.534 157.476  1.00  0.00    -0.045 A 
ATOM      6  C   UNL     1     142.685 183.535 156.776  1.00  0.00     0.004 A 
ATOM      7  C   UNL     1     142.668 183.574 155.379  1.00  0.00     0.004 A 
ENDROOT
BRANCH   5   8
ATOM      8  C   UNL     1     143.909 183.493 158.993  1.00  0.00     0.013 C 
ATOM      9  C   UNL     1     143.877 182.049 159.507  1.00  0.00     0.012 C 
ATOM     10  C   UNL     1     142.747 184.310 159.571  1.00  0.00     0.012 C 
ENDBRANCH   5   8
TORSDOF 1
ENDMDL
MODEL 3
REMARK VINA RESULT:    -4.645      1.187      4.476
REMARK INTER + INTRA:          -5.073
REMARK INTER:                  -4.916
REMARK INTRA:                  -0.157
REMARK UNBOUND:                -0.156
REMARK SMILES Cc1ccc(C(C)C)cc1
REMARK SMILES IDX 1 1 2 2 3 3 4 4 5 5 9 6 10 7 6 8 7 9 8 10
REMARK H PARENT
REMARK Flexibility Score: inf
ROOT
ATOM      1  C   UNL     1     142.736 182.580 161.298  1.00  0.00     0.044 C 
ATOM      2  C   UNL     1     143.324 182.803 159.936  1.00  0.00    -0.051 A 
ATOM      3  C   UNL     1     142.965 183.933 159.189  1.00  0.00     0.004 A 
ATOM      4  C   UNL     1     143.539 184.162 157.935  1.00  0.00     0.004 A 
ATOM      5  C   UNL     1     144.493 183.268 157.413  1.00  0.00    -0.045 A 
ATOM      6  C   UNL     1     144.862 182.146 158.175  1.00  0.00     0.004 A 
ATOM      7  C   UNL     1     144.287 181.920 159.429  1.00  0.00     0.004 A 
ENDROOT
BRANCH   5   8
ATOM      8  C   UNL     1     145.127 183.503 156.054  1.00  0.00     0.013 C 
ATOM      9  C   UNL     1     145.287 185.002 155.771  1.00  0.00     0.012 C 
ATOM     10  C   UNL     1     144.325 182.815 154.943  1.00  0.00     0.012 C 
ENDBRANCH   5   8
TORSDOF 1
ENDMDL
MODEL 4
REMARK VINA RESULT:    -4.532      1.117      2.265
REMARK INTER + INTRA:          -4.954
REMARK INTER:                  -4.800
REMARK INTRA:                  -0.154
REMARK UNBOUND:                -0.156
REMARK SMILES Cc1ccc(C(C)C)cc1
REMARK SMILES IDX 1 1 2 2 3 3 4 4 5 5 9 6 10 7 6 8 7 9 8 10
REMARK H PARENT
REMARK Flexibility Score: inf
ROOT
ATOM      1  C   UNL     1     144.755 182.827 154.311  1.00  0.00     0.044 C 
ATOM      2  C   UNL     1     144.201 183.234 155.644  1.00  0.00    -0.051 A 
ATOM      3  C   UNL     1     145.062 183.474 156.723  1.00  0.00     0.004 A 
ATOM      4  C   UNL     1     144.550 183.890 157.955  1.00  0.00     0.004 A 
ATOM      5  C   UNL     1     143.166 184.084 158.125  1.00  0.00    -0.045 A 
ATOM      6  C   UNL     1     142.310 183.860 157.034  1.00  0.00     0.004 A 
ATOM      7  C   UNL     1     142.824 183.445 155.801  1.00  0.00     0.004 A 
ENDROOT
BRANCH   5   8
ATOM      8  C   UNL     1     142.596 184.536 159.457  1.00  0.00     0.013 C 
ATOM      9  C   UNL     1     143.226 185.859 159.908  1.00  0.00     0.012 C 
ATOM     10  C   UNL     1     142.764 183.451 160.527  1.00  0.00     0.012 C 
ENDBRANCH   5   8
TORSDOF 1
ENDMDL
MODEL 5
REMARK VINA RESULT:    -4.346      2.912      4.373
REMARK INTER + INTRA:          -4.757
REMARK INTER:                  -4.603
REMARK INTRA:                  -0.154
REMARK UNBOUND:                -0.156
REMARK SMILES Cc1ccc(C(C)C)cc1
REMARK SMILES IDX 1 1 2 2 3 3 4 4 5 5 9 6 10 7 6 8 7 9 8 10
REMARK H PARENT
REMARK Flexibility Score: inf
ROOT
ATOM      1  C   UNL     1     145.025 181.945 158.323  1.00  0.00     0.044 C 
ATOM      2  C   UNL     1     144.470 183.263 158.777  1.00  0.00    -0.051 A 
ATOM      3  C   UNL     1     145.055 184.461 158.344  1.00  0.00     0.004 A 
ATOM      4  C   UNL     1     144.517 185.690 158.735  1.00  0.00     0.004 A 
ATOM      5  C   UNL     1     143.375 185.741 159.558  1.00  0.00    -0.045 A 
ATOM      6  C   UNL     1     142.783 184.536 159.973  1.00  0.00     0.004 A 
ATOM      7  C   UNL     1     143.322 183.307 159.580  1.00  0.00     0.004 A 
ENDROOT
BRANCH   5   8
ATOM      8  C   UNL     1     142.779 187.068 159.991  1.00  0.00     0.013 C 
ATOM      9  C   UNL     1     142.159 187.809 158.800  1.00  0.00     0.012 C 
ATOM     10  C   UNL     1     143.823 187.939 160.699  1.00  0.00     0.012 C 
ENDBRANCH   5   8
TORSDOF 1
ENDMDL
MODEL 6
REMARK VINA RESULT:    -4.335      2.083      4.413
REMARK INTER + INTRA:          -4.745
REMARK INTER:                  -4.589
REMARK INTRA:                  -0.156
REMARK UNBOUND:                -0.156
REMARK SMILES Cc1ccc(C(C)C)cc1
REMARK SMILES IDX 1 1 2 2 3 3 4 4 5 5 9 6 10 7 6 8 7 9 8 10
REMARK H PARENT
REMARK Flexibility Score: inf
ROOT
ATOM      1  C   UNL     1     142.882 187.775 160.403  1.00  0.00     0.044 C 
ATOM      2  C   UNL     1     143.498 186.570 159.756  1.00  0.00    -0.051 A 
ATOM      3  C   UNL     1     142.896 185.311 159.891  1.00  0.00     0.004 A 
ATOM      4  C   UNL     1     143.448 184.194 159.259  1.00  0.00     0.004 A 
ATOM      5  C   UNL     1     144.608 184.319 158.469  1.00  0.00    -0.045 A 
ATOM      6  C   UNL     1     145.195 185.587 158.323  1.00  0.00     0.004 A 
ATOM      7  C   UNL     1     144.641 186.704 158.956  1.00  0.00     0.004 A 
ENDROOT
BRANCH   5   8
ATOM      8  C   UNL     1     145.218 183.115 157.776  1.00  0.00     0.013 C 
ATOM      9  C   UNL     1     144.527 182.842 156.434  1.00  0.00     0.012 C 
ATOM     10  C   UNL     1     145.177 181.877 158.679  1.00  0.00     0.012 C 
ENDBRANCH   5   8
TORSDOF 1
ENDMDL
MODEL 7
REMARK VINA RESULT:    -4.262      2.364      4.627
REMARK INTER + INTRA:          -4.667
REMARK INTER:                  -4.509
REMARK INTRA:                  -0.158
REMARK UNBOUND:                -0.156
REMARK SMILES Cc1ccc(C(C)C)cc1
REMARK SMILES IDX 1 1 2 2 3 3 4 4 5 5 9 6 10 7 6 8 7 9 8 10
REMARK H PARENT
REMARK Flexibility Score: inf
ROOT
ATOM      1  C   UNL     1     142.099 188.810 160.111  1.00  0.00     0.044 C 
ATOM      2  C   UNL     1     142.366 187.404 159.662  1.00  0.00    -0.051 A 
ATOM      3  C   UNL     1     141.569 186.816 158.670  1.00  0.00     0.004 A 
ATOM      4  C   UNL     1     141.839 185.520 158.224  1.00  0.00     0.004 A 
ATOM      5  C   UNL     1     142.921 184.792 158.755  1.00  0.00    -0.045 A 
ATOM      6  C   UNL     1     143.728 185.394 159.736  1.00  0.00     0.004 A 
ATOM      7  C   UNL     1     143.456 186.692 160.180  1.00  0.00     0.004 A 
ENDROOT
BRANCH   5   8
ATOM      8  C   UNL     1     143.228 183.384 158.280  1.00  0.00     0.013 C 
ATOM      9  C   UNL     1     143.594 182.471 159.457  1.00  0.00     0.012 C 
ATOM     10  C   UNL     1     144.335 183.387 157.220  1.00  0.00     0.012 C 
ENDBRANCH   5   8
TORSDOF 1
ENDMDL
MODEL 8
REMARK VINA RESULT:    -4.254      2.904      4.334
REMARK INTER + INTRA:          -4.659
REMARK INTER:                  -4.491
REMARK INTRA:                  -0.167
REMARK UNBOUND:                -0.156
REMARK SMILES Cc1ccc(C(C)C)cc1
REMARK SMILES IDX 1 1 2 2 3 3 4 4 5 5 9 6 10 7 6 8 7 9 8 10
REMARK H PARENT
REMARK Flexibility Score: inf
ROOT
ATOM      1  C   UNL     1     142.204 187.587 159.637  1.00  0.00     0.044 C 
ATOM      2  C   UNL     1     143.030 186.389 159.270  1.00  0.00    -0.051 A 
ATOM      3  C   UNL     1     144.351 186.551 158.832  1.00  0.00     0.004 A 
ATOM      4  C   UNL     1     145.135 185.435 158.525  1.00  0.00     0.004 A 
ATOM      5  C   UNL     1     144.611 184.135 158.662  1.00  0.00    -0.045 A 
ATOM      6  C   UNL     1     143.291 183.979 159.119  1.00  0.00     0.004 A 
ATOM      7  C   UNL     1     142.510 185.097 159.427  1.00  0.00     0.004 A 
ENDROOT
BRANCH   5   8
ATOM      8  C   UNL     1     145.449 182.913 158.334  1.00  0.00     0.013 C 
ATOM      9  C   UNL     1     144.922 181.669 159.060  1.00  0.00     0.012 C 
ATOM     10  C   UNL     1     146.928 183.154 158.657  1.00  0.00     0.012 C 
ENDBRANCH   5   8
TORSDOF 1
ENDMDL
MODEL 9
REMARK VINA RESULT:    -4.238      2.633      4.237
REMARK INTER + INTRA:          -4.642
REMARK INTER:                  -4.481
REMARK INTRA:                  -0.161
REMARK UNBOUND:                -0.156
REMARK SMILES Cc1ccc(C(C)C)cc1
REMARK SMILES IDX 1 1 2 2 3 3 4 4 5 5 9 6 10 7 6 8 7 9 8 10
REMARK H PARENT
REMARK Flexibility Score: inf
ROOT
ATOM      1  C   UNL     1     144.765 182.558 157.682  1.00  0.00     0.044 C 
ATOM      2  C   UNL     1     144.379 183.827 158.384  1.00  0.00    -0.051 A 
ATOM      3  C   UNL     1     143.219 183.874 159.169  1.00  0.00     0.004 A 
ATOM      4  C   UNL     1     142.877 185.044 159.854  1.00  0.00     0.004 A 
ATOM      5  C   UNL     1     143.698 186.185 159.772  1.00  0.00    -0.045 A 
ATOM      6  C   UNL     1     144.869 186.125 158.998  1.00  0.00     0.004 A 
ATOM      7  C   UNL     1     145.210 184.953 158.315  1.00  0.00     0.004 A 
ENDROOT
BRANCH   5   8
ATOM      8  C   UNL     1     143.341 187.462 160.510  1.00  0.00     0.013 C 
ATOM      9  C   UNL     1     142.139 188.158 159.860  1.00  0.00     0.012 C 
ATOM     10  C   UNL     1     144.545 188.407 160.596  1.00  0.00     0.012 C 
ENDBRANCH   5   8
TORSDOF 1
ENDMDL
