MODEL 1
REMARK VINA RESULT:    -4.102      0.000      0.000
REMARK INTER + INTRA:         -11.295
REMARK INTER:                  -9.378
REMARK INTRA:                  -1.917
REMARK UNBOUND:                -1.917
REMARK SMILES CCCCCCCCCCCCCCCCCCCCCCCC(=O)[O-]
REMARK SMILES IDX 13 1 14 2 15 3 16 4 17 5 18 6 19 7 20 8 21 9 22 10 23 11
REMARK SMILES IDX 24 12 25 13 26 14 12 15 11 16 10 17 9 18 8 19 7 20 6 21 5 22
REMARK SMILES IDX 4 23 3 24 2 25 1 26
REMARK H PARENT
REMARK Flexibility Score: inf
ROOT
ATOM      1  C   UNL     1      -6.634  16.996  -7.287  1.00  0.00     0.000 C 
ENDROOT
BRANCH   1   2
ATOM      2  C   UNL     1      -6.870  16.632  -8.763  1.00  0.00     0.000 C 
BRANCH   2   3
ATOM      3  C   UNL     1      -5.585  16.249  -9.527  1.00  0.00     0.000 C 
BRANCH   3   4
ATOM      4  C   UNL     1      -5.214  17.287 -10.602  1.00  0.00     0.000 C 
BRANCH   4   5
ATOM      5  C   UNL     1      -5.896  18.648 -10.378  1.00  0.00     0.000 C 
BRANCH   5   6
ATOM      6  C   UNL     1      -5.709  19.670 -11.520  1.00  0.00     0.000 C 
BRANCH   6   7
ATOM      7  C   UNL     1      -6.220  19.216 -12.902  1.00  0.00     0.000 C 
BRANCH   7   8
ATOM      8  C   UNL     1      -7.434  20.027 -13.386  1.00  0.00     0.000 C 
BRANCH   8   9
ATOM      9  C   UNL     1      -8.670  19.149 -13.644  1.00  0.00     0.000 C 
BRANCH   9  10
ATOM     10  C   UNL     1      -9.691  19.207 -12.494  1.00  0.00     0.006 C 
BRANCH  10  11
ATOM     11  C   UNL     1      -9.342  18.235 -11.358  1.00  0.00     0.053 C 
BRANCH  11  12
ATOM     12  C   UNL     1     -10.234  17.030 -11.360  1.00  0.00     0.041 C 
ATOM     13  O   UNL     1     -10.255  16.256 -10.367  1.00  0.00    -0.550 OA
ATOM     14  O   UNL     1     -11.066  16.780 -12.444  1.00  0.00    -0.550 OA
ENDBRANCH  11  12
ENDBRANCH  10  11
ENDBRANCH   9  10
ENDBRANCH   8   9
ENDBRANCH   7   8
ENDBRANCH   6   7
ENDBRANCH   5   6
ENDBRANCH   4   5
ENDBRANCH   3   4
ENDBRANCH   2   3
ENDBRANCH   1   2
BRANCH   1  15
ATOM     15  C   UNL     1      -5.343  16.385  -6.714  1.00  0.00     0.000 C 
BRANCH  15  16
ATOM     16  C   UNL     1      -4.312  17.455  -6.292  1.00  0.00     0.000 C 
BRANCH  16  17
ATOM     17  C   UNL     1      -4.637  18.873  -6.800  1.00  0.00     0.000 C 
BRANCH  17  18
ATOM     18  C   UNL     1      -4.593  19.974  -5.728  1.00  0.00    -0.000 C 
BRANCH  18  19
ATOM     19  C   UNL     1      -4.023  19.479  -4.390  1.00  0.00    -0.000 C 
BRANCH  19  20
ATOM     20  C   UNL     1      -4.574  20.296  -3.216  1.00  0.00    -0.000 C 
BRANCH  20  21
ATOM     21  C   UNL     1      -4.305  19.585  -1.881  1.00  0.00    -0.000 C 
BRANCH  21  22
ATOM     22  C   UNL     1      -4.966  20.294  -0.688  1.00  0.00    -0.000 C 
BRANCH  22  23
ATOM     23  C   UNL     1      -4.707  19.571   0.642  1.00  0.00    -0.000 C 
BRANCH  23  24
ATOM     24  C   UNL     1      -5.766  19.952   1.689  1.00  0.00    -0.000 C 
BRANCH  24  25
ATOM     25  C   UNL     1      -5.404  19.464   3.101  1.00  0.00    -0.003 C 
ATOM     26  C   UNL     1      -6.548  18.708   3.777  1.00  0.00     0.004 C 
ENDBRANCH  24  25
ENDBRANCH  23  24
ENDBRANCH  22  23
ENDBRANCH  21  22
ENDBRANCH  20  21
ENDBRANCH  19  20
ENDBRANCH  18  19
ENDBRANCH  17  18
ENDBRANCH  16  17
ENDBRANCH  15  16
ENDBRANCH   1  15
TORSDOF 22
ENDMDL
MODEL 2
REMARK VINA RESULT:    -3.879      4.322      6.457
REMARK INTER + INTRA:         -10.785
REMARK INTER:                  -7.626
REMARK INTRA:                  -3.159
REMARK UNBOUND:                -1.917
REMARK SMILES CCCCCCCCCCCCCCCCCCCCCCCC(=O)[O-]
REMARK SMILES IDX 13 1 14 2 15 3 16 4 17 5 18 6 19 7 20 8 21 9 22 10 23 11
REMARK SMILES IDX 24 12 25 13 26 14 12 15 11 16 10 17 9 18 8 19 7 20 6 21 5 22
REMARK SMILES IDX 4 23 3 24 2 25 1 26
REMARK H PARENT
REMARK Flexibility Score: inf
ROOT
ATOM      1  C   UNL     1      -9.996  17.103 -11.250  1.00  0.00     0.000 C 
ENDROOT
BRANCH   1   2
ATOM      2  C   UNL     1     -11.378  17.765 -11.383  1.00  0.00     0.000 C 
BRANCH   2   3
ATOM      3  C   UNL     1     -11.323  19.274 -11.700  1.00  0.00     0.000 C 
BRANCH   3   4
ATOM      4  C   UNL     1     -12.185  19.647 -12.919  1.00  0.00     0.000 C 
BRANCH   4   5
ATOM      5  C   UNL     1     -11.778  18.886 -14.193  1.00  0.00     0.000 C 
BRANCH   5   6
ATOM      6  C   UNL     1     -10.805  19.641 -15.124  1.00  0.00     0.000 C 
BRANCH   6   7
ATOM      7  C   UNL     1      -9.327  19.220 -15.015  1.00  0.00     0.000 C 
BRANCH   7   8
ATOM      8  C   UNL     1      -8.454  20.276 -14.313  1.00  0.00     0.000 C 
BRANCH   8   9
ATOM      9  C   UNL     1      -6.954  20.086 -14.593  1.00  0.00     0.000 C 
BRANCH   9  10
ATOM     10  C   UNL     1      -6.130  19.888 -13.308  1.00  0.00     0.006 C 
BRANCH  10  11
ATOM     11  C   UNL     1      -5.303  18.596 -13.341  1.00  0.00     0.053 C 
BRANCH  11  12
ATOM     12  C   UNL     1      -4.557  18.376 -12.060  1.00  0.00     0.041 C 
ATOM     13  O   UNL     1      -4.347  17.208 -11.641  1.00  0.00    -0.550 OA
ATOM     14  O   UNL     1      -4.066  19.461 -11.344  1.00  0.00    -0.550 OA
ENDBRANCH  11  12
ENDBRANCH  10  11
ENDBRANCH   9  10
ENDBRANCH   8   9
ENDBRANCH   7   8
ENDBRANCH   6   7
ENDBRANCH   5   6
ENDBRANCH   4   5
ENDBRANCH   3   4
ENDBRANCH   2   3
ENDBRANCH   1   2
BRANCH   1  15
ATOM     15  C   UNL     1      -8.844  18.020 -11.698  1.00  0.00     0.000 C 
BRANCH  15  16
ATOM     16  C   UNL     1      -7.896  18.398 -10.538  1.00  0.00     0.000 C 
BRANCH  16  17
ATOM     17  C   UNL     1      -8.039  19.857 -10.064  1.00  0.00     0.000 C 
BRANCH  17  18
ATOM     18  C   UNL     1      -6.802  20.434  -9.355  1.00  0.00    -0.000 C 
BRANCH  18  19
ATOM     19  C   UNL     1      -7.032  20.669  -7.854  1.00  0.00    -0.000 C 
BRANCH  19  20
ATOM     20  C   UNL     1      -5.791  20.289  -7.037  1.00  0.00    -0.000 C 
BRANCH  20  21
ATOM     21  C   UNL     1      -4.663  19.796  -7.956  1.00  0.00    -0.000 C 
BRANCH  21  22
ATOM     22  C   UNL     1      -3.884  18.614  -7.356  1.00  0.00    -0.000 C 
BRANCH  22  23
ATOM     23  C   UNL     1      -4.547  18.058  -6.086  1.00  0.00    -0.000 C 
BRANCH  23  24
ATOM     24  C   UNL     1      -5.278  16.739  -6.381  1.00  0.00    -0.000 C 
BRANCH  24  25
ATOM     25  C   UNL     1      -5.101  16.278  -7.837  1.00  0.00    -0.003 C 
ATOM     26  C   UNL     1      -6.413  16.280  -8.622  1.00  0.00     0.004 C 
ENDBRANCH  24  25
ENDBRANCH  23  24
ENDBRANCH  22  23
ENDBRANCH  21  22
ENDBRANCH  20  21
ENDBRANCH  19  20
ENDBRANCH  18  19
ENDBRANCH  17  18
ENDBRANCH  16  17
ENDBRANCH  15  16
ENDBRANCH   1  15
TORSDOF 22
ENDMDL
MODEL 3
REMARK VINA RESULT:    -3.842      5.067      9.133
REMARK INTER + INTRA:         -10.700
REMARK INTER:                  -6.974
REMARK INTRA:                  -3.725
REMARK UNBOUND:                -1.917
REMARK SMILES CCCCCCCCCCCCCCCCCCCCCCCC(=O)[O-]
REMARK SMILES IDX 13 1 14 2 15 3 16 4 17 5 18 6 19 7 20 8 21 9 22 10 23 11
REMARK SMILES IDX 24 12 25 13 26 14 12 15 11 16 10 17 9 18 8 19 7 20 6 21 5 22
REMARK SMILES IDX 4 23 3 24 2 25 1 26
REMARK H PARENT
REMARK Flexibility Score: inf
ROOT
ATOM      1  C   UNL     1      -8.225  19.221 -14.636  1.00  0.00     0.000 C 
ENDROOT
BRANCH   1   2
ATOM      2  C   UNL     1      -7.359  20.404 -15.101  1.00  0.00     0.000 C 
BRANCH   2   3
ATOM      3  C   UNL     1      -6.129  20.669 -14.208  1.00  0.00     0.000 C 
BRANCH   3   4
ATOM      4  C   UNL     1      -4.831  20.113 -14.821  1.00  0.00     0.000 C 
BRANCH   4   5
ATOM      5  C   UNL     1      -4.872  18.588 -15.023  1.00  0.00     0.000 C 
BRANCH   5   6
ATOM      6  C   UNL     1      -4.222  17.760 -13.894  1.00  0.00     0.000 C 
BRANCH   6   7
ATOM      7  C   UNL     1      -4.574  18.205 -12.462  1.00  0.00     0.000 C 
BRANCH   7   8
ATOM      8  C   UNL     1      -4.327  17.104 -11.416  1.00  0.00     0.000 C 
BRANCH   8   9
ATOM      9  C   UNL     1      -5.010  17.400 -10.070  1.00  0.00     0.000 C 
BRANCH   9  10
ATOM     10  C   UNL     1      -5.787  16.191  -9.518  1.00  0.00     0.006 C 
BRANCH  10  11
ATOM     11  C   UNL     1      -6.758  16.587  -8.397  1.00  0.00     0.053 C 
BRANCH  11  12
ATOM     12  C   UNL     1      -6.195  17.670  -7.527  1.00  0.00     0.041 C 
ATOM     13  O   UNL     1      -6.601  18.855  -7.648  1.00  0.00    -0.550 OA
ATOM     14  O   UNL     1      -5.247  17.364  -6.559  1.00  0.00    -0.550 OA
ENDBRANCH  11  12
ENDBRANCH  10  11
ENDBRANCH   9  10
ENDBRANCH   8   9
ENDBRANCH   7   8
ENDBRANCH   6   7
ENDBRANCH   5   6
ENDBRANCH   4   5
ENDBRANCH   3   4
ENDBRANCH   2   3
ENDBRANCH   1   2
BRANCH   1  15
ATOM     15  C   UNL     1      -9.735  19.493 -14.764  1.00  0.00     0.000 C 
BRANCH  15  16
ATOM     16  C   UNL     1     -10.169  20.796 -14.056  1.00  0.00     0.000 C 
BRANCH  16  17
ATOM     17  C   UNL     1     -11.675  20.864 -13.741  1.00  0.00     0.000 C 
BRANCH  17  18
ATOM     18  C   UNL     1     -12.131  20.002 -12.552  1.00  0.00    -0.000 C 
BRANCH  18  19
ATOM     19  C   UNL     1     -12.694  18.640 -12.987  1.00  0.00    -0.000 C 
BRANCH  19  20
ATOM     20  C   UNL     1     -11.828  17.489 -12.461  1.00  0.00    -0.000 C 
BRANCH  20  21
ATOM     21  C   UNL     1     -10.966  17.951 -11.277  1.00  0.00    -0.000 C 
BRANCH  21  22
ATOM     22  C   UNL     1      -9.599  17.250 -11.230  1.00  0.00    -0.000 C 
BRANCH  22  23
ATOM     23  C   UNL     1      -8.430  18.245 -11.163  1.00  0.00    -0.000 C 
BRANCH  23  24
ATOM     24  C   UNL     1      -8.902  19.611 -10.640  1.00  0.00    -0.000 C 
BRANCH  24  25
ATOM     25  C   UNL     1      -8.048  20.774 -11.170  1.00  0.00    -0.003 C 
ATOM     26  C   UNL     1      -6.651  20.812 -10.551  1.00  0.00     0.004 C 
ENDBRANCH  24  25
ENDBRANCH  23  24
ENDBRANCH  22  23
ENDBRANCH  21  22
ENDBRANCH  20  21
ENDBRANCH  19  20
ENDBRANCH  18  19
ENDBRANCH  17  18
ENDBRANCH  16  17
ENDBRANCH  15  16
ENDBRANCH   1  15
TORSDOF 22
ENDMDL
MODEL 4
REMARK VINA RESULT:    -3.763      3.592      6.015
REMARK INTER + INTRA:         -10.519
REMARK INTER:                  -7.487
REMARK INTRA:                  -3.032
REMARK UNBOUND:                -1.917
REMARK SMILES CCCCCCCCCCCCCCCCCCCCCCCC(=O)[O-]
REMARK SMILES IDX 13 1 14 2 15 3 16 4 17 5 18 6 19 7 20 8 21 9 22 10 23 11
REMARK SMILES IDX 24 12 25 13 26 14 12 15 11 16 10 17 9 18 8 19 7 20 6 21 5 22
REMARK SMILES IDX 4 23 3 24 2 25 1 26
REMARK H PARENT
REMARK Flexibility Score: inf
ROOT
ATOM      1  C   UNL     1      -7.247  20.664  -9.353  1.00  0.00     0.000 C 
ENDROOT
BRANCH   1   2
ATOM      2  C   UNL     1      -6.017  20.138 -10.113  1.00  0.00     0.000 C 
BRANCH   2   3
ATOM      3  C   UNL     1      -6.322  19.671 -11.552  1.00  0.00     0.000 C 
BRANCH   3   4
ATOM      4  C   UNL     1      -5.076  19.708 -12.455  1.00  0.00     0.000 C 
BRANCH   4   5
ATOM      5  C   UNL     1      -5.080  18.601 -13.524  1.00  0.00     0.000 C 
BRANCH   5   6
ATOM      6  C   UNL     1      -5.863  18.937 -14.811  1.00  0.00     0.000 C 
BRANCH   6   7
ATOM      7  C   UNL     1      -6.461  20.356 -14.870  1.00  0.00     0.000 C 
BRANCH   7   8
ATOM      8  C   UNL     1      -7.988  20.355 -15.053  1.00  0.00     0.000 C 
BRANCH   8   9
ATOM      9  C   UNL     1      -8.742  20.067 -13.743  1.00  0.00     0.000 C 
BRANCH   9  10
ATOM     10  C   UNL     1      -9.442  18.696 -13.750  1.00  0.00     0.006 C 
BRANCH  10  11
ATOM     11  C   UNL     1      -9.906  18.274 -12.349  1.00  0.00     0.053 C 
BRANCH  11  12
ATOM     12  C   UNL     1     -10.893  19.243 -11.771  1.00  0.00     0.041 C 
ATOM     13  O   UNL     1     -10.763  19.648 -10.586  1.00  0.00    -0.550 OA
ATOM     14  O   UNL     1     -11.936  19.724 -12.552  1.00  0.00    -0.550 OA
ENDBRANCH  11  12
ENDBRANCH  10  11
ENDBRANCH   9  10
ENDBRANCH   8   9
ENDBRANCH   7   8
ENDBRANCH   6   7
ENDBRANCH   5   6
ENDBRANCH   4   5
ENDBRANCH   3   4
ENDBRANCH   2   3
ENDBRANCH   1   2
BRANCH   1  15
ATOM     15  C   UNL     1      -7.045  20.691  -7.827  1.00  0.00     0.000 C 
BRANCH  15  16
ATOM     16  C   UNL     1      -5.564  20.864  -7.424  1.00  0.00     0.000 C 
BRANCH  16  17
ATOM     17  C   UNL     1      -5.333  20.913  -5.902  1.00  0.00     0.000 C 
BRANCH  17  18
ATOM     18  C   UNL     1      -4.196  20.014  -5.388  1.00  0.00    -0.000 C 
BRANCH  18  19
ATOM     19  C   UNL     1      -4.009  18.747  -6.238  1.00  0.00    -0.000 C 
BRANCH  19  20
ATOM     20  C   UNL     1      -4.541  17.507  -5.509  1.00  0.00    -0.000 C 
BRANCH  20  21
ATOM     21  C   UNL     1      -5.081  16.475  -6.510  1.00  0.00    -0.000 C 
BRANCH  21  22
ATOM     22  C   UNL     1      -6.116  17.073  -7.477  1.00  0.00    -0.000 C 
BRANCH  22  23
ATOM     23  C   UNL     1      -5.823  16.719  -8.943  1.00  0.00    -0.000 C 
BRANCH  23  24
ATOM     24  C   UNL     1      -4.310  16.724  -9.217  1.00  0.00    -0.000 C 
BRANCH  24  25
ATOM     25  C   UNL     1      -3.971  16.362 -10.672  1.00  0.00    -0.003 C 
ATOM     26  C   UNL     1      -3.876  14.853 -10.898  1.00  0.00     0.004 C 
ENDBRANCH  24  25
ENDBRANCH  23  24
ENDBRANCH  22  23
ENDBRANCH  21  22
ENDBRANCH  20  21
ENDBRANCH  19  20
ENDBRANCH  18  19
ENDBRANCH  17  18
ENDBRANCH  16  17
ENDBRANCH  15  16
ENDBRANCH   1  15
TORSDOF 22
ENDMDL
MODEL 5
REMARK VINA RESULT:    -3.628      4.529      6.543
REMARK INTER + INTRA:         -10.211
REMARK INTER:                  -6.703
REMARK INTRA:                  -3.508
REMARK UNBOUND:                -1.917
REMARK SMILES CCCCCCCCCCCCCCCCCCCCCCCC(=O)[O-]
REMARK SMILES IDX 13 1 14 2 15 3 16 4 17 5 18 6 19 7 20 8 21 9 22 10 23 11
REMARK SMILES IDX 24 12 25 13 26 14 12 15 11 16 10 17 9 18 8 19 7 20 6 21 5 22
REMARK SMILES IDX 4 23 3 24 2 25 1 26
REMARK H PARENT
REMARK Flexibility Score: inf
ROOT
ATOM      1  C   UNL     1     -10.533  17.146 -11.089  1.00  0.00     0.000 C 
ENDROOT
BRANCH   1   2
ATOM      2  C   UNL     1     -11.213  18.487 -10.762  1.00  0.00     0.000 C 
BRANCH   2   3
ATOM      3  C   UNL     1     -10.684  19.677 -11.590  1.00  0.00     0.000 C 
BRANCH   3   4
ATOM      4  C   UNL     1     -11.672  20.109 -12.688  1.00  0.00     0.000 C 
BRANCH   4   5
ATOM      5  C   UNL     1     -11.756  19.100 -13.847  1.00  0.00     0.000 C 
BRANCH   5   6
ATOM      6  C   UNL     1     -10.744  19.329 -14.990  1.00  0.00     0.000 C 
BRANCH   6   7
ATOM      7  C   UNL     1      -9.354  18.700 -14.778  1.00  0.00     0.000 C 
BRANCH   7   8
ATOM      8  C   UNL     1      -8.313  19.710 -14.264  1.00  0.00     0.000 C 
BRANCH   8   9
ATOM      9  C   UNL     1      -6.878  19.158 -14.313  1.00  0.00     0.000 C 
BRANCH   9  10
ATOM     10  C   UNL     1      -6.104  19.399 -13.004  1.00  0.00     0.006 C 
BRANCH  10  11
ATOM     11  C   UNL     1      -4.816  18.566 -12.929  1.00  0.00     0.053 C 
BRANCH  11  12
ATOM     12  C   UNL     1      -4.606  17.984 -11.565  1.00  0.00     0.041 C 
ATOM     13  O   UNL     1      -4.681  18.717 -10.544  1.00  0.00    -0.550 OA
ATOM     14  O   UNL     1      -4.361  16.624 -11.418  1.00  0.00    -0.550 OA
ENDBRANCH  11  12
ENDBRANCH  10  11
ENDBRANCH   9  10
ENDBRANCH   8   9
ENDBRANCH   7   8
ENDBRANCH   6   7
ENDBRANCH   5   6
ENDBRANCH   4   5
ENDBRANCH   3   4
ENDBRANCH   2   3
ENDBRANCH   1   2
BRANCH   1  15
ATOM     15  C   UNL     1      -9.036  17.293 -11.413  1.00  0.00     0.000 C 
BRANCH  15  16
ATOM     16  C   UNL     1      -8.210  17.794 -10.208  1.00  0.00     0.000 C 
BRANCH  16  17
ATOM     17  C   UNL     1      -7.392  16.691  -9.509  1.00  0.00     0.000 C 
BRANCH  17  18
ATOM     18  C   UNL     1      -6.849  17.066  -8.120  1.00  0.00    -0.000 C 
BRANCH  18  19
ATOM     19  C   UNL     1      -5.571  16.296  -7.754  1.00  0.00    -0.000 C 
BRANCH  19  20
ATOM     20  C   UNL     1      -4.426  17.255  -7.407  1.00  0.00    -0.000 C 
BRANCH  20  21
ATOM     21  C   UNL     1      -4.966  18.530  -6.740  1.00  0.00    -0.000 C 
BRANCH  21  22
ATOM     22  C   UNL     1      -4.215  19.795  -7.185  1.00  0.00    -0.000 C 
BRANCH  22  23
ATOM     23  C   UNL     1      -5.151  20.851  -7.793  1.00  0.00    -0.000 C 
BRANCH  23  24
ATOM     24  C   UNL     1      -6.583  20.685  -7.260  1.00  0.00    -0.000 C 
BRANCH  24  25
ATOM     25  C   UNL     1      -7.648  20.922  -8.344  1.00  0.00    -0.003 C 
ATOM     26  C   UNL     1      -7.043  21.117  -9.734  1.00  0.00     0.004 C 
ENDBRANCH  24  25
ENDBRANCH  23  24
ENDBRANCH  22  23
ENDBRANCH  21  22
ENDBRANCH  20  21
ENDBRANCH  19  20
ENDBRANCH  18  19
ENDBRANCH  17  18
ENDBRANCH  16  17
ENDBRANCH  15  16
ENDBRANCH   1  15
TORSDOF 22
ENDMDL
MODEL 6
REMARK VINA RESULT:    -3.621      4.344     10.134
REMARK INTER + INTRA:         -10.194
REMARK INTER:                  -6.745
REMARK INTRA:                  -3.449
REMARK UNBOUND:                -1.917
REMARK SMILES CCCCCCCCCCCCCCCCCCCCCCCC(=O)[O-]
REMARK SMILES IDX 13 1 14 2 15 3 16 4 17 5 18 6 19 7 20 8 21 9 22 10 23 11
REMARK SMILES IDX 24 12 25 13 26 14 12 15 11 16 10 17 9 18 8 19 7 20 6 21 5 22
REMARK SMILES IDX 4 23 3 24 2 25 1 26
REMARK H PARENT
REMARK Flexibility Score: inf
ROOT
ATOM      1  C   UNL     1      -9.276  17.741 -11.372  1.00  0.00     0.000 C 
ENDROOT
BRANCH   1   2
ATOM      2  C   UNL     1      -8.559  16.913 -10.291  1.00  0.00     0.000 C 
BRANCH   2   3
ATOM      3  C   UNL     1      -7.154  17.437  -9.929  1.00  0.00     0.000 C 
BRANCH   3   4
ATOM      4  C   UNL     1      -6.858  17.326  -8.423  1.00  0.00     0.000 C 
BRANCH   4   5
ATOM      5  C   UNL     1      -5.838  16.222  -8.095  1.00  0.00     0.000 C 
BRANCH   5   6
ATOM      6  C   UNL     1      -4.600  16.690  -7.299  1.00  0.00     0.000 C 
BRANCH   6   7
ATOM      7  C   UNL     1      -4.898  17.579  -6.077  1.00  0.00     0.000 C 
BRANCH   7   8
ATOM      8  C   UNL     1      -4.168  18.933  -6.130  1.00  0.00     0.000 C 
BRANCH   8   9
ATOM      9  C   UNL     1      -5.123  20.112  -6.377  1.00  0.00     0.000 C 
BRANCH   9  10
ATOM     10  C   UNL     1      -5.235  20.484  -7.867  1.00  0.00     0.006 C 
BRANCH  10  11
ATOM     11  C   UNL     1      -3.949  20.170  -8.643  1.00  0.00     0.053 C 
BRANCH  11  12
ATOM     12  C   UNL     1      -4.239  19.628 -10.009  1.00  0.00     0.041 C 
ATOM     13  O   UNL     1      -4.780  20.359 -10.879  1.00  0.00    -0.550 OA
ATOM     14  O   UNL     1      -3.881  18.325 -10.333  1.00  0.00    -0.550 OA
ENDBRANCH  11  12
ENDBRANCH  10  11
ENDBRANCH   9  10
ENDBRANCH   8   9
ENDBRANCH   7   8
ENDBRANCH   6   7
ENDBRANCH   5   6
ENDBRANCH   4   5
ENDBRANCH   3   4
ENDBRANCH   2   3
ENDBRANCH   1   2
BRANCH   1  15
ATOM     15  C   UNL     1     -10.416  18.608 -10.809  1.00  0.00     0.000 C 
BRANCH  15  16
ATOM     16  C   UNL     1      -9.975  20.059 -10.517  1.00  0.00     0.000 C 
BRANCH  16  17
ATOM     17  C   UNL     1     -10.792  21.125 -11.269  1.00  0.00     0.000 C 
BRANCH  17  18
ATOM     18  C   UNL     1     -12.294  20.820 -11.401  1.00  0.00    -0.000 C 
BRANCH  18  19
ATOM     19  C   UNL     1     -12.746  20.682 -12.863  1.00  0.00    -0.000 C 
BRANCH  19  20
ATOM     20  C   UNL     1     -12.855  19.208 -13.272  1.00  0.00    -0.000 C 
BRANCH  20  21
ATOM     21  C   UNL     1     -12.439  19.016 -14.738  1.00  0.00    -0.000 C 
BRANCH  21  22
ATOM     22  C   UNL     1     -11.219  19.867 -15.125  1.00  0.00    -0.000 C 
BRANCH  22  23
ATOM     23  C   UNL     1      -9.907  19.303 -14.560  1.00  0.00    -0.000 C 
BRANCH  23  24
ATOM     24  C   UNL     1      -8.777  20.341 -14.659  1.00  0.00    -0.000 C 
BRANCH  24  25
ATOM     25  C   UNL     1      -7.841  20.313 -13.440  1.00  0.00    -0.003 C 
ATOM     26  C   UNL     1      -6.741  19.258 -13.562  1.00  0.00     0.004 C 
ENDBRANCH  24  25
ENDBRANCH  23  24
ENDBRANCH  22  23
ENDBRANCH  21  22
ENDBRANCH  20  21
ENDBRANCH  19  20
ENDBRANCH  18  19
ENDBRANCH  17  18
ENDBRANCH  16  17
ENDBRANCH  15  16
ENDBRANCH   1  15
TORSDOF 22
ENDMDL
MODEL 7
REMARK VINA RESULT:    -3.435      4.406      6.383
REMARK INTER + INTRA:          -9.769
REMARK INTER:                  -6.935
REMARK INTRA:                  -2.834
REMARK UNBOUND:                -1.917
REMARK SMILES CCCCCCCCCCCCCCCCCCCCCCCC(=O)[O-]
REMARK SMILES IDX 13 1 14 2 15 3 16 4 17 5 18 6 19 7 20 8 21 9 22 10 23 11
REMARK SMILES IDX 24 12 25 13 26 14 12 15 11 16 10 17 9 18 8 19 7 20 6 21 5 22
REMARK SMILES IDX 4 23 3 24 2 25 1 26
REMARK H PARENT
REMARK Flexibility Score: inf
ROOT
ATOM      1  C   UNL     1      -8.713  20.177 -10.026  1.00  0.00     0.000 C 
ENDROOT
BRANCH   1   2
ATOM      2  C   UNL     1      -7.820  19.574 -11.124  1.00  0.00     0.000 C 
BRANCH   2   3
ATOM      3  C   UNL     1      -8.513  19.446 -12.496  1.00  0.00     0.000 C 
BRANCH   3   4
ATOM      4  C   UNL     1      -7.606  19.901 -13.654  1.00  0.00     0.000 C 
BRANCH   4   5
ATOM      5  C   UNL     1      -8.251  19.691 -15.035  1.00  0.00     0.000 C 
BRANCH   5   6
ATOM      6  C   UNL     1      -9.774  19.439 -15.016  1.00  0.00     0.000 C 
BRANCH   6   7
ATOM      7  C   UNL     1     -10.629  20.598 -14.469  1.00  0.00     0.000 C 
BRANCH   7   8
ATOM      8  C   UNL     1     -12.102  20.512 -14.905  1.00  0.00     0.000 C 
BRANCH   8   9
ATOM      9  C   UNL     1     -12.967  19.711 -13.917  1.00  0.00     0.000 C 
BRANCH   9  10
ATOM     10  C   UNL     1     -12.160  19.166 -12.725  1.00  0.00     0.006 C 
BRANCH  10  11
ATOM     11  C   UNL     1     -12.343  17.653 -12.543  1.00  0.00     0.053 C 
BRANCH  11  12
ATOM     12  C   UNL     1     -11.174  17.030 -11.842  1.00  0.00     0.041 C 
ATOM     13  O   UNL     1     -10.946  17.293 -10.633  1.00  0.00    -0.550 OA
ATOM     14  O   UNL     1     -10.356  16.131 -12.516  1.00  0.00    -0.550 OA
ENDBRANCH  11  12
ENDBRANCH  10  11
ENDBRANCH   9  10
ENDBRANCH   8   9
ENDBRANCH   7   8
ENDBRANCH   6   7
ENDBRANCH   5   6
ENDBRANCH   4   5
ENDBRANCH   3   4
ENDBRANCH   2   3
ENDBRANCH   1   2
BRANCH   1  15
ATOM     15  C   UNL     1      -8.059  20.146  -8.633  1.00  0.00     0.000 C 
BRANCH  15  16
ATOM     16  C   UNL     1      -6.843  21.092  -8.523  1.00  0.00     0.000 C 
BRANCH  16  17
ATOM     17  C   UNL     1      -5.743  20.588  -7.571  1.00  0.00     0.000 C 
BRANCH  17  18
ATOM     18  C   UNL     1      -4.494  20.018  -8.264  1.00  0.00    -0.000 C 
BRANCH  18  19
ATOM     19  C   UNL     1      -4.543  20.166  -9.792  1.00  0.00    -0.000 C 
BRANCH  19  20
ATOM     20  C   UNL     1      -3.875  18.972 -10.486  1.00  0.00    -0.000 C 
BRANCH  20  21
ATOM     21  C   UNL     1      -4.930  17.989 -11.016  1.00  0.00    -0.000 C 
BRANCH  21  22
ATOM     22  C   UNL     1      -4.552  16.521 -10.762  1.00  0.00    -0.000 C 
BRANCH  22  23
ATOM     23  C   UNL     1      -5.211  15.955  -9.495  1.00  0.00    -0.000 C 
BRANCH  23  24
ATOM     24  C   UNL     1      -6.418  16.810  -9.076  1.00  0.00    -0.000 C 
BRANCH  24  25
ATOM     25  C   UNL     1      -6.701  16.734  -7.567  1.00  0.00    -0.003 C 
ATOM     26  C   UNL     1      -5.439  16.904  -6.720  1.00  0.00     0.004 C 
ENDBRANCH  24  25
ENDBRANCH  23  24
ENDBRANCH  22  23
ENDBRANCH  21  22
ENDBRANCH  20  21
ENDBRANCH  19  20
ENDBRANCH  18  19
ENDBRANCH  17  18
ENDBRANCH  16  17
ENDBRANCH  15  16
ENDBRANCH   1  15
TORSDOF 22
ENDMDL
MODEL 8
REMARK VINA RESULT:    -3.333      4.181      6.694
REMARK INTER + INTRA:          -9.536
REMARK INTER:                  -6.570
REMARK INTRA:                  -2.967
REMARK UNBOUND:                -1.917
REMARK SMILES CCCCCCCCCCCCCCCCCCCCCCCC(=O)[O-]
REMARK SMILES IDX 13 1 14 2 15 3 16 4 17 5 18 6 19 7 20 8 21 9 22 10 23 11
REMARK SMILES IDX 24 12 25 13 26 14 12 15 11 16 10 17 9 18 8 19 7 20 6 21 5 22
REMARK SMILES IDX 4 23 3 24 2 25 1 26
REMARK H PARENT
REMARK Flexibility Score: inf
ROOT
ATOM      1  C   UNL     1      -8.085  16.628  -9.523  1.00  0.00     0.000 C 
ENDROOT
BRANCH   1   2
ATOM      2  C   UNL     1      -7.603  17.677 -10.540  1.00  0.00     0.000 C 
BRANCH   2   3
ATOM      3  C   UNL     1      -7.983  19.127 -10.173  1.00  0.00     0.000 C 
BRANCH   3   4
ATOM      4  C   UNL     1      -8.643  19.872 -11.347  1.00  0.00     0.000 C 
BRANCH   4   5
ATOM      5  C   UNL     1      -7.677  20.114 -12.520  1.00  0.00     0.000 C 
BRANCH   5   6
ATOM      6  C   UNL     1      -7.974  19.292 -13.792  1.00  0.00     0.000 C 
BRANCH   6   7
ATOM      7  C   UNL     1      -8.981  19.928 -14.770  1.00  0.00     0.000 C 
BRANCH   7   8
ATOM      8  C   UNL     1     -10.310  20.309 -14.095  1.00  0.00     0.000 C 
BRANCH   8   9
ATOM      9  C   UNL     1     -11.461  19.363 -14.476  1.00  0.00     0.000 C 
BRANCH   9  10
ATOM     10  C   UNL     1     -12.438  19.117 -13.311  1.00  0.00     0.006 C 
BRANCH  10  11
ATOM     11  C   UNL     1     -12.476  17.642 -12.888  1.00  0.00     0.053 C 
BRANCH  11  12
ATOM     12  C   UNL     1     -11.379  17.309 -11.923  1.00  0.00     0.041 C 
ATOM     13  O   UNL     1     -11.266  17.950 -10.846  1.00  0.00    -0.550 OA
ATOM     14  O   UNL     1     -10.501  16.268 -12.198  1.00  0.00    -0.550 OA
ENDBRANCH  11  12
ENDBRANCH  10  11
ENDBRANCH   9  10
ENDBRANCH   8   9
ENDBRANCH   7   8
ENDBRANCH   6   7
ENDBRANCH   5   6
ENDBRANCH   4   5
ENDBRANCH   3   4
ENDBRANCH   2   3
ENDBRANCH   1   2
BRANCH   1  15
ATOM     15  C   UNL     1      -7.269  16.634  -8.219  1.00  0.00     0.000 C 
BRANCH  15  16
ATOM     16  C   UNL     1      -5.747  16.715  -8.467  1.00  0.00     0.000 C 
BRANCH  16  17
ATOM     17  C   UNL     1      -4.897  16.588  -7.189  1.00  0.00     0.000 C 
BRANCH  17  18
ATOM     18  C   UNL     1      -4.546  17.920  -6.506  1.00  0.00    -0.000 C 
BRANCH  18  19
ATOM     19  C   UNL     1      -4.126  19.009  -7.506  1.00  0.00    -0.000 C 
BRANCH  19  20
ATOM     20  C   UNL     1      -5.202  20.095  -7.627  1.00  0.00    -0.000 C 
BRANCH  20  21
ATOM     21  C   UNL     1      -5.462  20.444  -9.100  1.00  0.00    -0.000 C 
BRANCH  21  22
ATOM     22  C   UNL     1      -4.226  21.035  -9.797  1.00  0.00    -0.000 C 
BRANCH  22  23
ATOM     23  C   UNL     1      -3.877  20.299 -11.099  1.00  0.00    -0.000 C 
BRANCH  23  24
ATOM     24  C   UNL     1      -4.260  18.813 -11.008  1.00  0.00    -0.000 C 
BRANCH  24  25
ATOM     25  C   UNL     1      -4.531  18.187 -12.386  1.00  0.00    -0.003 C 
ATOM     26  C   UNL     1      -4.255  19.153 -13.538  1.00  0.00     0.004 C 
ENDBRANCH  24  25
ENDBRANCH  23  24
ENDBRANCH  22  23
ENDBRANCH  21  22
ENDBRANCH  20  21
ENDBRANCH  19  20
ENDBRANCH  18  19
ENDBRANCH  17  18
ENDBRANCH  16  17
ENDBRANCH  15  16
ENDBRANCH   1  15
TORSDOF 22
ENDMDL
MODEL 9
REMARK VINA RESULT:    -1.418      4.221      6.525
REMARK INTER + INTRA:          -5.158
REMARK INTER:                  -1.205
REMARK INTRA:                  -3.954
REMARK UNBOUND:                -1.917
REMARK SMILES CCCCCCCCCCCCCCCCCCCCCCCC(=O)[O-]
REMARK SMILES IDX 13 1 14 2 15 3 16 4 17 5 18 6 19 7 20 8 21 9 22 10 23 11
REMARK SMILES IDX 24 12 25 13 26 14 12 15 11 16 10 17 9 18 8 19 7 20 6 21 5 22
REMARK SMILES IDX 4 23 3 24 2 25 1 26
REMARK H PARENT
REMARK Flexibility Score: inf
ROOT
ATOM      1  C   UNL     1      -8.113  19.079 -10.212  1.00  0.00     0.000 C 
ENDROOT
BRANCH   1   2
ATOM      2  C   UNL     1      -8.491  18.132 -11.364  1.00  0.00     0.000 C 
BRANCH   2   3
ATOM      3  C   UNL     1      -9.359  16.933 -10.930  1.00  0.00     0.000 C 
BRANCH   3   4
ATOM      4  C   UNL     1     -10.449  16.596 -11.963  1.00  0.00     0.000 C 
BRANCH   4   5
ATOM      5  C   UNL     1     -11.697  17.485 -11.825  1.00  0.00     0.000 C 
BRANCH   5   6
ATOM      6  C   UNL     1     -11.889  18.525 -12.950  1.00  0.00     0.000 C 
BRANCH   6   7
ATOM      7  C   UNL     1     -11.914  19.996 -12.493  1.00  0.00     0.000 C 
BRANCH   7   8
ATOM      8  C   UNL     1     -10.748  20.820 -13.063  1.00  0.00     0.000 C 
BRANCH   8   9
ATOM      9  C   UNL     1      -9.941  20.052 -14.124  1.00  0.00     0.000 C 
BRANCH   9  10
ATOM     10  C   UNL     1      -8.514  20.603 -14.300  1.00  0.00     0.006 C 
BRANCH  10  11
ATOM     11  C   UNL     1      -7.499  19.496 -14.616  1.00  0.00     0.053 C 
BRANCH  11  12
ATOM     12  C   UNL     1      -6.189  19.725 -13.924  1.00  0.00     0.041 C 
ATOM     13  O   UNL     1      -5.779  20.897 -13.715  1.00  0.00    -0.550 OA
ATOM     14  O   UNL     1      -5.437  18.645 -13.480  1.00  0.00    -0.550 OA
ENDBRANCH  11  12
ENDBRANCH  10  11
ENDBRANCH   9  10
ENDBRANCH   8   9
ENDBRANCH   7   8
ENDBRANCH   6   7
ENDBRANCH   5   6
ENDBRANCH   4   5
ENDBRANCH   3   4
ENDBRANCH   2   3
ENDBRANCH   1   2
BRANCH   1  15
ATOM     15  C   UNL     1      -7.841  20.519 -10.681  1.00  0.00     0.000 C 
BRANCH  15  16
ATOM     16  C   UNL     1      -6.571  21.125 -10.042  1.00  0.00     0.000 C 
BRANCH  16  17
ATOM     17  C   UNL     1      -5.352  20.184 -10.061  1.00  0.00     0.000 C 
BRANCH  17  18
ATOM     18  C   UNL     1      -4.585  20.086  -8.732  1.00  0.00    -0.000 C 
BRANCH  18  19
ATOM     19  C   UNL     1      -5.508  20.171  -7.506  1.00  0.00    -0.000 C 
BRANCH  19  20
ATOM     20  C   UNL     1      -4.774  19.743  -6.230  1.00  0.00    -0.000 C 
BRANCH  20  21
ATOM     21  C   UNL     1      -3.946  18.473  -6.475  1.00  0.00    -0.000 C 
BRANCH  21  22
ATOM     22  C   UNL     1      -4.677  17.194  -6.038  1.00  0.00    -0.000 C 
BRANCH  22  23
ATOM     23  C   UNL     1      -5.401  16.503  -7.203  1.00  0.00    -0.000 C 
BRANCH  23  24
ATOM     24  C   UNL     1      -4.488  16.408  -8.436  1.00  0.00    -0.000 C 
BRANCH  24  25
ATOM     25  C   UNL     1      -5.271  16.469  -9.758  1.00  0.00    -0.003 C 
ATOM     26  C   UNL     1      -4.359  16.501 -10.984  1.00  0.00     0.004 C 
ENDBRANCH  24  25
ENDBRANCH  23  24
ENDBRANCH  22  23
ENDBRANCH  21  22
ENDBRANCH  20  21
ENDBRANCH  19  20
ENDBRANCH  18  19
ENDBRANCH  17  18
ENDBRANCH  16  17
ENDBRANCH  15  16
ENDBRANCH   1  15
TORSDOF 22
ENDMDL
