MODEL 1
REMARK VINA RESULT:    -3.901      0.000      0.000
REMARK INTER + INTRA:          -6.144
REMARK INTER:                  -5.269
REMARK INTRA:                  -0.875
REMARK UNBOUND:                -0.875
REMARK SMILES CC(=O)CCC=C(C)CCC=C(C)C
REMARK SMILES IDX 7 1 6 2 8 3 9 4 10 5 11 6 13 7 12 8 14 9 5 10 4 11 2 12 3 13
REMARK SMILES IDX 1 14
REMARK H PARENT
REMARK Flexibility Score: inf
ROOT
ATOM      1  C   UNL     1     199.057 149.643 164.427  1.00  0.00    -0.077 C 
ATOM      2  C   UNL     1     198.930 150.676 165.293  1.00  0.00    -0.028 C 
ATOM      3  C   UNL     1     200.360 149.345 163.724  1.00  0.00     0.039 C 
ENDROOT
BRANCH   1   4
ATOM      4  C   UNL     1     197.851 148.776 164.140  1.00  0.00     0.034 C 
BRANCH   4   5
ATOM      5  C   UNL     1     197.767 148.435 162.648  1.00  0.00     0.032 C 
BRANCH   5   6
ATOM      6  C   UNL     1     196.904 149.435 161.919  1.00  0.00    -0.028 C 
ATOM      7  C   UNL     1     196.340 151.132 160.234  1.00  0.00     0.039 C 
ATOM      8  C   UNL     1     197.328 150.204 160.892  1.00  0.00    -0.080 C 
ATOM      9  C   UNL     1     198.756 150.168 160.401  1.00  0.00     0.039 C 
ENDBRANCH   5   6
ENDBRANCH   4   5
ENDBRANCH   1   4
BRANCH   2  10
ATOM     10  C   UNL     1     200.058 151.591 165.707  1.00  0.00     0.035 C 
BRANCH  10  11
ATOM     11  C   UNL     1     199.539 152.959 166.172  1.00  0.00     0.079 C 
BRANCH  11  12
ATOM     12  C   UNL     1     199.868 154.046 165.183  1.00  0.00     0.130 C 
ATOM     13  O   UNL     1     199.524 155.197 165.408  1.00  0.00    -0.300 OA
ATOM     14  C   UNL     1     200.600 153.722 163.915  1.00  0.00     0.087 C 
ENDBRANCH  11  12
ENDBRANCH  10  11
ENDBRANCH   2  10
TORSDOF 6
ENDMDL
MODEL 2
REMARK VINA RESULT:    -3.829      2.664      6.103
REMARK INTER + INTRA:          -6.047
REMARK INTER:                  -5.410
REMARK INTRA:                  -0.637
REMARK UNBOUND:                -0.875
REMARK SMILES CC(=O)CCC=C(C)CCC=C(C)C
REMARK SMILES IDX 7 1 6 2 8 3 9 4 10 5 11 6 13 7 12 8 14 9 5 10 4 11 2 12 3 13
REMARK SMILES IDX 1 14
REMARK H PARENT
REMARK Flexibility Score: inf
ROOT
ATOM      1  C   UNL     1     199.587 151.776 164.854  1.00  0.00    -0.077 C 
ATOM      2  C   UNL     1     199.813 151.880 163.523  1.00  0.00    -0.028 C 
ATOM      3  C   UNL     1     199.159 150.475 165.492  1.00  0.00     0.039 C 
ENDROOT
BRANCH   1   4
ATOM      4  C   UNL     1     199.748 153.003 165.723  1.00  0.00     0.034 C 
BRANCH   4   5
ATOM      5  C   UNL     1     200.575 154.075 165.004  1.00  0.00     0.032 C 
BRANCH   5   6
ATOM      6  C   UNL     1     199.913 155.427 165.118  1.00  0.00    -0.028 C 
ATOM      7  C   UNL     1     199.767 157.879 165.132  1.00  0.00     0.039 C 
ATOM      8  C   UNL     1     200.568 156.606 165.041  1.00  0.00    -0.080 C 
ATOM      9  C   UNL     1     202.068 156.680 164.882  1.00  0.00     0.039 C 
ENDBRANCH   5   6
ENDBRANCH   4   5
ENDBRANCH   1   4
BRANCH   2  10
ATOM     10  C   UNL     1     199.736 150.730 162.548  1.00  0.00     0.035 C 
BRANCH  10  11
ATOM     11  C   UNL     1     198.872 151.077 161.327  1.00  0.00     0.079 C 
BRANCH  11  12
ATOM     12  C   UNL     1     197.556 150.346 161.349  1.00  0.00     0.130 C 
ATOM     13  O   UNL     1     196.659 150.687 160.592  1.00  0.00    -0.300 OA
ATOM     14  C   UNL     1     197.334 149.211 162.303  1.00  0.00     0.087 C 
ENDBRANCH  11  12
ENDBRANCH  10  11
ENDBRANCH   2  10
TORSDOF 6
ENDMDL
MODEL 3
REMARK VINA RESULT:    -3.742     15.699     17.892
REMARK INTER + INTRA:          -5.929
REMARK INTER:                  -4.548
REMARK INTRA:                  -1.381
REMARK UNBOUND:                -0.875
REMARK SMILES CC(=O)CCC=C(C)CCC=C(C)C
REMARK SMILES IDX 7 1 6 2 8 3 9 4 10 5 11 6 13 7 12 8 14 9 5 10 4 11 2 12 3 13
REMARK SMILES IDX 1 14
REMARK H PARENT
REMARK Flexibility Score: inf
ROOT
ATOM      1  C   UNL     1     215.361 144.799 170.772  1.00  0.00    -0.077 C 
ATOM      2  C   UNL     1     214.529 143.787 170.431  1.00  0.00    -0.028 C 
ATOM      3  C   UNL     1     216.109 145.603 169.735  1.00  0.00     0.039 C 
ENDROOT
BRANCH   1   4
ATOM      4  C   UNL     1     215.562 145.120 172.236  1.00  0.00     0.034 C 
BRANCH   4   5
ATOM      5  C   UNL     1     215.092 146.544 172.553  1.00  0.00     0.032 C 
BRANCH   5   6
ATOM      6  C   UNL     1     213.586 146.627 172.528  1.00  0.00    -0.028 C 
ATOM      7  C   UNL     1     211.373 147.344 171.735  1.00  0.00     0.039 C 
ATOM      8  C   UNL     1     212.878 147.392 171.668  1.00  0.00    -0.080 C 
ATOM      9  C   UNL     1     213.550 148.297 170.661  1.00  0.00     0.039 C 
ENDBRANCH   5   6
ENDBRANCH   4   5
ENDBRANCH   1   4
BRANCH   2  10
ATOM     10  C   UNL     1     214.200 143.389 169.011  1.00  0.00     0.035 C 
BRANCH  10  11
ATOM     11  C   UNL     1     212.686 143.371 168.763  1.00  0.00     0.079 C 
BRANCH  11  12
ATOM     12  C   UNL     1     212.113 144.762 168.709  1.00  0.00     0.130 C 
ATOM     13  O   UNL     1     211.067 145.011 169.292  1.00  0.00    -0.300 OA
ATOM     14  C   UNL     1     212.808 145.840 167.933  1.00  0.00     0.087 C 
ENDBRANCH  11  12
ENDBRANCH  10  11
ENDBRANCH   2  10
TORSDOF 6
ENDMDL
MODEL 4
REMARK VINA RESULT:    -3.680      2.846      6.070
REMARK INTER + INTRA:          -5.845
REMARK INTER:                  -5.096
REMARK INTRA:                  -0.750
REMARK UNBOUND:                -0.875
REMARK SMILES CC(=O)CCC=C(C)CCC=C(C)C
REMARK SMILES IDX 7 1 6 2 8 3 9 4 10 5 11 6 13 7 12 8 14 9 5 10 4 11 2 12 3 13
REMARK SMILES IDX 1 14
REMARK H PARENT
REMARK Flexibility Score: inf
ROOT
ATOM      1  C   UNL     1     198.090 150.517 161.532  1.00  0.00    -0.077 C 
ATOM      2  C   UNL     1     198.086 149.505 162.432  1.00  0.00    -0.028 C 
ATOM      3  C   UNL     1     197.000 150.671 160.498  1.00  0.00     0.039 C 
ENDROOT
BRANCH   1   4
ATOM      4  C   UNL     1     199.231 151.510 161.552  1.00  0.00     0.034 C 
BRANCH   4   5
ATOM      5  C   UNL     1     200.170 151.239 162.733  1.00  0.00     0.032 C 
BRANCH   5   6
ATOM      6  C   UNL     1     200.081 152.348 163.752  1.00  0.00    -0.028 C 
ATOM      7  C   UNL     1     199.685 153.373 165.949  1.00  0.00     0.039 C 
ATOM      8  C   UNL     1     199.686 152.177 165.033  1.00  0.00    -0.080 C 
ATOM      9  C   UNL     1     199.235 150.836 165.560  1.00  0.00     0.039 C 
ENDBRANCH   5   6
ENDBRANCH   4   5
ENDBRANCH   1   4
BRANCH   2  10
ATOM     10  C   UNL     1     196.990 148.473 162.556  1.00  0.00     0.035 C 
BRANCH  10  11
ATOM     11  C   UNL     1     197.477 147.076 162.148  1.00  0.00     0.079 C 
BRANCH  11  12
ATOM     12  C   UNL     1     197.864 146.249 163.346  1.00  0.00     0.130 C 
ATOM     13  O   UNL     1     198.888 146.512 163.960  1.00  0.00    -0.300 OA
ATOM     14  C   UNL     1     197.011 145.096 163.780  1.00  0.00     0.087 C 
ENDBRANCH  11  12
ENDBRANCH  10  11
ENDBRANCH   2  10
TORSDOF 6
ENDMDL
MODEL 5
REMARK VINA RESULT:    -3.667     15.548     17.627
REMARK INTER + INTRA:          -5.828
REMARK INTER:                  -4.470
REMARK INTRA:                  -1.358
REMARK UNBOUND:                -0.875
REMARK SMILES CC(=O)CCC=C(C)CCC=C(C)C
REMARK SMILES IDX 7 1 6 2 8 3 9 4 10 5 11 6 13 7 12 8 14 9 5 10 4 11 2 12 3 13
REMARK SMILES IDX 1 14
REMARK H PARENT
REMARK Flexibility Score: inf
ROOT
ATOM      1  C   UNL     1     213.757 147.365 172.069  1.00  0.00    -0.077 C 
ATOM      2  C   UNL     1     212.433 147.091 172.001  1.00  0.00    -0.028 C 
ATOM      3  C   UNL     1     214.413 148.370 171.151  1.00  0.00     0.039 C 
ENDROOT
BRANCH   1   4
ATOM      4  C   UNL     1     214.608 146.628 173.079  1.00  0.00     0.034 C 
BRANCH   4   5
ATOM      5  C   UNL     1     215.653 145.752 172.377  1.00  0.00     0.032 C 
BRANCH   5   6
ATOM      6  C   UNL     1     214.994 144.585 171.684  1.00  0.00    -0.028 C 
ATOM      7  C   UNL     1     214.358 143.139 169.803  1.00  0.00     0.039 C 
ATOM      8  C   UNL     1     215.029 144.371 170.350  1.00  0.00    -0.080 C 
ATOM      9  C   UNL     1     215.705 145.334 169.402  1.00  0.00     0.039 C 
ENDBRANCH   5   6
ENDBRANCH   4   5
ENDBRANCH   1   4
BRANCH   2  10
ATOM     10  C   UNL     1     211.461 147.782 171.075  1.00  0.00     0.035 C 
BRANCH  10  11
ATOM     11  C   UNL     1     210.624 146.774 170.275  1.00  0.00     0.079 C 
BRANCH  11  12
ATOM     12  C   UNL     1     211.456 146.047 169.252  1.00  0.00     0.130 C 
ATOM     13  O   UNL     1     211.361 144.833 169.144  1.00  0.00    -0.300 OA
ATOM     14  C   UNL     1     212.412 146.800 168.377  1.00  0.00     0.087 C 
ENDBRANCH  11  12
ENDBRANCH  10  11
ENDBRANCH   2  10
TORSDOF 6
ENDMDL
MODEL 6
REMARK VINA RESULT:    -3.652     15.602     17.348
REMARK INTER + INTRA:          -5.808
REMARK INTER:                  -4.418
REMARK INTRA:                  -1.390
REMARK UNBOUND:                -0.875
REMARK SMILES CC(=O)CCC=C(C)CCC=C(C)C
REMARK SMILES IDX 7 1 6 2 8 3 9 4 10 5 11 6 13 7 12 8 14 9 5 10 4 11 2 12 3 13
REMARK SMILES IDX 1 14
REMARK H PARENT
REMARK Flexibility Score: inf
ROOT
ATOM      1  C   UNL     1     215.090 144.251 170.299  1.00  0.00    -0.077 C 
ATOM      2  C   UNL     1     214.852 144.497 171.609  1.00  0.00    -0.028 C 
ATOM      3  C   UNL     1     215.859 145.220 169.432  1.00  0.00     0.039 C 
ENDROOT
BRANCH   1   4
ATOM      4  C   UNL     1     214.552 142.980 169.683  1.00  0.00     0.034 C 
BRANCH   4   5
ATOM      5  C   UNL     1     213.650 143.294 168.484  1.00  0.00     0.032 C 
BRANCH   5   6
ATOM      6  C   UNL     1     212.254 143.639 168.942  1.00  0.00    -0.028 C 
ATOM      7  C   UNL     1     210.269 145.046 169.282  1.00  0.00     0.039 C 
ATOM      8  C   UNL     1     211.689 144.860 168.813  1.00  0.00    -0.080 C 
ATOM      9  C   UNL     1     212.441 146.033 168.231  1.00  0.00     0.039 C 
ENDBRANCH   5   6
ENDBRANCH   4   5
ENDBRANCH   1   4
BRANCH   2  10
ATOM     10  C   UNL     1     215.366 145.700 172.364  1.00  0.00     0.035 C 
BRANCH  10  11
ATOM     11  C   UNL     1     214.219 146.565 172.905  1.00  0.00     0.079 C 
BRANCH  11  12
ATOM     12  C   UNL     1     213.509 147.303 171.801  1.00  0.00     0.130 C 
ATOM     13  O   UNL     1     214.157 147.921 170.969  1.00  0.00    -0.300 OA
ATOM     14  C   UNL     1     212.012 147.297 171.726  1.00  0.00     0.087 C 
ENDBRANCH  11  12
ENDBRANCH  10  11
ENDBRANCH   2  10
TORSDOF 6
ENDMDL
MODEL 7
REMARK VINA RESULT:    -3.605     15.676     17.621
REMARK INTER + INTRA:          -5.745
REMARK INTER:                  -4.633
REMARK INTRA:                  -1.112
REMARK UNBOUND:                -0.875
REMARK SMILES CC(=O)CCC=C(C)CCC=C(C)C
REMARK SMILES IDX 7 1 6 2 8 3 9 4 10 5 11 6 13 7 12 8 14 9 5 10 4 11 2 12 3 13
REMARK SMILES IDX 1 14
REMARK H PARENT
REMARK Flexibility Score: inf
ROOT
ATOM      1  C   UNL     1     213.800 147.511 172.091  1.00  0.00    -0.077 C 
ATOM      2  C   UNL     1     214.626 148.509 171.697  1.00  0.00    -0.028 C 
ATOM      3  C   UNL     1     212.392 147.383 171.560  1.00  0.00     0.039 C 
ENDROOT
BRANCH   1   4
ATOM      4  C   UNL     1     214.296 146.509 173.109  1.00  0.00     0.034 C 
BRANCH   4   5
ATOM      5  C   UNL     1     215.446 145.673 172.535  1.00  0.00     0.032 C 
BRANCH   5   6
ATOM      6  C   UNL     1     214.914 144.507 171.739  1.00  0.00    -0.028 C 
ATOM      7  C   UNL     1     214.443 143.164 169.736  1.00  0.00     0.039 C 
ATOM      8  C   UNL     1     214.983 144.408 170.393  1.00  0.00    -0.080 C 
ATOM      9  C   UNL     1     215.568 145.507 169.537  1.00  0.00     0.039 C 
ENDBRANCH   5   6
ENDBRANCH   4   5
ENDBRANCH   1   4
BRANCH   2  10
ATOM     10  C   UNL     1     214.280 149.549 170.657  1.00  0.00     0.035 C 
BRANCH  10  11
ATOM     11  C   UNL     1     213.924 150.897 171.299  1.00  0.00     0.079 C 
BRANCH  11  12
ATOM     12  C   UNL     1     212.653 151.468 170.726  1.00  0.00     0.130 C 
ATOM     13  O   UNL     1     212.312 152.605 171.019  1.00  0.00    -0.300 OA
ATOM     14  C   UNL     1     211.796 150.646 169.813  1.00  0.00     0.087 C 
ENDBRANCH  11  12
ENDBRANCH  10  11
ENDBRANCH   2  10
TORSDOF 6
ENDMDL
MODEL 8
REMARK VINA RESULT:    -3.582     14.403     16.849
REMARK INTER + INTRA:          -5.714
REMARK INTER:                  -4.782
REMARK INTRA:                  -0.932
REMARK UNBOUND:                -0.875
REMARK SMILES CC(=O)CCC=C(C)CCC=C(C)C
REMARK SMILES IDX 7 1 6 2 8 3 9 4 10 5 11 6 13 7 12 8 14 9 5 10 4 11 2 12 3 13
REMARK SMILES IDX 1 14
REMARK H PARENT
REMARK Flexibility Score: inf
ROOT
ATOM      1  C   UNL     1     211.295 160.308 161.348  1.00  0.00    -0.077 C 
ATOM      2  C   UNL     1     212.173 160.113 162.360  1.00  0.00    -0.028 C 
ATOM      3  C   UNL     1     210.400 159.201 160.843  1.00  0.00     0.039 C 
ENDROOT
BRANCH   1   4
ATOM      4  C   UNL     1     211.224 161.668 160.691  1.00  0.00     0.034 C 
BRANCH   4   5
ATOM      5  C   UNL     1     211.865 161.636 159.299  1.00  0.00     0.032 C 
BRANCH   5   6
ATOM      6  C   UNL     1     213.313 162.055 159.368  1.00  0.00    -0.028 C 
ATOM      7  C   UNL     1     215.752 161.789 159.239  1.00  0.00     0.039 C 
ATOM      8  C   UNL     1     214.358 161.219 159.179  1.00  0.00    -0.080 C 
ATOM      9  C   UNL     1     214.168 159.742 158.929  1.00  0.00     0.039 C 
ENDBRANCH   5   6
ENDBRANCH   4   5
ENDBRANCH   1   4
BRANCH   2  10
ATOM     10  C   UNL     1     212.317 158.824 163.134  1.00  0.00     0.035 C 
BRANCH  10  11
ATOM     11  C   UNL     1     212.249 159.061 164.649  1.00  0.00     0.079 C 
BRANCH  11  12
ATOM     12  C   UNL     1     210.930 158.619 165.224  1.00  0.00     0.130 C 
ATOM     13  O   UNL     1     210.128 158.026 164.518  1.00  0.00    -0.300 OA
ATOM     14  C   UNL     1     210.587 158.917 166.653  1.00  0.00     0.087 C 
ENDBRANCH  11  12
ENDBRANCH  10  11
ENDBRANCH   2  10
TORSDOF 6
ENDMDL
MODEL 9
REMARK VINA RESULT:    -3.563      2.387      3.699
REMARK INTER + INTRA:          -5.688
REMARK INTER:                  -5.262
REMARK INTRA:                  -0.427
REMARK UNBOUND:                -0.875
REMARK SMILES CC(=O)CCC=C(C)CCC=C(C)C
REMARK SMILES IDX 7 1 6 2 8 3 9 4 10 5 11 6 13 7 12 8 14 9 5 10 4 11 2 12 3 13
REMARK SMILES IDX 1 14
REMARK H PARENT
REMARK Flexibility Score: inf
ROOT
ATOM      1  C   UNL     1     200.175 153.062 165.030  1.00  0.00    -0.077 C 
ATOM      2  C   UNL     1     200.453 154.275 164.496  1.00  0.00    -0.028 C 
ATOM      3  C   UNL     1     199.438 152.916 166.340  1.00  0.00     0.039 C 
ENDROOT
BRANCH   1   4
ATOM      4  C   UNL     1     200.635 151.819 164.302  1.00  0.00     0.034 C 
BRANCH   4   5
ATOM      5  C   UNL     1     199.445 150.919 163.953  1.00  0.00     0.032 C 
BRANCH   5   6
ATOM      6  C   UNL     1     199.056 151.084 162.505  1.00  0.00    -0.028 C 
ATOM      7  C   UNL     1     197.822 150.632 160.429  1.00  0.00     0.039 C 
ATOM      8  C   UNL     1     198.136 150.324 161.870  1.00  0.00    -0.080 C 
ATOM      9  C   UNL     1     197.434 149.176 162.556  1.00  0.00     0.039 C 
ENDBRANCH   5   6
ENDBRANCH   4   5
ENDBRANCH   1   4
BRANCH   2  10
ATOM     10  C   UNL     1     200.016 155.593 165.089  1.00  0.00     0.035 C 
BRANCH  10  11
ATOM     11  C   UNL     1     201.035 156.707 164.812  1.00  0.00     0.079 C 
BRANCH  11  12
ATOM     12  C   UNL     1     200.364 157.980 164.368  1.00  0.00     0.130 C 
ATOM     13  O   UNL     1     200.669 158.486 163.298  1.00  0.00    -0.300 OA
ATOM     14  C   UNL     1     199.336 158.639 165.237  1.00  0.00     0.087 C 
ENDBRANCH  11  12
ENDBRANCH  10  11
ENDBRANCH   2  10
TORSDOF 6
ENDMDL
