MODEL 1
REMARK VINA RESULT:    -5.829      0.000      0.000
REMARK INTER + INTRA:         -11.952
REMARK INTER:                  -9.578
REMARK INTRA:                  -2.374
REMARK UNBOUND:                -2.374
REMARK SMILES C[C@H]1O[C@H](OC[C@H]2O[C@@H](Oc3c(-c4ccc(O)c(O)c4)oc4cc(O)cc(O)c4c3=O)[C@H](O)[C@@H](O)[C@H]2O)[C@@H](O)[C@H](O)[C@H]1O
REMARK SMILES IDX 7 1 36 2 34 3 32 4 9 5 8 6 6 7 5 8 4 9 1 10 2 11 42 12 3 13
REMARK SMILES IDX 40 14 38 15 43 16 41 18 39 20 37 22 35 24 10 26 11 27 12 28
REMARK SMILES IDX 30 29 21 30 29 31 31 32 22 33 27 34 23 35 26 36 24 37 13 38
REMARK SMILES IDX 20 39 14 40 18 41 15 42 16 43 19 44 17 46 28 48 25 50 33 52
REMARK H PARENT 43 17 41 19 39 21 37 23 35 25 19 45 17 47 28 49 25 51 33 53
REMARK Flexibility Score: inf
ROOT
ATOM      1  C   UNL     1       7.770  -3.800  -5.791  1.00  0.00     0.180 C 
ATOM      2  C   UNL     1       9.200  -3.169  -5.669  1.00  0.00     0.177 C 
ATOM      3  C   UNL     1       9.712  -2.694  -7.048  1.00  0.00     0.180 C 
ATOM      4  C   UNL     1       9.206  -3.568  -8.220  1.00  0.00     0.214 C 
ATOM      5  C   UNL     1       7.685  -3.882  -8.111  1.00  0.00     0.339 C 
ATOM      6  O   UNL     1       7.102  -3.315  -6.946  1.00  0.00    -0.332 OA
ENDROOT
BRANCH   1   7
ATOM      7  C   UNL     1       6.840  -3.612  -4.568  1.00  0.00     0.198 C 
BRANCH   7   8
ATOM      8  O   UNL     1       6.546  -2.232  -4.382  1.00  0.00    -0.347 OA
BRANCH   8   9
ATOM      9  C   UNL     1       6.269  -1.894  -3.030  1.00  0.00     0.281 C 
ATOM     10  C   UNL     1       4.475   0.252  -1.493  1.00  0.00     0.041 C 
ATOM     11  C   UNL     1       4.524  -1.281  -1.554  1.00  0.00     0.150 C 
ATOM     12  C   UNL     1       5.368  -1.920  -0.406  1.00  0.00     0.174 C 
ATOM     13  O   UNL     1       4.868  -1.716  -2.872  1.00  0.00    -0.344 OA
ATOM     14  C   UNL     1       5.928  -3.267  -0.878  1.00  0.00     0.179 C 
ATOM     15  C   UNL     1       6.783  -3.074  -2.161  1.00  0.00     0.202 C 
BRANCH  12  16
ATOM     16  O   UNL     1       6.443  -1.091  -0.027  1.00  0.00    -0.388 OA
ATOM     17  H   UNL     1       7.233  -1.361  -0.566  1.00  0.00     0.211 HD
ENDBRANCH  12  16
BRANCH  14  18
ATOM     18  O   UNL     1       4.865  -4.145  -1.118  1.00  0.00    -0.387 OA
ATOM     19  H   UNL     1       4.670  -4.620  -0.261  1.00  0.00     0.211 HD
ENDBRANCH  14  18
BRANCH  15  20
ATOM     20  O   UNL     1       8.119  -2.861  -1.805  1.00  0.00    -0.385 OA
ATOM     21  H   UNL     1       8.643  -2.791  -2.653  1.00  0.00     0.211 HD
ENDBRANCH  15  20
ENDBRANCH   8   9
ENDBRANCH   7   8
ENDBRANCH   1   7
BRANCH   2  22
ATOM     22  O   UNL     1       9.249  -2.095  -4.761  1.00  0.00    -0.387 OA
ATOM     23  H   UNL     1       9.828  -2.403  -4.004  1.00  0.00     0.211 HD
ENDBRANCH   2  22
BRANCH   3  24
ATOM     24  O   UNL     1       9.382  -1.339  -7.265  1.00  0.00    -0.387 OA
ATOM     25  H   UNL     1       8.650  -1.294  -7.938  1.00  0.00     0.211 HD
ENDBRANCH   3  24
BRANCH   5  26
ATOM     26  O   UNL     1       7.005  -3.354  -9.264  1.00  0.00    -0.454 OA
BRANCH  26  27
ATOM     27  C   UNL     1       5.838  -2.570  -9.200  1.00  0.00     0.214 A 
ATOM     28  C   UNL     1       4.569  -3.188  -9.098  1.00  0.00     0.180 A 
ATOM     29  C   UNL     1       5.900  -1.161  -9.176  1.00  0.00     0.239 A 
ATOM     30  O   UNL     1       3.469  -2.436  -9.079  1.00  0.00    -0.452 OA
ATOM     31  C   UNL     1       4.715  -0.408  -9.203  1.00  0.00     0.111 A 
ATOM     32  O   UNL     1       7.018  -0.582  -9.069  1.00  0.00    -0.285 OA
ATOM     33  C   UNL     1       3.486  -1.112  -9.148  1.00  0.00     0.146 A 
ATOM     34  C   UNL     1       4.702   1.014  -9.267  1.00  0.00     0.134 A 
ATOM     35  C   UNL     1       2.275  -0.419  -9.147  1.00  0.00     0.094 A 
ATOM     36  C   UNL     1       3.474   1.694  -9.270  1.00  0.00     0.093 A 
ATOM     37  C   UNL     1       2.269   0.983  -9.206  1.00  0.00     0.123 A 
BRANCH  28  38
ATOM     38  C   UNL     1       4.386  -4.655  -8.973  1.00  0.00     0.025 A 
ATOM     39  C   UNL     1       4.550  -5.339  -7.757  1.00  0.00     0.062 A 
ATOM     40  C   UNL     1       4.091  -5.391 -10.125  1.00  0.00     0.016 A 
ATOM     41  C   UNL     1       4.426  -6.732  -7.691  1.00  0.00     0.158 A 
ATOM     42  C   UNL     1       3.987  -6.783 -10.078  1.00  0.00     0.051 A 
ATOM     43  C   UNL     1       4.156  -7.468  -8.871  1.00  0.00     0.157 A 
BRANCH  41  44
ATOM     44  O   UNL     1       4.579  -7.357  -6.451  1.00  0.00    -0.504 OA
ATOM     45  H   UNL     1       5.165  -8.171  -6.300  1.00  0.00     0.293 HD
ENDBRANCH  41  44
BRANCH  43  46
ATOM     46  O   UNL     1       4.048  -8.863  -8.894  1.00  0.00    -0.504 OA
ATOM     47  H   UNL     1       4.833  -9.490  -8.785  1.00  0.00     0.293 HD
ENDBRANCH  43  46
ENDBRANCH  28  38
BRANCH  34  48
ATOM     48  O   UNL     1       5.894   1.749  -9.337  1.00  0.00    -0.507 OA
ATOM     49  H   UNL     1       5.959   2.593  -9.891  1.00  0.00     0.293 HD
ENDBRANCH  34  48
BRANCH  37  50
ATOM     50  O   UNL     1       1.068   1.696  -9.211  1.00  0.00    -0.508 OA
ATOM     51  H   UNL     1       0.979   2.588  -9.703  1.00  0.00     0.293 HD
ENDBRANCH  37  50
ENDBRANCH  26  27
ENDBRANCH   5  26
BRANCH   4  52
ATOM     52  O   UNL     1       9.951  -4.761  -8.327  1.00  0.00    -0.384 OA
ATOM     53  H   UNL     1       9.918  -5.212  -7.445  1.00  0.00     0.211 HD
ENDBRANCH   4  52
TORSDOF 16
ENDMDL
MODEL 2
REMARK VINA RESULT:    -5.411      2.265      6.292
REMARK INTER + INTRA:         -11.266
REMARK INTER:                  -9.128
REMARK INTRA:                  -2.137
REMARK UNBOUND:                -2.374
REMARK SMILES C[C@H]1O[C@H](OC[C@H]2O[C@@H](Oc3c(-c4ccc(O)c(O)c4)oc4cc(O)cc(O)c4c3=O)[C@H](O)[C@@H](O)[C@H]2O)[C@@H](O)[C@H](O)[C@H]1O
REMARK SMILES IDX 7 1 36 2 34 3 32 4 9 5 8 6 6 7 5 8 4 9 1 10 2 11 42 12 3 13
REMARK SMILES IDX 40 14 38 15 43 16 41 18 39 20 37 22 35 24 10 26 11 27 12 28
REMARK SMILES IDX 30 29 21 30 29 31 31 32 22 33 27 34 23 35 26 36 24 37 13 38
REMARK SMILES IDX 20 39 14 40 18 41 15 42 16 43 19 44 17 46 28 48 25 50 33 52
REMARK H PARENT 43 17 41 19 39 21 37 23 35 25 19 45 17 47 28 49 25 51 33 53
REMARK Flexibility Score: inf
ROOT
ATOM      1  C   UNL     1       4.871  -2.162  -2.596  1.00  0.00     0.180 C 
ATOM      2  C   UNL     1       3.972  -3.311  -2.021  1.00  0.00     0.177 C 
ATOM      3  C   UNL     1       3.691  -4.383  -3.099  1.00  0.00     0.180 C 
ATOM      4  C   UNL     1       3.609  -3.800  -4.530  1.00  0.00     0.214 C 
ATOM      5  C   UNL     1       4.762  -2.796  -4.828  1.00  0.00     0.339 C 
ATOM      6  O   UNL     1       5.622  -2.620  -3.711  1.00  0.00    -0.332 OA
ENDROOT
BRANCH   1   7
ATOM      7  C   UNL     1       5.840  -1.493  -1.591  1.00  0.00     0.198 C 
BRANCH   7   8
ATOM      8  O   UNL     1       6.460  -2.480  -0.774  1.00  0.00    -0.347 OA
BRANCH   8   9
ATOM      9  C   UNL     1       7.635  -3.031  -1.354  1.00  0.00     0.281 C 
ATOM     10  C   UNL     1      10.121  -1.950  -3.038  1.00  0.00     0.041 C 
ATOM     11  C   UNL     1       9.945  -2.640  -1.678  1.00  0.00     0.150 C 
ATOM     12  C   UNL     1      10.125  -4.190  -1.741  1.00  0.00     0.174 C 
ATOM     13  O   UNL     1       8.742  -2.196  -1.047  1.00  0.00    -0.344 OA
ATOM     14  C   UNL     1       9.311  -4.840  -0.617  1.00  0.00     0.179 C 
ATOM     15  C   UNL     1       7.814  -4.445  -0.738  1.00  0.00     0.202 C 
BRANCH  12  16
ATOM     16  O   UNL     1       9.691  -4.714  -2.976  1.00  0.00    -0.388 OA
ATOM     17  H   UNL     1      10.325  -5.435  -3.234  1.00  0.00     0.211 HD
ENDBRANCH  12  16
BRANCH  14  18
ATOM     18  O   UNL     1       9.832  -4.437   0.618  1.00  0.00    -0.387 OA
ATOM     19  H   UNL     1       9.060  -4.250   1.223  1.00  0.00     0.211 HD
ENDBRANCH  14  18
BRANCH  15  20
ATOM     20  O   UNL     1       7.140  -5.394  -1.515  1.00  0.00    -0.385 OA
ATOM     21  H   UNL     1       6.334  -4.946  -1.898  1.00  0.00     0.211 HD
ENDBRANCH  15  20
ENDBRANCH   8   9
ENDBRANCH   7   8
ENDBRANCH   1   7
BRANCH   2  22
ATOM     22  O   UNL     1       4.532  -3.930  -0.888  1.00  0.00    -0.387 OA
ATOM     23  H   UNL     1       3.777  -4.409  -0.437  1.00  0.00     0.211 HD
ENDBRANCH   2  22
BRANCH   3  24
ATOM     24  O   UNL     1       4.651  -5.416  -3.041  1.00  0.00    -0.387 OA
ATOM     25  H   UNL     1       4.306  -6.136  -2.446  1.00  0.00     0.211 HD
ENDBRANCH   3  24
BRANCH   5  26
ATOM     26  O   UNL     1       5.544  -3.283  -5.933  1.00  0.00    -0.454 OA
BRANCH  26  27
ATOM     27  C   UNL     1       5.120  -4.295  -6.814  1.00  0.00     0.214 A 
ATOM     28  C   UNL     1       4.387  -3.964  -7.979  1.00  0.00     0.180 A 
ATOM     29  C   UNL     1       5.458  -5.647  -6.599  1.00  0.00     0.239 A 
ATOM     30  O   UNL     1       3.955  -4.934  -8.784  1.00  0.00    -0.452 OA
ATOM     31  C   UNL     1       4.943  -6.641  -7.446  1.00  0.00     0.111 A 
ATOM     32  O   UNL     1       6.271  -5.954  -5.681  1.00  0.00    -0.285 OA
ATOM     33  C   UNL     1       4.176  -6.223  -8.563  1.00  0.00     0.146 A 
ATOM     34  C   UNL     1       5.171  -8.030  -7.239  1.00  0.00     0.134 A 
ATOM     35  C   UNL     1       3.657  -7.162  -9.455  1.00  0.00     0.094 A 
ATOM     36  C   UNL     1       4.637  -8.961  -8.144  1.00  0.00     0.093 A 
ATOM     37  C   UNL     1       3.889  -8.529  -9.246  1.00  0.00     0.123 A 
BRANCH  28  38
ATOM     38  C   UNL     1       4.092  -2.568  -8.386  1.00  0.00     0.025 A 
ATOM     39  C   UNL     1       2.924  -1.894  -7.993  1.00  0.00     0.062 A 
ATOM     40  C   UNL     1       4.989  -1.918  -9.239  1.00  0.00     0.016 A 
ATOM     41  C   UNL     1       2.653  -0.596  -8.445  1.00  0.00     0.158 A 
ATOM     42  C   UNL     1       4.721  -0.633  -9.717  1.00  0.00     0.051 A 
ATOM     43  C   UNL     1       3.555   0.038  -9.332  1.00  0.00     0.157 A 
BRANCH  41  44
ATOM     44  O   UNL     1       1.486   0.033  -8.004  1.00  0.00    -0.504 OA
ATOM     45  H   UNL     1       0.853  -0.369  -7.321  1.00  0.00     0.293 HD
ENDBRANCH  41  44
BRANCH  43  46
ATOM     46  O   UNL     1       3.343   1.320  -9.853  1.00  0.00    -0.504 OA
ATOM     47  H   UNL     1       3.262   2.152  -9.285  1.00  0.00     0.293 HD
ENDBRANCH  43  46
ENDBRANCH  28  38
BRANCH  34  48
ATOM     48  O   UNL     1       5.912  -8.489  -6.140  1.00  0.00    -0.507 OA
ATOM     49  H   UNL     1       5.474  -9.008  -5.390  1.00  0.00     0.293 HD
ENDBRANCH  34  48
BRANCH  37  50
ATOM     50  O   UNL     1       3.375  -9.486 -10.125  1.00  0.00    -0.508 OA
ATOM     51  H   UNL     1       3.059  -9.234 -11.064  1.00  0.00     0.293 HD
ENDBRANCH  37  50
ENDBRANCH  26  27
ENDBRANCH   5  26
BRANCH   4  52
ATOM     52  O   UNL     1       2.355  -3.198  -4.766  1.00  0.00    -0.384 OA
ATOM     53  H   UNL     1       1.885  -3.141  -3.896  1.00  0.00     0.211 HD
ENDBRANCH   4  52
TORSDOF 16
ENDMDL
MODEL 3
REMARK VINA RESULT:    -5.312      3.160      7.621
REMARK INTER + INTRA:         -11.103
REMARK INTER:                  -8.642
REMARK INTRA:                  -2.460
REMARK UNBOUND:                -2.374
REMARK SMILES C[C@H]1O[C@H](OC[C@H]2O[C@@H](Oc3c(-c4ccc(O)c(O)c4)oc4cc(O)cc(O)c4c3=O)[C@H](O)[C@@H](O)[C@H]2O)[C@@H](O)[C@H](O)[C@H]1O
REMARK SMILES IDX 7 1 36 2 34 3 32 4 9 5 8 6 6 7 5 8 4 9 1 10 2 11 42 12 3 13
REMARK SMILES IDX 40 14 38 15 43 16 41 18 39 20 37 22 35 24 10 26 11 27 12 28
REMARK SMILES IDX 30 29 21 30 29 31 31 32 22 33 27 34 23 35 26 36 24 37 13 38
REMARK SMILES IDX 20 39 14 40 18 41 15 42 16 43 19 44 17 46 28 48 25 50 33 52
REMARK H PARENT 43 17 41 19 39 21 37 23 35 25 19 45 17 47 28 49 25 51 33 53
REMARK Flexibility Score: inf
ROOT
ATOM      1  C   UNL     1       7.965  -8.043  -3.518  1.00  0.00     0.180 C 
ATOM      2  C   UNL     1       8.708  -8.083  -2.138  1.00  0.00     0.177 C 
ATOM      3  C   UNL     1       8.143  -7.011  -1.177  1.00  0.00     0.180 C 
ATOM      4  C   UNL     1       7.655  -5.737  -1.905  1.00  0.00     0.214 C 
ATOM      5  C   UNL     1       6.800  -6.064  -3.165  1.00  0.00     0.339 C 
ATOM      6  O   UNL     1       6.676  -7.463  -3.379  1.00  0.00    -0.332 OA
ENDROOT
BRANCH   1   7
ATOM      7  C   UNL     1       7.820  -9.400  -4.249  1.00  0.00     0.198 C 
BRANCH   7   8
ATOM      8  O   UNL     1       6.510  -9.530  -4.790  1.00  0.00    -0.347 OA
BRANCH   8   9
ATOM      9  C   UNL     1       6.404  -9.054  -6.124  1.00  0.00     0.281 C 
ATOM     10  C   UNL     1       8.108  -9.280  -8.813  1.00  0.00     0.041 C 
ATOM     11  C   UNL     1       6.692  -9.688  -8.385  1.00  0.00     0.150 C 
ATOM     12  C   UNL     1       5.605  -8.625  -8.746  1.00  0.00     0.174 C 
ATOM     13  O   UNL     1       6.688 -10.118  -7.022  1.00  0.00    -0.344 OA
ATOM     14  C   UNL     1       4.439  -8.738  -7.757  1.00  0.00     0.179 C 
ATOM     15  C   UNL     1       4.947  -8.547  -6.302  1.00  0.00     0.202 C 
BRANCH  12  16
ATOM     16  O   UNL     1       6.121  -7.315  -8.691  1.00  0.00    -0.388 OA
ATOM     17  H   UNL     1       5.695  -6.795  -9.424  1.00  0.00     0.211 HD
ENDBRANCH  12  16
BRANCH  14  18
ATOM     18  O   UNL     1       3.829  -9.988  -7.910  1.00  0.00    -0.387 OA
ATOM     19  H   UNL     1       3.186 -10.103  -7.154  1.00  0.00     0.211 HD
ENDBRANCH  14  18
BRANCH  15  20
ATOM     20  O   UNL     1       4.864  -7.196  -5.950  1.00  0.00    -0.385 OA
ATOM     21  H   UNL     1       4.425  -7.149  -5.054  1.00  0.00     0.211 HD
ENDBRANCH  15  20
ENDBRANCH   8   9
ENDBRANCH   7   8
ENDBRANCH   1   7
BRANCH   2  22
ATOM     22  O   UNL     1       8.643  -9.344  -1.517  1.00  0.00    -0.387 OA
ATOM     23  H   UNL     1       9.565  -9.526  -1.172  1.00  0.00     0.211 HD
ENDBRANCH   2  22
BRANCH   3  24
ATOM     24  O   UNL     1       7.112  -7.550  -0.378  1.00  0.00    -0.387 OA
ATOM     25  H   UNL     1       7.033  -8.523  -0.575  1.00  0.00     0.211 HD
ENDBRANCH   3  24
BRANCH   5  26
ATOM     26  O   UNL     1       5.481  -5.510  -3.004  1.00  0.00    -0.454 OA
BRANCH  26  27
ATOM     27  C   UNL     1       5.225  -4.151  -2.742  1.00  0.00     0.214 A 
ATOM     28  C   UNL     1       4.974  -3.256  -3.809  1.00  0.00     0.180 A 
ATOM     29  C   UNL     1       5.151  -3.658  -1.423  1.00  0.00     0.239 A 
ATOM     30  O   UNL     1       4.772  -1.964  -3.551  1.00  0.00    -0.452 OA
ATOM     31  C   UNL     1       4.983  -2.282  -1.199  1.00  0.00     0.111 A 
ATOM     32  O   UNL     1       5.176  -4.462  -0.448  1.00  0.00    -0.285 OA
ATOM     33  C   UNL     1       4.787  -1.449  -2.330  1.00  0.00     0.146 A 
ATOM     34  C   UNL     1       4.985  -1.703   0.101  1.00  0.00     0.134 A 
ATOM     35  C   UNL     1       4.591  -0.077  -2.171  1.00  0.00     0.094 A 
ATOM     36  C   UNL     1       4.791  -0.319   0.241  1.00  0.00     0.093 A 
ATOM     37  C   UNL     1       4.591   0.487  -0.886  1.00  0.00     0.123 A 
BRANCH  28  38
ATOM     38  C   UNL     1       4.885  -3.683  -5.227  1.00  0.00     0.025 A 
ATOM     39  C   UNL     1       6.020  -3.881  -6.032  1.00  0.00     0.062 A 
ATOM     40  C   UNL     1       3.619  -3.843  -5.798  1.00  0.00     0.016 A 
ATOM     41  C   UNL     1       5.894  -4.228  -7.382  1.00  0.00     0.158 A 
ATOM     42  C   UNL     1       3.478  -4.167  -7.150  1.00  0.00     0.051 A 
ATOM     43  C   UNL     1       4.605  -4.357  -7.955  1.00  0.00     0.157 A 
BRANCH  41  44
ATOM     44  O   UNL     1       7.057  -4.432  -8.129  1.00  0.00    -0.504 OA
ATOM     45  H   UNL     1       7.835  -3.782  -8.148  1.00  0.00     0.293 HD
ENDBRANCH  41  44
BRANCH  43  46
ATOM     46  O   UNL     1       4.395  -4.671  -9.303  1.00  0.00    -0.504 OA
ATOM     47  H   UNL     1       5.102  -5.071  -9.904  1.00  0.00     0.293 HD
ENDBRANCH  43  46
ENDBRANCH  28  38
BRANCH  34  48
ATOM     48  O   UNL     1       5.189  -2.486   1.246  1.00  0.00    -0.507 OA
ATOM     49  H   UNL     1       6.108  -2.589   1.656  1.00  0.00     0.293 HD
ENDBRANCH  34  48
BRANCH  37  50
ATOM     50  O   UNL     1       4.400   1.859  -0.705  1.00  0.00    -0.508 OA
ATOM     51  H   UNL     1       4.503   2.519  -1.479  1.00  0.00     0.293 HD
ENDBRANCH  37  50
ENDBRANCH  26  27
ENDBRANCH   5  26
BRANCH   4  52
ATOM     52  O   UNL     1       8.735  -4.896  -2.245  1.00  0.00    -0.384 OA
ATOM     53  H   UNL     1       9.531  -5.223  -1.753  1.00  0.00     0.211 HD
ENDBRANCH   4  52
TORSDOF 16
ENDMDL
MODEL 4
REMARK VINA RESULT:    -5.254      2.831      7.087
REMARK INTER + INTRA:         -11.008
REMARK INTER:                  -8.079
REMARK INTRA:                  -2.929
REMARK UNBOUND:                -2.374
REMARK SMILES C[C@H]1O[C@H](OC[C@H]2O[C@@H](Oc3c(-c4ccc(O)c(O)c4)oc4cc(O)cc(O)c4c3=O)[C@H](O)[C@@H](O)[C@H]2O)[C@@H](O)[C@H](O)[C@H]1O
REMARK SMILES IDX 7 1 36 2 34 3 32 4 9 5 8 6 6 7 5 8 4 9 1 10 2 11 42 12 3 13
REMARK SMILES IDX 40 14 38 15 43 16 41 18 39 20 37 22 35 24 10 26 11 27 12 28
REMARK SMILES IDX 30 29 21 30 29 31 31 32 22 33 27 34 23 35 26 36 24 37 13 38
REMARK SMILES IDX 20 39 14 40 18 41 15 42 16 43 19 44 17 46 28 48 25 50 33 52
REMARK H PARENT 43 17 41 19 39 21 37 23 35 25 19 45 17 47 28 49 25 51 33 53
REMARK Flexibility Score: inf
ROOT
ATOM      1  C   UNL     1       4.844  -3.348  -1.794  1.00  0.00     0.180 C 
ATOM      2  C   UNL     1       4.886  -2.106  -0.838  1.00  0.00     0.177 C 
ATOM      3  C   UNL     1       6.307  -1.902  -0.262  1.00  0.00     0.180 C 
ATOM      4  C   UNL     1       7.077  -3.227  -0.058  1.00  0.00     0.214 C 
ATOM      5  C   UNL     1       6.951  -4.182  -1.282  1.00  0.00     0.339 C 
ATOM      6  O   UNL     1       6.136  -3.632  -2.308  1.00  0.00    -0.332 OA
ENDROOT
BRANCH   1   7
ATOM      7  C   UNL     1       3.850  -3.258  -2.977  1.00  0.00     0.198 C 
BRANCH   7   8
ATOM      8  O   UNL     1       4.262  -2.246  -3.889  1.00  0.00    -0.347 OA
BRANCH   8   9
ATOM      9  C   UNL     1       4.443  -2.725  -5.215  1.00  0.00     0.281 C 
ATOM     10  C   UNL     1       6.252  -1.965  -7.732  1.00  0.00     0.041 C 
ATOM     11  C   UNL     1       6.090  -3.206  -6.843  1.00  0.00     0.150 C 
ATOM     12  C   UNL     1       5.101  -4.263  -7.428  1.00  0.00     0.174 C 
ATOM     13  O   UNL     1       5.833  -2.819  -5.491  1.00  0.00    -0.344 OA
ATOM     14  C   UNL     1       4.484  -5.069  -6.279  1.00  0.00     0.179 C 
ATOM     15  C   UNL     1       3.764  -4.120  -5.282  1.00  0.00     0.202 C 
BRANCH  12  16
ATOM     16  O   UNL     1       4.063  -3.654  -8.162  1.00  0.00    -0.388 OA
ATOM     17  H   UNL     1       3.202  -3.944  -7.760  1.00  0.00     0.211 HD
ENDBRANCH  12  16
BRANCH  14  18
ATOM     18  O   UNL     1       5.493  -5.793  -5.634  1.00  0.00    -0.387 OA
ATOM     19  H   UNL     1       5.086  -6.640  -5.297  1.00  0.00     0.211 HD
ENDBRANCH  14  18
BRANCH  15  20
ATOM     20  O   UNL     1       2.422  -3.982  -5.652  1.00  0.00    -0.385 OA
ATOM     21  H   UNL     1       2.085  -3.139  -5.236  1.00  0.00     0.211 HD
ENDBRANCH  15  20
ENDBRANCH   8   9
ENDBRANCH   7   8
ENDBRANCH   1   7
BRANCH   2  22
ATOM     22  O   UNL     1       4.465  -0.918  -1.464  1.00  0.00    -0.387 OA
ATOM     23  H   UNL     1       3.776  -0.519  -0.856  1.00  0.00     0.211 HD
ENDBRANCH   2  22
BRANCH   3  24
ATOM     24  O   UNL     1       7.052  -1.017  -1.071  1.00  0.00    -0.387 OA
ATOM     25  H   UNL     1       7.985  -0.981  -0.726  1.00  0.00     0.211 HD
ENDBRANCH   3  24
BRANCH   5  26
ATOM     26  O   UNL     1       8.259  -4.436  -1.826  1.00  0.00    -0.454 OA
BRANCH  26  27
ATOM     27  C   UNL     1       8.510  -4.696  -3.186  1.00  0.00     0.214 A 
ATOM     28  C   UNL     1       8.292  -5.990  -3.716  1.00  0.00     0.180 A 
ATOM     29  C   UNL     1       8.924  -3.674  -4.065  1.00  0.00     0.239 A 
ATOM     30  O   UNL     1       8.571  -6.234  -4.996  1.00  0.00    -0.452 OA
ATOM     31  C   UNL     1       9.252  -3.985  -5.395  1.00  0.00     0.111 A 
ATOM     32  O   UNL     1       8.940  -2.473  -3.672  1.00  0.00    -0.285 OA
ATOM     33  C   UNL     1       9.049  -5.320  -5.828  1.00  0.00     0.146 A 
ATOM     34  C   UNL     1       9.758  -3.023  -6.313  1.00  0.00     0.134 A 
ATOM     35  C   UNL     1       9.335  -5.686  -7.144  1.00  0.00     0.094 A 
ATOM     36  C   UNL     1      10.044  -3.411  -7.632  1.00  0.00     0.093 A 
ATOM     37  C   UNL     1       9.829  -4.731  -8.045  1.00  0.00     0.123 A 
BRANCH  28  38
ATOM     38  C   UNL     1       7.724  -7.109  -2.923  1.00  0.00     0.025 A 
ATOM     39  C   UNL     1       6.493  -7.710  -3.233  1.00  0.00     0.062 A 
ATOM     40  C   UNL     1       8.420  -7.545  -1.791  1.00  0.00     0.016 A 
ATOM     41  C   UNL     1       5.963  -8.725  -2.427  1.00  0.00     0.158 A 
ATOM     42  C   UNL     1       7.893  -8.541  -0.965  1.00  0.00     0.051 A 
ATOM     43  C   UNL     1       6.664  -9.136  -1.267  1.00  0.00     0.157 A 
BRANCH  41  44
ATOM     44  O   UNL     1       4.745  -9.301  -2.795  1.00  0.00    -0.504 OA
ATOM     45  H   UNL     1       4.257  -9.083  -3.658  1.00  0.00     0.293 HD
ENDBRANCH  41  44
BRANCH  43  46
ATOM     46  O   UNL     1       6.188 -10.121  -0.394  1.00  0.00    -0.504 OA
ATOM     47  H   UNL     1       6.505 -10.227   0.560  1.00  0.00     0.293 HD
ENDBRANCH  43  46
ENDBRANCH  28  38
BRANCH  34  48
ATOM     48  O   UNL     1       9.988  -1.696  -5.923  1.00  0.00    -0.507 OA
ATOM     49  H   UNL     1       9.643  -0.919  -6.472  1.00  0.00     0.293 HD
ENDBRANCH  34  48
BRANCH  37  50
ATOM     50  O   UNL     1      10.125  -5.077  -9.366  1.00  0.00    -0.508 OA
ATOM     51  H   UNL     1      10.668  -5.914  -9.590  1.00  0.00     0.293 HD
ENDBRANCH  37  50
ENDBRANCH  26  27
ENDBRANCH   5  26
BRANCH   4  52
ATOM     52  O   UNL     1       6.666  -3.881   1.123  1.00  0.00    -0.384 OA
ATOM     53  H   UNL     1       6.283  -3.193   1.725  1.00  0.00     0.211 HD
ENDBRANCH   4  52
TORSDOF 16
ENDMDL
MODEL 5
REMARK VINA RESULT:    -5.248      2.686      7.666
REMARK INTER + INTRA:         -10.998
REMARK INTER:                  -8.490
REMARK INTRA:                  -2.508
REMARK UNBOUND:                -2.374
REMARK SMILES C[C@H]1O[C@H](OC[C@H]2O[C@@H](Oc3c(-c4ccc(O)c(O)c4)oc4cc(O)cc(O)c4c3=O)[C@H](O)[C@@H](O)[C@H]2O)[C@@H](O)[C@H](O)[C@H]1O
REMARK SMILES IDX 7 1 36 2 34 3 32 4 9 5 8 6 6 7 5 8 4 9 1 10 2 11 42 12 3 13
REMARK SMILES IDX 40 14 38 15 43 16 41 18 39 20 37 22 35 24 10 26 11 27 12 28
REMARK SMILES IDX 30 29 21 30 29 31 31 32 22 33 27 34 23 35 26 36 24 37 13 38
REMARK SMILES IDX 20 39 14 40 18 41 15 42 16 43 19 44 17 46 28 48 25 50 33 52
REMARK H PARENT 43 17 41 19 39 21 37 23 35 25 19 45 17 47 28 49 25 51 33 53
REMARK Flexibility Score: inf
ROOT
ATOM      1  C   UNL     1       4.996  -3.104  -7.162  1.00  0.00     0.180 C 
ATOM      2  C   UNL     1       3.588  -3.375  -6.527  1.00  0.00     0.177 C 
ATOM      3  C   UNL     1       3.727  -3.859  -5.065  1.00  0.00     0.180 C 
ATOM      4  C   UNL     1       5.007  -4.693  -4.819  1.00  0.00     0.214 C 
ATOM      5  C   UNL     1       6.269  -4.047  -5.462  1.00  0.00     0.339 C 
ATOM      6  O   UNL     1       5.962  -2.844  -6.154  1.00  0.00    -0.332 OA
ENDROOT
BRANCH   1   7
ATOM      7  C   UNL     1       5.058  -1.966  -8.210  1.00  0.00     0.198 C 
BRANCH   7   8
ATOM      8  O   UNL     1       5.829  -2.375  -9.334  1.00  0.00    -0.347 OA
BRANCH   8   9
ATOM      9  C   UNL     1       7.137  -1.821  -9.349  1.00  0.00     0.281 C 
ATOM     10  C   UNL     1       8.434   1.063  -9.779  1.00  0.00     0.041 C 
ATOM     11  C   UNL     1       8.410   0.040  -8.635  1.00  0.00     0.150 C 
ATOM     12  C   UNL     1       9.653  -0.906  -8.623  1.00  0.00     0.174 C 
ATOM     13  O   UNL     1       7.145  -0.623  -8.586  1.00  0.00    -0.344 OA
ATOM     14  C   UNL     1       9.270  -2.237  -7.968  1.00  0.00     0.179 C 
ATOM     15  C   UNL     1       8.079  -2.887  -8.726  1.00  0.00     0.202 C 
BRANCH  12  16
ATOM     16  O   UNL     1      10.125  -1.161  -9.927  1.00  0.00    -0.388 OA
ATOM     17  H   UNL     1       9.331  -1.281 -10.513  1.00  0.00     0.211 HD
ENDBRANCH  12  16
BRANCH  14  18
ATOM     18  O   UNL     1       8.939  -2.009  -6.627  1.00  0.00    -0.387 OA
ATOM     19  H   UNL     1       9.553  -1.300  -6.284  1.00  0.00     0.211 HD
ENDBRANCH  14  18
BRANCH  15  20
ATOM     20  O   UNL     1       8.567  -3.738  -9.723  1.00  0.00    -0.385 OA
ATOM     21  H   UNL     1       8.155  -3.449 -10.586  1.00  0.00     0.211 HD
ENDBRANCH  15  20
ENDBRANCH   8   9
ENDBRANCH   7   8
ENDBRANCH   1   7
BRANCH   2  22
ATOM     22  O   UNL     1       2.744  -2.250  -6.564  1.00  0.00    -0.387 OA
ATOM     23  H   UNL     1       2.571  -2.007  -5.609  1.00  0.00     0.211 HD
ENDBRANCH   2  22
BRANCH   3  24
ATOM     24  O   UNL     1       3.668  -2.770  -4.169  1.00  0.00    -0.387 OA
ATOM     25  H   UNL     1       3.389  -1.959  -4.675  1.00  0.00     0.211 HD
ENDBRANCH   3  24
BRANCH   5  26
ATOM     26  O   UNL     1       7.230  -3.748  -4.433  1.00  0.00    -0.454 OA
BRANCH  26  27
ATOM     27  C   UNL     1       6.907  -3.610  -3.071  1.00  0.00     0.214 A 
ATOM     28  C   UNL     1       7.189  -4.658  -2.162  1.00  0.00     0.180 A 
ATOM     29  C   UNL     1       6.355  -2.416  -2.563  1.00  0.00     0.239 A 
ATOM     30  O   UNL     1       6.842  -4.532  -0.882  1.00  0.00    -0.452 OA
ATOM     31  C   UNL     1       5.961  -2.343  -1.218  1.00  0.00     0.111 A 
ATOM     32  O   UNL     1       6.271  -1.396  -3.306  1.00  0.00    -0.285 OA
ATOM     33  C   UNL     1       6.238  -3.459  -0.389  1.00  0.00     0.146 A 
ATOM     34  C   UNL     1       5.319  -1.202  -0.659  1.00  0.00     0.134 A 
ATOM     35  C   UNL     1       5.892  -3.438   0.963  1.00  0.00     0.094 A 
ATOM     36  C   UNL     1       4.975  -1.201   0.702  1.00  0.00     0.093 A 
ATOM     37  C   UNL     1       5.264  -2.309   1.508  1.00  0.00     0.123 A 
BRANCH  28  38
ATOM     38  C   UNL     1       7.896  -5.904  -2.551  1.00  0.00     0.025 A 
ATOM     39  C   UNL     1       7.217  -7.079  -2.914  1.00  0.00     0.062 A 
ATOM     40  C   UNL     1       9.293  -5.922  -2.499  1.00  0.00     0.016 A 
ATOM     41  C   UNL     1       7.919  -8.252  -3.218  1.00  0.00     0.158 A 
ATOM     42  C   UNL     1      10.005  -7.092  -2.778  1.00  0.00     0.051 A 
ATOM     43  C   UNL     1       9.332  -8.265  -3.133  1.00  0.00     0.157 A 
BRANCH  41  44
ATOM     44  O   UNL     1       7.192  -9.384  -3.594  1.00  0.00    -0.504 OA
ATOM     45  H   UNL     1       6.768 -10.026  -2.932  1.00  0.00     0.293 HD
ENDBRANCH  41  44
BRANCH  43  46
ATOM     46  O   UNL     1      10.103  -9.403  -3.391  1.00  0.00    -0.504 OA
ATOM     47  H   UNL     1       9.779 -10.192  -3.934  1.00  0.00     0.293 HD
ENDBRANCH  43  46
ENDBRANCH  28  38
BRANCH  34  48
ATOM     48  O   UNL     1       5.014  -0.082  -1.445  1.00  0.00    -0.507 OA
ATOM     49  H   UNL     1       4.703   0.785  -1.027  1.00  0.00     0.293 HD
ENDBRANCH  34  48
BRANCH  37  50
ATOM     50  O   UNL     1       4.906  -2.269   2.858  1.00  0.00    -0.508 OA
ATOM     51  H   UNL     1       5.147  -1.471   3.451  1.00  0.00     0.293 HD
ENDBRANCH  37  50
ENDBRANCH  26  27
ENDBRANCH   5  26
BRANCH   4  52
ATOM     52  O   UNL     1       4.847  -6.021  -5.268  1.00  0.00    -0.384 OA
ATOM     53  H   UNL     1       5.096  -6.040  -6.228  1.00  0.00     0.211 HD
ENDBRANCH   4  52
TORSDOF 16
ENDMDL
MODEL 6
REMARK VINA RESULT:    -5.246      3.192      6.803
REMARK INTER + INTRA:         -10.993
REMARK INTER:                  -8.253
REMARK INTRA:                  -2.740
REMARK UNBOUND:                -2.374
REMARK SMILES C[C@H]1O[C@H](OC[C@H]2O[C@@H](Oc3c(-c4ccc(O)c(O)c4)oc4cc(O)cc(O)c4c3=O)[C@H](O)[C@@H](O)[C@H]2O)[C@@H](O)[C@H](O)[C@H]1O
REMARK SMILES IDX 7 1 36 2 34 3 32 4 9 5 8 6 6 7 5 8 4 9 1 10 2 11 42 12 3 13
REMARK SMILES IDX 40 14 38 15 43 16 41 18 39 20 37 22 35 24 10 26 11 27 12 28
REMARK SMILES IDX 30 29 21 30 29 31 31 32 22 33 27 34 23 35 26 36 24 37 13 38
REMARK SMILES IDX 20 39 14 40 18 41 15 42 16 43 19 44 17 46 28 48 25 50 33 52
REMARK H PARENT 43 17 41 19 39 21 37 23 35 25 19 45 17 47 28 49 25 51 33 53
REMARK Flexibility Score: inf
ROOT
ATOM      1  C   UNL     1       4.289  -3.721  -4.509  1.00  0.00     0.180 C 
ATOM      2  C   UNL     1       3.410  -3.343  -5.751  1.00  0.00     0.177 C 
ATOM      3  C   UNL     1       4.115  -3.743  -7.068  1.00  0.00     0.180 C 
ATOM      4  C   UNL     1       5.657  -3.644  -6.986  1.00  0.00     0.214 C 
ATOM      5  C   UNL     1       6.223  -4.265  -5.675  1.00  0.00     0.339 C 
ATOM      6  O   UNL     1       5.194  -4.765  -4.832  1.00  0.00    -0.332 OA
ENDROOT
BRANCH   1   7
ATOM      7  C   UNL     1       3.515  -4.117  -3.228  1.00  0.00     0.198 C 
BRANCH   7   8
ATOM      8  O   UNL     1       4.423  -4.339  -2.155  1.00  0.00    -0.347 OA
BRANCH   8   9
ATOM      9  C   UNL     1       5.092  -3.159  -1.731  1.00  0.00     0.281 C 
ATOM     10  C   UNL     1       4.571  -0.014  -1.878  1.00  0.00     0.041 C 
ATOM     11  C   UNL     1       4.741  -1.037  -0.747  1.00  0.00     0.150 C 
ATOM     12  C   UNL     1       6.204  -1.127  -0.206  1.00  0.00     0.174 C 
ATOM     13  O   UNL     1       4.155  -2.288  -1.115  1.00  0.00    -0.344 OA
ATOM     14  C   UNL     1       6.448  -2.528   0.364  1.00  0.00     0.179 C 
ATOM     15  C   UNL     1       6.187  -3.605  -0.725  1.00  0.00     0.202 C 
BRANCH  12  16
ATOM     16  O   UNL     1       7.150  -0.879  -1.221  1.00  0.00    -0.388 OA
ATOM     17  H   UNL     1       7.414  -1.758  -1.604  1.00  0.00     0.211 HD
ENDBRANCH  12  16
BRANCH  14  18
ATOM     18  O   UNL     1       5.610  -2.726   1.468  1.00  0.00    -0.387 OA
ATOM     19  H   UNL     1       5.833  -3.618   1.858  1.00  0.00     0.211 HD
ENDBRANCH  14  18
BRANCH  15  20
ATOM     20  O   UNL     1       7.378  -3.882  -1.404  1.00  0.00    -0.385 OA
ATOM     21  H   UNL     1       7.738  -4.737  -1.033  1.00  0.00     0.211 HD
ENDBRANCH  15  20
ENDBRANCH   8   9
ENDBRANCH   7   8
ENDBRANCH   1   7
BRANCH   2  22
ATOM     22  O   UNL     1       2.130  -3.927  -5.715  1.00  0.00    -0.387 OA
ATOM     23  H   UNL     1       1.522  -3.230  -5.332  1.00  0.00     0.211 HD
ENDBRANCH   2  22
BRANCH   3  24
ATOM     24  O   UNL     1       3.724  -5.037  -7.472  1.00  0.00    -0.387 OA
ATOM     25  H   UNL     1       3.515  -5.573  -6.660  1.00  0.00     0.211 HD
ENDBRANCH   3  24
BRANCH   5  26
ATOM     26  O   UNL     1       7.110  -5.349  -6.005  1.00  0.00    -0.454 OA
BRANCH  26  27
ATOM     27  C   UNL     1       7.520  -6.337  -5.091  1.00  0.00     0.214 A 
ATOM     28  C   UNL     1       7.192  -7.696  -5.315  1.00  0.00     0.180 A 
ATOM     29  C   UNL     1       8.311  -6.017  -3.968  1.00  0.00     0.239 A 
ATOM     30  O   UNL     1       7.551  -8.617  -4.422  1.00  0.00    -0.452 OA
ATOM     31  C   UNL     1       8.628  -7.010  -3.028  1.00  0.00     0.111 A 
ATOM     32  O   UNL     1       8.784  -4.851  -3.843  1.00  0.00    -0.285 OA
ATOM     33  C   UNL     1       8.216  -8.338  -3.309  1.00  0.00     0.146 A 
ATOM     34  C   UNL     1       9.348  -6.743  -1.830  1.00  0.00     0.134 A 
ATOM     35  C   UNL     1       8.521  -9.374  -2.425  1.00  0.00     0.094 A 
ATOM     36  C   UNL     1       9.641  -7.796  -0.950  1.00  0.00     0.093 A 
ATOM     37  C   UNL     1       9.235  -9.103  -1.248  1.00  0.00     0.123 A 
BRANCH  28  38
ATOM     38  C   UNL     1       6.487  -8.173  -6.531  1.00  0.00     0.025 A 
ATOM     39  C   UNL     1       5.086  -8.227  -6.622  1.00  0.00     0.062 A 
ATOM     40  C   UNL     1       7.250  -8.637  -7.606  1.00  0.00     0.016 A 
ATOM     41  C   UNL     1       4.458  -8.738  -7.764  1.00  0.00     0.158 A 
ATOM     42  C   UNL     1       6.637  -9.171  -8.742  1.00  0.00     0.051 A 
ATOM     43  C   UNL     1       5.243  -9.232  -8.833  1.00  0.00     0.157 A 
BRANCH  41  44
ATOM     44  O   UNL     1       3.061  -8.748  -7.808  1.00  0.00    -0.504 OA
ATOM     45  H   UNL     1       2.483  -9.313  -7.195  1.00  0.00     0.293 HD
ENDBRANCH  41  44
BRANCH  43  46
ATOM     46  O   UNL     1       4.692  -9.787  -9.995  1.00  0.00    -0.504 OA
ATOM     47  H   UNL     1       4.284 -10.710 -10.038  1.00  0.00     0.293 HD
ENDBRANCH  43  46
ENDBRANCH  28  38
BRANCH  34  48
ATOM     48  O   UNL     1       9.761  -5.443  -1.506  1.00  0.00    -0.507 OA
ATOM     49  H   UNL     1      10.630  -5.064  -1.858  1.00  0.00     0.293 HD
ENDBRANCH  34  48
BRANCH  37  50
ATOM     50  O   UNL     1       9.547 -10.125  -0.347  1.00  0.00    -0.508 OA
ATOM     51  H   UNL     1       8.837 -10.531   0.266  1.00  0.00     0.293 HD
ENDBRANCH  37  50
ENDBRANCH  26  27
ENDBRANCH   5  26
BRANCH   4  52
ATOM     52  O   UNL     1       6.092  -2.310  -7.130  1.00  0.00    -0.384 OA
ATOM     53  H   UNL     1       6.391  -2.195  -8.068  1.00  0.00     0.211 HD
ENDBRANCH   4  52
TORSDOF 16
ENDMDL
MODEL 7
REMARK VINA RESULT:    -5.131      2.741      7.659
REMARK INTER + INTRA:         -10.805
REMARK INTER:                  -7.901
REMARK INTRA:                  -2.903
REMARK UNBOUND:                -2.374
REMARK SMILES C[C@H]1O[C@H](OC[C@H]2O[C@@H](Oc3c(-c4ccc(O)c(O)c4)oc4cc(O)cc(O)c4c3=O)[C@H](O)[C@@H](O)[C@H]2O)[C@@H](O)[C@H](O)[C@H]1O
REMARK SMILES IDX 7 1 36 2 34 3 32 4 9 5 8 6 6 7 5 8 4 9 1 10 2 11 42 12 3 13
REMARK SMILES IDX 40 14 38 15 43 16 41 18 39 20 37 22 35 24 10 26 11 27 12 28
REMARK SMILES IDX 30 29 21 30 29 31 31 32 22 33 27 34 23 35 26 36 24 37 13 38
REMARK SMILES IDX 20 39 14 40 18 41 15 42 16 43 19 44 17 46 28 48 25 50 33 52
REMARK H PARENT 43 17 41 19 39 21 37 23 35 25 19 45 17 47 28 49 25 51 33 53
REMARK Flexibility Score: inf
ROOT
ATOM      1  C   UNL     1       7.202  -8.437  -3.190  1.00  0.00     0.180 C 
ATOM      2  C   UNL     1       7.240  -8.878  -1.686  1.00  0.00     0.177 C 
ATOM      3  C   UNL     1       7.807  -7.750  -0.794  1.00  0.00     0.180 C 
ATOM      4  C   UNL     1       8.871  -6.884  -1.510  1.00  0.00     0.214 C 
ATOM      5  C   UNL     1       8.438  -6.484  -2.951  1.00  0.00     0.339 C 
ATOM      6  O   UNL     1       7.169  -7.021  -3.298  1.00  0.00    -0.332 OA
ENDROOT
BRANCH   1   7
ATOM      7  C   UNL     1       6.049  -9.024  -4.039  1.00  0.00     0.198 C 
BRANCH   7   8
ATOM      8  O   UNL     1       6.567  -9.648  -5.208  1.00  0.00    -0.347 OA
BRANCH   8   9
ATOM      9  C   UNL     1       5.968  -9.178  -6.408  1.00  0.00     0.281 C 
ATOM     10  C   UNL     1       3.627 -10.124  -8.359  1.00  0.00     0.041 C 
ATOM     11  C   UNL     1       3.886  -8.885  -7.492  1.00  0.00     0.150 C 
ATOM     12  C   UNL     1       4.543  -7.705  -8.277  1.00  0.00     0.174 C 
ATOM     13  O   UNL     1       4.556  -9.254  -6.284  1.00  0.00    -0.344 OA
ATOM     14  C   UNL     1       5.360  -6.844  -7.307  1.00  0.00     0.179 C 
ATOM     15  C   UNL     1       6.435  -7.709  -6.594  1.00  0.00     0.202 C 
BRANCH  12  16
ATOM     16  O   UNL     1       5.396  -8.171  -9.298  1.00  0.00    -0.388 OA
ATOM     17  H   UNL     1       6.085  -7.472  -9.453  1.00  0.00     0.211 HD
ENDBRANCH  12  16
BRANCH  14  18
ATOM     18  O   UNL     1       4.495  -6.259  -6.375  1.00  0.00    -0.387 OA
ATOM     19  H   UNL     1       3.560  -6.444  -6.676  1.00  0.00     0.211 HD
ENDBRANCH  14  18
BRANCH  15  20
ATOM     20  O   UNL     1       7.626  -7.673  -7.327  1.00  0.00    -0.385 OA
ATOM     21  H   UNL     1       7.568  -8.390  -8.020  1.00  0.00     0.211 HD
ENDBRANCH  15  20
ENDBRANCH   8   9
ENDBRANCH   7   8
ENDBRANCH   1   7
BRANCH   2  22
ATOM     22  O   UNL     1       5.979  -9.266  -1.197  1.00  0.00    -0.387 OA
ATOM     23  H   UNL     1       6.143 -10.076  -0.632  1.00  0.00     0.211 HD
ENDBRANCH   2  22
BRANCH   3  24
ATOM     24  O   UNL     1       6.767  -6.938  -0.292  1.00  0.00    -0.387 OA
ATOM     25  H   UNL     1       5.987  -7.004  -0.909  1.00  0.00     0.211 HD
ENDBRANCH   3  24
BRANCH   5  26
ATOM     26  O   UNL     1       8.366  -5.049  -3.047  1.00  0.00    -0.454 OA
BRANCH  26  27
ATOM     27  C   UNL     1       7.689  -4.361  -4.070  1.00  0.00     0.214 A 
ATOM     28  C   UNL     1       6.699  -3.402  -3.749  1.00  0.00     0.180 A 
ATOM     29  C   UNL     1       8.012  -4.558  -5.428  1.00  0.00     0.239 A 
ATOM     30  O   UNL     1       6.035  -2.786  -4.726  1.00  0.00    -0.452 OA
ATOM     31  C   UNL     1       7.257  -3.924  -6.427  1.00  0.00     0.111 A 
ATOM     32  O   UNL     1       9.018  -5.257  -5.740  1.00  0.00    -0.285 OA
ATOM     33  C   UNL     1       6.250  -3.015  -6.014  1.00  0.00     0.146 A 
ATOM     34  C   UNL     1       7.471  -4.143  -7.817  1.00  0.00     0.134 A 
ATOM     35  C   UNL     1       5.481  -2.335  -6.960  1.00  0.00     0.094 A 
ATOM     36  C   UNL     1       6.684  -3.454  -8.754  1.00  0.00     0.093 A 
ATOM     37  C   UNL     1       5.700  -2.553  -8.328  1.00  0.00     0.123 A 
BRANCH  28  38
ATOM     38  C   UNL     1       6.370  -3.006  -2.356  1.00  0.00     0.025 A 
ATOM     39  C   UNL     1       5.976  -3.933  -1.377  1.00  0.00     0.062 A 
ATOM     40  C   UNL     1       6.403  -1.649  -2.023  1.00  0.00     0.016 A 
ATOM     41  C   UNL     1       5.618  -3.514  -0.090  1.00  0.00     0.158 A 
ATOM     42  C   UNL     1       6.027  -1.214  -0.750  1.00  0.00     0.051 A 
ATOM     43  C   UNL     1       5.627  -2.134   0.225  1.00  0.00     0.157 A 
BRANCH  41  44
ATOM     44  O   UNL     1       5.255  -4.482   0.849  1.00  0.00    -0.504 OA
ATOM     45  H   UNL     1       4.707  -5.307   0.625  1.00  0.00     0.293 HD
ENDBRANCH  41  44
BRANCH  43  46
ATOM     46  O   UNL     1       5.254  -1.632   1.477  1.00  0.00    -0.504 OA
ATOM     47  H   UNL     1       5.622  -0.777   1.873  1.00  0.00     0.293 HD
ENDBRANCH  43  46
ENDBRANCH  28  38
BRANCH  34  48
ATOM     48  O   UNL     1       8.445  -5.043  -8.270  1.00  0.00    -0.507 OA
ATOM     49  H   UNL     1       8.457  -5.368  -9.227  1.00  0.00     0.293 HD
ENDBRANCH  34  48
BRANCH  37  50
ATOM     50  O   UNL     1       4.939  -1.886  -9.292  1.00  0.00    -0.508 OA
ATOM     51  H   UNL     1       3.976  -2.162  -9.497  1.00  0.00     0.293 HD
ENDBRANCH  37  50
ENDBRANCH  26  27
ENDBRANCH   5  26
BRANCH   4  52
ATOM     52  O   UNL     1      10.125  -7.530  -1.532  1.00  0.00    -0.384 OA
ATOM     53  H   UNL     1      10.821  -6.825  -1.504  1.00  0.00     0.211 HD
ENDBRANCH   4  52
TORSDOF 16
ENDMDL
MODEL 8
REMARK VINA RESULT:    -5.047      2.957      6.991
REMARK INTER + INTRA:         -10.667
REMARK INTER:                  -7.463
REMARK INTRA:                  -3.204
REMARK UNBOUND:                -2.374
REMARK SMILES C[C@H]1O[C@H](OC[C@H]2O[C@@H](Oc3c(-c4ccc(O)c(O)c4)oc4cc(O)cc(O)c4c3=O)[C@H](O)[C@@H](O)[C@H]2O)[C@@H](O)[C@H](O)[C@H]1O
REMARK SMILES IDX 7 1 36 2 34 3 32 4 9 5 8 6 6 7 5 8 4 9 1 10 2 11 42 12 3 13
REMARK SMILES IDX 40 14 38 15 43 16 41 18 39 20 37 22 35 24 10 26 11 27 12 28
REMARK SMILES IDX 30 29 21 30 29 31 31 32 22 33 27 34 23 35 26 36 24 37 13 38
REMARK SMILES IDX 20 39 14 40 18 41 15 42 16 43 19 44 17 46 28 48 25 50 33 52
REMARK H PARENT 43 17 41 19 39 21 37 23 35 25 19 45 17 47 28 49 25 51 33 53
REMARK Flexibility Score: inf
ROOT
ATOM      1  C   UNL     1       5.678  -3.058  -4.042  1.00  0.00     0.180 C 
ATOM      2  C   UNL     1       4.500  -2.719  -3.064  1.00  0.00     0.177 C 
ATOM      3  C   UNL     1       3.201  -3.437  -3.497  1.00  0.00     0.180 C 
ATOM      4  C   UNL     1       3.084  -3.612  -5.029  1.00  0.00     0.214 C 
ATOM      5  C   UNL     1       4.408  -4.119  -5.672  1.00  0.00     0.339 C 
ATOM      6  O   UNL     1       5.440  -4.288  -4.710  1.00  0.00    -0.332 OA
ENDROOT
BRANCH   1   7
ATOM      7  C   UNL     1       7.090  -3.105  -3.409  1.00  0.00     0.198 C 
BRANCH   7   8
ATOM      8  O   UNL     1       7.099  -3.985  -2.290  1.00  0.00    -0.347 OA
BRANCH   8   9
ATOM      9  C   UNL     1       7.466  -5.316  -2.625  1.00  0.00     0.281 C 
ATOM     10  C   UNL     1      10.095  -6.816  -3.635  1.00  0.00     0.041 C 
ATOM     11  C   UNL     1       9.194  -6.914  -2.396  1.00  0.00     0.150 C 
ATOM     12  C   UNL     1       8.094  -8.016  -2.516  1.00  0.00     0.174 C 
ATOM     13  O   UNL     1       8.716  -5.619  -2.024  1.00  0.00    -0.344 OA
ATOM     14  C   UNL     1       6.892  -7.627  -1.646  1.00  0.00     0.179 C 
ATOM     15  C   UNL     1       6.344  -6.239  -2.076  1.00  0.00     0.202 C 
BRANCH  12  16
ATOM     16  O   UNL     1       7.658  -8.173  -3.847  1.00  0.00    -0.388 OA
ATOM     17  H   UNL     1       7.310  -9.099  -3.940  1.00  0.00     0.211 HD
ENDBRANCH  12  16
BRANCH  14  18
ATOM     18  O   UNL     1       7.285  -7.612  -0.303  1.00  0.00    -0.387 OA
ATOM     19  H   UNL     1       8.284  -7.583  -0.284  1.00  0.00     0.211 HD
ENDBRANCH  14  18
BRANCH  15  20
ATOM     20  O   UNL     1       5.347  -6.408  -3.043  1.00  0.00    -0.385 OA
ATOM     21  H   UNL     1       4.926  -7.300  -2.881  1.00  0.00     0.211 HD
ENDBRANCH  15  20
ENDBRANCH   8   9
ENDBRANCH   7   8
ENDBRANCH   1   7
BRANCH   2  22
ATOM     22  O   UNL     1       4.787  -3.046  -1.726  1.00  0.00    -0.387 OA
ATOM     23  H   UNL     1       3.925  -2.936  -1.227  1.00  0.00     0.211 HD
ENDBRANCH   2  22
BRANCH   3  24
ATOM     24  O   UNL     1       3.078  -4.684  -2.847  1.00  0.00    -0.387 OA
ATOM     25  H   UNL     1       3.831  -5.268  -3.137  1.00  0.00     0.211 HD
ENDBRANCH   3  24
BRANCH   5  26
ATOM     26  O   UNL     1       4.173  -5.385  -6.315  1.00  0.00    -0.454 OA
BRANCH  26  27
ATOM     27  C   UNL     1       5.144  -6.086  -7.054  1.00  0.00     0.214 A 
ATOM     28  C   UNL     1       5.724  -5.499  -8.204  1.00  0.00     0.180 A 
ATOM     29  C   UNL     1       5.606  -7.353  -6.645  1.00  0.00     0.239 A 
ATOM     30  O   UNL     1       6.613  -6.188  -8.919  1.00  0.00    -0.452 OA
ATOM     31  C   UNL     1       6.508  -8.064  -7.453  1.00  0.00     0.111 A 
ATOM     32  O   UNL     1       5.254  -7.820  -5.524  1.00  0.00    -0.285 OA
ATOM     33  C   UNL     1       7.002  -7.418  -8.614  1.00  0.00     0.146 A 
ATOM     34  C   UNL     1       6.950  -9.382  -7.147  1.00  0.00     0.134 A 
ATOM     35  C   UNL     1       7.918  -8.063  -9.445  1.00  0.00     0.094 A 
ATOM     36  C   UNL     1       7.869 -10.017  -7.997  1.00  0.00     0.093 A 
ATOM     37  C   UNL     1       8.353  -9.360  -9.135  1.00  0.00     0.123 A 
BRANCH  28  38
ATOM     38  C   UNL     1       5.423  -4.116  -8.652  1.00  0.00     0.025 A 
ATOM     39  C   UNL     1       6.238  -3.019  -8.328  1.00  0.00     0.062 A 
ATOM     40  C   UNL     1       4.251  -3.892  -9.381  1.00  0.00     0.016 A 
ATOM     41  C   UNL     1       5.889  -1.721  -8.721  1.00  0.00     0.158 A 
ATOM     42  C   UNL     1       3.879  -2.600  -9.760  1.00  0.00     0.051 A 
ATOM     43  C   UNL     1       4.684  -1.505  -9.433  1.00  0.00     0.157 A 
BRANCH  41  44
ATOM     44  O   UNL     1       6.748  -0.671  -8.388  1.00  0.00    -0.504 OA
ATOM     45  H   UNL     1       7.758  -0.760  -8.351  1.00  0.00     0.293 HD
ENDBRANCH  41  44
BRANCH  43  46
ATOM     46  O   UNL     1       4.250  -0.236  -9.834  1.00  0.00    -0.504 OA
ATOM     47  H   UNL     1       3.277   0.025  -9.916  1.00  0.00     0.293 HD
ENDBRANCH  43  46
ENDBRANCH  28  38
BRANCH  34  48
ATOM     48  O   UNL     1       6.477 -10.063  -6.017  1.00  0.00    -0.507 OA
ATOM     49  H   UNL     1       6.362  -9.593  -5.128  1.00  0.00     0.293 HD
ENDBRANCH  34  48
BRANCH  37  50
ATOM     50  O   UNL     1       9.267 -10.026  -9.956  1.00  0.00    -0.508 OA
ATOM     51  H   UNL     1       9.347 -11.045  -9.950  1.00  0.00     0.293 HD
ENDBRANCH  37  50
ENDBRANCH  26  27
ENDBRANCH   5  26
BRANCH   4  52
ATOM     52  O   UNL     1       2.659  -2.418  -5.649  1.00  0.00    -0.384 OA
ATOM     53  H   UNL     1       3.070  -2.390  -6.551  1.00  0.00     0.211 HD
ENDBRANCH   4  52
TORSDOF 16
ENDMDL
MODEL 9
REMARK VINA RESULT:    -5.017      2.681      7.794
REMARK INTER + INTRA:         -10.618
REMARK INTER:                  -8.349
REMARK INTRA:                  -2.268
REMARK UNBOUND:                -2.374
REMARK SMILES C[C@H]1O[C@H](OC[C@H]2O[C@@H](Oc3c(-c4ccc(O)c(O)c4)oc4cc(O)cc(O)c4c3=O)[C@H](O)[C@@H](O)[C@H]2O)[C@@H](O)[C@H](O)[C@H]1O
REMARK SMILES IDX 7 1 36 2 34 3 32 4 9 5 8 6 6 7 5 8 4 9 1 10 2 11 42 12 3 13
REMARK SMILES IDX 40 14 38 15 43 16 41 18 39 20 37 22 35 24 10 26 11 27 12 28
REMARK SMILES IDX 30 29 21 30 29 31 31 32 22 33 27 34 23 35 26 36 24 37 13 38
REMARK SMILES IDX 20 39 14 40 18 41 15 42 16 43 19 44 17 46 28 48 25 50 33 52
REMARK H PARENT 43 17 41 19 39 21 37 23 35 25 19 45 17 47 28 49 25 51 33 53
REMARK Flexibility Score: inf
ROOT
ATOM      1  C   UNL     1       5.143  -3.195  -7.032  1.00  0.00     0.180 C 
ATOM      2  C   UNL     1       3.713  -3.427  -6.433  1.00  0.00     0.177 C 
ATOM      3  C   UNL     1       3.801  -3.921  -4.970  1.00  0.00     0.180 C 
ATOM      4  C   UNL     1       5.049  -4.794  -4.697  1.00  0.00     0.214 C 
ATOM      5  C   UNL     1       6.345  -4.183  -5.307  1.00  0.00     0.339 C 
ATOM      6  O   UNL     1       6.091  -2.968  -5.999  1.00  0.00    -0.332 OA
ENDROOT
BRANCH   1   7
ATOM      7  C   UNL     1       5.265  -2.055  -8.072  1.00  0.00     0.198 C 
BRANCH   7   8
ATOM      8  O   UNL     1       6.201  -2.409  -9.083  1.00  0.00    -0.347 OA
BRANCH   8   9
ATOM      9  C   UNL     1       7.215  -3.292  -8.624  1.00  0.00     0.281 C 
ATOM     10  C   UNL     1       7.611  -6.449  -8.383  1.00  0.00     0.041 C 
ATOM     11  C   UNL     1       8.329  -5.317  -9.130  1.00  0.00     0.150 C 
ATOM     12  C   UNL     1       9.561  -4.748  -8.357  1.00  0.00     0.174 C 
ATOM     13  O   UNL     1       7.387  -4.336  -9.571  1.00  0.00    -0.344 OA
ATOM     14  C   UNL     1       9.786  -3.288  -8.767  1.00  0.00     0.179 C 
ATOM     15  C   UNL     1       8.511  -2.448  -8.483  1.00  0.00     0.202 C 
BRANCH  12  16
ATOM     16  O   UNL     1       9.371  -4.804  -6.962  1.00  0.00    -0.388 OA
ATOM     17  H   UNL     1       9.802  -5.637  -6.634  1.00  0.00     0.211 HD
ENDBRANCH  12  16
BRANCH  14  18
ATOM     18  O   UNL     1      10.120  -3.240 -10.125  1.00  0.00    -0.387 OA
ATOM     19  H   UNL     1       9.714  -2.411 -10.504  1.00  0.00     0.211 HD
ENDBRANCH  14  18
BRANCH  15  20
ATOM     20  O   UNL     1       8.588  -1.899  -7.199  1.00  0.00    -0.385 OA
ATOM     21  H   UNL     1       8.689  -0.911  -7.304  1.00  0.00     0.211 HD
ENDBRANCH  15  20
ENDBRANCH   8   9
ENDBRANCH   7   8
ENDBRANCH   1   7
BRANCH   2  22
ATOM     22  O   UNL     1       2.903  -2.277  -6.485  1.00  0.00    -0.387 OA
ATOM     23  H   UNL     1       1.981  -2.581  -6.244  1.00  0.00     0.211 HD
ENDBRANCH   2  22
BRANCH   3  24
ATOM     24  O   UNL     1       3.752  -2.835  -4.071  1.00  0.00    -0.387 OA
ATOM     25  H   UNL     1       4.682  -2.609  -3.795  1.00  0.00     0.211 HD
ENDBRANCH   3  24
BRANCH   5  26
ATOM     26  O   UNL     1       7.289  -3.917  -4.253  1.00  0.00    -0.454 OA
BRANCH  26  27
ATOM     27  C   UNL     1       6.934  -3.755  -2.900  1.00  0.00     0.214 A 
ATOM     28  C   UNL     1       7.124  -4.816  -1.983  1.00  0.00     0.180 A 
ATOM     29  C   UNL     1       6.442  -2.528  -2.411  1.00  0.00     0.239 A 
ATOM     30  O   UNL     1       6.747  -4.665  -0.714  1.00  0.00    -0.452 OA
ATOM     31  C   UNL     1       6.013  -2.427  -1.078  1.00  0.00     0.111 A 
ATOM     32  O   UNL     1       6.444  -1.507  -3.157  1.00  0.00    -0.285 OA
ATOM     33  C   UNL     1       6.195  -3.556  -0.240  1.00  0.00     0.146 A 
ATOM     34  C   UNL     1       5.427  -1.248  -0.540  1.00  0.00     0.134 A 
ATOM     35  C   UNL     1       5.812  -3.510   1.100  1.00  0.00     0.094 A 
ATOM     36  C   UNL     1       5.042  -1.221   0.810  1.00  0.00     0.093 A 
ATOM     37  C   UNL     1       5.238  -2.343   1.625  1.00  0.00     0.123 A 
BRANCH  28  38
ATOM     38  C   UNL     1       7.763  -6.105  -2.349  1.00  0.00     0.025 A 
ATOM     39  C   UNL     1       7.030  -7.288  -2.540  1.00  0.00     0.062 A 
ATOM     40  C   UNL     1       9.157  -6.152  -2.454  1.00  0.00     0.016 A 
ATOM     41  C   UNL     1       7.675  -8.497  -2.827  1.00  0.00     0.158 A 
ATOM     42  C   UNL     1       9.815  -7.356  -2.717  1.00  0.00     0.051 A 
ATOM     43  C   UNL     1       9.089  -8.536  -2.901  1.00  0.00     0.157 A 
BRANCH  41  44
ATOM     44  O   UNL     1       6.894  -9.637  -3.029  1.00  0.00    -0.504 OA
ATOM     45  H   UNL     1       7.269 -10.580  -3.049  1.00  0.00     0.293 HD
ENDBRANCH  41  44
BRANCH  43  46
ATOM     46  O   UNL     1       9.809  -9.709  -3.153  1.00  0.00    -0.504 OA
ATOM     47  H   UNL     1      10.617  -9.999  -2.619  1.00  0.00     0.293 HD
ENDBRANCH  43  46
ENDBRANCH  28  38
BRANCH  34  48
ATOM     48  O   UNL     1       5.215  -0.113  -1.336  1.00  0.00    -0.507 OA
ATOM     49  H   UNL     1       4.919  -0.194  -2.300  1.00  0.00     0.293 HD
ENDBRANCH  34  48
BRANCH  37  50
ATOM     50  O   UNL     1       4.843  -2.277   2.964  1.00  0.00    -0.508 OA
ATOM     51  H   UNL     1       4.982  -1.430   3.520  1.00  0.00     0.293 HD
ENDBRANCH  37  50
ENDBRANCH  26  27
ENDBRANCH   5  26
BRANCH   4  52
ATOM     52  O   UNL     1       4.861  -6.114  -5.158  1.00  0.00    -0.384 OA
ATOM     53  H   UNL     1       4.282  -6.068  -5.961  1.00  0.00     0.211 HD
ENDBRANCH   4  52
TORSDOF 16
ENDMDL
