MODEL 1
REMARK VINA RESULT:    -5.465      0.000      0.000
REMARK INTER + INTRA:          -6.314
REMARK INTER:                  -5.784
REMARK INTRA:                  -0.529
REMARK UNBOUND:                -0.529
REMARK SMILES CC1=CC[C@]23[C@@H]([C@@H](C(C)C)CC[C@@H]2C)[C@@H]13
REMARK SMILES IDX 14 1 13 2 12 3 11 4 7 5 6 6 5 7 15 8 2 9 3 10 4 11 1 12 8 13
REMARK SMILES IDX 9 14 10 15
REMARK H PARENT
REMARK Flexibility Score: inf
ROOT
ATOM      1  C   UNL     1      30.626   6.793  29.960  1.00  0.00     0.008 C 
ATOM      2  C   UNL     1      31.154   7.926  30.846  1.00  0.00    -0.007 C 
ATOM      3  C   UNL     1      30.351   9.242  30.609  1.00  0.00     0.004 C 
ATOM      4  C   UNL     1      30.694  10.394  31.606  1.00  0.00     0.004 C 
ATOM      5  C   UNL     1      30.931   9.937  33.084  1.00  0.00    -0.004 C 
ATOM      6  C   UNL     1      31.887   8.740  32.982  1.00  0.00     0.007 C 
ATOM      7  C   UNL     1      31.048   7.573  32.345  1.00  0.00    -0.013 C 
ATOM      8  C   UNL     1      31.991   7.348  33.522  1.00  0.00     0.025 C 
ATOM      9  C   UNL     1      31.111   7.035  34.681  1.00  0.00    -0.073 C 
ATOM     10  C   UNL     1      29.834   6.955  34.343  1.00  0.00    -0.027 C 
ATOM     11  C   UNL     1      29.638   7.205  32.891  1.00  0.00     0.035 C 
ATOM     12  C   UNL     1      31.613   6.823  36.075  1.00  0.00     0.039 C 
ENDROOT
BRANCH   5  13
ATOM     13  C   UNL     1      31.576  11.062  33.945  1.00  0.00    -0.014 C 
ATOM     14  C   UNL     1      33.071  11.219  33.617  1.00  0.00     0.007 C 
ATOM     15  C   UNL     1      31.416  10.790  35.450  1.00  0.00     0.007 C 
ENDBRANCH   5  13
TORSDOF 1
ENDMDL
MODEL 2
REMARK VINA RESULT:    -5.429      1.020      4.360
REMARK INTER + INTRA:          -6.276
REMARK INTER:                  -5.788
REMARK INTRA:                  -0.489
REMARK UNBOUND:                -0.529
REMARK SMILES CC1=CC[C@]23[C@@H]([C@@H](C(C)C)CC[C@@H]2C)[C@@H]13
REMARK SMILES IDX 14 1 13 2 12 3 11 4 7 5 6 6 5 7 15 8 2 9 3 10 4 11 1 12 8 13
REMARK SMILES IDX 9 14 10 15
REMARK H PARENT
REMARK Flexibility Score: inf
ROOT
ATOM      1  C   UNL     1      31.522   7.003  36.089  1.00  0.00     0.008 C 
ATOM      2  C   UNL     1      31.315   7.000  34.570  1.00  0.00    -0.007 C 
ATOM      3  C   UNL     1      29.830   6.690  34.209  1.00  0.00     0.004 C 
ATOM      4  C   UNL     1      29.488   6.857  32.694  1.00  0.00     0.004 C 
ATOM      5  C   UNL     1      30.172   8.078  31.994  1.00  0.00    -0.004 C 
ATOM      6  C   UNL     1      31.647   8.002  32.414  1.00  0.00     0.007 C 
ATOM      7  C   UNL     1      31.678   8.363  33.944  1.00  0.00    -0.013 C 
ATOM      8  C   UNL     1      32.700   8.917  32.956  1.00  0.00     0.025 C 
ATOM      9  C   UNL     1      32.407  10.373  32.856  1.00  0.00    -0.073 C 
ATOM     10  C   UNL     1      31.452  10.757  33.687  1.00  0.00    -0.027 C 
ATOM     11  C   UNL     1      30.934   9.617  34.489  1.00  0.00     0.035 C 
ATOM     12  C   UNL     1      33.121  11.304  31.928  1.00  0.00     0.039 C 
ENDROOT
BRANCH   5  13
ATOM     13  C   UNL     1      30.055   8.001  30.445  1.00  0.00    -0.014 C 
ATOM     14  C   UNL     1      30.510   6.627  29.923  1.00  0.00     0.007 C 
ATOM     15  C   UNL     1      30.882   9.099  29.756  1.00  0.00     0.007 C 
ENDBRANCH   5  13
TORSDOF 1
ENDMDL
MODEL 3
REMARK VINA RESULT:    -5.357      1.448      4.097
REMARK INTER + INTRA:          -6.200
REMARK INTER:                  -5.685
REMARK INTRA:                  -0.515
REMARK UNBOUND:                -0.529
REMARK SMILES CC1=CC[C@]23[C@@H]([C@@H](C(C)C)CC[C@@H]2C)[C@@H]13
REMARK SMILES IDX 14 1 13 2 12 3 11 4 7 5 6 6 5 7 15 8 2 9 3 10 4 11 1 12 8 13
REMARK SMILES IDX 9 14 10 15
REMARK H PARENT
REMARK Flexibility Score: inf
ROOT
ATOM      1  C   UNL     1      31.584  10.406  35.522  1.00  0.00     0.008 C 
ATOM      2  C   UNL     1      31.512  10.746  34.030  1.00  0.00    -0.007 C 
ATOM      3  C   UNL     1      32.874  11.307  33.518  1.00  0.00     0.004 C 
ATOM      4  C   UNL     1      32.951  11.499  31.969  1.00  0.00     0.004 C 
ATOM      5  C   UNL     1      32.263  10.371  31.131  1.00  0.00    -0.004 C 
ATOM      6  C   UNL     1      30.886  10.173  31.784  1.00  0.00     0.007 C 
ATOM      7  C   UNL     1      31.165   9.505  33.179  1.00  0.00    -0.013 C 
ATOM      8  C   UNL     1      30.035   9.042  32.266  1.00  0.00     0.025 C 
ATOM      9  C   UNL     1      30.432   7.685  31.799  1.00  0.00    -0.073 C 
ATOM     10  C   UNL     1      31.552   7.263  32.363  1.00  0.00    -0.027 C 
ATOM     11  C   UNL     1      32.103   8.270  33.308  1.00  0.00     0.035 C 
ATOM     12  C   UNL     1      29.648   6.882  30.810  1.00  0.00     0.039 C 
ENDROOT
BRANCH   5  13
ATOM     13  C   UNL     1      32.090  10.777  29.639  1.00  0.00    -0.014 C 
ATOM     14  C   UNL     1      31.254  12.062  29.509  1.00  0.00     0.007 C 
ATOM     15  C   UNL     1      31.427   9.660  28.817  1.00  0.00     0.007 C 
ENDBRANCH   5  13
TORSDOF 1
ENDMDL
MODEL 4
REMARK VINA RESULT:    -5.345      1.286      3.729
REMARK INTER + INTRA:          -6.187
REMARK INTER:                  -5.821
REMARK INTRA:                  -0.366
REMARK UNBOUND:                -0.529
REMARK SMILES CC1=CC[C@]23[C@@H]([C@@H](C(C)C)CC[C@@H]2C)[C@@H]13
REMARK SMILES IDX 14 1 13 2 12 3 11 4 7 5 6 6 5 7 15 8 2 9 3 10 4 11 1 12 8 13
REMARK SMILES IDX 9 14 10 15
REMARK H PARENT
REMARK Flexibility Score: inf
ROOT
ATOM      1  C   UNL     1      33.124  12.136  31.125  1.00  0.00     0.008 C 
ATOM      2  C   UNL     1      32.816  11.137  32.246  1.00  0.00    -0.007 C 
ATOM      3  C   UNL     1      32.236  11.863  33.498  1.00  0.00     0.004 C 
ATOM      4  C   UNL     1      31.714  10.904  34.615  1.00  0.00     0.004 C 
ATOM      5  C   UNL     1      30.966   9.632  34.094  1.00  0.00    -0.004 C 
ATOM      6  C   UNL     1      31.871   9.061  32.993  1.00  0.00     0.007 C 
ATOM      7  C   UNL     1      31.788  10.077  31.797  1.00  0.00    -0.013 C 
ATOM      8  C   UNL     1      31.739   8.568  31.586  1.00  0.00     0.025 C 
ATOM      9  C   UNL     1      30.353   8.275  31.129  1.00  0.00    -0.073 C 
ATOM     10  C   UNL     1      29.632   9.371  30.958  1.00  0.00    -0.027 C 
ATOM     11  C   UNL     1      30.415  10.595  31.275  1.00  0.00     0.035 C 
ATOM     12  C   UNL     1      29.833   6.894  30.880  1.00  0.00     0.039 C 
ENDROOT
BRANCH   5  13
ATOM     13  C   UNL     1      30.763   8.575  35.218  1.00  0.00    -0.014 C 
ATOM     14  C   UNL     1      31.332   9.076  36.557  1.00  0.00     0.007 C 
ATOM     15  C   UNL     1      31.422   7.232  34.862  1.00  0.00     0.007 C 
ENDBRANCH   5  13
TORSDOF 1
ENDMDL
MODEL 5
REMARK VINA RESULT:    -5.335      3.795      7.250
REMARK INTER + INTRA:          -6.176
REMARK INTER:                  -5.667
REMARK INTRA:                  -0.509
REMARK UNBOUND:                -0.529
REMARK SMILES CC1=CC[C@]23[C@@H]([C@@H](C(C)C)CC[C@@H]2C)[C@@H]13
REMARK SMILES IDX 14 1 13 2 12 3 11 4 7 5 6 6 5 7 15 8 2 9 3 10 4 11 1 12 8 13
REMARK SMILES IDX 9 14 10 15
REMARK H PARENT
REMARK Flexibility Score: inf
ROOT
ATOM      1  C   UNL     1      33.034  12.597  30.749  1.00  0.00     0.008 C 
ATOM      2  C   UNL     1      32.634  11.335  29.978  1.00  0.00    -0.007 C 
ATOM      3  C   UNL     1      31.484  10.575  30.707  1.00  0.00     0.004 C 
ATOM      4  C   UNL     1      30.883   9.384  29.896  1.00  0.00     0.004 C 
ATOM      5  C   UNL     1      30.731   9.643  28.360  1.00  0.00    -0.004 C 
ATOM      6  C   UNL     1      32.080  10.231  27.920  1.00  0.00     0.007 C 
ATOM      7  C   UNL     1      32.148  11.668  28.552  1.00  0.00    -0.013 C 
ATOM      8  C   UNL     1      32.581  11.389  27.116  1.00  0.00     0.025 C 
ATOM      9  C   UNL     1      31.572  12.068  26.258  1.00  0.00    -0.073 C 
ATOM     10  C   UNL     1      30.691  12.761  26.961  1.00  0.00    -0.027 C 
ATOM     11  C   UNL     1      30.958  12.663  28.420  1.00  0.00     0.035 C 
ATOM     12  C   UNL     1      31.559  11.986  24.764  1.00  0.00     0.039 C 
ENDROOT
BRANCH   5  13
ATOM     13  C   UNL     1      30.440   8.331  27.574  1.00  0.00    -0.014 C 
ATOM     14  C   UNL     1      31.528   7.276  27.838  1.00  0.00     0.007 C 
ATOM     15  C   UNL     1      30.341   8.584  26.061  1.00  0.00     0.007 C 
ENDBRANCH   5  13
TORSDOF 1
ENDMDL
MODEL 6
REMARK VINA RESULT:    -5.303      1.677      3.819
REMARK INTER + INTRA:          -6.143
REMARK INTER:                  -5.707
REMARK INTRA:                  -0.436
REMARK UNBOUND:                -0.529
REMARK SMILES CC1=CC[C@]23[C@@H]([C@@H](C(C)C)CC[C@@H]2C)[C@@H]13
REMARK SMILES IDX 14 1 13 2 12 3 11 4 7 5 6 6 5 7 15 8 2 9 3 10 4 11 1 12 8 13
REMARK SMILES IDX 9 14 10 15
REMARK H PARENT
REMARK Flexibility Score: inf
ROOT
ATOM      1  C   UNL     1      28.935   6.071  32.663  1.00  0.00     0.008 C 
ATOM      2  C   UNL     1      29.289   6.932  33.880  1.00  0.00    -0.007 C 
ATOM      3  C   UNL     1      29.753   6.046  35.076  1.00  0.00     0.004 C 
ATOM      4  C   UNL     1      30.316   6.848  36.292  1.00  0.00     0.004 C 
ATOM      5  C   UNL     1      31.195   8.087  35.914  1.00  0.00    -0.004 C 
ATOM      6  C   UNL     1      30.388   8.836  34.844  1.00  0.00     0.007 C 
ATOM      7  C   UNL     1      30.425   7.927  33.562  1.00  0.00    -0.013 C 
ATOM      8  C   UNL     1      30.617   9.439  33.494  1.00  0.00     0.025 C 
ATOM      9  C   UNL     1      32.040   9.641  33.107  1.00  0.00    -0.073 C 
ATOM     10  C   UNL     1      32.665   8.502  32.856  1.00  0.00    -0.027 C 
ATOM     11  C   UNL     1      31.764   7.333  33.035  1.00  0.00     0.035 C 
ATOM     12  C   UNL     1      32.692  10.984  33.003  1.00  0.00     0.039 C 
ENDROOT
BRANCH   5  13
ATOM     13  C   UNL     1      31.450   9.015  37.136  1.00  0.00    -0.014 C 
ATOM     14  C   UNL     1      30.205   9.095  38.038  1.00  0.00     0.007 C 
ATOM     15  C   UNL     1      31.847  10.435  36.700  1.00  0.00     0.007 C 
ENDBRANCH   5  13
TORSDOF 1
ENDMDL
MODEL 7
REMARK VINA RESULT:    -5.236      2.375      4.954
REMARK INTER + INTRA:          -6.071
REMARK INTER:                  -5.657
REMARK INTRA:                  -0.414
REMARK UNBOUND:                -0.529
REMARK SMILES CC1=CC[C@]23[C@@H]([C@@H](C(C)C)CC[C@@H]2C)[C@@H]13
REMARK SMILES IDX 14 1 13 2 12 3 11 4 7 5 6 6 5 7 15 8 2 9 3 10 4 11 1 12 8 13
REMARK SMILES IDX 9 14 10 15
REMARK H PARENT
REMARK Flexibility Score: inf
ROOT
ATOM      1  C   UNL     1      28.773   6.606  29.167  1.00  0.00     0.008 C 
ATOM      2  C   UNL     1      29.381   7.811  29.891  1.00  0.00    -0.007 C 
ATOM      3  C   UNL     1      30.322   7.353  31.048  1.00  0.00     0.004 C 
ATOM      4  C   UNL     1      31.132   8.509  31.715  1.00  0.00     0.004 C 
ATOM      5  C   UNL     1      31.666   9.597  30.724  1.00  0.00    -0.004 C 
ATOM      6  C   UNL     1      30.463   9.953  29.839  1.00  0.00     0.007 C 
ATOM      7  C   UNL     1      30.208   8.695  28.933  1.00  0.00    -0.013 C 
ATOM      8  C   UNL     1      30.161  10.116  28.382  1.00  0.00     0.025 C 
ATOM      9  C   UNL     1      31.342  10.233  27.484  1.00  0.00    -0.073 C 
ATOM     10  C   UNL     1      32.001   9.092  27.361  1.00  0.00    -0.027 C 
ATOM     11  C   UNL     1      31.373   8.009  28.162  1.00  0.00     0.035 C 
ATOM     12  C   UNL     1      31.737  11.498  26.788  1.00  0.00     0.039 C 
ENDROOT
BRANCH   5  13
ATOM     13  C   UNL     1      32.173  10.865  31.470  1.00  0.00    -0.014 C 
ATOM     14  C   UNL     1      32.894  11.822  30.504  1.00  0.00     0.007 C 
ATOM     15  C   UNL     1      33.122  10.506  32.625  1.00  0.00     0.007 C 
ENDBRANCH   5  13
TORSDOF 1
ENDMDL
MODEL 8
REMARK VINA RESULT:    -5.220      1.671      4.457
REMARK INTER + INTRA:          -6.055
REMARK INTER:                  -5.645
REMARK INTRA:                  -0.410
REMARK UNBOUND:                -0.529
REMARK SMILES CC1=CC[C@]23[C@@H]([C@@H](C(C)C)CC[C@@H]2C)[C@@H]13
REMARK SMILES IDX 14 1 13 2 12 3 11 4 7 5 6 6 5 7 15 8 2 9 3 10 4 11 1 12 8 13
REMARK SMILES IDX 9 14 10 15
REMARK H PARENT
REMARK Flexibility Score: inf
ROOT
ATOM      1  C   UNL     1      31.968  12.560  31.730  1.00  0.00     0.008 C 
ATOM      2  C   UNL     1      31.311  11.434  30.923  1.00  0.00    -0.007 C 
ATOM      3  C   UNL     1      32.113  11.141  29.617  1.00  0.00     0.004 C 
ATOM      4  C   UNL     1      31.626   9.882  28.832  1.00  0.00     0.004 C 
ATOM      5  C   UNL     1      31.214   8.666  29.726  1.00  0.00    -0.004 C 
ATOM      6  C   UNL     1      30.301   9.260  30.808  1.00  0.00     0.007 C 
ATOM      7  C   UNL     1      31.235  10.123  31.733  1.00  0.00    -0.013 C 
ATOM      8  C   UNL     1      30.156   9.204  32.297  1.00  0.00     0.025 C 
ATOM      9  C   UNL     1      30.889   8.103  32.979  1.00  0.00    -0.073 C 
ATOM     10  C   UNL     1      32.199   8.287  32.977  1.00  0.00    -0.027 C 
ATOM     11  C   UNL     1      32.572   9.549  32.286  1.00  0.00     0.035 C 
ATOM     12  C   UNL     1      30.219   6.922  33.609  1.00  0.00     0.039 C 
ENDROOT
BRANCH   5  13
ATOM     13  C   UNL     1      30.445   7.582  28.916  1.00  0.00    -0.014 C 
ATOM     14  C   UNL     1      30.118   6.364  29.797  1.00  0.00     0.007 C 
ATOM     15  C   UNL     1      31.243   7.116  27.688  1.00  0.00     0.007 C 
ENDBRANCH   5  13
TORSDOF 1
ENDMDL
MODEL 9
REMARK VINA RESULT:    -5.133      1.896      5.483
REMARK INTER + INTRA:          -5.963
REMARK INTER:                  -5.480
REMARK INTRA:                  -0.483
REMARK UNBOUND:                -0.529
REMARK SMILES CC1=CC[C@]23[C@@H]([C@@H](C(C)C)CC[C@@H]2C)[C@@H]13
REMARK SMILES IDX 14 1 13 2 12 3 11 4 7 5 6 6 5 7 15 8 2 9 3 10 4 11 1 12 8 13
REMARK SMILES IDX 9 14 10 15
REMARK H PARENT
REMARK Flexibility Score: inf
ROOT
ATOM      1  C   UNL     1      33.124  11.110  33.393  1.00  0.00     0.008 C 
ATOM      2  C   UNL     1      32.687  10.122  32.306  1.00  0.00    -0.007 C 
ATOM      3  C   UNL     1      31.945   8.899  32.928  1.00  0.00     0.004 C 
ATOM      4  C   UNL     1      31.296   7.939  31.880  1.00  0.00     0.004 C 
ATOM      5  C   UNL     1      30.634   8.651  30.654  1.00  0.00    -0.004 C 
ATOM      6  C   UNL     1      31.678   9.671  30.175  1.00  0.00     0.007 C 
ATOM      7  C   UNL     1      31.735  10.782  31.286  1.00  0.00    -0.013 C 
ATOM      8  C   UNL     1      31.730  11.118  29.798  1.00  0.00     0.025 C 
ATOM      9  C   UNL     1      30.417  11.769  29.542  1.00  0.00    -0.073 C 
ATOM     10  C   UNL     1      29.712  11.942  30.649  1.00  0.00    -0.027 C 
ATOM     11  C   UNL     1      30.434  11.430  31.843  1.00  0.00     0.035 C 
ATOM     12  C   UNL     1      29.947  12.193  28.186  1.00  0.00     0.039 C 
ENDROOT
BRANCH   5  13
ATOM     13  C   UNL     1      30.302   7.651  29.510  1.00  0.00    -0.014 C 
ATOM     14  C   UNL     1      31.335   7.749  28.374  1.00  0.00     0.007 C 
ATOM     15  C   UNL     1      28.897   7.891  28.934  1.00  0.00     0.007 C 
ENDBRANCH   5  13
TORSDOF 1
ENDMDL
