MODEL 1
REMARK VINA RESULT:    -2.217      0.000      0.000
REMARK INTER + INTRA:          -2.217
REMARK INTER:                  -2.217
REMARK INTRA:                   0.000
REMARK UNBOUND:                 0.000
REMARK SMILES CC(=O)[O-]
REMARK SMILES IDX 1 1 2 2 3 3 4 4
REMARK H PARENT
REMARK Flexibility Score: inf
ROOT
ATOM      1  C   UNL     1      97.533 104.821  90.273  1.00  0.00     0.063 C 
ATOM      2  C   UNL     1      97.497 104.347  88.860  1.00  0.00     0.038 C 
ATOM      3  O   UNL     1      97.882 105.104  87.930  1.00  0.00    -0.550 OA
ATOM      4  O   UNL     1      97.092 103.051  88.570  1.00  0.00    -0.550 OA
ENDROOT
TORSDOF 0
ENDMDL
MODEL 2
REMARK VINA RESULT:    -2.163      1.407      1.765
REMARK INTER + INTRA:          -2.163
REMARK INTER:                  -2.163
REMARK INTRA:                   0.000
REMARK UNBOUND:                 0.000
REMARK SMILES CC(=O)[O-]
REMARK SMILES IDX 1 1 2 2 3 3 4 4
REMARK H PARENT
REMARK Flexibility Score: inf
ROOT
ATOM      1  C   UNL     1      96.785 103.326  88.651  1.00  0.00     0.063 C 
ATOM      2  C   UNL     1      97.594 104.528  89.000  1.00  0.00     0.038 C 
ATOM      3  O   UNL     1      98.054 105.266  88.089  1.00  0.00    -0.550 OA
ATOM      4  O   UNL     1      97.797 104.869  90.330  1.00  0.00    -0.550 OA
ENDROOT
TORSDOF 0
ENDMDL
MODEL 3
REMARK VINA RESULT:    -2.141     13.304     13.901
REMARK INTER + INTRA:          -2.141
REMARK INTER:                  -2.141
REMARK INTRA:                   0.000
REMARK UNBOUND:                 0.000
REMARK SMILES CC(=O)[O-]
REMARK SMILES IDX 1 1 2 2 3 3 4 4
REMARK H PARENT
REMARK Flexibility Score: inf
ROOT
ATOM      1  C   UNL     1     100.739  89.904  86.071  1.00  0.00     0.063 C 
ATOM      2  C   UNL     1     100.977  91.374  86.009  1.00  0.00     0.038 C 
ATOM      3  O   UNL     1     100.004  92.173  86.032  1.00  0.00    -0.550 OA
ATOM      4  O   UNL     1     102.274  91.869  85.983  1.00  0.00    -0.550 OA
ENDROOT
TORSDOF 0
ENDMDL
MODEL 4
REMARK VINA RESULT:    -2.133     13.325     13.908
REMARK INTER + INTRA:          -2.133
REMARK INTER:                  -2.133
REMARK INTRA:                   0.000
REMARK UNBOUND:                 0.000
REMARK SMILES CC(=O)[O-]
REMARK SMILES IDX 1 1 2 2 3 3 4 4
REMARK H PARENT
REMARK Flexibility Score: inf
ROOT
ATOM      1  C   UNL     1     100.785  89.889  86.107  1.00  0.00     0.063 C 
ATOM      2  C   UNL     1     101.054  91.351  85.995  1.00  0.00     0.038 C 
ATOM      3  O   UNL     1     102.239  91.770  85.911  1.00  0.00    -0.550 OA
ATOM      4  O   UNL     1      99.998  92.250  85.927  1.00  0.00    -0.550 OA
ENDROOT
TORSDOF 0
ENDMDL
MODEL 5
REMARK VINA RESULT:    -2.105     13.722     14.303
REMARK INTER + INTRA:          -2.105
REMARK INTER:                  -2.105
REMARK INTRA:                   0.000
REMARK UNBOUND:                 0.000
REMARK SMILES CC(=O)[O-]
REMARK SMILES IDX 1 1 2 2 3 3 4 4
REMARK H PARENT
REMARK Flexibility Score: inf
ROOT
ATOM      1  C   UNL     1     101.107  91.151  85.883  1.00  0.00     0.063 C 
ATOM      2  C   UNL     1      99.833  90.771  85.209  1.00  0.00     0.038 C 
ATOM      3  O   UNL     1      98.996  91.657  84.895  1.00  0.00    -0.550 OA
ATOM      4  O   UNL     1      99.590  89.445  84.876  1.00  0.00    -0.550 OA
ENDROOT
TORSDOF 0
ENDMDL
MODEL 6
REMARK VINA RESULT:    -2.085     18.940     19.149
REMARK INTER + INTRA:          -2.085
REMARK INTER:                  -2.085
REMARK INTRA:                   0.000
REMARK UNBOUND:                 0.000
REMARK SMILES CC(=O)[O-]
REMARK SMILES IDX 1 1 2 2 3 3 4 4
REMARK H PARENT
REMARK Flexibility Score: inf
ROOT
ATOM      1  C   UNL     1     111.644  91.702  95.182  1.00  0.00     0.063 C 
ATOM      2  C   UNL     1     111.289  92.087  93.786  1.00  0.00     0.038 C 
ATOM      3  O   UNL     1     110.672  93.162  93.565  1.00  0.00    -0.550 OA
ATOM      4  O   UNL     1     111.688  91.290  92.721  1.00  0.00    -0.550 OA
ENDROOT
TORSDOF 0
ENDMDL
MODEL 7
REMARK VINA RESULT:    -2.065     12.860     13.227
REMARK INTER + INTRA:          -2.065
REMARK INTER:                  -2.065
REMARK INTRA:                   0.000
REMARK UNBOUND:                 0.000
REMARK SMILES CC(=O)[O-]
REMARK SMILES IDX 1 1 2 2 3 3 4 4
REMARK H PARENT
REMARK Flexibility Score: inf
ROOT
ATOM      1  C   UNL     1     101.226  91.374  85.991  1.00  0.00     0.063 C 
ATOM      2  C   UNL     1      99.788  91.764  86.037  1.00  0.00     0.038 C 
ATOM      3  O   UNL     1      99.272  92.144  87.121  1.00  0.00    -0.550 OA
ATOM      4  O   UNL     1      99.028  91.762  84.875  1.00  0.00    -0.550 OA
ENDROOT
TORSDOF 0
ENDMDL
MODEL 8
REMARK VINA RESULT:    -1.985     14.059     14.652
REMARK INTER + INTRA:          -1.985
REMARK INTER:                  -1.985
REMARK INTRA:                   0.000
REMARK UNBOUND:                 0.000
REMARK SMILES CC(=O)[O-]
REMARK SMILES IDX 1 1 2 2 3 3 4 4
REMARK H PARENT
REMARK Flexibility Score: inf
ROOT
ATOM      1  C   UNL     1     101.476  91.385  86.011  1.00  0.00     0.063 C 
ATOM      2  C   UNL     1     100.580  90.288  86.475  1.00  0.00     0.038 C 
ATOM      3  O   UNL     1     100.582  89.178  85.881  1.00  0.00    -0.550 OA
ATOM      4  O   UNL     1      99.781  90.469  87.596  1.00  0.00    -0.550 OA
ENDROOT
TORSDOF 0
ENDMDL
MODEL 9
REMARK VINA RESULT:    -1.944     15.152     15.665
REMARK INTER + INTRA:          -1.944
REMARK INTER:                  -1.944
REMARK INTRA:                   0.000
REMARK UNBOUND:                 0.000
REMARK SMILES CC(=O)[O-]
REMARK SMILES IDX 1 1 2 2 3 3 4 4
REMARK H PARENT
REMARK Flexibility Score: inf
ROOT
ATOM      1  C   UNL     1     100.769  87.989  86.369  1.00  0.00     0.063 C 
ATOM      2  C   UNL     1     100.266  89.343  85.998  1.00  0.00     0.038 C 
ATOM      3  O   UNL     1      99.045  89.514  85.743  1.00  0.00    -0.550 OA
ATOM      4  O   UNL     1     101.131  90.428  85.988  1.00  0.00    -0.550 OA
ENDROOT
TORSDOF 0
ENDMDL
