MODEL 1
REMARK VINA RESULT:    -5.341      0.000      0.000
REMARK INTER + INTRA:          -9.644
REMARK INTER:                  -9.087
REMARK INTRA:                  -0.556
REMARK UNBOUND:                -0.556
REMARK SMILES CCCCCCCCCCCCCC(=O)[O-]
REMARK SMILES IDX 8 1 9 2 10 3 11 4 12 5 13 6 14 7 15 8 16 9 7 10 6 11 5 12
REMARK SMILES IDX 4 13 3 14 2 15 1 16
REMARK H PARENT
REMARK Flexibility Score: inf
ROOT
ATOM      1  C   UNL     1      21.135 -12.709  21.242  1.00  0.00     0.000 C 
ENDROOT
BRANCH   1   2
ATOM      2  C   UNL     1      22.372 -11.902  21.672  1.00  0.00     0.000 C 
BRANCH   2   3
ATOM      3  C   UNL     1      22.020 -10.713  22.582  1.00  0.00     0.000 C 
BRANCH   3   4
ATOM      4  C   UNL     1      20.852 -10.965  23.559  1.00  0.00     0.000 C 
BRANCH   4   5
ATOM      5  C   UNL     1      20.649  -9.878  24.633  1.00  0.00     0.006 C 
BRANCH   5   6
ATOM      6  C   UNL     1      21.177  -8.490  24.237  1.00  0.00     0.053 C 
BRANCH   6   7
ATOM      7  C   UNL     1      21.707  -7.734  25.416  1.00  0.00     0.041 C 
ATOM      8  O   UNL     1      22.880  -7.277  25.399  1.00  0.00    -0.550 OA
ATOM      9  O   UNL     1      20.917  -7.564  26.546  1.00  0.00    -0.550 OA
ENDBRANCH   6   7
ENDBRANCH   5   6
ENDBRANCH   4   5
ENDBRANCH   3   4
ENDBRANCH   2   3
ENDBRANCH   1   2
BRANCH   1  10
ATOM     10  C   UNL     1      21.458 -13.767  20.176  1.00  0.00     0.000 C 
BRANCH  10  11
ATOM     11  C   UNL     1      22.713 -14.588  20.523  1.00  0.00    -0.000 C 
BRANCH  11  12
ATOM     12  C   UNL     1      22.968 -15.728  19.524  1.00  0.00    -0.000 C 
BRANCH  12  13
ATOM     13  C   UNL     1      22.508 -15.383  18.099  1.00  0.00    -0.000 C 
BRANCH  13  14
ATOM     14  C   UNL     1      23.037 -16.408  17.088  1.00  0.00    -0.000 C 
BRANCH  14  15
ATOM     15  C   UNL     1      22.846 -17.839  17.603  1.00  0.00    -0.003 C 
ATOM     16  C   UNL     1      22.429 -18.779  16.476  1.00  0.00     0.004 C 
ENDBRANCH  14  15
ENDBRANCH  13  14
ENDBRANCH  12  13
ENDBRANCH  11  12
ENDBRANCH  10  11
ENDBRANCH   1  10
TORSDOF 12
ENDMDL
MODEL 2
REMARK VINA RESULT:    -5.308      5.746      9.985
REMARK INTER + INTRA:          -9.588
REMARK INTER:                  -9.002
REMARK INTRA:                  -0.586
REMARK UNBOUND:                -0.556
REMARK SMILES CCCCCCCCCCCCCC(=O)[O-]
REMARK SMILES IDX 8 1 9 2 10 3 11 4 12 5 13 6 14 7 15 8 16 9 7 10 6 11 5 12
REMARK SMILES IDX 4 13 3 14 2 15 1 16
REMARK H PARENT
REMARK Flexibility Score: inf
ROOT
ATOM      1  C   UNL     1      22.971 -15.592  19.576  1.00  0.00     0.000 C 
ENDROOT
BRANCH   1   2
ATOM      2  C   UNL     1      22.514 -15.154  18.175  1.00  0.00     0.000 C 
BRANCH   2   3
ATOM      3  C   UNL     1      22.888 -16.171  17.083  1.00  0.00     0.000 C 
BRANCH   3   4
ATOM      4  C   UNL     1      23.271 -17.573  17.602  1.00  0.00     0.000 C 
BRANCH   4   5
ATOM      5  C   UNL     1      22.557 -18.748  16.904  1.00  0.00     0.006 C 
BRANCH   5   6
ATOM      6  C   UNL     1      21.790 -19.679  17.855  1.00  0.00     0.053 C 
BRANCH   6   7
ATOM      7  C   UNL     1      20.630 -20.340  17.178  1.00  0.00     0.041 C 
ATOM      8  O   UNL     1      20.654 -20.543  15.935  1.00  0.00    -0.550 OA
ATOM      9  O   UNL     1      19.508 -20.702  17.914  1.00  0.00    -0.550 OA
ENDBRANCH   6   7
ENDBRANCH   5   6
ENDBRANCH   4   5
ENDBRANCH   3   4
ENDBRANCH   2   3
ENDBRANCH   1   2
BRANCH   1  10
ATOM     10  C   UNL     1      22.643 -14.553  20.660  1.00  0.00     0.000 C 
BRANCH  10  11
ATOM     11  C   UNL     1      21.460 -13.649  20.269  1.00  0.00    -0.000 C 
BRANCH  11  12
ATOM     12  C   UNL     1      21.103 -12.635  21.368  1.00  0.00    -0.000 C 
BRANCH  12  13
ATOM     13  C   UNL     1      22.325 -11.857  21.879  1.00  0.00    -0.000 C 
BRANCH  13  14
ATOM     14  C   UNL     1      21.896 -10.575  22.601  1.00  0.00    -0.000 C 
BRANCH  14  15
ATOM     15  C   UNL     1      20.992 -10.893  23.798  1.00  0.00    -0.003 C 
ATOM     16  C   UNL     1      20.654  -9.630  24.585  1.00  0.00     0.004 C 
ENDBRANCH  14  15
ENDBRANCH  13  14
ENDBRANCH  12  13
ENDBRANCH  11  12
ENDBRANCH  10  11
ENDBRANCH   1  10
TORSDOF 12
ENDMDL
MODEL 3
REMARK VINA RESULT:    -5.185      4.709      9.683
REMARK INTER + INTRA:          -9.379
REMARK INTER:                  -8.832
REMARK INTRA:                  -0.547
REMARK UNBOUND:                -0.556
REMARK SMILES CCCCCCCCCCCCCC(=O)[O-]
REMARK SMILES IDX 8 1 9 2 10 3 11 4 12 5 13 6 14 7 15 8 16 9 7 10 6 11 5 12
REMARK SMILES IDX 4 13 3 14 2 15 1 16
REMARK H PARENT
REMARK Flexibility Score: inf
ROOT
ATOM      1  C   UNL     1      22.322 -11.789  21.814  1.00  0.00     0.000 C 
ENDROOT
BRANCH   1   2
ATOM      2  C   UNL     1      21.124 -12.577  21.259  1.00  0.00     0.000 C 
BRANCH   2   3
ATOM      3  C   UNL     1      21.551 -13.756  20.366  1.00  0.00     0.000 C 
BRANCH   3   4
ATOM      4  C   UNL     1      22.829 -14.489  20.824  1.00  0.00     0.000 C 
BRANCH   4   5
ATOM      5  C   UNL     1      23.123 -15.813  20.089  1.00  0.00     0.006 C 
BRANCH   5   6
ATOM      6  C   UNL     1      22.851 -15.773  18.577  1.00  0.00     0.053 C 
BRANCH   6   7
ATOM      7  C   UNL     1      23.018 -17.118  17.941  1.00  0.00     0.041 C 
ATOM      8  O   UNL     1      23.357 -17.209  16.733  1.00  0.00    -0.550 OA
ATOM      9  O   UNL     1      22.766 -18.271  18.675  1.00  0.00    -0.550 OA
ENDBRANCH   6   7
ENDBRANCH   5   6
ENDBRANCH   4   5
ENDBRANCH   3   4
ENDBRANCH   2   3
ENDBRANCH   1   2
BRANCH   1  10
ATOM     10  C   UNL     1      21.899 -10.509  22.551  1.00  0.00     0.000 C 
BRANCH  10  11
ATOM     11  C   UNL     1      20.896 -10.786  23.686  1.00  0.00    -0.000 C 
BRANCH  11  12
ATOM     12  C   UNL     1      20.815  -9.631  24.697  1.00  0.00    -0.000 C 
BRANCH  12  13
ATOM     13  C   UNL     1      21.142  -8.267  24.070  1.00  0.00    -0.000 C 
BRANCH  13  14
ATOM     14  C   UNL     1      21.760  -7.321  25.106  1.00  0.00    -0.000 C 
BRANCH  14  15
ATOM     15  C   UNL     1      21.043  -7.438  26.456  1.00  0.00    -0.003 C 
ATOM     16  C   UNL     1      21.821  -6.725  27.557  1.00  0.00     0.004 C 
ENDBRANCH  14  15
ENDBRANCH  13  14
ENDBRANCH  12  13
ENDBRANCH  11  12
ENDBRANCH  10  11
ENDBRANCH   1  10
TORSDOF 12
ENDMDL
MODEL 4
REMARK VINA RESULT:    -5.149      1.198      2.145
REMARK INTER + INTRA:          -9.318
REMARK INTER:                  -8.779
REMARK INTRA:                  -0.539
REMARK UNBOUND:                -0.556
REMARK SMILES CCCCCCCCCCCCCC(=O)[O-]
REMARK SMILES IDX 8 1 9 2 10 3 11 4 12 5 13 6 14 7 15 8 16 9 7 10 6 11 5 12
REMARK SMILES IDX 4 13 3 14 2 15 1 16
REMARK H PARENT
REMARK Flexibility Score: inf
ROOT
ATOM      1  C   UNL     1      22.133 -14.231  19.971  1.00  0.00     0.000 C 
ENDROOT
BRANCH   1   2
ATOM      2  C   UNL     1      23.089 -13.995  21.152  1.00  0.00     0.000 C 
BRANCH   2   3
ATOM      3  C   UNL     1      23.109 -12.528  21.616  1.00  0.00     0.000 C 
BRANCH   3   4
ATOM      4  C   UNL     1      21.719 -11.869  21.750  1.00  0.00     0.000 C 
BRANCH   4   5
ATOM      5  C   UNL     1      21.505 -11.049  23.037  1.00  0.00     0.006 C 
BRANCH   5   6
ATOM      6  C   UNL     1      21.957  -9.584  22.938  1.00  0.00     0.053 C 
BRANCH   6   7
ATOM      7  C   UNL     1      21.471  -8.767  24.095  1.00  0.00     0.041 C 
ATOM      8  O   UNL     1      21.959  -7.628  24.316  1.00  0.00    -0.550 OA
ATOM      9  O   UNL     1      20.501  -9.278  24.949  1.00  0.00    -0.550 OA
ENDBRANCH   6   7
ENDBRANCH   5   6
ENDBRANCH   4   5
ENDBRANCH   3   4
ENDBRANCH   2   3
ENDBRANCH   1   2
BRANCH   1  10
ATOM     10  C   UNL     1      22.647 -15.303  18.997  1.00  0.00     0.000 C 
BRANCH  10  11
ATOM     11  C   UNL     1      23.063 -16.599  19.714  1.00  0.00    -0.000 C 
BRANCH  11  12
ATOM     12  C   UNL     1      23.284 -17.768  18.740  1.00  0.00    -0.000 C 
BRANCH  12  13
ATOM     13  C   UNL     1      23.013 -17.383  17.278  1.00  0.00    -0.000 C 
BRANCH  13  14
ATOM     14  C   UNL     1      22.677 -18.620  16.437  1.00  0.00    -0.000 C 
BRANCH  14  15
ATOM     15  C   UNL     1      22.092 -19.737  17.310  1.00  0.00    -0.003 C 
ATOM     16  C   UNL     1      20.916 -20.419  16.618  1.00  0.00     0.004 C 
ENDBRANCH  14  15
ENDBRANCH  13  14
ENDBRANCH  12  13
ENDBRANCH  11  12
ENDBRANCH  10  11
ENDBRANCH   1  10
TORSDOF 12
ENDMDL
MODEL 5
REMARK VINA RESULT:    -5.078      5.512      9.981
REMARK INTER + INTRA:          -9.197
REMARK INTER:                  -8.717
REMARK INTRA:                  -0.480
REMARK UNBOUND:                -0.556
REMARK SMILES CCCCCCCCCCCCCC(=O)[O-]
REMARK SMILES IDX 8 1 9 2 10 3 11 4 12 5 13 6 14 7 15 8 16 9 7 10 6 11 5 12
REMARK SMILES IDX 4 13 3 14 2 15 1 16
REMARK H PARENT
REMARK Flexibility Score: inf
ROOT
ATOM      1  C   UNL     1      23.289 -14.100  21.217  1.00  0.00     0.000 C 
ENDROOT
BRANCH   1   2
ATOM      2  C   UNL     1      22.257 -14.448  20.131  1.00  0.00     0.000 C 
BRANCH   2   3
ATOM      3  C   UNL     1      22.810 -15.424  19.077  1.00  0.00     0.000 C 
BRANCH   3   4
ATOM      4  C   UNL     1      22.991 -16.876  19.567  1.00  0.00     0.000 C 
BRANCH   4   5
ATOM      5  C   UNL     1      23.754 -17.803  18.600  1.00  0.00     0.006 C 
BRANCH   5   6
ATOM      6  C   UNL     1      23.211 -17.804  17.162  1.00  0.00     0.053 C 
BRANCH   6   7
ATOM      7  C   UNL     1      22.844 -19.181  16.702  1.00  0.00     0.041 C 
ATOM      8  O   UNL     1      21.661 -19.440  16.359  1.00  0.00    -0.550 OA
ATOM      9  O   UNL     1      23.803 -20.187  16.685  1.00  0.00    -0.550 OA
ENDBRANCH   6   7
ENDBRANCH   5   6
ENDBRANCH   4   5
ENDBRANCH   3   4
ENDBRANCH   2   3
ENDBRANCH   1   2
BRANCH   1  10
ATOM     10  C   UNL     1      23.210 -12.631  21.661  1.00  0.00     0.000 C 
BRANCH  10  11
ATOM     11  C   UNL     1      21.766 -12.096  21.672  1.00  0.00    -0.000 C 
BRANCH  11  12
ATOM     12  C   UNL     1      21.615 -10.823  22.521  1.00  0.00    -0.000 C 
BRANCH  12  13
ATOM     13  C   UNL     1      20.706 -11.028  23.743  1.00  0.00    -0.000 C 
BRANCH  13  14
ATOM     14  C   UNL     1      20.634  -9.755  24.593  1.00  0.00    -0.000 C 
BRANCH  14  15
ATOM     15  C   UNL     1      21.440  -8.619  23.954  1.00  0.00    -0.003 C 
ATOM     16  C   UNL     1      20.832  -7.259  24.281  1.00  0.00     0.004 C 
ENDBRANCH  14  15
ENDBRANCH  13  14
ENDBRANCH  12  13
ENDBRANCH  11  12
ENDBRANCH  10  11
ENDBRANCH   1  10
TORSDOF 12
ENDMDL
MODEL 6
REMARK VINA RESULT:    -5.033      2.131      3.190
REMARK INTER + INTRA:          -9.120
REMARK INTER:                  -8.669
REMARK INTRA:                  -0.451
REMARK UNBOUND:                -0.556
REMARK SMILES CCCCCCCCCCCCCC(=O)[O-]
REMARK SMILES IDX 8 1 9 2 10 3 11 4 12 5 13 6 14 7 15 8 16 9 7 10 6 11 5 12
REMARK SMILES IDX 4 13 3 14 2 15 1 16
REMARK H PARENT
REMARK Flexibility Score: inf
ROOT
ATOM      1  C   UNL     1      20.875 -11.485  22.818  1.00  0.00     0.000 C 
ENDROOT
BRANCH   1   2
ATOM      2  C   UNL     1      20.728 -10.786  24.180  1.00  0.00     0.000 C 
BRANCH   2   3
ATOM      3  C   UNL     1      20.926  -9.262  24.091  1.00  0.00     0.000 C 
BRANCH   3   4
ATOM      4  C   UNL     1      20.815  -8.512  25.434  1.00  0.00     0.000 C 
BRANCH   4   5
ATOM      5  C   UNL     1      19.811  -7.341  25.450  1.00  0.00     0.006 C 
BRANCH   5   6
ATOM      6  C   UNL     1      19.943  -6.378  24.260  1.00  0.00     0.053 C 
BRANCH   6   7
ATOM      7  C   UNL     1      19.086  -5.161  24.425  1.00  0.00     0.041 C 
ATOM      8  O   UNL     1      19.604  -4.014  24.397  1.00  0.00    -0.550 OA
ATOM      9  O   UNL     1      17.721  -5.296  24.645  1.00  0.00    -0.550 OA
ENDBRANCH   6   7
ENDBRANCH   5   6
ENDBRANCH   4   5
ENDBRANCH   3   4
ENDBRANCH   2   3
ENDBRANCH   1   2
BRANCH   1  10
ATOM     10  C   UNL     1      22.159 -11.077  22.079  1.00  0.00     0.000 C 
BRANCH  10  11
ATOM     11  C   UNL     1      22.985 -12.293  21.620  1.00  0.00    -0.000 C 
BRANCH  11  12
ATOM     12  C   UNL     1      22.121 -13.377  20.955  1.00  0.00    -0.000 C 
BRANCH  12  13
ATOM     13  C   UNL     1      22.880 -14.695  20.742  1.00  0.00    -0.000 C 
BRANCH  13  14
ATOM     14  C   UNL     1      22.752 -15.174  19.291  1.00  0.00    -0.000 C 
BRANCH  14  15
ATOM     15  C   UNL     1      22.986 -16.685  19.187  1.00  0.00    -0.003 C 
ATOM     16  C   UNL     1      23.541 -17.249  20.492  1.00  0.00     0.004 C 
ENDBRANCH  14  15
ENDBRANCH  13  14
ENDBRANCH  12  13
ENDBRANCH  11  12
ENDBRANCH  10  11
ENDBRANCH   1  10
TORSDOF 12
ENDMDL
MODEL 7
REMARK VINA RESULT:    -5.010      4.591      9.563
REMARK INTER + INTRA:          -9.081
REMARK INTER:                  -8.522
REMARK INTRA:                  -0.559
REMARK UNBOUND:                -0.556
REMARK SMILES CCCCCCCCCCCCCC(=O)[O-]
REMARK SMILES IDX 8 1 9 2 10 3 11 4 12 5 13 6 14 7 15 8 16 9 7 10 6 11 5 12
REMARK SMILES IDX 4 13 3 14 2 15 1 16
REMARK H PARENT
REMARK Flexibility Score: inf
ROOT
ATOM      1  C   UNL     1      20.579 -11.579  22.639  1.00  0.00     0.000 C 
ENDROOT
BRANCH   1   2
ATOM      2  C   UNL     1      20.889 -12.652  21.582  1.00  0.00     0.000 C 
BRANCH   2   3
ATOM      3  C   UNL     1      22.396 -12.793  21.303  1.00  0.00     0.000 C 
BRANCH   3   4
ATOM      4  C   UNL     1      22.874 -14.235  21.029  1.00  0.00     0.000 C 
BRANCH   4   5
ATOM      5  C   UNL     1      22.403 -14.837  19.690  1.00  0.00     0.006 C 
BRANCH   5   6
ATOM      6  C   UNL     1      23.029 -16.200  19.353  1.00  0.00     0.053 C 
BRANCH   6   7
ATOM      7  C   UNL     1      22.979 -16.492  17.885  1.00  0.00     0.041 C 
ATOM      8  O   UNL     1      23.121 -17.672  17.470  1.00  0.00    -0.550 OA
ATOM      9  O   UNL     1      22.810 -15.457  16.975  1.00  0.00    -0.550 OA
ENDBRANCH   6   7
ENDBRANCH   5   6
ENDBRANCH   4   5
ENDBRANCH   3   4
ENDBRANCH   2   3
ENDBRANCH   1   2
BRANCH   1  10
ATOM     10  C   UNL     1      21.836 -10.837  23.118  1.00  0.00     0.000 C 
BRANCH  10  11
ATOM     11  C   UNL     1      21.805  -9.339  22.766  1.00  0.00    -0.000 C 
BRANCH  11  12
ATOM     12  C   UNL     1      21.788  -8.440  24.014  1.00  0.00    -0.000 C 
BRANCH  12  13
ATOM     13  C   UNL     1      20.588  -8.720  24.932  1.00  0.00    -0.000 C 
BRANCH  13  14
ATOM     14  C   UNL     1      20.181  -7.460  25.704  1.00  0.00    -0.000 C 
BRANCH  14  15
ATOM     15  C   UNL     1      19.260  -6.571  24.861  1.00  0.00    -0.003 C 
ATOM     16  C   UNL     1      19.961  -5.277  24.456  1.00  0.00     0.004 C 
ENDBRANCH  14  15
ENDBRANCH  13  14
ENDBRANCH  12  13
ENDBRANCH  11  12
ENDBRANCH  10  11
ENDBRANCH   1  10
TORSDOF 12
ENDMDL
MODEL 8
REMARK VINA RESULT:    -4.815      2.762      5.314
REMARK INTER + INTRA:          -8.750
REMARK INTER:                  -8.224
REMARK INTRA:                  -0.526
REMARK UNBOUND:                -0.556
REMARK SMILES CCCCCCCCCCCCCC(=O)[O-]
REMARK SMILES IDX 8 1 9 2 10 3 11 4 12 5 13 6 14 7 15 8 16 9 7 10 6 11 5 12
REMARK SMILES IDX 4 13 3 14 2 15 1 16
REMARK H PARENT
REMARK Flexibility Score: inf
ROOT
ATOM      1  C   UNL     1      23.108 -17.360  17.995  1.00  0.00     0.000 C 
ENDROOT
BRANCH   1   2
ATOM      2  C   UNL     1      23.123 -16.685  19.376  1.00  0.00     0.000 C 
BRANCH   2   3
ATOM      3  C   UNL     1      22.729 -15.199  19.315  1.00  0.00     0.000 C 
BRANCH   3   4
ATOM      4  C   UNL     1      22.773 -14.458  20.669  1.00  0.00     0.000 C 
BRANCH   4   5
ATOM      5  C   UNL     1      21.700 -13.366  20.853  1.00  0.00     0.006 C 
BRANCH   5   6
ATOM      6  C   UNL     1      22.197 -12.105  21.577  1.00  0.00     0.053 C 
BRANCH   6   7
ATOM      7  C   UNL     1      21.154 -11.532  22.486  1.00  0.00     0.041 C 
ATOM      8  O   UNL     1      20.001 -12.037  22.523  1.00  0.00    -0.550 OA
ATOM      9  O   UNL     1      21.446 -10.420  23.266  1.00  0.00    -0.550 OA
ENDBRANCH   6   7
ENDBRANCH   5   6
ENDBRANCH   4   5
ENDBRANCH   3   4
ENDBRANCH   2   3
ENDBRANCH   1   2
BRANCH   1  10
ATOM     10  C   UNL     1      24.004 -18.607  17.935  1.00  0.00     0.000 C 
BRANCH  10  11
ATOM     11  C   UNL     1      23.217 -19.882  17.581  1.00  0.00    -0.000 C 
BRANCH  11  12
ATOM     12  C   UNL     1      21.712 -19.616  17.406  1.00  0.00    -0.000 C 
BRANCH  12  13
ATOM     13  C   UNL     1      21.133 -20.282  16.148  1.00  0.00    -0.000 C 
BRANCH  13  14
ATOM     14  C   UNL     1      19.693 -20.749  16.388  1.00  0.00    -0.000 C 
BRANCH  14  15
ATOM     15  C   UNL     1      19.428 -20.972  17.881  1.00  0.00    -0.003 C 
ATOM     16  C   UNL     1      19.332 -22.460  18.208  1.00  0.00     0.004 C 
ENDBRANCH  14  15
ENDBRANCH  13  14
ENDBRANCH  12  13
ENDBRANCH  11  12
ENDBRANCH  10  11
ENDBRANCH   1  10
TORSDOF 12
ENDMDL
MODEL 9
REMARK VINA RESULT:    -4.741      4.091      9.771
REMARK INTER + INTRA:          -8.622
REMARK INTER:                  -7.731
REMARK INTRA:                  -0.891
REMARK UNBOUND:                -0.556
REMARK SMILES CCCCCCCCCCCCCC(=O)[O-]
REMARK SMILES IDX 8 1 9 2 10 3 11 4 12 5 13 6 14 7 15 8 16 9 7 10 6 11 5 12
REMARK SMILES IDX 4 13 3 14 2 15 1 16
REMARK H PARENT
REMARK Flexibility Score: inf
ROOT
ATOM      1  C   UNL     1      20.416  -8.425  25.423  1.00  0.00     0.000 C 
ENDROOT
BRANCH   1   2
ATOM      2  C   UNL     1      20.844  -9.500  24.410  1.00  0.00     0.000 C 
BRANCH   2   3
ATOM      3  C   UNL     1      21.611  -8.916  23.211  1.00  0.00     0.000 C 
BRANCH   3   4
ATOM      4  C   UNL     1      22.449  -9.938  22.413  1.00  0.00     0.000 C 
BRANCH   4   5
ATOM      5  C   UNL     1      21.863 -11.363  22.359  1.00  0.00     0.006 C 
BRANCH   5   6
ATOM      6  C   UNL     1      22.798 -12.408  21.729  1.00  0.00     0.053 C 
BRANCH   6   7
ATOM      7  C   UNL     1      22.046 -13.413  20.912  1.00  0.00     0.041 C 
ATOM      8  O   UNL     1      20.829 -13.229  20.645  1.00  0.00    -0.550 OA
ATOM      9  O   UNL     1      22.680 -14.569  20.475  1.00  0.00    -0.550 OA
ENDBRANCH   6   7
ENDBRANCH   5   6
ENDBRANCH   4   5
ENDBRANCH   3   4
ENDBRANCH   2   3
ENDBRANCH   1   2
BRANCH   1  10
ATOM     10  C   UNL     1      21.423  -7.268  25.520  1.00  0.00     0.000 C 
BRANCH  10  11
ATOM     11  C   UNL     1      20.741  -5.889  25.464  1.00  0.00    -0.000 C 
BRANCH  11  12
ATOM     12  C   UNL     1      20.681  -5.318  24.038  1.00  0.00    -0.000 C 
BRANCH  12  13
ATOM     13  C   UNL     1      19.249  -5.249  23.486  1.00  0.00    -0.000 C 
BRANCH  13  14
ATOM     14  C   UNL     1      18.219  -5.451  24.603  1.00  0.00    -0.000 C 
BRANCH  14  15
ATOM     15  C   UNL     1      17.141  -4.362  24.563  1.00  0.00    -0.003 C 
ATOM     16  C   UNL     1      15.890  -4.796  25.320  1.00  0.00     0.004 C 
ENDBRANCH  14  15
ENDBRANCH  13  14
ENDBRANCH  12  13
ENDBRANCH  11  12
ENDBRANCH  10  11
ENDBRANCH   1  10
TORSDOF 12
ENDMDL
