MODEL 1
REMARK VINA RESULT:    -3.645      0.000      0.000
REMARK INTER + INTRA:          -4.578
REMARK INTER:                  -4.390
REMARK INTRA:                  -0.188
REMARK UNBOUND:                -0.188
REMARK SMILES C=CCc1ccc(O)c(OC)c1
REMARK SMILES IDX 9 1 7 2 6 3 5 4 4 5 12 6 10 7 11 8 8 9 3 11 2 12 1 13
REMARK H PARENT 8 10
REMARK Flexibility Score: inf
ROOT
ATOM      1  C   UNL     1      -3.379  24.142   9.423  1.00  0.00     0.160 A 
ATOM      2  C   UNL     1      -3.413  23.993   8.024  1.00  0.00     0.157 A 
ATOM      3  C   UNL     1      -4.537  23.436   7.407  1.00  0.00     0.050 A 
ATOM      4  C   UNL     1      -5.630  23.022   8.169  1.00  0.00     0.008 A 
ATOM      5  C   UNL     1      -5.609  23.153   9.565  1.00  0.00    -0.040 A 
ATOM      6  C   UNL     1      -4.485  23.721  10.188  1.00  0.00     0.054 A 
ENDROOT
BRANCH   1   7
ATOM      7  O   UNL     1      -2.239  24.711  10.016  1.00  0.00    -0.493 OA
ATOM      8  C   UNL     1      -1.962  24.695  11.413  1.00  0.00     0.278 C 
ENDBRANCH   1   7
BRANCH   2   9
ATOM      9  O   UNL     1      -2.339  24.396   7.230  1.00  0.00    -0.504 OA
ATOM     10  H   UNL     1      -2.452  24.647   6.256  1.00  0.00     0.293 HD
ENDBRANCH   2   9
BRANCH   5  11
ATOM     11  C   UNL     1      -6.802  22.734  10.381  1.00  0.00     0.062 C 
BRANCH  11  12
ATOM     12  C   UNL     1      -6.394  22.392  11.786  1.00  0.00    -0.030 C 
ATOM     13  C   UNL     1      -6.901  21.336  12.428  1.00  0.00     0.004 C 
ENDBRANCH  11  12
ENDBRANCH   5  11
TORSDOF 4
ENDMDL
MODEL 2
REMARK VINA RESULT:    -3.624      4.877      7.023
REMARK INTER + INTRA:          -4.554
REMARK INTER:                  -4.309
REMARK INTRA:                  -0.245
REMARK UNBOUND:                -0.188
REMARK SMILES C=CCc1ccc(O)c(OC)c1
REMARK SMILES IDX 9 1 7 2 6 3 5 4 4 5 12 6 10 7 11 8 8 9 3 11 2 12 1 13
REMARK H PARENT 8 10
REMARK Flexibility Score: inf
ROOT
ATOM      1  C   UNL     1      -8.597  22.540  14.935  1.00  0.00     0.160 A 
ATOM      2  C   UNL     1      -9.069  21.223  14.788  1.00  0.00     0.157 A 
ATOM      3  C   UNL     1      -8.725  20.478  13.656  1.00  0.00     0.050 A 
ATOM      4  C   UNL     1      -7.914  21.031  12.665  1.00  0.00     0.008 A 
ATOM      5  C   UNL     1      -7.443  22.346  12.789  1.00  0.00    -0.040 A 
ATOM      6  C   UNL     1      -7.780  23.095  13.929  1.00  0.00     0.054 A 
ENDROOT
BRANCH   1   7
ATOM      7  O   UNL     1      -8.953  23.264  16.084  1.00  0.00    -0.493 OA
ATOM      8  C   UNL     1      -8.033  23.719  17.071  1.00  0.00     0.278 C 
ENDBRANCH   1   7
BRANCH   2   9
ATOM      9  O   UNL     1      -9.881  20.637  15.759  1.00  0.00    -0.504 OA
ATOM     10  H   UNL     1     -10.889  20.592  15.665  1.00  0.00     0.293 HD
ENDBRANCH   2   9
BRANCH   5  11
ATOM     11  C   UNL     1      -6.544  22.929  11.732  1.00  0.00     0.062 C 
BRANCH  11  12
ATOM     12  C   UNL     1      -6.428  21.998  10.559  1.00  0.00    -0.030 C 
ATOM     13  C   UNL     1      -6.759  22.381   9.322  1.00  0.00     0.004 C 
ENDBRANCH  11  12
ENDBRANCH   5  11
TORSDOF 4
ENDMDL
MODEL 3
REMARK VINA RESULT:    -3.470      1.139      2.601
REMARK INTER + INTRA:          -4.368
REMARK INTER:                  -4.146
REMARK INTRA:                  -0.222
REMARK UNBOUND:                -0.188
REMARK SMILES C=CCc1ccc(O)c(OC)c1
REMARK SMILES IDX 9 1 7 2 6 3 5 4 4 5 12 6 10 7 11 8 8 9 3 11 2 12 1 13
REMARK H PARENT 8 10
REMARK Flexibility Score: inf
ROOT
ATOM      1  C   UNL     1      -3.307  24.377   8.983  1.00  0.00     0.160 A 
ATOM      2  C   UNL     1      -2.844  24.724  10.266  1.00  0.00     0.157 A 
ATOM      3  C   UNL     1      -3.581  24.364  11.397  1.00  0.00     0.050 A 
ATOM      4  C   UNL     1      -4.779  23.661  11.267  1.00  0.00     0.008 A 
ATOM      5  C   UNL     1      -5.261  23.316   9.996  1.00  0.00    -0.040 A 
ATOM      6  C   UNL     1      -4.518  23.668   8.857  1.00  0.00     0.054 A 
ENDROOT
BRANCH   1   7
ATOM      7  O   UNL     1      -2.543  24.746   7.864  1.00  0.00    -0.493 OA
ATOM      8  C   UNL     1      -2.705  24.201   6.559  1.00  0.00     0.278 C 
ENDBRANCH   1   7
BRANCH   2   9
ATOM      9  O   UNL     1      -1.651  25.427  10.435  1.00  0.00    -0.504 OA
ATOM     10  H   UNL     1      -1.573  26.215  11.066  1.00  0.00     0.293 HD
ENDBRANCH   2   9
BRANCH   5  11
ATOM     11  C   UNL     1      -6.538  22.530   9.860  1.00  0.00     0.062 C 
BRANCH  11  12
ATOM     12  C   UNL     1      -6.872  21.830  11.147  1.00  0.00    -0.030 C 
ATOM     13  C   UNL     1      -8.100  21.872  11.672  1.00  0.00     0.004 C 
ENDBRANCH  11  12
ENDBRANCH   5  11
TORSDOF 4
ENDMDL
MODEL 4
REMARK VINA RESULT:    -3.387      1.423      3.095
REMARK INTER + INTRA:          -4.268
REMARK INTER:                  -4.080
REMARK INTRA:                  -0.188
REMARK UNBOUND:                -0.188
REMARK SMILES C=CCc1ccc(O)c(OC)c1
REMARK SMILES IDX 9 1 7 2 6 3 5 4 4 5 12 6 10 7 11 8 8 9 3 11 2 12 1 13
REMARK H PARENT 8 10
REMARK Flexibility Score: inf
ROOT
ATOM      1  C   UNL     1      -3.336  24.351   8.919  1.00  0.00     0.160 A 
ATOM      2  C   UNL     1      -2.877  24.520  10.238  1.00  0.00     0.157 A 
ATOM      3  C   UNL     1      -3.655  24.079  11.313  1.00  0.00     0.050 A 
ATOM      4  C   UNL     1      -4.890  23.471  11.088  1.00  0.00     0.008 A 
ATOM      5  C   UNL     1      -5.368  23.303   9.781  1.00  0.00    -0.040 A 
ATOM      6  C   UNL     1      -4.585  23.737   8.699  1.00  0.00     0.054 A 
ENDROOT
BRANCH   1   7
ATOM      7  O   UNL     1      -2.531  24.798   7.858  1.00  0.00    -0.493 OA
ATOM      8  C   UNL     1      -2.565  24.266   6.538  1.00  0.00     0.278 C 
ENDBRANCH   1   7
BRANCH   2   9
ATOM      9  O   UNL     1      -1.647  25.125  10.501  1.00  0.00    -0.504 OA
ATOM     10  H   UNL     1      -0.830  24.959   9.926  1.00  0.00     0.293 HD
ENDBRANCH   2   9
BRANCH   5  11
ATOM     11  C   UNL     1      -6.687  22.618   9.542  1.00  0.00     0.062 C 
BRANCH  11  12
ATOM     12  C   UNL     1      -6.805  22.172   8.112  1.00  0.00    -0.030 C 
ATOM     13  C   UNL     1      -7.991  22.037   7.512  1.00  0.00     0.004 C 
ENDBRANCH  11  12
ENDBRANCH   5  11
TORSDOF 4
ENDMDL
MODEL 5
REMARK VINA RESULT:    -3.353      4.538      6.577
REMARK INTER + INTRA:          -4.227
REMARK INTER:                  -3.969
REMARK INTRA:                  -0.258
REMARK UNBOUND:                -0.188
REMARK SMILES C=CCc1ccc(O)c(OC)c1
REMARK SMILES IDX 9 1 7 2 6 3 5 4 4 5 12 6 10 7 11 8 8 9 3 11 2 12 1 13
REMARK H PARENT 8 10
REMARK Flexibility Score: inf
ROOT
ATOM      1  C   UNL     1      -9.294  21.166  11.869  1.00  0.00     0.160 A 
ATOM      2  C   UNL     1      -8.232  20.873  12.743  1.00  0.00     0.157 A 
ATOM      3  C   UNL     1      -6.932  21.280  12.427  1.00  0.00     0.050 A 
ATOM      4  C   UNL     1      -6.677  21.975  11.245  1.00  0.00     0.008 A 
ATOM      5  C   UNL     1      -7.722  22.266  10.356  1.00  0.00    -0.040 A 
ATOM      6  C   UNL     1      -9.030  21.867  10.675  1.00  0.00     0.054 A 
ENDROOT
BRANCH   1   7
ATOM      7  O   UNL     1     -10.591  20.750  12.214  1.00  0.00    -0.493 OA
ATOM      8  C   UNL     1     -11.622  21.618  12.673  1.00  0.00     0.278 C 
ENDBRANCH   1   7
BRANCH   2   9
ATOM      9  O   UNL     1      -8.449  20.180  13.934  1.00  0.00    -0.504 OA
ATOM     10  H   UNL     1      -9.378  19.946  14.261  1.00  0.00     0.293 HD
ENDBRANCH   2   9
BRANCH   5  11
ATOM     11  C   UNL     1      -7.448  23.044   9.096  1.00  0.00     0.062 C 
BRANCH  11  12
ATOM     12  C   UNL     1      -6.333  22.411   8.312  1.00  0.00    -0.030 C 
ATOM     13  C   UNL     1      -6.566  21.709   7.200  1.00  0.00     0.004 C 
ENDBRANCH  11  12
ENDBRANCH   5  11
TORSDOF 4
ENDMDL
MODEL 6
REMARK VINA RESULT:    -3.306      1.220      2.915
REMARK INTER + INTRA:          -4.170
REMARK INTER:                  -3.945
REMARK INTRA:                  -0.225
REMARK UNBOUND:                -0.188
REMARK SMILES C=CCc1ccc(O)c(OC)c1
REMARK SMILES IDX 9 1 7 2 6 3 5 4 4 5 12 6 10 7 11 8 8 9 3 11 2 12 1 13
REMARK H PARENT 8 10
REMARK Flexibility Score: inf
ROOT
ATOM      1  C   UNL     1      -4.504  23.240   7.129  1.00  0.00     0.160 A 
ATOM      2  C   UNL     1      -3.404  23.870   7.739  1.00  0.00     0.157 A 
ATOM      3  C   UNL     1      -3.408  24.109   9.117  1.00  0.00     0.050 A 
ATOM      4  C   UNL     1      -4.500  23.728   9.897  1.00  0.00     0.008 A 
ATOM      5  C   UNL     1      -5.611  23.108   9.304  1.00  0.00    -0.040 A 
ATOM      6  C   UNL     1      -5.606  22.860   7.922  1.00  0.00     0.054 A 
ENDROOT
BRANCH   1   7
ATOM      7  O   UNL     1      -4.470  23.007   5.745  1.00  0.00    -0.493 OA
ATOM      8  C   UNL     1      -3.946  21.832   5.135  1.00  0.00     0.278 C 
ENDBRANCH   1   7
BRANCH   2   9
ATOM      9  O   UNL     1      -2.294  24.264   6.991  1.00  0.00    -0.504 OA
ATOM     10  H   UNL     1      -1.651  23.596   6.586  1.00  0.00     0.293 HD
ENDBRANCH   2   9
BRANCH   5  11
ATOM     11  C   UNL     1      -6.774  22.672  10.154  1.00  0.00     0.062 C 
BRANCH  11  12
ATOM     12  C   UNL     1      -6.364  22.544  11.594  1.00  0.00    -0.030 C 
ATOM     13  C   UNL     1      -6.741  21.503  12.342  1.00  0.00     0.004 C 
ENDBRANCH  11  12
ENDBRANCH   5  11
TORSDOF 4
ENDMDL
MODEL 7
REMARK VINA RESULT:    -3.293      1.095      1.502
REMARK INTER + INTRA:          -4.155
REMARK INTER:                  -3.932
REMARK INTRA:                  -0.223
REMARK UNBOUND:                -0.188
REMARK SMILES C=CCc1ccc(O)c(OC)c1
REMARK SMILES IDX 9 1 7 2 6 3 5 4 4 5 12 6 10 7 11 8 8 9 3 11 2 12 1 13
REMARK H PARENT 8 10
REMARK Flexibility Score: inf
ROOT
ATOM      1  C   UNL     1      -3.988  23.942   9.604  1.00  0.00     0.160 A 
ATOM      2  C   UNL     1      -4.680  23.597   8.428  1.00  0.00     0.157 A 
ATOM      3  C   UNL     1      -5.921  22.959   8.507  1.00  0.00     0.050 A 
ATOM      4  C   UNL     1      -6.483  22.657   9.747  1.00  0.00     0.008 A 
ATOM      5  C   UNL     1      -5.803  22.983  10.930  1.00  0.00    -0.040 A 
ATOM      6  C   UNL     1      -4.560  23.632  10.854  1.00  0.00     0.054 A 
ENDROOT
BRANCH   1   7
ATOM      7  O   UNL     1      -2.746  24.588   9.495  1.00  0.00    -0.493 OA
ATOM      8  C   UNL     1      -2.507  25.945   9.853  1.00  0.00     0.278 C 
ENDBRANCH   1   7
BRANCH   2   9
ATOM      9  O   UNL     1      -4.149  23.884   7.169  1.00  0.00    -0.504 OA
ATOM     10  H   UNL     1      -3.668  23.187   6.615  1.00  0.00     0.293 HD
ENDBRANCH   2   9
BRANCH   5  11
ATOM     11  C   UNL     1      -6.426  22.683  12.267  1.00  0.00     0.062 C 
BRANCH  11  12
ATOM     12  C   UNL     1      -6.883  21.253  12.333  1.00  0.00    -0.030 C 
ATOM     13  C   UNL     1      -8.022  20.906  12.939  1.00  0.00     0.004 C 
ENDBRANCH  11  12
ENDBRANCH   5  11
TORSDOF 4
ENDMDL
MODEL 8
REMARK VINA RESULT:    -3.199      2.734      4.254
REMARK INTER + INTRA:          -4.042
REMARK INTER:                  -3.808
REMARK INTRA:                  -0.234
REMARK UNBOUND:                -0.188
REMARK SMILES C=CCc1ccc(O)c(OC)c1
REMARK SMILES IDX 9 1 7 2 6 3 5 4 4 5 12 6 10 7 11 8 8 9 3 11 2 12 1 13
REMARK H PARENT 8 10
REMARK Flexibility Score: inf
ROOT
ATOM      1  C   UNL     1      -6.403  22.340  11.151  1.00  0.00     0.160 A 
ATOM      2  C   UNL     1      -7.308  22.492  10.084  1.00  0.00     0.157 A 
ATOM      3  C   UNL     1      -8.628  22.049  10.216  1.00  0.00     0.050 A 
ATOM      4  C   UNL     1      -9.058  21.453  11.402  1.00  0.00     0.008 A 
ATOM      5  C   UNL     1      -8.167  21.283  12.472  1.00  0.00    -0.040 A 
ATOM      6  C   UNL     1      -6.843  21.735  12.345  1.00  0.00     0.054 A 
ENDROOT
BRANCH   1   7
ATOM      7  O   UNL     1      -5.086  22.800  10.992  1.00  0.00    -0.493 OA
ATOM      8  C   UNL     1      -4.655  24.129  11.265  1.00  0.00     0.278 C 
ENDBRANCH   1   7
BRANCH   2   9
ATOM      9  O   UNL     1      -6.914  23.084   8.884  1.00  0.00    -0.504 OA
ATOM     10  H   UNL     1      -6.040  22.852   8.428  1.00  0.00     0.293 HD
ENDBRANCH   2   9
BRANCH   5  11
ATOM     11  C   UNL     1      -8.642  20.667  13.760  1.00  0.00     0.062 C 
BRANCH  11  12
ATOM     12  C   UNL     1      -9.409  21.667  14.578  1.00  0.00    -0.030 C 
ATOM     13  C   UNL     1      -8.803  22.470  15.457  1.00  0.00     0.004 C 
ENDBRANCH  11  12
ENDBRANCH   5  11
TORSDOF 4
ENDMDL
