MODEL 1
REMARK VINA RESULT:    -5.109      0.000      0.000
REMARK INTER + INTRA:         -11.631
REMARK INTER:                  -8.992
REMARK INTRA:                  -2.639
REMARK UNBOUND:                -2.639
REMARK SMILES CCCCCCC=CCCCCCCCC(=O)[O-]
REMARK SMILES IDX 10 1 11 2 12 3 13 4 14 5 15 6 16 7 17 8 18 9 9 10 8 11 7 12
REMARK SMILES IDX 6 13 5 14 4 15 3 16 2 17 1 18
REMARK H PARENT
REMARK Flexibility Score: inf
ROOT
ATOM      1  C   UNL     1      44.344   9.777  -8.466  1.00  0.00     0.004 C 
ENDROOT
BRANCH   1   2
ATOM      2  C   UNL     1      45.457   9.145  -9.308  1.00  0.00     0.000 C 
BRANCH   2   3
ATOM      3  C   UNL     1      46.590   8.618  -8.421  1.00  0.00     0.000 C 
BRANCH   3   4
ATOM      4  C   UNL     1      47.875   9.433  -8.629  1.00  0.00     0.000 C 
BRANCH   4   5
ATOM      5  C   UNL     1      48.992   9.035  -7.651  1.00  0.00     0.006 C 
BRANCH   5   6
ATOM      6  C   UNL     1      50.025  10.152  -7.450  1.00  0.00     0.053 C 
BRANCH   6   7
ATOM      7  C   UNL     1      50.298  10.355  -5.994  1.00  0.00     0.041 C 
ATOM      8  O   UNL     1      50.414   9.364  -5.226  1.00  0.00    -0.550 OA
ATOM      9  O   UNL     1      50.381  11.641  -5.474  1.00  0.00    -0.550 OA
ENDBRANCH   6   7
ENDBRANCH   5   6
ENDBRANCH   4   5
ENDBRANCH   3   4
ENDBRANCH   2   3
ENDBRANCH   1   2
BRANCH   1  10
ATOM     10  C   UNL     1      43.997  11.180  -8.976  1.00  0.00     0.027 C 
BRANCH  10  11
ATOM     11  C   UNL     1      45.184  11.844  -9.627  1.00  0.00    -0.031 C 
ATOM     12  C   UNL     1      46.024  12.705  -9.021  1.00  0.00    -0.031 C 
BRANCH  12  13
ATOM     13  C   UNL     1      45.911  13.181  -7.591  1.00  0.00     0.027 C 
BRANCH  13  14
ATOM     14  C   UNL     1      46.700  12.284  -6.621  1.00  0.00     0.004 C 
BRANCH  14  15
ATOM     15  C   UNL     1      45.937  11.890  -5.344  1.00  0.00     0.000 C 
BRANCH  15  16
ATOM     16  C   UNL     1      45.793  10.367  -5.178  1.00  0.00    -0.000 C 
BRANCH  16  17
ATOM     17  C   UNL     1      47.002   9.736  -4.469  1.00  0.00    -0.003 C 
ATOM     18  C   UNL     1      47.042   8.215  -4.611  1.00  0.00     0.004 C 
ENDBRANCH  16  17
ENDBRANCH  15  16
ENDBRANCH  14  15
ENDBRANCH  13  14
ENDBRANCH  12  13
ENDBRANCH  10  11
ENDBRANCH   1  10
TORSDOF 13
ENDMDL
MODEL 2
REMARK VINA RESULT:    -5.092     17.980     20.012
REMARK INTER + INTRA:         -11.600
REMARK INTER:                  -8.897
REMARK INTRA:                  -2.703
REMARK UNBOUND:                -2.639
REMARK SMILES CCCCCCC=CCCCCCCCC(=O)[O-]
REMARK SMILES IDX 10 1 11 2 12 3 13 4 14 5 15 6 16 7 17 8 18 9 9 10 8 11 7 12
REMARK SMILES IDX 6 13 5 14 4 15 3 16 2 17 1 18
REMARK H PARENT
REMARK Flexibility Score: inf
ROOT
ATOM      1  C   UNL     1      37.321   3.755   6.124  1.00  0.00     0.004 C 
ENDROOT
BRANCH   1   2
ATOM      2  C   UNL     1      37.885   2.396   5.695  1.00  0.00     0.000 C 
BRANCH   2   3
ATOM      3  C   UNL     1      38.140   1.496   6.910  1.00  0.00     0.000 C 
BRANCH   3   4
ATOM      4  C   UNL     1      37.338   0.191   6.805  1.00  0.00     0.000 C 
BRANCH   4   5
ATOM      5  C   UNL     1      36.616   0.047   5.455  1.00  0.00     0.006 C 
BRANCH   5   6
ATOM      6  C   UNL     1      35.315  -0.757   5.565  1.00  0.00     0.053 C 
BRANCH   6   7
ATOM      7  C   UNL     1      34.913  -1.287   4.225  1.00  0.00     0.041 C 
ATOM      8  O   UNL     1      35.457  -0.843   3.179  1.00  0.00    -0.550 OA
ATOM      9  O   UNL     1      33.905  -2.238   4.125  1.00  0.00    -0.550 OA
ENDBRANCH   6   7
ENDBRANCH   5   6
ENDBRANCH   4   5
ENDBRANCH   3   4
ENDBRANCH   2   3
ENDBRANCH   1   2
BRANCH   1  10
ATOM     10  C   UNL     1      37.432   3.943   7.641  1.00  0.00     0.027 C 
BRANCH  10  11
ATOM     11  C   UNL     1      36.246   4.689   8.198  1.00  0.00    -0.031 C 
ATOM     12  C   UNL     1      35.057   4.139   8.514  1.00  0.00    -0.031 C 
BRANCH  12  13
ATOM     13  C   UNL     1      34.692   2.683   8.342  1.00  0.00     0.027 C 
BRANCH  13  14
ATOM     14  C   UNL     1      33.894   2.438   7.050  1.00  0.00     0.004 C 
BRANCH  14  15
ATOM     15  C   UNL     1      33.315   3.708   6.402  1.00  0.00     0.000 C 
BRANCH  15  16
ATOM     16  C   UNL     1      33.545   3.764   4.881  1.00  0.00    -0.000 C 
BRANCH  16  17
ATOM     17  C   UNL     1      34.127   2.454   4.327  1.00  0.00    -0.003 C 
ATOM     18  C   UNL     1      35.090   2.683   3.162  1.00  0.00     0.004 C 
ENDBRANCH  16  17
ENDBRANCH  15  16
ENDBRANCH  14  15
ENDBRANCH  13  14
ENDBRANCH  12  13
ENDBRANCH  10  11
ENDBRANCH   1  10
TORSDOF 13
ENDMDL
MODEL 3
REMARK VINA RESULT:    -5.053     16.894     19.378
REMARK INTER + INTRA:         -11.533
REMARK INTER:                  -9.024
REMARK INTRA:                  -2.508
REMARK UNBOUND:                -2.639
REMARK SMILES CCCCCCC=CCCCCCCCC(=O)[O-]
REMARK SMILES IDX 10 1 11 2 12 3 13 4 14 5 15 6 16 7 17 8 18 9 9 10 8 11 7 12
REMARK SMILES IDX 6 13 5 14 4 15 3 16 2 17 1 18
REMARK H PARENT
REMARK Flexibility Score: inf
ROOT
ATOM      1  C   UNL     1      34.845  -0.645   3.840  1.00  0.00     0.004 C 
ENDROOT
BRANCH   1   2
ATOM      2  C   UNL     1      34.424   0.712   3.266  1.00  0.00     0.000 C 
BRANCH   2   3
ATOM      3  C   UNL     1      34.266   1.756   4.377  1.00  0.00     0.000 C 
BRANCH   3   4
ATOM      4  C   UNL     1      33.553   3.012   3.855  1.00  0.00     0.000 C 
BRANCH   4   5
ATOM      5  C   UNL     1      33.106   3.952   4.986  1.00  0.00     0.006 C 
BRANCH   5   6
ATOM      6  C   UNL     1      33.645   3.523   6.357  1.00  0.00     0.053 C 
BRANCH   6   7
ATOM      7  C   UNL     1      34.312   4.673   7.041  1.00  0.00     0.041 C 
ATOM      8  O   UNL     1      34.837   4.518   8.175  1.00  0.00    -0.550 OA
ATOM      9  O   UNL     1      34.316   5.929   6.447  1.00  0.00    -0.550 OA
ENDBRANCH   6   7
ENDBRANCH   5   6
ENDBRANCH   4   5
ENDBRANCH   3   4
ENDBRANCH   2   3
ENDBRANCH   1   2
BRANCH   1  10
ATOM     10  C   UNL     1      35.047  -0.562   5.357  1.00  0.00     0.027 C 
BRANCH  10  11
ATOM     11  C   UNL     1      36.494  -0.758   5.737  1.00  0.00    -0.031 C 
ATOM     12  C   UNL     1      37.216   0.075   6.510  1.00  0.00    -0.031 C 
BRANCH  12  13
ATOM     13  C   UNL     1      36.714   1.368   7.113  1.00  0.00     0.027 C 
BRANCH  13  14
ATOM     14  C   UNL     1      37.281   2.600   6.386  1.00  0.00     0.004 C 
BRANCH  14  15
ATOM     15  C   UNL     1      38.740   2.454   5.917  1.00  0.00     0.000 C 
BRANCH  15  16
ATOM     16  C   UNL     1      38.946   2.893   4.456  1.00  0.00    -0.000 C 
BRANCH  16  17
ATOM     17  C   UNL     1      37.810   2.422   3.535  1.00  0.00    -0.003 C 
ATOM     18  C   UNL     1      38.109   1.079   2.869  1.00  0.00     0.004 C 
ENDBRANCH  16  17
ENDBRANCH  15  16
ENDBRANCH  14  15
ENDBRANCH  13  14
ENDBRANCH  12  13
ENDBRANCH  10  11
ENDBRANCH   1  10
TORSDOF 13
ENDMDL
MODEL 4
REMARK VINA RESULT:    -5.046     17.347     19.981
REMARK INTER + INTRA:         -11.520
REMARK INTER:                  -9.243
REMARK INTRA:                  -2.278
REMARK UNBOUND:                -2.639
REMARK SMILES CCCCCCC=CCCCCCCCC(=O)[O-]
REMARK SMILES IDX 10 1 11 2 12 3 13 4 14 5 15 6 16 7 17 8 18 9 9 10 8 11 7 12
REMARK SMILES IDX 6 13 5 14 4 15 3 16 2 17 1 18
REMARK H PARENT
REMARK Flexibility Score: inf
ROOT
ATOM      1  C   UNL     1      37.582   0.743   6.867  1.00  0.00     0.004 C 
ENDROOT
BRANCH   1   2
ATOM      2  C   UNL     1      36.757   1.987   7.211  1.00  0.00     0.000 C 
BRANCH   2   3
ATOM      3  C   UNL     1      37.568   3.268   6.985  1.00  0.00     0.000 C 
BRANCH   3   4
ATOM      4  C   UNL     1      37.052   4.410   7.873  1.00  0.00     0.000 C 
BRANCH   4   5
ATOM      5  C   UNL     1      35.566   4.251   8.234  1.00  0.00     0.006 C 
BRANCH   5   6
ATOM      6  C   UNL     1      34.634   4.830   7.162  1.00  0.00     0.053 C 
BRANCH   6   7
ATOM      7  C   UNL     1      33.641   3.802   6.723  1.00  0.00     0.041 C 
ATOM      8  O   UNL     1      33.063   3.914   5.609  1.00  0.00    -0.550 OA
ATOM      9  O   UNL     1      33.318   2.741   7.560  1.00  0.00    -0.550 OA
ENDBRANCH   6   7
ENDBRANCH   5   6
ENDBRANCH   4   5
ENDBRANCH   3   4
ENDBRANCH   2   3
ENDBRANCH   1   2
BRANCH   1  10
ATOM     10  C   UNL     1      36.679  -0.405   6.401  1.00  0.00     0.027 C 
BRANCH  10  11
ATOM     11  C   UNL     1      35.220  -0.042   6.506  1.00  0.00    -0.031 C 
ATOM     12  C   UNL     1      34.284  -0.297   5.571  1.00  0.00    -0.031 C 
BRANCH  12  13
ATOM     13  C   UNL     1      34.534  -0.968   4.240  1.00  0.00     0.027 C 
BRANCH  13  14
ATOM     14  C   UNL     1      34.858   0.050   3.133  1.00  0.00     0.004 C 
BRANCH  14  15
ATOM     15  C   UNL     1      34.494   1.507   3.475  1.00  0.00     0.000 C 
BRANCH  15  16
ATOM     16  C   UNL     1      35.726   2.425   3.566  1.00  0.00    -0.000 C 
BRANCH  16  17
ATOM     17  C   UNL     1      37.041   1.672   3.314  1.00  0.00    -0.003 C 
ATOM     18  C   UNL     1      38.274   2.549   3.531  1.00  0.00     0.004 C 
ENDBRANCH  16  17
ENDBRANCH  15  16
ENDBRANCH  14  15
ENDBRANCH  13  14
ENDBRANCH  12  13
ENDBRANCH  10  11
ENDBRANCH   1  10
TORSDOF 13
ENDMDL
MODEL 5
REMARK VINA RESULT:    -4.998     15.992     18.387
REMARK INTER + INTRA:         -11.435
REMARK INTER:                  -9.037
REMARK INTRA:                  -2.398
REMARK UNBOUND:                -2.639
REMARK SMILES CCCCCCC=CCCCCCCCC(=O)[O-]
REMARK SMILES IDX 10 1 11 2 12 3 13 4 14 5 15 6 16 7 17 8 18 9 9 10 8 11 7 12
REMARK SMILES IDX 6 13 5 14 4 15 3 16 2 17 1 18
REMARK H PARENT
REMARK Flexibility Score: inf
ROOT
ATOM      1  C   UNL     1      36.139  -0.722   5.832  1.00  0.00     0.004 C 
ENDROOT
BRANCH   1   2
ATOM      2  C   UNL     1      37.133   0.177   6.576  1.00  0.00     0.000 C 
BRANCH   2   3
ATOM      3  C   UNL     1      36.488   1.514   6.959  1.00  0.00     0.000 C 
BRANCH   3   4
ATOM      4  C   UNL     1      37.420   2.689   6.627  1.00  0.00     0.000 C 
BRANCH   4   5
ATOM      5  C   UNL     1      38.621   2.266   5.767  1.00  0.00     0.006 C 
BRANCH   5   6
ATOM      6  C   UNL     1      38.815   3.167   4.541  1.00  0.00     0.053 C 
BRANCH   6   7
ATOM      7  C   UNL     1      40.133   2.890   3.891  1.00  0.00     0.041 C 
ATOM      8  O   UNL     1      41.197   2.963   4.561  1.00  0.00    -0.550 OA
ATOM      9  O   UNL     1      40.193   2.594   2.535  1.00  0.00    -0.550 OA
ENDBRANCH   6   7
ENDBRANCH   5   6
ENDBRANCH   4   5
ENDBRANCH   3   4
ENDBRANCH   2   3
ENDBRANCH   1   2
BRANCH   1  10
ATOM     10  C   UNL     1      36.363  -0.654   4.317  1.00  0.00     0.027 C 
BRANCH  10  11
ATOM     11  C   UNL     1      35.080  -0.371   3.578  1.00  0.00    -0.031 C 
ATOM     12  C   UNL     1      34.688   0.839   3.132  1.00  0.00    -0.031 C 
BRANCH  12  13
ATOM     13  C   UNL     1      35.451   2.131   3.319  1.00  0.00     0.027 C 
BRANCH  13  14
ATOM     14  C   UNL     1      34.555   3.254   3.870  1.00  0.00     0.004 C 
BRANCH  14  15
ATOM     15  C   UNL     1      33.607   2.821   5.003  1.00  0.00     0.000 C 
BRANCH  15  16
ATOM     16  C   UNL     1      33.563   3.830   6.164  1.00  0.00    -0.000 C 
BRANCH  16  17
ATOM     17  C   UNL     1      34.461   5.052   5.917  1.00  0.00    -0.003 C 
ATOM     18  C   UNL     1      35.128   5.563   7.193  1.00  0.00     0.004 C 
ENDBRANCH  16  17
ENDBRANCH  15  16
ENDBRANCH  14  15
ENDBRANCH  13  14
ENDBRANCH  12  13
ENDBRANCH  10  11
ENDBRANCH   1  10
TORSDOF 13
ENDMDL
MODEL 6
REMARK VINA RESULT:    -4.997     16.954     19.400
REMARK INTER + INTRA:         -11.433
REMARK INTER:                  -9.061
REMARK INTRA:                  -2.372
REMARK UNBOUND:                -2.639
REMARK SMILES CCCCCCC=CCCCCCCCC(=O)[O-]
REMARK SMILES IDX 10 1 11 2 12 3 13 4 14 5 15 6 16 7 17 8 18 9 9 10 8 11 7 12
REMARK SMILES IDX 6 13 5 14 4 15 3 16 2 17 1 18
REMARK H PARENT
REMARK Flexibility Score: inf
ROOT
ATOM      1  C   UNL     1      33.659   3.715   7.233  1.00  0.00     0.004 C 
ENDROOT
BRANCH   1   2
ATOM      2  C   UNL     1      34.116   4.015   5.801  1.00  0.00     0.000 C 
BRANCH   2   3
ATOM      3  C   UNL     1      33.104   3.489   4.777  1.00  0.00     0.000 C 
BRANCH   3   4
ATOM      4  C   UNL     1      33.818   2.878   3.563  1.00  0.00     0.000 C 
BRANCH   4   5
ATOM      5  C   UNL     1      35.290   3.311   3.462  1.00  0.00     0.006 C 
BRANCH   5   6
ATOM      6  C   UNL     1      35.531   4.322   2.334  1.00  0.00     0.053 C 
BRANCH   6   7
ATOM      7  C   UNL     1      36.478   5.389   2.781  1.00  0.00     0.041 C 
ATOM      8  O   UNL     1      36.430   5.824   3.962  1.00  0.00    -0.550 OA
ATOM      9  O   UNL     1      37.386   5.936   1.883  1.00  0.00    -0.550 OA
ENDBRANCH   6   7
ENDBRANCH   5   6
ENDBRANCH   4   5
ENDBRANCH   3   4
ENDBRANCH   2   3
ENDBRANCH   1   2
BRANCH   1  10
ATOM     10  C   UNL     1      34.597   2.710   7.911  1.00  0.00     0.027 C 
BRANCH  10  11
ATOM     11  C   UNL     1      33.850   1.496   8.402  1.00  0.00    -0.031 C 
ATOM     12  C   UNL     1      33.571   0.403   7.666  1.00  0.00    -0.031 C 
BRANCH  12  13
ATOM     13  C   UNL     1      33.930   0.211   6.210  1.00  0.00     0.027 C 
BRANCH  13  14
ATOM     14  C   UNL     1      35.302  -0.466   6.040  1.00  0.00     0.004 C 
BRANCH  14  15
ATOM     15  C   UNL     1      36.461   0.500   5.734  1.00  0.00     0.000 C 
BRANCH  15  16
ATOM     16  C   UNL     1      37.616   0.388   6.745  1.00  0.00    -0.000 C 
BRANCH  16  17
ATOM     17  C   UNL     1      38.246   1.751   7.071  1.00  0.00    -0.003 C 
ATOM     18  C   UNL     1      37.844   2.840   6.077  1.00  0.00     0.004 C 
ENDBRANCH  16  17
ENDBRANCH  15  16
ENDBRANCH  14  15
ENDBRANCH  13  14
ENDBRANCH  12  13
ENDBRANCH  10  11
ENDBRANCH   1  10
TORSDOF 13
ENDMDL
MODEL 7
REMARK VINA RESULT:    -4.993     16.247     18.682
REMARK INTER + INTRA:         -11.427
REMARK INTER:                  -8.835
REMARK INTRA:                  -2.592
REMARK UNBOUND:                -2.639
REMARK SMILES CCCCCCC=CCCCCCCCC(=O)[O-]
REMARK SMILES IDX 10 1 11 2 12 3 13 4 14 5 15 6 16 7 17 8 18 9 9 10 8 11 7 12
REMARK SMILES IDX 6 13 5 14 4 15 3 16 2 17 1 18
REMARK H PARENT
REMARK Flexibility Score: inf
ROOT
ATOM      1  C   UNL     1      36.299  -0.095   6.532  1.00  0.00     0.004 C 
ENDROOT
BRANCH   1   2
ATOM      2  C   UNL     1      37.654   0.586   6.753  1.00  0.00     0.000 C 
BRANCH   2   3
ATOM      3  C   UNL     1      37.490   2.100   6.928  1.00  0.00     0.000 C 
BRANCH   3   4
ATOM      4  C   UNL     1      38.114   2.861   5.749  1.00  0.00     0.000 C 
BRANCH   4   5
ATOM      5  C   UNL     1      37.157   3.900   5.142  1.00  0.00     0.006 C 
BRANCH   5   6
ATOM      6  C   UNL     1      37.267   3.982   3.615  1.00  0.00     0.053 C 
BRANCH   6   7
ATOM      7  C   UNL     1      37.188   5.404   3.160  1.00  0.00     0.041 C 
ATOM      8  O   UNL     1      36.547   5.702   2.118  1.00  0.00    -0.550 OA
ATOM      9  O   UNL     1      37.860   6.398   3.861  1.00  0.00    -0.550 OA
ENDBRANCH   6   7
ENDBRANCH   5   6
ENDBRANCH   4   5
ENDBRANCH   3   4
ENDBRANCH   2   3
ENDBRANCH   1   2
BRANCH   1  10
ATOM     10  C   UNL     1      36.336  -1.009   5.303  1.00  0.00     0.027 C 
BRANCH  10  11
ATOM     11  C   UNL     1      36.903  -0.300   4.099  1.00  0.00    -0.031 C 
ATOM     12  C   UNL     1      36.185   0.379   3.184  1.00  0.00    -0.031 C 
BRANCH  12  13
ATOM     13  C   UNL     1      34.681   0.527   3.184  1.00  0.00     0.027 C 
BRANCH  13  14
ATOM     14  C   UNL     1      34.243   1.958   3.540  1.00  0.00     0.004 C 
BRANCH  14  15
ATOM     15  C   UNL     1      33.797   2.149   5.001  1.00  0.00     0.000 C 
BRANCH  15  16
ATOM     16  C   UNL     1      33.474   3.615   5.342  1.00  0.00    -0.000 C 
BRANCH  16  17
ATOM     17  C   UNL     1      33.631   3.919   6.839  1.00  0.00    -0.003 C 
ATOM     18  C   UNL     1      33.921   2.668   7.668  1.00  0.00     0.004 C 
ENDBRANCH  16  17
ENDBRANCH  15  16
ENDBRANCH  14  15
ENDBRANCH  13  14
ENDBRANCH  12  13
ENDBRANCH  10  11
ENDBRANCH   1  10
TORSDOF 13
ENDMDL
MODEL 8
REMARK VINA RESULT:    -4.992      2.722      5.300
REMARK INTER + INTRA:         -11.424
REMARK INTER:                  -8.878
REMARK INTRA:                  -2.546
REMARK UNBOUND:                -2.639
REMARK SMILES CCCCCCC=CCCCCCCCC(=O)[O-]
REMARK SMILES IDX 10 1 11 2 12 3 13 4 14 5 15 6 16 7 17 8 18 9 9 10 8 11 7 12
REMARK SMILES IDX 6 13 5 14 4 15 3 16 2 17 1 18
REMARK H PARENT
REMARK Flexibility Score: inf
ROOT
ATOM      1  C   UNL     1      49.542  11.470  -5.194  1.00  0.00     0.004 C 
ENDROOT
BRANCH   1   2
ATOM      2  C   UNL     1      48.103  11.961  -5.008  1.00  0.00     0.000 C 
BRANCH   2   3
ATOM      3  C   UNL     1      47.321  11.892  -6.325  1.00  0.00     0.000 C 
BRANCH   3   4
ATOM      4  C   UNL     1      46.196  12.937  -6.352  1.00  0.00     0.000 C 
BRANCH   4   5
ATOM      5  C   UNL     1      45.614  13.143  -7.759  1.00  0.00     0.006 C 
BRANCH   5   6
ATOM      6  C   UNL     1      46.343  12.316  -8.826  1.00  0.00     0.053 C 
BRANCH   6   7
ATOM      7  C   UNL     1      45.360  11.606  -9.700  1.00  0.00     0.041 C 
ATOM      8  O   UNL     1      44.129  11.649  -9.434  1.00  0.00    -0.550 OA
ATOM      9  O   UNL     1      45.803  10.859 -10.785  1.00  0.00    -0.550 OA
ENDBRANCH   6   7
ENDBRANCH   5   6
ENDBRANCH   4   5
ENDBRANCH   3   4
ENDBRANCH   2   3
ENDBRANCH   1   2
BRANCH   1  10
ATOM     10  C   UNL     1      49.788  11.022  -6.640  1.00  0.00     0.027 C 
BRANCH  10  11
ATOM     11  C   UNL     1      49.978   9.529  -6.734  1.00  0.00    -0.031 C 
ATOM     12  C   UNL     1      49.288   8.705  -7.546  1.00  0.00    -0.031 C 
BRANCH  12  13
ATOM     13  C   UNL     1      48.181   9.125  -8.485  1.00  0.00     0.027 C 
BRANCH  13  14
ATOM     14  C   UNL     1      46.846   8.440  -8.145  1.00  0.00     0.004 C 
BRANCH  14  15
ATOM     15  C   UNL     1      46.740   7.921  -6.700  1.00  0.00     0.000 C 
BRANCH  15  16
ATOM     16  C   UNL     1      45.534   8.504  -5.941  1.00  0.00    -0.000 C 
BRANCH  16  17
ATOM     17  C   UNL     1      44.628   9.355  -6.843  1.00  0.00    -0.003 C 
ATOM     18  C   UNL     1      43.672  10.244  -6.048  1.00  0.00     0.004 C 
ENDBRANCH  16  17
ENDBRANCH  15  16
ENDBRANCH  14  15
ENDBRANCH  13  14
ENDBRANCH  12  13
ENDBRANCH  10  11
ENDBRANCH   1  10
TORSDOF 13
ENDMDL
MODEL 9
REMARK VINA RESULT:    -4.974     16.395     18.787
REMARK INTER + INTRA:         -11.392
REMARK INTER:                  -9.047
REMARK INTRA:                  -2.345
REMARK UNBOUND:                -2.639
REMARK SMILES CCCCCCC=CCCCCCCCC(=O)[O-]
REMARK SMILES IDX 10 1 11 2 12 3 13 4 14 5 15 6 16 7 17 8 18 9 9 10 8 11 7 12
REMARK SMILES IDX 6 13 5 14 4 15 3 16 2 17 1 18
REMARK H PARENT
REMARK Flexibility Score: inf
ROOT
ATOM      1  C   UNL     1      33.826   4.295   6.856  1.00  0.00     0.004 C 
ENDROOT
BRANCH   1   2
ATOM      2  C   UNL     1      33.283   3.814   5.506  1.00  0.00     0.000 C 
BRANCH   2   3
ATOM      3  C   UNL     1      33.914   2.476   5.102  1.00  0.00     0.000 C 
BRANCH   3   4
ATOM      4  C   UNL     1      34.391   2.513   3.643  1.00  0.00     0.000 C 
BRANCH   4   5
ATOM      5  C   UNL     1      35.910   2.711   3.522  1.00  0.00     0.006 C 
BRANCH   5   6
ATOM      6  C   UNL     1      36.303   4.187   3.382  1.00  0.00     0.053 C 
BRANCH   6   7
ATOM      7  C   UNL     1      36.676   4.497   1.968  1.00  0.00     0.041 C 
ATOM      8  O   UNL     1      35.794   4.857   1.145  1.00  0.00    -0.550 OA
ATOM      9  O   UNL     1      37.991   4.347   1.545  1.00  0.00    -0.550 OA
ENDBRANCH   6   7
ENDBRANCH   5   6
ENDBRANCH   4   5
ENDBRANCH   3   4
ENDBRANCH   2   3
ENDBRANCH   1   2
BRANCH   1  10
ATOM     10  C   UNL     1      35.068   5.173   6.667  1.00  0.00     0.027 C 
BRANCH  10  11
ATOM     11  C   UNL     1      35.980   5.111   7.867  1.00  0.00    -0.031 C 
ATOM     12  C   UNL     1      37.007   4.253   8.021  1.00  0.00    -0.031 C 
BRANCH  12  13
ATOM     13  C   UNL     1      37.410   3.181   7.034  1.00  0.00     0.027 C 
BRANCH  13  14
ATOM     14  C   UNL     1      36.702   1.844   7.313  1.00  0.00     0.004 C 
BRANCH  14  15
ATOM     15  C   UNL     1      37.347   0.622   6.635  1.00  0.00     0.000 C 
BRANCH  15  16
ATOM     16  C   UNL     1      36.320  -0.454   6.238  1.00  0.00    -0.000 C 
BRANCH  16  17
ATOM     17  C   UNL     1      36.382  -0.804   4.744  1.00  0.00    -0.003 C 
ATOM     18  C   UNL     1      35.018  -1.185   4.170  1.00  0.00     0.004 C 
ENDBRANCH  16  17
ENDBRANCH  15  16
ENDBRANCH  14  15
ENDBRANCH  13  14
ENDBRANCH  12  13
ENDBRANCH  10  11
ENDBRANCH   1  10
TORSDOF 13
ENDMDL
