MODEL 1
REMARK VINA RESULT:    -5.838      0.000      0.000
REMARK INTER + INTRA:          -6.671
REMARK INTER:                  -6.520
REMARK INTRA:                  -0.151
REMARK UNBOUND:                -0.151
REMARK SMILES COc1cc2ccc(=O)oc2cc1OC
REMARK SMILES IDX 3 1 13 2 12 3 11 4 5 5 4 6 6 7 7 8 8 9 9 10 10 11 2 12 1 13
REMARK SMILES IDX 14 14 15 15
REMARK H PARENT
REMARK Flexibility Score: inf
ROOT
ATOM      1  C   UNL     1     133.792   5.445  94.224  1.00  0.00     0.161 A 
ATOM      2  C   UNL     1     133.049   4.453  93.562  1.00  0.00     0.164 A 
ATOM      3  C   UNL     1     133.547   3.137  93.488  1.00  0.00     0.098 A 
ATOM      4  C   UNL     1     134.775   2.812  94.070  1.00  0.00     0.142 A 
ATOM      5  C   UNL     1     135.521   3.806  94.735  1.00  0.00     0.022 A 
ATOM      6  C   UNL     1     135.030   5.116  94.811  1.00  0.00     0.062 A 
ATOM      7  C   UNL     1     136.746   3.449  95.308  1.00  0.00     0.019 A 
ATOM      8  C   UNL     1     137.192   2.132  95.206  1.00  0.00     0.094 A 
ATOM      9  C   UNL     1     136.398   1.199  94.531  1.00  0.00     0.336 A 
ATOM     10  O   UNL     1     136.782   0.004  94.428  1.00  0.00    -0.246 OA
ATOM     11  O   UNL     1     135.236   1.565  93.996  1.00  0.00    -0.423 OA
ENDROOT
BRANCH   1  12
ATOM     12  O   UNL     1     133.266   6.745  94.278  1.00  0.00    -0.493 OA
ATOM     13  C   UNL     1     132.553   7.282  95.387  1.00  0.00     0.278 C 
ENDBRANCH   1  12
BRANCH   2  14
ATOM     14  O   UNL     1     131.819   4.815  92.989  1.00  0.00    -0.493 OA
ATOM     15  C   UNL     1     130.556   4.299  93.396  1.00  0.00     0.278 C 
ENDBRANCH   2  14
TORSDOF 2
ENDMDL
MODEL 2
REMARK VINA RESULT:    -5.461      1.485      2.280
REMARK INTER + INTRA:          -6.251
REMARK INTER:                  -6.126
REMARK INTRA:                  -0.124
REMARK UNBOUND:                -0.151
REMARK SMILES COc1cc2ccc(=O)oc2cc1OC
REMARK SMILES IDX 3 1 13 2 12 3 11 4 5 5 4 6 6 7 7 8 8 9 9 10 10 11 2 12 1 13
REMARK SMILES IDX 14 14 15 15
REMARK H PARENT
REMARK Flexibility Score: inf
ROOT
ATOM      1  C   UNL     1     135.574   5.864  95.029  1.00  0.00     0.161 A 
ATOM      2  C   UNL     1     134.307   5.656  94.460  1.00  0.00     0.164 A 
ATOM      3  C   UNL     1     133.867   4.346  94.187  1.00  0.00     0.098 A 
ATOM      4  C   UNL     1     134.685   3.251  94.479  1.00  0.00     0.142 A 
ATOM      5  C   UNL     1     135.957   3.459  95.050  1.00  0.00     0.022 A 
ATOM      6  C   UNL     1     136.398   4.759  95.324  1.00  0.00     0.062 A 
ATOM      7  C   UNL     1     136.751   2.341  95.332  1.00  0.00     0.019 A 
ATOM      8  C   UNL     1     136.269   1.067  95.041  1.00  0.00     0.094 A 
ATOM      9  C   UNL     1     134.996   0.937  94.475  1.00  0.00     0.336 A 
ATOM     10  O   UNL     1     134.541  -0.205  94.205  1.00  0.00    -0.246 OA
ATOM     11  O   UNL     1     134.261   2.016  94.218  1.00  0.00    -0.423 OA
ENDROOT
BRANCH   1  12
ATOM     12  O   UNL     1     135.979   7.183  95.289  1.00  0.00    -0.493 OA
ATOM     13  C   UNL     1     137.290   7.685  95.060  1.00  0.00     0.278 C 
ENDBRANCH   1  12
BRANCH   2  14
ATOM     14  O   UNL     1     133.511   6.779  94.181  1.00  0.00    -0.493 OA
ATOM     15  C   UNL     1     132.379   7.178  94.946  1.00  0.00     0.278 C 
ENDBRANCH   2  14
TORSDOF 2
ENDMDL
MODEL 3
REMARK VINA RESULT:    -5.374      2.211      3.757
REMARK INTER + INTRA:          -6.153
REMARK INTER:                  -6.021
REMARK INTRA:                  -0.133
REMARK UNBOUND:                -0.151
REMARK SMILES COc1cc2ccc(=O)oc2cc1OC
REMARK SMILES IDX 3 1 13 2 12 3 11 4 5 5 4 6 6 7 7 8 8 9 9 10 10 11 2 12 1 13
REMARK SMILES IDX 14 14 15 15
REMARK H PARENT
REMARK Flexibility Score: inf
ROOT
ATOM      1  C   UNL     1     132.853   1.417  93.001  1.00  0.00     0.161 A 
ATOM      2  C   UNL     1     132.419   2.746  93.136  1.00  0.00     0.164 A 
ATOM      3  C   UNL     1     133.241   3.690  93.783  1.00  0.00     0.098 A 
ATOM      4  C   UNL     1     134.487   3.311  94.290  1.00  0.00     0.142 A 
ATOM      5  C   UNL     1     134.923   1.978  94.155  1.00  0.00     0.022 A 
ATOM      6  C   UNL     1     134.110   1.036  93.513  1.00  0.00     0.062 A 
ATOM      7  C   UNL     1     136.176   1.631  94.674  1.00  0.00     0.019 A 
ATOM      8  C   UNL     1     136.950   2.603  95.305  1.00  0.00     0.094 A 
ATOM      9  C   UNL     1     136.452   3.907  95.402  1.00  0.00     0.336 A 
ATOM     10  O   UNL     1     137.134   4.801  95.967  1.00  0.00    -0.246 OA
ATOM     11  O   UNL     1     135.257   4.210  94.900  1.00  0.00    -0.423 OA
ENDROOT
BRANCH   1  12
ATOM     12  O   UNL     1     132.008   0.504  92.351  1.00  0.00    -0.493 OA
ATOM     13  C   UNL     1     132.158   0.086  90.999  1.00  0.00     0.278 C 
ENDBRANCH   1  12
BRANCH   2  14
ATOM     14  O   UNL     1     131.162   3.091  92.614  1.00  0.00    -0.493 OA
ATOM     15  C   UNL     1     130.067   3.567  93.390  1.00  0.00     0.278 C 
ENDBRANCH   2  14
TORSDOF 2
ENDMDL
MODEL 4
REMARK VINA RESULT:    -5.367      2.075      4.440
REMARK INTER + INTRA:          -6.145
REMARK INTER:                  -6.018
REMARK INTRA:                  -0.127
REMARK UNBOUND:                -0.151
REMARK SMILES COc1cc2ccc(=O)oc2cc1OC
REMARK SMILES IDX 3 1 13 2 12 3 11 4 5 5 4 6 6 7 7 8 8 9 9 10 10 11 2 12 1 13
REMARK SMILES IDX 14 14 15 15
REMARK H PARENT
REMARK Flexibility Score: inf
ROOT
ATOM      1  C   UNL     1     134.316   0.891  94.262  1.00  0.00     0.161 A 
ATOM      2  C   UNL     1     133.405   1.715  93.580  1.00  0.00     0.164 A 
ATOM      3  C   UNL     1     133.561   3.114  93.618  1.00  0.00     0.098 A 
ATOM      4  C   UNL     1     134.617   3.689  94.330  1.00  0.00     0.142 A 
ATOM      5  C   UNL     1     135.532   2.863  95.015  1.00  0.00     0.022 A 
ATOM      6  C   UNL     1     135.381   1.471  94.980  1.00  0.00     0.062 A 
ATOM      7  C   UNL     1     136.579   3.469  95.718  1.00  0.00     0.019 A 
ATOM      8  C   UNL     1     136.687   4.859  95.723  1.00  0.00     0.094 A 
ATOM      9  C   UNL     1     135.742   5.614  95.020  1.00  0.00     0.336 A 
ATOM     10  O   UNL     1     135.821   6.871  95.012  1.00  0.00    -0.246 OA
ATOM     11  O   UNL     1     134.756   5.012  94.359  1.00  0.00    -0.423 OA
ENDROOT
BRANCH   1  12
ATOM     12  O   UNL     1     134.131  -0.499  94.202  1.00  0.00    -0.493 OA
ATOM     13  C   UNL     1     134.088  -1.358  95.336  1.00  0.00     0.278 C 
ENDBRANCH   1  12
BRANCH   2  14
ATOM     14  O   UNL     1     132.356   1.103  92.874  1.00  0.00    -0.493 OA
ATOM     15  C   UNL     1     132.341   0.901  91.464  1.00  0.00     0.278 C 
ENDBRANCH   2  14
TORSDOF 2
ENDMDL
MODEL 5
REMARK VINA RESULT:    -5.187      1.495      2.832
REMARK INTER + INTRA:          -5.944
REMARK INTER:                  -5.781
REMARK INTRA:                  -0.163
REMARK UNBOUND:                -0.151
REMARK SMILES COc1cc2ccc(=O)oc2cc1OC
REMARK SMILES IDX 3 1 13 2 12 3 11 4 5 5 4 6 6 7 7 8 8 9 9 10 10 11 2 12 1 13
REMARK SMILES IDX 14 14 15 15
REMARK H PARENT
REMARK Flexibility Score: inf
ROOT
ATOM      1  C   UNL     1     133.309   4.013  93.686  1.00  0.00     0.161 A 
ATOM      2  C   UNL     1     134.618   4.426  93.983  1.00  0.00     0.164 A 
ATOM      3  C   UNL     1     135.580   3.476  94.378  1.00  0.00     0.098 A 
ATOM      4  C   UNL     1     135.240   2.125  94.477  1.00  0.00     0.142 A 
ATOM      5  C   UNL     1     133.926   1.709  94.180  1.00  0.00     0.022 A 
ATOM      6  C   UNL     1     132.966   2.650  93.786  1.00  0.00     0.062 A 
ATOM      7  C   UNL     1     133.617   0.349  94.288  1.00  0.00     0.019 A 
ATOM      8  C   UNL     1     134.606  -0.549  94.684  1.00  0.00     0.094 A 
ATOM      9  C   UNL     1     135.889  -0.065  94.963  1.00  0.00     0.336 A 
ATOM     10  O   UNL     1     136.797  -0.859  95.321  1.00  0.00    -0.246 OA
ATOM     11  O   UNL     1     136.156   1.234  94.851  1.00  0.00    -0.423 OA
ENDROOT
BRANCH   1  12
ATOM     12  O   UNL     1     132.376   4.987  93.294  1.00  0.00    -0.493 OA
ATOM     13  C   UNL     1     131.308   5.457  94.109  1.00  0.00     0.278 C 
ENDBRANCH   1  12
BRANCH   2  14
ATOM     14  O   UNL     1     134.926   5.792  93.872  1.00  0.00    -0.493 OA
ATOM     15  C   UNL     1     134.991   6.697  94.970  1.00  0.00     0.278 C 
ENDBRANCH   2  14
TORSDOF 2
ENDMDL
MODEL 6
REMARK VINA RESULT:    -5.182      2.074      5.129
REMARK INTER + INTRA:          -5.939
REMARK INTER:                  -5.832
REMARK INTRA:                  -0.108
REMARK UNBOUND:                -0.151
REMARK SMILES COc1cc2ccc(=O)oc2cc1OC
REMARK SMILES IDX 3 1 13 2 12 3 11 4 5 5 4 6 6 7 7 8 8 9 9 10 10 11 2 12 1 13
REMARK SMILES IDX 14 14 15 15
REMARK H PARENT
REMARK Flexibility Score: inf
ROOT
ATOM      1  C   UNL     1     133.789   1.164  93.873  1.00  0.00     0.161 A 
ATOM      2  C   UNL     1     134.963   1.030  94.632  1.00  0.00     0.164 A 
ATOM      3  C   UNL     1     135.682   2.178  95.019  1.00  0.00     0.098 A 
ATOM      4  C   UNL     1     135.235   3.449  94.651  1.00  0.00     0.142 A 
ATOM      5  C   UNL     1     134.057   3.585  93.888  1.00  0.00     0.022 A 
ATOM      6  C   UNL     1     133.338   2.447  93.502  1.00  0.00     0.062 A 
ATOM      7  C   UNL     1     133.635   4.872  93.536  1.00  0.00     0.019 A 
ATOM      8  C   UNL     1     134.385   5.974  93.944  1.00  0.00     0.094 A 
ATOM      9  C   UNL     1     135.543   5.763  94.700  1.00  0.00     0.336 A 
ATOM     10  O   UNL     1     136.235   6.745  95.079  1.00  0.00    -0.246 OA
ATOM     11  O   UNL     1     135.922   4.529  95.021  1.00  0.00    -0.423 OA
ENDROOT
BRANCH   1  12
ATOM     12  O   UNL     1     133.097  -0.001  93.506  1.00  0.00    -0.493 OA
ATOM     13  C   UNL     1     132.341  -0.149  92.309  1.00  0.00     0.278 C 
ENDBRANCH   1  12
BRANCH   2  14
ATOM     14  O   UNL     1     135.382  -0.263  94.985  1.00  0.00    -0.493 OA
ATOM     15  C   UNL     1     136.743  -0.674  95.075  1.00  0.00     0.278 C 
ENDBRANCH   2  14
TORSDOF 2
ENDMDL
MODEL 7
REMARK VINA RESULT:    -5.169      1.285      2.815
REMARK INTER + INTRA:          -5.925
REMARK INTER:                  -5.808
REMARK INTRA:                  -0.117
REMARK UNBOUND:                -0.151
REMARK SMILES COc1cc2ccc(=O)oc2cc1OC
REMARK SMILES IDX 3 1 13 2 12 3 11 4 5 5 4 6 6 7 7 8 8 9 9 10 10 11 2 12 1 13
REMARK SMILES IDX 14 14 15 15
REMARK H PARENT
REMARK Flexibility Score: inf
ROOT
ATOM      1  C   UNL     1     132.132   4.932  93.597  1.00  0.00     0.161 A 
ATOM      2  C   UNL     1     133.004   5.918  94.089  1.00  0.00     0.164 A 
ATOM      3  C   UNL     1     134.294   5.558  94.525  1.00  0.00     0.098 A 
ATOM      4  C   UNL     1     134.712   4.226  94.472  1.00  0.00     0.142 A 
ATOM      5  C   UNL     1     133.838   3.236  93.979  1.00  0.00     0.022 A 
ATOM      6  C   UNL     1     132.555   3.588  93.544  1.00  0.00     0.062 A 
ATOM      7  C   UNL     1     134.287   1.911  93.938  1.00  0.00     0.019 A 
ATOM      8  C   UNL     1     135.573   1.609  94.383  1.00  0.00     0.094 A 
ATOM      9  C   UNL     1     136.385   2.644  94.860  1.00  0.00     0.336 A 
ATOM     10  O   UNL     1     137.550   2.394  95.266  1.00  0.00    -0.246 OA
ATOM     11  O   UNL     1     135.934   3.896  94.887  1.00  0.00    -0.423 OA
ENDROOT
BRANCH   1  12
ATOM     12  O   UNL     1     130.854   5.326  93.170  1.00  0.00    -0.493 OA
ATOM     13  C   UNL     1     129.868   4.442  92.648  1.00  0.00     0.278 C 
ENDBRANCH   1  12
BRANCH   2  14
ATOM     14  O   UNL     1     132.551   7.246  94.127  1.00  0.00    -0.493 OA
ATOM     15  C   UNL     1     132.283   7.974  95.321  1.00  0.00     0.278 C 
ENDBRANCH   2  14
TORSDOF 2
ENDMDL
MODEL 8
REMARK VINA RESULT:    -5.077      2.127      3.642
REMARK INTER + INTRA:          -5.822
REMARK INTER:                  -5.701
REMARK INTRA:                  -0.120
REMARK UNBOUND:                -0.151
REMARK SMILES COc1cc2ccc(=O)oc2cc1OC
REMARK SMILES IDX 3 1 13 2 12 3 11 4 5 5 4 6 6 7 7 8 8 9 9 10 10 11 2 12 1 13
REMARK SMILES IDX 14 14 15 15
REMARK H PARENT
REMARK Flexibility Score: inf
ROOT
ATOM      1  C   UNL     1     131.835   1.589  93.038  1.00  0.00     0.161 A 
ATOM      2  C   UNL     1     132.173   2.952  93.016  1.00  0.00     0.164 A 
ATOM      3  C   UNL     1     133.434   3.370  93.483  1.00  0.00     0.098 A 
ATOM      4  C   UNL     1     134.353   2.436  93.969  1.00  0.00     0.142 A 
ATOM      5  C   UNL     1     134.015   1.067  93.992  1.00  0.00     0.022 A 
ATOM      6  C   UNL     1     132.762   0.647  93.528  1.00  0.00     0.062 A 
ATOM      7  C   UNL     1     134.957   0.156  94.484  1.00  0.00     0.019 A 
ATOM      8  C   UNL     1     136.190   0.623  94.934  1.00  0.00     0.094 A 
ATOM      9  C   UNL     1     136.456   1.996  94.881  1.00  0.00     0.336 A 
ATOM     10  O   UNL     1     137.564   2.438  95.282  1.00  0.00    -0.246 OA
ATOM     11  O   UNL     1     135.543   2.840  94.408  1.00  0.00    -0.423 OA
ENDROOT
BRANCH   1  12
ATOM     12  O   UNL     1     130.570   1.209  92.564  1.00  0.00    -0.493 OA
ATOM     13  C   UNL     1     130.328   0.610  91.296  1.00  0.00     0.278 C 
ENDBRANCH   1  12
BRANCH   2  14
ATOM     14  O   UNL     1     131.226   3.864  92.521  1.00  0.00    -0.493 OA
ATOM     15  C   UNL     1     131.160   5.239  92.885  1.00  0.00     0.278 C 
ENDBRANCH   2  14
TORSDOF 2
ENDMDL
MODEL 9
REMARK VINA RESULT:    -5.063      2.513      4.521
REMARK INTER + INTRA:          -5.806
REMARK INTER:                  -5.688
REMARK INTRA:                  -0.118
REMARK UNBOUND:                -0.151
REMARK SMILES COc1cc2ccc(=O)oc2cc1OC
REMARK SMILES IDX 3 1 13 2 12 3 11 4 5 5 4 6 6 7 7 8 8 9 9 10 10 11 2 12 1 13
REMARK SMILES IDX 14 14 15 15
REMARK H PARENT
REMARK Flexibility Score: inf
ROOT
ATOM      1  C   UNL     1     134.926   2.976  94.286  1.00  0.00     0.161 A 
ATOM      2  C   UNL     1     134.062   3.955  93.767  1.00  0.00     0.164 A 
ATOM      3  C   UNL     1     132.859   3.568  93.144  1.00  0.00     0.098 A 
ATOM      4  C   UNL     1     132.519   2.217  93.040  1.00  0.00     0.142 A 
ATOM      5  C   UNL     1     133.385   1.234  93.561  1.00  0.00     0.022 A 
ATOM      6  C   UNL     1     134.582   1.613  94.181  1.00  0.00     0.062 A 
ATOM      7  C   UNL     1     133.016  -0.110  93.442  1.00  0.00     0.019 A 
ATOM      8  C   UNL     1     131.814  -0.438  92.816  1.00  0.00     0.094 A 
ATOM      9  C   UNL     1     131.005   0.591  92.323  1.00  0.00     0.336 A 
ATOM     10  O   UNL     1     129.915   0.317  91.755  1.00  0.00    -0.246 OA
ATOM     11  O   UNL     1     131.379   1.862  92.450  1.00  0.00    -0.423 OA
ENDROOT
BRANCH   1  12
ATOM     12  O   UNL     1     136.116   3.397  94.900  1.00  0.00    -0.493 OA
ATOM     13  C   UNL     1     137.188   2.534  95.262  1.00  0.00     0.278 C 
ENDBRANCH   1  12
BRANCH   2  14
ATOM     14  O   UNL     1     134.435   5.303  93.889  1.00  0.00    -0.493 OA
ATOM     15  C   UNL     1     133.801   6.241  94.753  1.00  0.00     0.278 C 
ENDBRANCH   2  14
TORSDOF 2
ENDMDL
