MODEL 1
REMARK VINA RESULT:    -4.241      0.000      0.000
REMARK INTER + INTRA:          -6.019
REMARK INTER:                  -5.729
REMARK INTRA:                  -0.290
REMARK UNBOUND:                -0.290
REMARK SMILES CCCCCCCC(=O)[O-]
REMARK SMILES IDX 5 1 6 2 7 3 8 4 9 5 10 6 4 7 3 8 2 9 1 10
REMARK H PARENT
REMARK Flexibility Score: inf
ROOT
ATOM      1  C   UNL     1       2.372 -37.467  18.199  1.00  0.00     0.000 C 
ENDROOT
BRANCH   1   2
ATOM      2  C   UNL     1       3.783 -37.072  18.653  1.00  0.00     0.006 C 
BRANCH   2   3
ATOM      3  C   UNL     1       3.861 -36.974  20.180  1.00  0.00     0.053 C 
BRANCH   3   4
ATOM      4  C   UNL     1       4.413 -35.645  20.591  1.00  0.00     0.041 C 
ATOM      5  O   UNL     1       5.121 -34.979  19.793  1.00  0.00    -0.550 OA
ATOM      6  O   UNL     1       4.184 -35.165  21.875  1.00  0.00    -0.550 OA
ENDBRANCH   3   4
ENDBRANCH   2   3
ENDBRANCH   1   2
BRANCH   1   7
ATOM      7  C   UNL     1       1.934 -36.644  16.982  1.00  0.00     0.000 C 
BRANCH   7   8
ATOM      8  C   UNL     1       3.151 -36.103  16.218  1.00  0.00    -0.000 C 
BRANCH   8   9
ATOM      9  C   UNL     1       3.065 -36.368  14.707  1.00  0.00    -0.003 C 
ATOM     10  C   UNL     1       4.115 -37.365  14.220  1.00  0.00     0.004 C 
ENDBRANCH   8   9
ENDBRANCH   7   8
ENDBRANCH   1   7
TORSDOF 6
ENDMDL
MODEL 2
REMARK VINA RESULT:    -3.947      1.219      1.479
REMARK INTER + INTRA:          -5.622
REMARK INTER:                  -5.443
REMARK INTRA:                  -0.179
REMARK UNBOUND:                -0.290
REMARK SMILES CCCCCCCC(=O)[O-]
REMARK SMILES IDX 5 1 6 2 7 3 8 4 9 5 10 6 4 7 3 8 2 9 1 10
REMARK H PARENT
REMARK Flexibility Score: inf
ROOT
ATOM      1  C   UNL     1       2.887 -37.195  18.560  1.00  0.00     0.000 C 
ENDROOT
BRANCH   1   2
ATOM      2  C   UNL     1       4.153 -37.320  19.417  1.00  0.00     0.006 C 
BRANCH   2   3
ATOM      3  C   UNL     1       4.330 -36.093  20.318  1.00  0.00     0.053 C 
BRANCH   3   4
ATOM      4  C   UNL     1       4.648 -36.513  21.718  1.00  0.00     0.041 C 
ATOM      5  O   UNL     1       4.741 -37.735  22.007  1.00  0.00    -0.550 OA
ATOM      6  O   UNL     1       4.793 -35.557  22.715  1.00  0.00    -0.550 OA
ENDBRANCH   3   4
ENDBRANCH   2   3
ENDBRANCH   1   2
BRANCH   1   7
ATOM      7  C   UNL     1       3.236 -37.131  17.069  1.00  0.00     0.000 C 
BRANCH   7   8
ATOM      8  C   UNL     1       2.151 -36.382  16.282  1.00  0.00    -0.000 C 
BRANCH   8   9
ATOM      9  C   UNL     1       2.505 -36.221  14.795  1.00  0.00    -0.003 C 
ATOM     10  C   UNL     1       3.718 -37.053  14.383  1.00  0.00     0.004 C 
ENDBRANCH   8   9
ENDBRANCH   7   8
ENDBRANCH   1   7
TORSDOF 6
ENDMDL
MODEL 3
REMARK VINA RESULT:    -3.934      3.182      5.330
REMARK INTER + INTRA:          -5.604
REMARK INTER:                  -5.351
REMARK INTRA:                  -0.253
REMARK UNBOUND:                -0.290
REMARK SMILES CCCCCCCC(=O)[O-]
REMARK SMILES IDX 5 1 6 2 7 3 8 4 9 5 10 6 4 7 3 8 2 9 1 10
REMARK H PARENT
REMARK Flexibility Score: inf
ROOT
ATOM      1  C   UNL     1       2.795 -37.430  18.823  1.00  0.00     0.000 C 
ENDROOT
BRANCH   1   2
ATOM      2  C   UNL     1       2.261 -37.103  17.423  1.00  0.00     0.006 C 
BRANCH   2   3
ATOM      3  C   UNL     1       3.308 -36.346  16.599  1.00  0.00     0.053 C 
BRANCH   3   4
ATOM      4  C   UNL     1       3.175 -36.683  15.147  1.00  0.00     0.041 C 
ATOM      5  O   UNL     1       2.246 -36.179  14.464  1.00  0.00    -0.550 OA
ATOM      6  O   UNL     1       4.048 -37.590  14.561  1.00  0.00    -0.550 OA
ENDBRANCH   3   4
ENDBRANCH   2   3
ENDBRANCH   1   2
BRANCH   1   7
ATOM      7  C   UNL     1       4.080 -36.649  19.119  1.00  0.00     0.000 C 
BRANCH   7   8
ATOM      8  C   UNL     1       4.985 -37.426  20.087  1.00  0.00    -0.000 C 
BRANCH   8   9
ATOM      9  C   UNL     1       5.125 -36.731  21.450  1.00  0.00    -0.003 C 
ATOM     10  C   UNL     1       4.338 -35.424  21.531  1.00  0.00     0.004 C 
ENDBRANCH   8   9
ENDBRANCH   7   8
ENDBRANCH   1   7
TORSDOF 6
ENDMDL
MODEL 4
REMARK VINA RESULT:    -3.889      2.932      5.781
REMARK INTER + INTRA:          -5.542
REMARK INTER:                  -5.381
REMARK INTRA:                  -0.161
REMARK UNBOUND:                -0.290
REMARK SMILES CCCCCCCC(=O)[O-]
REMARK SMILES IDX 5 1 6 2 7 3 8 4 9 5 10 6 4 7 3 8 2 9 1 10
REMARK H PARENT
REMARK Flexibility Score: inf
ROOT
ATOM      1  C   UNL     1       3.740 -36.975  20.022  1.00  0.00     0.000 C 
ENDROOT
BRANCH   1   2
ATOM      2  C   UNL     1       3.837 -36.896  18.493  1.00  0.00     0.006 C 
BRANCH   2   3
ATOM      3  C   UNL     1       2.498 -37.251  17.839  1.00  0.00     0.053 C 
BRANCH   3   4
ATOM      4  C   UNL     1       2.505 -36.870  16.392  1.00  0.00     0.041 C 
ATOM      5  O   UNL     1       1.638 -36.077  15.942  1.00  0.00    -0.550 OA
ATOM      6  O   UNL     1       3.440 -37.430  15.531  1.00  0.00    -0.550 OA
ENDBRANCH   3   4
ENDBRANCH   2   3
ENDBRANCH   1   2
BRANCH   1   7
ATOM      7  C   UNL     1       4.924 -36.261  20.686  1.00  0.00     0.000 C 
BRANCH   7   8
ATOM      8  C   UNL     1       5.009 -36.612  22.179  1.00  0.00    -0.000 C 
BRANCH   8   9
ATOM      9  C   UNL     1       4.921 -38.124  22.435  1.00  0.00    -0.003 C 
ATOM     10  C   UNL     1       5.124 -38.487  23.906  1.00  0.00     0.004 C 
ENDBRANCH   8   9
ENDBRANCH   7   8
ENDBRANCH   1   7
TORSDOF 6
ENDMDL
MODEL 5
REMARK VINA RESULT:    -3.784      2.851      5.543
REMARK INTER + INTRA:          -5.401
REMARK INTER:                  -5.199
REMARK INTRA:                  -0.202
REMARK UNBOUND:                -0.290
REMARK SMILES CCCCCCCC(=O)[O-]
REMARK SMILES IDX 5 1 6 2 7 3 8 4 9 5 10 6 4 7 3 8 2 9 1 10
REMARK H PARENT
REMARK Flexibility Score: inf
ROOT
ATOM      1  C   UNL     1       3.539 -37.490  20.057  1.00  0.00     0.000 C 
ENDROOT
BRANCH   1   2
ATOM      2  C   UNL     1       3.724 -37.096  18.586  1.00  0.00     0.006 C 
BRANCH   2   3
ATOM      3  C   UNL     1       2.480 -37.444  17.764  1.00  0.00     0.053 C 
BRANCH   3   4
ATOM      4  C   UNL     1       2.625 -36.947  16.360  1.00  0.00     0.041 C 
ATOM      5  O   UNL     1       3.510 -37.429  15.605  1.00  0.00    -0.550 OA
ATOM      6  O   UNL     1       1.815 -35.916  15.900  1.00  0.00    -0.550 OA
ENDBRANCH   3   4
ENDBRANCH   2   3
ENDBRANCH   1   2
BRANCH   1   7
ATOM      7  C   UNL     1       4.793 -37.164  20.877  1.00  0.00     0.000 C 
BRANCH   7   8
ATOM      8  C   UNL     1       4.977 -35.646  21.021  1.00  0.00    -0.000 C 
BRANCH   8   9
ATOM      9  C   UNL     1       5.121 -35.205  22.485  1.00  0.00    -0.003 C 
ATOM     10  C   UNL     1       5.125 -36.383  23.460  1.00  0.00     0.004 C 
ENDBRANCH   8   9
ENDBRANCH   7   8
ENDBRANCH   1   7
TORSDOF 6
ENDMDL
MODEL 6
REMARK VINA RESULT:    -2.819      3.293      6.499
REMARK INTER + INTRA:          -4.098
REMARK INTER:                  -3.851
REMARK INTRA:                  -0.247
REMARK UNBOUND:                -0.290
REMARK SMILES CCCCCCCC(=O)[O-]
REMARK SMILES IDX 5 1 6 2 7 3 8 4 9 5 10 6 4 7 3 8 2 9 1 10
REMARK H PARENT
REMARK Flexibility Score: inf
ROOT
ATOM      1  C   UNL     1       4.416 -37.593  22.249  1.00  0.00     0.000 C 
ENDROOT
BRANCH   1   2
ATOM      2  C   UNL     1       5.125 -37.319  20.917  1.00  0.00     0.006 C 
BRANCH   2   3
ATOM      3  C   UNL     1       4.170 -37.519  19.736  1.00  0.00     0.053 C 
BRANCH   3   4
ATOM      4  C   UNL     1       4.148 -36.299  18.869  1.00  0.00     0.041 C 
ATOM      5  O   UNL     1       3.587 -36.334  17.743  1.00  0.00    -0.550 OA
ATOM      6  O   UNL     1       4.788 -35.139  19.285  1.00  0.00    -0.550 OA
ENDBRANCH   3   4
ENDBRANCH   2   3
ENDBRANCH   1   2
BRANCH   1   7
ATOM      7  C   UNL     1       4.681 -39.025  22.730  1.00  0.00     0.000 C 
BRANCH   7   8
ATOM      8  C   UNL     1       4.873 -39.066  24.253  1.00  0.00    -0.000 C 
BRANCH   8   9
ATOM      9  C   UNL     1       5.124 -37.675  24.855  1.00  0.00    -0.003 C 
ATOM     10  C   UNL     1       4.436 -37.483  26.206  1.00  0.00     0.004 C 
ENDBRANCH   8   9
ENDBRANCH   7   8
ENDBRANCH   1   7
TORSDOF 6
ENDMDL
MODEL 7
REMARK VINA RESULT:    -2.429      3.075      6.181
REMARK INTER + INTRA:          -3.570
REMARK INTER:                  -3.436
REMARK INTRA:                  -0.135
REMARK UNBOUND:                -0.290
REMARK SMILES CCCCCCCC(=O)[O-]
REMARK SMILES IDX 5 1 6 2 7 3 8 4 9 5 10 6 4 7 3 8 2 9 1 10
REMARK H PARENT
REMARK Flexibility Score: inf
ROOT
ATOM      1  C   UNL     1       3.950 -37.541  20.674  1.00  0.00     0.000 C 
ENDROOT
BRANCH   1   2
ATOM      2  C   UNL     1       4.311 -37.530  19.183  1.00  0.00     0.006 C 
BRANCH   2   3
ATOM      3  C   UNL     1       3.676 -36.330  18.474  1.00  0.00     0.053 C 
BRANCH   3   4
ATOM      4  C   UNL     1       2.678 -36.790  17.459  1.00  0.00     0.041 C 
ATOM      5  O   UNL     1       1.702 -37.503  17.809  1.00  0.00    -0.550 OA
ATOM      6  O   UNL     1       2.852 -36.472  16.118  1.00  0.00    -0.550 OA
ENDBRANCH   3   4
ENDBRANCH   2   3
ENDBRANCH   1   2
BRANCH   1   7
ATOM      7  C   UNL     1       5.124 -37.048  21.529  1.00  0.00     0.000 C 
BRANCH   7   8
ATOM      8  C   UNL     1       4.955 -37.475  22.994  1.00  0.00    -0.000 C 
BRANCH   8   9
ATOM      9  C   UNL     1       4.768 -36.278  23.939  1.00  0.00    -0.003 C 
ATOM     10  C   UNL     1       5.104 -36.614  25.392  1.00  0.00     0.004 C 
ENDBRANCH   8   9
ENDBRANCH   7   8
ENDBRANCH   1   7
TORSDOF 6
ENDMDL
MODEL 8
REMARK VINA RESULT:    -2.418      2.694      3.531
REMARK INTER + INTRA:          -3.556
REMARK INTER:                  -3.422
REMARK INTRA:                  -0.134
REMARK UNBOUND:                -0.290
REMARK SMILES CCCCCCCC(=O)[O-]
REMARK SMILES IDX 5 1 6 2 7 3 8 4 9 5 10 6 4 7 3 8 2 9 1 10
REMARK H PARENT
REMARK Flexibility Score: inf
ROOT
ATOM      1  C   UNL     1       4.661 -37.623  20.137  1.00  0.00     0.000 C 
ENDROOT
BRANCH   1   2
ATOM      2  C   UNL     1       4.592 -37.431  21.657  1.00  0.00     0.006 C 
BRANCH   2   3
ATOM      3  C   UNL     1       5.125 -38.665  22.391  1.00  0.00     0.053 C 
BRANCH   3   4
ATOM      4  C   UNL     1       5.076 -38.455  23.871  1.00  0.00     0.041 C 
ATOM      5  O   UNL     1       4.946 -39.439  24.646  1.00  0.00    -0.550 OA
ATOM      6  O   UNL     1       5.125 -37.169  24.393  1.00  0.00    -0.550 OA
ENDBRANCH   3   4
ENDBRANCH   2   3
ENDBRANCH   1   2
BRANCH   1   7
ATOM      7  C   UNL     1       3.372 -37.137  19.461  1.00  0.00     0.000 C 
BRANCH   7   8
ATOM      8  C   UNL     1       3.682 -36.119  18.354  1.00  0.00    -0.000 C 
BRANCH   8   9
ATOM      9  C   UNL     1       2.850 -36.357  17.085  1.00  0.00    -0.003 C 
ATOM     10  C   UNL     1       3.571 -37.232  16.060  1.00  0.00     0.004 C 
ENDBRANCH   8   9
ENDBRANCH   7   8
ENDBRANCH   1   7
TORSDOF 6
ENDMDL
