MODEL 1
REMARK VINA RESULT:    -4.392      0.000      0.000
REMARK INTER + INTRA:          -9.304
REMARK INTER:                  -7.473
REMARK INTRA:                  -1.831
REMARK UNBOUND:                -1.831
REMARK SMILES CCCCCCCCCCCCCC(=O)[O-]
REMARK SMILES IDX 8 1 9 2 10 3 11 4 12 5 13 6 14 7 15 8 16 9 7 10 6 11 5 12
REMARK SMILES IDX 4 13 3 14 2 15 1 16
REMARK H PARENT
REMARK Flexibility Score: inf
ROOT
ATOM      1  C   UNL     1      19.183  16.915  32.689  1.00  0.00     0.000 C 
ENDROOT
BRANCH   1   2
ATOM      2  C   UNL     1      19.995  16.916  33.994  1.00  0.00     0.000 C 
BRANCH   2   3
ATOM      3  C   UNL     1      19.623  15.715  34.871  1.00  0.00     0.000 C 
BRANCH   3   4
ATOM      4  C   UNL     1      18.737  16.146  36.046  1.00  0.00     0.000 C 
BRANCH   4   5
ATOM      5  C   UNL     1      17.260  15.821  35.771  1.00  0.00     0.006 C 
BRANCH   5   6
ATOM      6  C   UNL     1      16.310  16.783  36.494  1.00  0.00     0.053 C 
BRANCH   6   7
ATOM      7  C   UNL     1      15.311  16.049  37.335  1.00  0.00     0.041 C 
ATOM      8  O   UNL     1      14.330  16.660  37.833  1.00  0.00    -0.550 OA
ATOM      9  O   UNL     1      15.447  14.682  37.541  1.00  0.00    -0.550 OA
ENDBRANCH   6   7
ENDBRANCH   5   6
ENDBRANCH   4   5
ENDBRANCH   3   4
ENDBRANCH   2   3
ENDBRANCH   1   2
BRANCH   1  10
ATOM     10  C   UNL     1      18.521  18.273  32.402  1.00  0.00     0.000 C 
BRANCH  10  11
ATOM     11  C   UNL     1      17.470  18.653  33.458  1.00  0.00    -0.000 C 
BRANCH  11  12
ATOM     12  C   UNL     1      17.793  19.975  34.174  1.00  0.00    -0.000 C 
BRANCH  12  13
ATOM     13  C   UNL     1      18.358  19.786  35.598  1.00  0.00    -0.000 C 
BRANCH  13  14
ATOM     14  C   UNL     1      19.845  20.172  35.687  1.00  0.00    -0.000 C 
BRANCH  14  15
ATOM     15  C   UNL     1      20.571  19.458  36.837  1.00  0.00    -0.003 C 
ATOM     16  C   UNL     1      20.639  20.306  38.107  1.00  0.00     0.004 C 
ENDBRANCH  14  15
ENDBRANCH  13  14
ENDBRANCH  12  13
ENDBRANCH  11  12
ENDBRANCH  10  11
ENDBRANCH   1  10
TORSDOF 12
ENDMDL
MODEL 2
REMARK VINA RESULT:    -4.360      1.475      3.800
REMARK INTER + INTRA:          -9.250
REMARK INTER:                  -7.460
REMARK INTRA:                  -1.790
REMARK UNBOUND:                -1.831
REMARK SMILES CCCCCCCCCCCCCC(=O)[O-]
REMARK SMILES IDX 8 1 9 2 10 3 11 4 12 5 13 6 14 7 15 8 16 9 7 10 6 11 5 12
REMARK SMILES IDX 4 13 3 14 2 15 1 16
REMARK H PARENT
REMARK Flexibility Score: inf
ROOT
ATOM      1  C   UNL     1      18.142  19.872  35.378  1.00  0.00     0.000 C 
ENDROOT
BRANCH   1   2
ATOM      2  C   UNL     1      17.735  18.735  36.328  1.00  0.00     0.000 C 
BRANCH   2   3
ATOM      3  C   UNL     1      18.751  17.588  36.276  1.00  0.00     0.000 C 
BRANCH   3   4
ATOM      4  C   UNL     1      18.067  16.261  35.924  1.00  0.00     0.000 C 
BRANCH   4   5
ATOM      5  C   UNL     1      16.581  16.478  35.599  1.00  0.00     0.006 C 
BRANCH   5   6
ATOM      6  C   UNL     1      15.697  15.352  36.148  1.00  0.00     0.053 C 
BRANCH   6   7
ATOM      7  C   UNL     1      15.294  15.607  37.569  1.00  0.00     0.041 C 
ATOM      8  O   UNL     1      15.030  14.644  38.336  1.00  0.00    -0.550 OA
ATOM      9  O   UNL     1      15.243  16.907  38.054  1.00  0.00    -0.550 OA
ENDBRANCH   6   7
ENDBRANCH   5   6
ENDBRANCH   4   5
ENDBRANCH   3   4
ENDBRANCH   2   3
ENDBRANCH   1   2
BRANCH   1  10
ATOM     10  C   UNL     1      19.651  19.885  35.081  1.00  0.00     0.000 C 
BRANCH  10  11
ATOM     11  C   UNL     1      19.969  19.519  33.623  1.00  0.00    -0.000 C 
BRANCH  11  12
ATOM     12  C   UNL     1      18.707  19.323  32.766  1.00  0.00    -0.000 C 
BRANCH  12  13
ATOM     13  C   UNL     1      18.445  17.852  32.374  1.00  0.00    -0.000 C 
BRANCH  13  14
ATOM     14  C   UNL     1      16.976  17.610  31.984  1.00  0.00    -0.000 C 
BRANCH  14  15
ATOM     15  C   UNL     1      16.021  18.628  32.626  1.00  0.00    -0.003 C 
ATOM     16  C   UNL     1      14.712  18.776  31.851  1.00  0.00     0.004 C 
ENDBRANCH  14  15
ENDBRANCH  13  14
ENDBRANCH  12  13
ENDBRANCH  11  12
ENDBRANCH  10  11
ENDBRANCH   1  10
TORSDOF 12
ENDMDL
MODEL 3
REMARK VINA RESULT:    -4.263      1.161      2.875
REMARK INTER + INTRA:          -9.084
REMARK INTER:                  -7.436
REMARK INTRA:                  -1.648
REMARK UNBOUND:                -1.831
REMARK SMILES CCCCCCCCCCCCCC(=O)[O-]
REMARK SMILES IDX 8 1 9 2 10 3 11 4 12 5 13 6 14 7 15 8 16 9 7 10 6 11 5 12
REMARK SMILES IDX 4 13 3 14 2 15 1 16
REMARK H PARENT
REMARK Flexibility Score: inf
ROOT
ATOM      1  C   UNL     1      19.806  15.512  35.157  1.00  0.00     0.000 C 
ENDROOT
BRANCH   1   2
ATOM      2  C   UNL     1      19.296  16.367  33.987  1.00  0.00     0.000 C 
BRANCH   2   3
ATOM      3  C   UNL     1      17.948  15.846  33.474  1.00  0.00     0.000 C 
BRANCH   3   4
ATOM      4  C   UNL     1      16.785  16.450  34.269  1.00  0.00     0.000 C 
BRANCH   4   5
ATOM      5  C   UNL     1      16.244  15.448  35.301  1.00  0.00     0.006 C 
BRANCH   5   6
ATOM      6  C   UNL     1      16.476  15.918  36.743  1.00  0.00     0.053 C 
BRANCH   6   7
ATOM      7  C   UNL     1      15.265  15.701  37.598  1.00  0.00     0.041 C 
ATOM      8  O   UNL     1      15.142  14.641  38.266  1.00  0.00    -0.550 OA
ATOM      9  O   UNL     1      14.289  16.685  37.683  1.00  0.00    -0.550 OA
ENDBRANCH   6   7
ENDBRANCH   5   6
ENDBRANCH   4   5
ENDBRANCH   3   4
ENDBRANCH   2   3
ENDBRANCH   1   2
BRANCH   1  10
ATOM     10  C   UNL     1      20.929  16.200  35.950  1.00  0.00     0.000 C 
BRANCH  10  11
ATOM     11  C   UNL     1      21.080  17.687  35.590  1.00  0.00    -0.000 C 
BRANCH  11  12
ATOM     12  C   UNL     1      20.535  18.624  36.681  1.00  0.00    -0.000 C 
BRANCH  12  13
ATOM     13  C   UNL     1      19.836  19.883  36.124  1.00  0.00    -0.000 C 
BRANCH  13  14
ATOM     14  C   UNL     1      18.320  19.677  35.958  1.00  0.00    -0.000 C 
BRANCH  14  15
ATOM     15  C   UNL     1      17.864  19.811  34.496  1.00  0.00    -0.003 C 
ATOM     16  C   UNL     1      19.032  20.026  33.534  1.00  0.00     0.004 C 
ENDBRANCH  14  15
ENDBRANCH  13  14
ENDBRANCH  12  13
ENDBRANCH  11  12
ENDBRANCH  10  11
ENDBRANCH   1  10
TORSDOF 12
ENDMDL
MODEL 4
REMARK VINA RESULT:    -4.252      2.237      4.622
REMARK INTER + INTRA:          -9.065
REMARK INTER:                  -7.846
REMARK INTRA:                  -1.219
REMARK UNBOUND:                -1.831
REMARK SMILES CCCCCCCCCCCCCC(=O)[O-]
REMARK SMILES IDX 8 1 9 2 10 3 11 4 12 5 13 6 14 7 15 8 16 9 7 10 6 11 5 12
REMARK SMILES IDX 4 13 3 14 2 15 1 16
REMARK H PARENT
REMARK Flexibility Score: inf
ROOT
ATOM      1  C   UNL     1      18.442  20.162  34.404  1.00  0.00     0.000 C 
ENDROOT
BRANCH   1   2
ATOM      2  C   UNL     1      19.117  19.804  35.737  1.00  0.00     0.000 C 
BRANCH   2   3
ATOM      3  C   UNL     1      18.349  18.689  36.457  1.00  0.00     0.000 C 
BRANCH   3   4
ATOM      4  C   UNL     1      18.865  17.306  36.038  1.00  0.00     0.000 C 
BRANCH   4   5
ATOM      5  C   UNL     1      17.732  16.270  36.048  1.00  0.00     0.006 C 
BRANCH   5   6
ATOM      6  C   UNL     1      16.358  16.913  36.276  1.00  0.00     0.053 C 
BRANCH   6   7
ATOM      7  C   UNL     1      15.516  16.106  37.216  1.00  0.00     0.041 C 
ATOM      8  O   UNL     1      15.843  14.925  37.505  1.00  0.00    -0.550 OA
ATOM      9  O   UNL     1      14.388  16.670  37.796  1.00  0.00    -0.550 OA
ENDBRANCH   6   7
ENDBRANCH   5   6
ENDBRANCH   4   5
ENDBRANCH   3   4
ENDBRANCH   2   3
ENDBRANCH   1   2
BRANCH   1  10
ATOM     10  C   UNL     1      19.106  19.474  33.200  1.00  0.00     0.000 C 
BRANCH  10  11
ATOM     11  C   UNL     1      18.092  18.751  32.299  1.00  0.00    -0.000 C 
BRANCH  11  12
ATOM     12  C   UNL     1      16.692  18.658  32.930  1.00  0.00    -0.000 C 
BRANCH  12  13
ATOM     13  C   UNL     1      15.680  17.861  32.079  1.00  0.00    -0.000 C 
BRANCH  13  14
ATOM     14  C   UNL     1      14.526  18.744  31.574  1.00  0.00    -0.000 C 
BRANCH  14  15
ATOM     15  C   UNL     1      13.190  17.988  31.512  1.00  0.00    -0.003 C 
ATOM     16  C   UNL     1      13.180  16.898  30.440  1.00  0.00     0.004 C 
ENDBRANCH  14  15
ENDBRANCH  13  14
ENDBRANCH  12  13
ENDBRANCH  11  12
ENDBRANCH  10  11
ENDBRANCH   1  10
TORSDOF 12
ENDMDL
MODEL 5
REMARK VINA RESULT:    -4.139      1.398      2.219
REMARK INTER + INTRA:          -8.873
REMARK INTER:                  -7.434
REMARK INTRA:                  -1.439
REMARK UNBOUND:                -1.831
REMARK SMILES CCCCCCCCCCCCCC(=O)[O-]
REMARK SMILES IDX 8 1 9 2 10 3 11 4 12 5 13 6 14 7 15 8 16 9 7 10 6 11 5 12
REMARK SMILES IDX 4 13 3 14 2 15 1 16
REMARK H PARENT
REMARK Flexibility Score: inf
ROOT
ATOM      1  C   UNL     1      18.515  18.604  32.254  1.00  0.00     0.000 C 
ENDROOT
BRANCH   1   2
ATOM      2  C   UNL     1      17.984  17.197  32.573  1.00  0.00     0.000 C 
BRANCH   2   3
ATOM      3  C   UNL     1      16.579  17.267  33.182  1.00  0.00     0.000 C 
BRANCH   3   4
ATOM      4  C   UNL     1      16.639  17.189  34.713  1.00  0.00     0.000 C 
BRANCH   4   5
ATOM      5  C   UNL     1      17.074  15.790  35.176  1.00  0.00     0.006 C 
BRANCH   5   6
ATOM      6  C   UNL     1      16.976  15.626  36.698  1.00  0.00     0.053 C 
BRANCH   6   7
ATOM      7  C   UNL     1      15.554  15.652  37.168  1.00  0.00     0.041 C 
ATOM      8  O   UNL     1      15.236  16.317  38.188  1.00  0.00    -0.550 OA
ATOM      9  O   UNL     1      14.575  14.968  36.459  1.00  0.00    -0.550 OA
ENDBRANCH   6   7
ENDBRANCH   5   6
ENDBRANCH   4   5
ENDBRANCH   3   4
ENDBRANCH   2   3
ENDBRANCH   1   2
BRANCH   1  10
ATOM     10  C   UNL     1      18.554  19.517  33.491  1.00  0.00     0.000 C 
BRANCH  10  11
ATOM     11  C   UNL     1      19.965  19.645  34.086  1.00  0.00    -0.000 C 
BRANCH  11  12
ATOM     12  C   UNL     1      20.422  18.373  34.819  1.00  0.00    -0.000 C 
BRANCH  12  13
ATOM     13  C   UNL     1      19.883  18.261  36.262  1.00  0.00    -0.000 C 
BRANCH  13  14
ATOM     14  C   UNL     1      20.235  19.497  37.109  1.00  0.00    -0.000 C 
BRANCH  14  15
ATOM     15  C   UNL     1      18.998  20.140  37.754  1.00  0.00    -0.003 C 
ATOM     16  C   UNL     1      17.688  19.590  37.191  1.00  0.00     0.004 C 
ENDBRANCH  14  15
ENDBRANCH  13  14
ENDBRANCH  12  13
ENDBRANCH  11  12
ENDBRANCH  10  11
ENDBRANCH   1  10
TORSDOF 12
ENDMDL
MODEL 6
REMARK VINA RESULT:    -4.085      1.671      4.172
REMARK INTER + INTRA:          -8.781
REMARK INTER:                  -6.911
REMARK INTRA:                  -1.870
REMARK UNBOUND:                -1.831
REMARK SMILES CCCCCCCCCCCCCC(=O)[O-]
REMARK SMILES IDX 8 1 9 2 10 3 11 4 12 5 13 6 14 7 15 8 16 9 7 10 6 11 5 12
REMARK SMILES IDX 4 13 3 14 2 15 1 16
REMARK H PARENT
REMARK Flexibility Score: inf
ROOT
ATOM      1  C   UNL     1      18.882  19.612  33.133  1.00  0.00     0.000 C 
ENDROOT
BRANCH   1   2
ATOM      2  C   UNL     1      18.134  19.967  34.427  1.00  0.00     0.000 C 
BRANCH   2   3
ATOM      3  C   UNL     1      19.099  20.029  35.618  1.00  0.00     0.000 C 
BRANCH   3   4
ATOM      4  C   UNL     1      18.693  19.031  36.708  1.00  0.00     0.000 C 
BRANCH   4   5
ATOM      5  C   UNL     1      17.303  18.440  36.424  1.00  0.00     0.006 C 
BRANCH   5   6
ATOM      6  C   UNL     1      17.289  16.910  36.532  1.00  0.00     0.053 C 
BRANCH   6   7
ATOM      7  C   UNL     1      15.932  16.393  36.898  1.00  0.00     0.041 C 
ATOM      8  O   UNL     1      15.327  15.600  36.129  1.00  0.00    -0.550 OA
ATOM      9  O   UNL     1      15.349  16.762  38.103  1.00  0.00    -0.550 OA
ENDBRANCH   6   7
ENDBRANCH   5   6
ENDBRANCH   4   5
ENDBRANCH   3   4
ENDBRANCH   2   3
ENDBRANCH   1   2
BRANCH   1  10
ATOM     10  C   UNL     1      20.005  18.586  33.359  1.00  0.00     0.000 C 
BRANCH  10  11
ATOM     11  C   UNL     1      19.469  17.158  33.549  1.00  0.00    -0.000 C 
BRANCH  11  12
ATOM     12  C   UNL     1      18.629  16.671  32.357  1.00  0.00    -0.000 C 
BRANCH  12  13
ATOM     13  C   UNL     1      17.280  16.041  32.765  1.00  0.00    -0.000 C 
BRANCH  13  14
ATOM     14  C   UNL     1      16.206  17.107  33.046  1.00  0.00    -0.000 C 
BRANCH  14  15
ATOM     15  C   UNL     1      15.304  17.370  31.830  1.00  0.00    -0.003 C 
ATOM     16  C   UNL     1      15.697  18.636  31.069  1.00  0.00     0.004 C 
ENDBRANCH  14  15
ENDBRANCH  13  14
ENDBRANCH  12  13
ENDBRANCH  11  12
ENDBRANCH  10  11
ENDBRANCH   1  10
TORSDOF 12
ENDMDL
MODEL 7
REMARK VINA RESULT:    -4.078     15.716     17.842
REMARK INTER + INTRA:          -8.770
REMARK INTER:                  -7.083
REMARK INTRA:                  -1.687
REMARK UNBOUND:                -1.831
REMARK SMILES CCCCCCCCCCCCCC(=O)[O-]
REMARK SMILES IDX 8 1 9 2 10 3 11 4 12 5 13 6 14 7 15 8 16 9 7 10 6 11 5 12
REMARK SMILES IDX 4 13 3 14 2 15 1 16
REMARK H PARENT
REMARK Flexibility Score: inf
ROOT
ATOM      1  C   UNL     1      10.049  32.675  26.516  1.00  0.00     0.000 C 
ENDROOT
BRANCH   1   2
ATOM      2  C   UNL     1       9.519  33.629  27.600  1.00  0.00     0.000 C 
BRANCH   2   3
ATOM      3  C   UNL     1       9.597  32.978  28.986  1.00  0.00     0.000 C 
BRANCH   3   4
ATOM      4  C   UNL     1       8.231  32.429  29.414  1.00  0.00     0.000 C 
BRANCH   4   5
ATOM      5  C   UNL     1       8.387  31.124  30.210  1.00  0.00     0.006 C 
BRANCH   5   6
ATOM      6  C   UNL     1       9.858  30.763  30.449  1.00  0.00     0.053 C 
BRANCH   6   7
ATOM      7  C   UNL     1      10.140  30.514  31.899  1.00  0.00     0.041 C 
ATOM      8  O   UNL     1      10.640  29.420  32.270  1.00  0.00    -0.550 OA
ATOM      9  O   UNL     1       9.879  31.505  32.837  1.00  0.00    -0.550 OA
ENDBRANCH   6   7
ENDBRANCH   5   6
ENDBRANCH   4   5
ENDBRANCH   3   4
ENDBRANCH   2   3
ENDBRANCH   1   2
BRANCH   1  10
ATOM     10  C   UNL     1      10.966  31.581  27.086  1.00  0.00     0.000 C 
BRANCH  10  11
ATOM     11  C   UNL     1      10.572  30.174  26.612  1.00  0.00    -0.000 C 
BRANCH  11  12
ATOM     12  C   UNL     1       9.057  29.920  26.687  1.00  0.00    -0.000 C 
BRANCH  12  13
ATOM     13  C   UNL     1       8.684  28.586  27.369  1.00  0.00    -0.000 C 
BRANCH  13  14
ATOM     14  C   UNL     1       7.236  28.587  27.889  1.00  0.00    -0.000 C 
BRANCH  14  15
ATOM     15  C   UNL     1       6.417  27.402  27.353  1.00  0.00    -0.003 C 
ATOM     16  C   UNL     1       6.179  27.485  25.845  1.00  0.00     0.004 C 
ENDBRANCH  14  15
ENDBRANCH  13  14
ENDBRANCH  12  13
ENDBRANCH  11  12
ENDBRANCH  10  11
ENDBRANCH   1  10
TORSDOF 12
ENDMDL
MODEL 8
REMARK VINA RESULT:    -4.066      1.399      3.630
REMARK INTER + INTRA:          -8.750
REMARK INTER:                  -6.956
REMARK INTRA:                  -1.793
REMARK UNBOUND:                -1.831
REMARK SMILES CCCCCCCCCCCCCC(=O)[O-]
REMARK SMILES IDX 8 1 9 2 10 3 11 4 12 5 13 6 14 7 15 8 16 9 7 10 6 11 5 12
REMARK SMILES IDX 4 13 3 14 2 15 1 16
REMARK H PARENT
REMARK Flexibility Score: inf
ROOT
ATOM      1  C   UNL     1      19.005  20.256  34.952  1.00  0.00     0.000 C 
ENDROOT
BRANCH   1   2
ATOM      2  C   UNL     1      18.966  19.330  36.179  1.00  0.00     0.000 C 
BRANCH   2   3
ATOM      3  C   UNL     1      19.903  18.132  35.990  1.00  0.00     0.000 C 
BRANCH   3   4
ATOM      4  C   UNL     1      19.119  16.813  35.999  1.00  0.00     0.000 C 
BRANCH   4   5
ATOM      5  C   UNL     1      17.639  17.055  36.329  1.00  0.00     0.006 C 
BRANCH   5   6
ATOM      6  C   UNL     1      16.872  15.746  36.550  1.00  0.00     0.053 C 
BRANCH   6   7
ATOM      7  C   UNL     1      15.513  15.990  37.132  1.00  0.00     0.041 C 
ATOM      8  O   UNL     1      14.524  15.321  36.736  1.00  0.00    -0.550 OA
ATOM      9  O   UNL     1      15.347  16.936  38.135  1.00  0.00    -0.550 OA
ENDBRANCH   6   7
ENDBRANCH   5   6
ENDBRANCH   4   5
ENDBRANCH   3   4
ENDBRANCH   2   3
ENDBRANCH   1   2
BRANCH   1  10
ATOM     10  C   UNL     1      19.742  19.627  33.758  1.00  0.00     0.000 C 
BRANCH  10  11
ATOM     11  C   UNL     1      18.820  19.395  32.551  1.00  0.00    -0.000 C 
BRANCH  11  12
ATOM     12  C   UNL     1      17.485  18.736  32.936  1.00  0.00    -0.000 C 
BRANCH  12  13
ATOM     13  C   UNL     1      17.174  17.452  32.137  1.00  0.00    -0.000 C 
BRANCH  13  14
ATOM     14  C   UNL     1      18.453  16.698  31.734  1.00  0.00    -0.000 C 
BRANCH  14  15
ATOM     15  C   UNL     1      18.764  15.522  32.673  1.00  0.00    -0.003 C 
ATOM     16  C   UNL     1      17.523  14.700  33.018  1.00  0.00     0.004 C 
ENDBRANCH  14  15
ENDBRANCH  13  14
ENDBRANCH  12  13
ENDBRANCH  11  12
ENDBRANCH  10  11
ENDBRANCH   1  10
TORSDOF 12
ENDMDL
MODEL 9
REMARK VINA RESULT:    -4.015      2.542      4.781
REMARK INTER + INTRA:          -8.663
REMARK INTER:                  -6.654
REMARK INTRA:                  -2.009
REMARK UNBOUND:                -1.831
REMARK SMILES CCCCCCCCCCCCCC(=O)[O-]
REMARK SMILES IDX 8 1 9 2 10 3 11 4 12 5 13 6 14 7 15 8 16 9 7 10 6 11 5 12
REMARK SMILES IDX 4 13 3 14 2 15 1 16
REMARK H PARENT
REMARK Flexibility Score: inf
ROOT
ATOM      1  C   UNL     1      17.750  17.519  32.165  1.00  0.00     0.000 C 
ENDROOT
BRANCH   1   2
ATOM      2  C   UNL     1      17.537  18.792  32.998  1.00  0.00     0.000 C 
BRANCH   2   3
ATOM      3  C   UNL     1      18.869  19.507  33.256  1.00  0.00     0.000 C 
BRANCH   3   4
ATOM      4  C   UNL     1      18.875  20.179  34.635  1.00  0.00     0.000 C 
BRANCH   4   5
ATOM      5  C   UNL     1      20.267  20.098  35.281  1.00  0.00     0.006 C 
BRANCH   5   6
ATOM      6  C   UNL     1      20.243  19.347  36.617  1.00  0.00     0.053 C 
BRANCH   6   7
ATOM      7  C   UNL     1      19.861  20.246  37.753  1.00  0.00     0.041 C 
ATOM      8  O   UNL     1      20.697  21.058  38.228  1.00  0.00    -0.550 OA
ATOM      9  O   UNL     1      18.570  20.209  38.264  1.00  0.00    -0.550 OA
ENDBRANCH   6   7
ENDBRANCH   5   6
ENDBRANCH   4   5
ENDBRANCH   3   4
ENDBRANCH   2   3
ENDBRANCH   1   2
BRANCH   1  10
ATOM     10  C   UNL     1      19.215  17.051  32.161  1.00  0.00     0.000 C 
BRANCH  10  11
ATOM     11  C   UNL     1      19.346  15.522  32.244  1.00  0.00    -0.000 C 
BRANCH  11  12
ATOM     12  C   UNL     1      19.860  15.039  33.611  1.00  0.00    -0.000 C 
BRANCH  12  13
ATOM     13  C   UNL     1      19.866  16.139  34.694  1.00  0.00    -0.000 C 
BRANCH  13  14
ATOM     14  C   UNL     1      19.013  15.753  35.916  1.00  0.00    -0.000 C 
BRANCH  14  15
ATOM     15  C   UNL     1      17.528  16.100  35.731  1.00  0.00    -0.003 C 
ATOM     16  C   UNL     1      17.140  17.410  36.417  1.00  0.00     0.004 C 
ENDBRANCH  14  15
ENDBRANCH  13  14
ENDBRANCH  12  13
ENDBRANCH  11  12
ENDBRANCH  10  11
ENDBRANCH   1  10
TORSDOF 12
ENDMDL
