MODEL 1
REMARK VINA RESULT:     8.573      0.000      0.000
REMARK INTER + INTRA:          11.946
REMARK INTER:                  10.578
REMARK INTRA:                   1.368
REMARK UNBOUND:                 1.368
REMARK SMILES C=C1CC[C@H]2[C@@H]([C@H]3[C@@H]1CC[C@@H]3C)C2(C)C
REMARK SMILES IDX 3 1 2 2 1 3 8 4 12 5 11 6 10 7 7 8 9 9 4 11 5 12 6 13 13 14
REMARK SMILES IDX 14 16 15 17
REMARK H PARENT
REMARK Flexibility Score: 80.00
ROOT
ATOM      1  C   UNL     1     -14.142  -4.040  16.465  1.00  0.00     0.031 C 
ENDROOT
BRANCH   1   2
ATOM      2  C   UNL     1     -15.348  -3.336  15.892  1.00  0.00    -0.074 C 
ATOM      3  C   UNL     1     -16.409  -4.109  15.577  1.00  0.00     0.008 C 
BRANCH   2   4
ATOM      4  C   UNL     1     -15.321  -1.820  15.694  1.00  0.00     0.018 C 
ATOM      5  C   UNL     1     -17.215   0.515  17.984  1.00  0.00     0.008 C 
ATOM      6  C   UNL     1     -16.911  -0.808  17.266  1.00  0.00    -0.010 C 
ATOM      7  C   UNL     1     -17.587  -0.888  15.884  1.00  0.00     0.004 C 
ATOM      8  C   UNL     1     -15.412  -1.002  16.992  1.00  0.00     0.003 CG0
ATOM      9  C   UNL     1     -16.493  -1.254  14.875  1.00  0.00     0.008 C 
ATOM     10  G   UNL     1     -14.517  -1.228  18.251  1.00  0.00     0.000 G0
ENDBRANCH   2   4
ENDBRANCH   1   2
BRANCH   1  11
ATOM     11  C   UNL     1     -13.096  -3.119  17.093  1.00  0.00     0.009 C 
BRANCH  11  12
ATOM     12  C   UNL     1     -13.435  -2.282  18.350  1.00  0.00    -0.001 C 
ATOM     13  C   UNL     1     -14.534  -1.207  18.253  1.00  0.00     0.002 CG0
ATOM     14  C   UNL     1     -14.683  -2.365  19.263  1.00  0.00    -0.029 C 
ATOM     15  G   UNL     1     -15.424  -0.991  16.988  1.00  0.00     0.000 G0
ATOM     16  C   UNL     1     -14.391  -1.976  20.722  1.00  0.00     0.011 C 
ATOM     17  C   UNL     1     -15.707  -3.497  19.121  1.00  0.00     0.011 C 
ENDBRANCH  11  12
ENDBRANCH   1  11
TORSDOF 0
ENDMDL
MODEL 2
REMARK VINA RESULT:    10.036      1.234      3.714
REMARK INTER + INTRA:          13.751
REMARK INTER:                  12.495
REMARK INTRA:                   1.256
REMARK UNBOUND:                 1.368
REMARK SMILES C=C1CC[C@H]2[C@@H]([C@H]3[C@@H]1CC[C@@H]3C)C2(C)C
REMARK SMILES IDX 3 1 2 2 1 3 8 4 12 5 11 6 10 7 7 8 9 9 4 11 5 12 6 13 13 14
REMARK SMILES IDX 14 16 15 17
REMARK H PARENT
REMARK Flexibility Score: 80.00
ROOT
ATOM      1  C   UNL     1     -15.120  -1.939  15.063  1.00  0.00     0.031 C 
ENDROOT
BRANCH   1   2
ATOM      2  C   UNL     1     -14.105  -2.338  16.106  1.00  0.00    -0.074 C 
ATOM      3  C   UNL     1     -12.827  -1.965  15.884  1.00  0.00     0.008 C 
BRANCH   2   4
ATOM      4  C   UNL     1     -14.551  -3.129  17.337  1.00  0.00     0.018 C 
ATOM      5  C   UNL     1     -14.821  -1.514  20.743  1.00  0.00     0.008 C 
ATOM      6  C   UNL     1     -14.297  -1.691  19.310  1.00  0.00    -0.010 C 
ATOM      7  C   UNL     1     -13.086  -2.640  19.249  1.00  0.00     0.004 C 
ATOM      8  C   UNL     1     -15.342  -2.313  18.372  1.00  0.00     0.003 CG0
ATOM      9  C   UNL     1     -13.404  -3.700  18.188  1.00  0.00     0.008 C 
ATOM     10  G   UNL     1     -16.576  -1.415  18.041  1.00  0.00     0.000 G0
ENDBRANCH   2   4
ENDBRANCH   1   2
BRANCH   1  11
ATOM     11  C   UNL     1     -16.580  -2.116  15.482  1.00  0.00     0.009 C 
BRANCH  11  12
ATOM     12  C   UNL     1     -17.177  -1.271  16.633  1.00  0.00    -0.001 C 
ATOM     13  C   UNL     1     -16.591  -1.424  18.049  1.00  0.00     0.002 CG0
ATOM     14  C   UNL     1     -16.566  -0.045  17.356  1.00  0.00    -0.029 C 
ATOM     15  G   UNL     1     -15.337  -2.295  18.377  1.00  0.00     0.000 G0
ATOM     16  C   UNL     1     -17.625   0.944  17.869  1.00  0.00     0.011 C 
ATOM     17  C   UNL     1     -15.288   0.631  16.845  1.00  0.00     0.011 C 
ENDBRANCH  11  12
ENDBRANCH   1  11
TORSDOF 0
ENDMDL
MODEL 3
REMARK VINA RESULT:    10.326      1.273      3.297
REMARK INTER + INTRA:          14.108
REMARK INTER:                  12.994
REMARK INTRA:                   1.115
REMARK UNBOUND:                 1.368
REMARK SMILES C=C1CC[C@H]2[C@@H]([C@H]3[C@@H]1CC[C@@H]3C)C2(C)C
REMARK SMILES IDX 3 1 2 2 1 3 8 4 12 5 11 6 10 7 7 8 9 9 4 11 5 12 6 13 13 14
REMARK SMILES IDX 14 16 15 17
REMARK H PARENT
REMARK Flexibility Score: 80.00
ROOT
ATOM      1  C   UNL     1     -15.814  -0.640  17.261  1.00  0.00     0.031 C 
ENDROOT
BRANCH   1   2
ATOM      2  C   UNL     1     -16.030  -1.699  16.208  1.00  0.00    -0.074 C 
ATOM      3  C   UNL     1     -16.873  -1.390  15.199  1.00  0.00     0.008 C 
BRANCH   2   4
ATOM      4  C   UNL     1     -15.308  -3.042  16.321  1.00  0.00     0.018 C 
ATOM      5  C   UNL     1     -12.053  -3.394  18.209  1.00  0.00     0.008 C 
ATOM      6  C   UNL     1     -13.139  -2.663  17.405  1.00  0.00    -0.010 C 
ATOM      7  C   UNL     1     -12.905  -2.766  15.886  1.00  0.00     0.004 C 
ATOM      8  C   UNL     1     -14.540  -3.249  17.636  1.00  0.00     0.003 CG0
ATOM      9  C   UNL     1     -14.211  -3.278  15.269  1.00  0.00     0.008 C 
ATOM     10  G   UNL     1     -15.140  -3.029  19.061  1.00  0.00     0.000 G0
ENDBRANCH   2   4
ENDBRANCH   1   2
BRANCH   1  11
ATOM     11  C   UNL     1     -16.564  -0.873  18.573  1.00  0.00     0.009 C 
BRANCH  11  12
ATOM     12  C   UNL     1     -16.058  -1.918  19.595  1.00  0.00    -0.001 C 
ATOM     13  C   UNL     1     -15.138  -3.052  19.105  1.00  0.00     0.002 CG0
ATOM     14  C   UNL     1     -14.640  -2.081  20.196  1.00  0.00    -0.029 C 
ATOM     15  G   UNL     1     -14.577  -3.144  17.650  1.00  0.00     0.000 G0
ATOM     16  C   UNL     1     -14.649  -2.664  21.619  1.00  0.00     0.011 C 
ATOM     17  C   UNL     1     -13.548  -1.029  19.969  1.00  0.00     0.011 C 
ENDBRANCH  11  12
ENDBRANCH   1  11
TORSDOF 0
ENDMDL
MODEL 4
REMARK VINA RESULT:    11.321      1.334      3.362
REMARK INTER + INTRA:          15.336
REMARK INTER:                  14.397
REMARK INTRA:                   0.939
REMARK UNBOUND:                 1.368
REMARK SMILES C=C1CC[C@H]2[C@@H]([C@H]3[C@@H]1CC[C@@H]3C)C2(C)C
REMARK SMILES IDX 3 1 2 2 1 3 8 4 12 5 11 6 10 7 7 8 9 9 4 11 5 12 6 13 13 14
REMARK SMILES IDX 14 16 15 17
REMARK H PARENT
REMARK Flexibility Score: 80.00
ROOT
ATOM      1  C   UNL     1     -15.330   0.071  18.310  1.00  0.00     0.031 C 
ENDROOT
BRANCH   1   2
ATOM      2  C   UNL     1     -16.213  -0.679  17.342  1.00  0.00    -0.074 C 
ATOM      3  C   UNL     1     -17.229   0.014  16.785  1.00  0.00     0.008 C 
BRANCH   2   4
ATOM      4  C   UNL     1     -15.931  -2.151  17.040  1.00  0.00     0.018 C 
ATOM      5  C   UNL     1     -12.448  -3.598  17.293  1.00  0.00     0.008 C 
ATOM      6  C   UNL     1     -13.501  -2.498  17.093  1.00  0.00    -0.010 C 
ATOM      7  C   UNL     1     -13.936  -2.370  15.621  1.00  0.00     0.004 C 
ATOM      8  C   UNL     1     -14.797  -2.771  17.872  1.00  0.00     0.003 CG0
ATOM      9  C   UNL     1     -15.467  -2.439  15.602  1.00  0.00     0.008 C 
ATOM     10  G   UNL     1     -14.684  -2.683  19.427  1.00  0.00     0.000 G0
ENDBRANCH   2   4
ENDBRANCH   1   2
BRANCH   1  11
ATOM     11  C   UNL     1     -15.568  -0.255  19.785  1.00  0.00     0.009 C 
BRANCH  11  12
ATOM     12  C   UNL     1     -15.035  -1.573  20.396  1.00  0.00    -0.001 C 
ATOM     13  C   UNL     1     -14.719  -2.752  19.459  1.00  0.00     0.002 CG0
ATOM     14  C   UNL     1     -13.603  -2.158  20.344  1.00  0.00    -0.029 C 
ATOM     15  G   UNL     1     -14.783  -2.661  17.901  1.00  0.00     0.000 G0
ATOM     16  C   UNL     1     -13.250  -3.006  21.577  1.00  0.00     0.011 C 
ATOM     17  C   UNL     1     -12.424  -1.343  19.799  1.00  0.00     0.011 C 
ENDBRANCH  11  12
ENDBRANCH   1  11
TORSDOF 0
ENDMDL
MODEL 5
REMARK VINA RESULT:    11.412      1.349      3.220
REMARK INTER + INTRA:          15.449
REMARK INTER:                  14.267
REMARK INTRA:                   1.182
REMARK UNBOUND:                 1.368
REMARK SMILES C=C1CC[C@H]2[C@@H]([C@H]3[C@@H]1CC[C@@H]3C)C2(C)C
REMARK SMILES IDX 3 1 2 2 1 3 8 4 12 5 11 6 10 7 7 8 9 9 4 11 5 12 6 13 13 14
REMARK SMILES IDX 14 16 15 17
REMARK H PARENT
REMARK Flexibility Score: 80.00
ROOT
ATOM      1  C   UNL     1     -13.784  -2.802  18.216  1.00  0.00     0.031 C 
ENDROOT
BRANCH   1   2
ATOM      2  C   UNL     1     -13.053  -3.255  16.976  1.00  0.00    -0.074 C 
ATOM      3  C   UNL     1     -11.821  -3.778  17.153  1.00  0.00     0.008 C 
BRANCH   2   4
ATOM      4  C   UNL     1     -13.717  -3.106  15.606  1.00  0.00     0.018 C 
ATOM      5  C   UNL     1     -17.474  -3.154  15.205  1.00  0.00     0.008 C 
ATOM      6  C   UNL     1     -16.129  -3.472  15.874  1.00  0.00    -0.010 C 
ATOM      7  C   UNL     1     -15.504  -4.771  15.331  1.00  0.00     0.004 C 
ATOM      8  C   UNL     1     -15.074  -2.384  15.625  1.00  0.00     0.003 CG0
ATOM      9  C   UNL     1     -14.069  -4.432  14.911  1.00  0.00     0.008 C 
ATOM     10  G   UNL     1     -15.340  -1.010  16.319  1.00  0.00     0.000 G0
ENDBRANCH   2   4
ENDBRANCH   1   2
BRANCH   1  11
ATOM     11  C   UNL     1     -13.851  -1.287  18.409  1.00  0.00     0.009 C 
BRANCH  11  12
ATOM     12  C   UNL     1     -14.862  -0.435  17.604  1.00  0.00    -0.001 C 
ATOM     13  C   UNL     1     -15.385  -0.976  16.260  1.00  0.00     0.002 CG0
ATOM     14  C   UNL     1     -16.379  -0.665  17.399  1.00  0.00    -0.029 C 
ATOM     15  G   UNL     1     -15.053  -2.400  15.712  1.00  0.00     0.000 G0
ATOM     16  C   UNL     1     -17.169   0.642  17.215  1.00  0.00     0.011 C 
ATOM     17  C   UNL     1     -17.140  -1.739  18.186  1.00  0.00     0.011 C 
ENDBRANCH  11  12
ENDBRANCH   1  11
TORSDOF 0
ENDMDL
MODEL 6
REMARK VINA RESULT:    11.457      1.141      3.913
REMARK INTER + INTRA:          15.505
REMARK INTER:                  14.348
REMARK INTRA:                   1.157
REMARK UNBOUND:                 1.368
REMARK SMILES C=C1CC[C@H]2[C@@H]([C@H]3[C@@H]1CC[C@@H]3C)C2(C)C
REMARK SMILES IDX 3 1 2 2 1 3 8 4 12 5 11 6 10 7 7 8 9 9 4 11 5 12 6 13 13 14
REMARK SMILES IDX 14 16 15 17
REMARK H PARENT
REMARK Flexibility Score: 80.00
ROOT
ATOM      1  C   UNL     1     -17.054  -1.519  16.758  1.00  0.00     0.031 C 
ENDROOT
BRANCH   1   2
ATOM      2  C   UNL     1     -16.510  -0.287  17.440  1.00  0.00    -0.074 C 
ATOM      3  C   UNL     1     -17.333   0.781  17.512  1.00  0.00     0.008 C 
BRANCH   2   4
ATOM      4  C   UNL     1     -15.089  -0.296  18.005  1.00  0.00     0.018 C 
ATOM      5  C   UNL     1     -13.441  -3.487  19.183  1.00  0.00     0.008 C 
ATOM      6  C   UNL     1     -14.612  -2.548  18.858  1.00  0.00    -0.010 C 
ATOM      7  C   UNL     1     -14.986  -1.652  20.052  1.00  0.00     0.004 C 
ATOM      8  C   UNL     1     -14.290  -1.576  17.712  1.00  0.00     0.003 CG0
ATOM      9  C   UNL     1     -15.002  -0.208  19.538  1.00  0.00     0.008 C 
ATOM     10  G   UNL     1     -14.132  -2.223  16.299  1.00  0.00     0.000 G0
ENDBRANCH   2   4
ENDBRANCH   1   2
BRANCH   1  11
ATOM     11  C   UNL     1     -16.500  -1.779  15.357  1.00  0.00     0.009 C 
BRANCH  11  12
ATOM     12  C   UNL     1     -15.093  -2.396  15.169  1.00  0.00    -0.001 C 
ATOM     13  C   UNL     1     -14.055  -2.238  16.296  1.00  0.00     0.002 CG0
ATOM     14  C   UNL     1     -14.484  -3.650  15.844  1.00  0.00    -0.029 C 
ATOM     15  G   UNL     1     -14.375  -1.596  17.683  1.00  0.00     0.000 G0
ATOM     16  C   UNL     1     -13.456  -4.373  14.959  1.00  0.00     0.011 C 
ATOM     17  C   UNL     1     -15.340  -4.596  16.694  1.00  0.00     0.011 C 
ENDBRANCH  11  12
ENDBRANCH   1  11
TORSDOF 0
ENDMDL
