MODEL 1
REMARK VINA RESULT:    -7.679      0.000      0.000
REMARK INTER + INTRA:          -7.903
REMARK INTER:                  -7.903
REMARK INTRA:                   0.000
REMARK UNBOUND:                 0.000
REMARK SMILES CC1(C)CC[C@]2(C)CC[C@]3(C)C(=CC[C@@H]4[C@]5(C)CC[C@@H](O)C(C)(C)[C@H]5CC[C@]43C)[C@H]2C1
REMARK SMILES IDX 1 1 2 2 4 3 5 4 6 5 8 6 9 7 10 8 12 9 13 10 14 11 15 12
REMARK SMILES IDX 28 13 27 14 26 15 25 16 16 17 18 18 19 19 20 20 22 21 23 22
REMARK SMILES IDX 24 23 17 24 29 25 30 26 31 27 11 28 7 29 3 30 21 31
REMARK H PARENT 21 32
REMARK Flexibility Score: inf
ROOT
ATOM      1  C   UNL     1     124.978 122.160 134.234  1.00  0.00     0.011 C 
ATOM      2  C   UNL     1     124.178 123.404 133.786  1.00  0.00    -0.035 C 
ATOM      3  C   UNL     1     124.852 124.036 132.534  1.00  0.00     0.007 C 
ATOM      4  C   UNL     1     124.591 123.247 131.242  1.00  0.00     0.008 C 
ATOM      5  C   UNL     1     123.078 122.905 130.984  1.00  0.00    -0.026 C 
ATOM      6  C   UNL     1     122.632 123.570 129.654  1.00  0.00     0.008 C 
ATOM      7  C   UNL     1     121.147 123.328 129.315  1.00  0.00     0.012 C 
ATOM      8  C   UNL     1     120.133 123.717 130.456  1.00  0.00    -0.006 C 
ATOM      9  C   UNL     1     120.673 123.210 131.819  1.00  0.00    -0.064 C 
ATOM     10  C   UNL     1     119.838 122.709 132.771  1.00  0.00    -0.027 C 
ATOM     11  C   UNL     1     118.355 122.492 132.600  1.00  0.00     0.032 C 
ATOM     12  C   UNL     1     117.759 123.298 131.428  1.00  0.00     0.006 C 
ATOM     13  C   UNL     1     118.667 123.095 130.162  1.00  0.00    -0.020 C 
ATOM     14  C   UNL     1     117.982 123.818 128.972  1.00  0.00     0.008 C 
ATOM     15  C   UNL     1     116.587 123.291 128.603  1.00  0.00     0.005 C 
ATOM     16  C   UNL     1     115.758 122.700 129.781  1.00  0.00     0.003 C 
ATOM     17  C   UNL     1     116.149 123.261 131.206  1.00  0.00    -0.025 C 
ATOM     18  C   UNL     1     115.396 122.413 132.313  1.00  0.00     0.010 C 
ATOM     19  C   UNL     1     114.231 121.536 131.818  1.00  0.00     0.033 C 
ATOM     20  C   UNL     1     113.367 122.225 130.759  1.00  0.00     0.120 C 
ATOM     21  C   UNL     1     114.196 122.571 129.464  1.00  0.00    -0.006 C 
ATOM     22  C   UNL     1     114.002 121.396 128.462  1.00  0.00     0.014 C 
ATOM     23  C   UNL     1     113.590 123.824 128.769  1.00  0.00     0.014 C 
ATOM     24  C   UNL     1     115.648 124.734 131.333  1.00  0.00     0.012 C 
ATOM     25  C   UNL     1     118.809 121.566 129.832  1.00  0.00     0.012 C 
ATOM     26  C   UNL     1     122.166 123.456 132.124  1.00  0.00     0.022 C 
ATOM     27  C   UNL     1     122.682 123.006 133.516  1.00  0.00     0.015 C 
ATOM     28  C   UNL     1     120.115 125.284 130.507  1.00  0.00     0.017 C 
ATOM     29  C   UNL     1     122.949 121.361 130.864  1.00  0.00     0.012 C 
ATOM     30  C   UNL     1     124.241 124.440 134.931  1.00  0.00     0.011 C 
ENDROOT
BRANCH  20  31
ATOM     31  O   UNL     1     112.748 123.359 131.316  1.00  0.00    -0.393 OA
ATOM     32  H   UNL     1     113.468 123.977 131.609  1.00  0.00     0.210 HD
ENDBRANCH  20  31
TORSDOF 1
ENDMDL
MODEL 2
REMARK VINA RESULT:    -7.197      6.672      9.792
REMARK INTER + INTRA:          -7.407
REMARK INTER:                  -7.407
REMARK INTRA:                   0.000
REMARK UNBOUND:                 0.000
REMARK SMILES CC1(C)CC[C@]2(C)CC[C@]3(C)C(=CC[C@@H]4[C@]5(C)CC[C@@H](O)C(C)(C)[C@H]5CC[C@]43C)[C@H]2C1
REMARK SMILES IDX 1 1 2 2 4 3 5 4 6 5 8 6 9 7 10 8 12 9 13 10 14 11 15 12
REMARK SMILES IDX 28 13 27 14 26 15 25 16 16 17 18 18 19 19 20 20 22 21 23 22
REMARK SMILES IDX 24 23 17 24 29 25 30 26 31 27 11 28 7 29 3 30 21 31
REMARK H PARENT 21 32
REMARK Flexibility Score: inf
ROOT
ATOM      1  C   UNL     1     116.579 124.214 128.181  1.00  0.00     0.011 C 
ATOM      2  C   UNL     1     118.100 124.442 128.028  1.00  0.00    -0.035 C 
ATOM      3  C   UNL     1     118.813 124.128 129.374  1.00  0.00     0.007 C 
ATOM      4  C   UNL     1     118.940 122.623 129.657  1.00  0.00     0.008 C 
ATOM      5  C   UNL     1     119.538 121.787 128.466  1.00  0.00    -0.026 C 
ATOM      6  C   UNL     1     120.856 121.115 128.936  1.00  0.00     0.008 C 
ATOM      7  C   UNL     1     121.552 120.292 127.834  1.00  0.00     0.012 C 
ATOM      8  C   UNL     1     121.816 121.070 126.490  1.00  0.00    -0.006 C 
ATOM      9  C   UNL     1     120.555 121.892 126.116  1.00  0.00    -0.064 C 
ATOM     10  C   UNL     1     120.153 122.025 124.821  1.00  0.00    -0.027 C 
ATOM     11  C   UNL     1     120.790 121.340 123.637  1.00  0.00     0.032 C 
ATOM     12  C   UNL     1     122.215 120.828 123.933  1.00  0.00     0.006 C 
ATOM     13  C   UNL     1     122.199 120.045 125.296  1.00  0.00    -0.020 C 
ATOM     14  C   UNL     1     123.612 119.443 125.508  1.00  0.00     0.008 C 
ATOM     15  C   UNL     1     124.065 118.444 124.433  1.00  0.00     0.005 C 
ATOM     16  C   UNL     1     123.492 118.686 123.006  1.00  0.00     0.003 C 
ATOM     17  C   UNL     1     123.071 120.181 122.711  1.00  0.00    -0.025 C 
ATOM     18  C   UNL     1     122.301 120.232 121.327  1.00  0.00     0.010 C 
ATOM     19  C   UNL     1     122.439 118.989 120.429  1.00  0.00     0.033 C 
ATOM     20  C   UNL     1     123.854 118.408 120.419  1.00  0.00     0.120 C 
ATOM     21  C   UNL     1     124.298 117.927 121.853  1.00  0.00    -0.006 C 
ATOM     22  C   UNL     1     123.972 116.408 121.954  1.00  0.00     0.014 C 
ATOM     23  C   UNL     1     125.844 118.038 121.990  1.00  0.00     0.014 C 
ATOM     24  C   UNL     1     124.356 121.054 122.557  1.00  0.00     0.012 C 
ATOM     25  C   UNL     1     121.139 118.887 125.246  1.00  0.00     0.012 C 
ATOM     26  C   UNL     1     119.873 122.696 127.243  1.00  0.00     0.022 C 
ATOM     27  C   UNL     1     118.653 123.568 126.847  1.00  0.00     0.015 C 
ATOM     28  C   UNL     1     122.970 122.086 126.794  1.00  0.00     0.017 C 
ATOM     29  C   UNL     1     118.503 120.693 128.082  1.00  0.00     0.012 C 
ATOM     30  C   UNL     1     118.321 125.939 127.714  1.00  0.00     0.011 C 
ENDROOT
BRANCH  20  31
ATOM     31  O   UNL     1     124.747 119.346 119.869  1.00  0.00    -0.393 OA
ATOM     32  H   UNL     1     125.484 119.474 120.523  1.00  0.00     0.210 HD
ENDBRANCH  20  31
TORSDOF 1
ENDMDL
MODEL 3
REMARK VINA RESULT:    -7.114      3.712      5.975
REMARK INTER + INTRA:          -7.322
REMARK INTER:                  -7.322
REMARK INTRA:                   0.000
REMARK UNBOUND:                 0.000
REMARK SMILES CC1(C)CC[C@]2(C)CC[C@]3(C)C(=CC[C@@H]4[C@]5(C)CC[C@@H](O)C(C)(C)[C@H]5CC[C@]43C)[C@H]2C1
REMARK SMILES IDX 1 1 2 2 4 3 5 4 6 5 8 6 9 7 10 8 12 9 13 10 14 11 15 12
REMARK SMILES IDX 28 13 27 14 26 15 25 16 16 17 18 18 19 19 20 20 22 21 23 22
REMARK SMILES IDX 24 23 17 24 29 25 30 26 31 27 11 28 7 29 3 30 21 31
REMARK H PARENT 21 32
REMARK Flexibility Score: inf
ROOT
ATOM      1  C   UNL     1     124.131 121.021 124.177  1.00  0.00     0.011 C 
ATOM      2  C   UNL     1     122.684 120.502 124.018  1.00  0.00    -0.035 C 
ATOM      3  C   UNL     1     122.676 118.947 124.087  1.00  0.00     0.007 C 
ATOM      4  C   UNL     1     122.848 118.403 125.513  1.00  0.00     0.008 C 
ATOM      5  C   UNL     1     121.879 119.043 126.574  1.00  0.00    -0.026 C 
ATOM      6  C   UNL     1     120.983 117.927 127.175  1.00  0.00     0.008 C 
ATOM      7  C   UNL     1     119.964 118.447 128.208  1.00  0.00     0.012 C 
ATOM      8  C   UNL     1     119.053 119.630 127.705  1.00  0.00    -0.006 C 
ATOM      9  C   UNL     1     119.924 120.660 126.941  1.00  0.00    -0.064 C 
ATOM     10  C   UNL     1     119.695 121.999 127.046  1.00  0.00    -0.027 C 
ATOM     11  C   UNL     1     118.679 122.639 127.959  1.00  0.00     0.032 C 
ATOM     12  C   UNL     1     117.594 121.652 128.438  1.00  0.00     0.006 C 
ATOM     13  C   UNL     1     118.294 120.340 128.947  1.00  0.00    -0.020 C 
ATOM     14  C   UNL     1     117.192 119.417 129.530  1.00  0.00     0.008 C 
ATOM     15  C   UNL     1     116.420 119.996 130.726  1.00  0.00     0.005 C 
ATOM     16  C   UNL     1     116.275 121.546 130.746  1.00  0.00     0.003 C 
ATOM     17  C   UNL     1     116.361 122.233 129.324  1.00  0.00    -0.025 C 
ATOM     18  C   UNL     1     116.431 123.804 129.519  1.00  0.00     0.010 C 
ATOM     19  C   UNL     1     116.044 124.331 130.913  1.00  0.00     0.033 C 
ATOM     20  C   UNL     1     114.840 123.606 131.518  1.00  0.00     0.120 C 
ATOM     21  C   UNL     1     115.128 122.071 131.728  1.00  0.00    -0.006 C 
ATOM     22  C   UNL     1     115.625 121.888 133.192  1.00  0.00     0.014 C 
ATOM     23  C   UNL     1     113.800 121.266 131.629  1.00  0.00     0.014 C 
ATOM     24  C   UNL     1     115.055 121.924 128.526  1.00  0.00     0.012 C 
ATOM     25  C   UNL     1     119.339 120.680 130.069  1.00  0.00     0.012 C 
ATOM     26  C   UNL     1     120.943 120.108 125.921  1.00  0.00     0.022 C 
ATOM     27  C   UNL     1     121.762 121.148 125.113  1.00  0.00     0.015 C 
ATOM     28  C   UNL     1     118.051 119.001 126.677  1.00  0.00     0.017 C 
ATOM     29  C   UNL     1     122.747 119.676 127.697  1.00  0.00     0.012 C 
ATOM     30  C   UNL     1     122.189 120.915 122.613  1.00  0.00     0.011 C 
ENDROOT
BRANCH  20  31
ATOM     31  O   UNL     1     113.701 123.832 130.723  1.00  0.00    -0.393 OA
ATOM     32  H   UNL     1     113.375 124.749 130.923  1.00  0.00     0.210 HD
ENDBRANCH  20  31
TORSDOF 1
ENDMDL
MODEL 4
REMARK VINA RESULT:    -6.886      3.464      5.887
REMARK INTER + INTRA:          -7.087
REMARK INTER:                  -7.087
REMARK INTRA:                   0.000
REMARK UNBOUND:                 0.000
REMARK SMILES CC1(C)CC[C@]2(C)CC[C@]3(C)C(=CC[C@@H]4[C@]5(C)CC[C@@H](O)C(C)(C)[C@H]5CC[C@]43C)[C@H]2C1
REMARK SMILES IDX 1 1 2 2 4 3 5 4 6 5 8 6 9 7 10 8 12 9 13 10 14 11 15 12
REMARK SMILES IDX 28 13 27 14 26 15 25 16 16 17 18 18 19 19 20 20 22 21 23 22
REMARK SMILES IDX 24 23 17 24 29 25 30 26 31 27 11 28 7 29 3 30 21 31
REMARK H PARENT 21 32
REMARK Flexibility Score: inf
ROOT
ATOM      1  C   UNL     1     124.676 120.344 123.736  1.00  0.00     0.011 C 
ATOM      2  C   UNL     1     123.424 119.711 124.384  1.00  0.00    -0.035 C 
ATOM      3  C   UNL     1     123.858 118.704 125.487  1.00  0.00     0.007 C 
ATOM      4  C   UNL     1     124.335 119.387 126.777  1.00  0.00     0.008 C 
ATOM      5  C   UNL     1     123.352 120.481 127.335  1.00  0.00    -0.026 C 
ATOM      6  C   UNL     1     122.879 120.056 128.751  1.00  0.00     0.008 C 
ATOM      7  C   UNL     1     121.879 121.043 129.386  1.00  0.00     0.012 C 
ATOM      8  C   UNL     1     120.622 121.380 128.497  1.00  0.00    -0.006 C 
ATOM      9  C   UNL     1     121.078 121.625 127.034  1.00  0.00    -0.064 C 
ATOM     10  C   UNL     1     120.498 122.586 126.262  1.00  0.00    -0.027 C 
ATOM     11  C   UNL     1     119.453 123.567 126.732  1.00  0.00     0.032 C 
ATOM     12  C   UNL     1     118.749 123.120 128.030  1.00  0.00     0.006 C 
ATOM     13  C   UNL     1     119.840 122.676 129.070  1.00  0.00    -0.020 C 
ATOM     14  C   UNL     1     119.114 122.347 130.401  1.00  0.00     0.008 C 
ATOM     15  C   UNL     1     118.351 123.519 131.037  1.00  0.00     0.005 C 
ATOM     16  C   UNL     1     117.782 124.571 130.040  1.00  0.00     0.003 C 
ATOM     17  C   UNL     1     117.511 124.018 128.583  1.00  0.00    -0.025 C 
ATOM     18  C   UNL     1     117.161 125.235 127.631  1.00  0.00     0.010 C 
ATOM     19  C   UNL     1     116.803 126.560 128.330  1.00  0.00     0.033 C 
ATOM     20  C   UNL     1     115.925 126.369 129.569  1.00  0.00     0.120 C 
ATOM     21  C   UNL     1     116.653 125.510 130.672  1.00  0.00    -0.006 C 
ATOM     22  C   UNL     1     117.343 126.503 131.652  1.00  0.00     0.014 C 
ATOM     23  C   UNL     1     115.600 124.741 131.521  1.00  0.00     0.014 C 
ATOM     24  C   UNL     1     116.263 123.082 128.615  1.00  0.00     0.012 C 
ATOM     25  C   UNL     1     120.869 123.839 129.311  1.00  0.00     0.012 C 
ATOM     26  C   UNL     1     122.089 120.626 126.431  1.00  0.00     0.022 C 
ATOM     27  C   UNL     1     122.488 120.840 124.948  1.00  0.00     0.015 C 
ATOM     28  C   UNL     1     119.726 120.094 128.504  1.00  0.00     0.017 C 
ATOM     29  C   UNL     1     124.131 121.823 127.428  1.00  0.00     0.012 C 
ATOM     30  C   UNL     1     122.677 118.919 123.287  1.00  0.00     0.011 C 
ENDROOT
BRANCH  20  31
ATOM     31  O   UNL     1     114.687 125.817 129.193  1.00  0.00    -0.393 OA
ATOM     32  H   UNL     1     114.870 125.099 128.532  1.00  0.00     0.210 HD
ENDBRANCH  20  31
TORSDOF 1
ENDMDL
MODEL 5
REMARK VINA RESULT:    -6.817      4.090      8.127
REMARK INTER + INTRA:          -7.017
REMARK INTER:                  -7.017
REMARK INTRA:                   0.000
REMARK UNBOUND:                 0.000
REMARK SMILES CC1(C)CC[C@]2(C)CC[C@]3(C)C(=CC[C@@H]4[C@]5(C)CC[C@@H](O)C(C)(C)[C@H]5CC[C@]43C)[C@H]2C1
REMARK SMILES IDX 1 1 2 2 4 3 5 4 6 5 8 6 9 7 10 8 12 9 13 10 14 11 15 12
REMARK SMILES IDX 28 13 27 14 26 15 25 16 16 17 18 18 19 19 20 20 22 21 23 22
REMARK SMILES IDX 24 23 17 24 29 25 30 26 31 27 11 28 7 29 3 30 21 31
REMARK H PARENT 21 32
REMARK Flexibility Score: inf
ROOT
ATOM      1  C   UNL     1     113.792 122.035 131.891  1.00  0.00     0.011 C 
ATOM      2  C   UNL     1     114.264 122.750 130.604  1.00  0.00    -0.035 C 
ATOM      3  C   UNL     1     114.705 124.203 130.946  1.00  0.00     0.007 C 
ATOM      4  C   UNL     1     116.074 124.273 131.639  1.00  0.00     0.008 C 
ATOM      5  C   UNL     1     117.213 123.470 130.909  1.00  0.00    -0.026 C 
ATOM      6  C   UNL     1     118.334 124.458 130.486  1.00  0.00     0.008 C 
ATOM      7  C   UNL     1     119.493 123.783 129.728  1.00  0.00     0.012 C 
ATOM      8  C   UNL     1     119.061 122.923 128.481  1.00  0.00    -0.006 C 
ATOM      9  C   UNL     1     117.821 122.068 128.852  1.00  0.00    -0.064 C 
ATOM     10  C   UNL     1     117.671 120.796 128.386  1.00  0.00    -0.027 C 
ATOM     11  C   UNL     1     118.691 120.043 127.569  1.00  0.00     0.032 C 
ATOM     12  C   UNL     1     119.734 120.967 126.907  1.00  0.00     0.006 C 
ATOM     13  C   UNL     1     120.275 121.973 127.985  1.00  0.00    -0.020 C 
ATOM     14  C   UNL     1     121.403 122.809 127.324  1.00  0.00     0.008 C 
ATOM     15  C   UNL     1     122.612 121.999 126.831  1.00  0.00     0.005 C 
ATOM     16  C   UNL     1     122.305 120.543 126.374  1.00  0.00     0.003 C 
ATOM     17  C   UNL     1     120.818 120.304 125.893  1.00  0.00    -0.025 C 
ATOM     18  C   UNL     1     120.593 118.750 125.683  1.00  0.00     0.010 C 
ATOM     19  C   UNL     1     121.864 117.883 125.618  1.00  0.00     0.033 C 
ATOM     20  C   UNL     1     122.998 118.537 124.825  1.00  0.00     0.120 C 
ATOM     21  C   UNL     1     123.461 119.893 125.481  1.00  0.00    -0.006 C 
ATOM     22  C   UNL     1     124.668 119.571 126.410  1.00  0.00     0.014 C 
ATOM     23  C   UNL     1     124.017 120.847 124.383  1.00  0.00     0.014 C 
ATOM     24  C   UNL     1     120.611 120.992 124.507  1.00  0.00     0.012 C 
ATOM     25  C   UNL     1     120.858 121.191 129.217  1.00  0.00     0.012 C 
ATOM     26  C   UNL     1     116.681 122.769 129.621  1.00  0.00     0.022 C 
ATOM     27  C   UNL     1     115.417 121.925 129.928  1.00  0.00     0.015 C 
ATOM     28  C   UNL     1     118.618 123.946 127.379  1.00  0.00     0.017 C 
ATOM     29  C   UNL     1     117.787 122.432 131.914  1.00  0.00     0.012 C 
ATOM     30  C   UNL     1     113.056 122.836 129.644  1.00  0.00     0.011 C 
ENDROOT
BRANCH  20  31
ATOM     31  O   UNL     1     122.607 118.698 123.483  1.00  0.00    -0.393 OA
ATOM     32  H   UNL     1     122.449 119.666 123.334  1.00  0.00     0.210 HD
ENDBRANCH  20  31
TORSDOF 1
ENDMDL
MODEL 6
REMARK VINA RESULT:    -6.720      7.543     10.157
REMARK INTER + INTRA:          -6.917
REMARK INTER:                  -6.917
REMARK INTRA:                   0.000
REMARK UNBOUND:                 0.000
REMARK SMILES CC1(C)CC[C@]2(C)CC[C@]3(C)C(=CC[C@@H]4[C@]5(C)CC[C@@H](O)C(C)(C)[C@H]5CC[C@]43C)[C@H]2C1
REMARK SMILES IDX 1 1 2 2 4 3 5 4 6 5 8 6 9 7 10 8 12 9 13 10 14 11 15 12
REMARK SMILES IDX 28 13 27 14 26 15 25 16 16 17 18 18 19 19 20 20 22 21 23 22
REMARK SMILES IDX 24 23 17 24 29 25 30 26 31 27 11 28 7 29 3 30 21 31
REMARK H PARENT 21 32
REMARK Flexibility Score: inf
ROOT
ATOM      1  C   UNL     1     128.647 121.819 119.736  1.00  0.00     0.011 C 
ATOM      2  C   UNL     1     127.167 122.232 119.907  1.00  0.00    -0.035 C 
ATOM      3  C   UNL     1     126.288 121.458 118.882  1.00  0.00     0.007 C 
ATOM      4  C   UNL     1     126.054 119.990 119.271  1.00  0.00     0.008 C 
ATOM      5  C   UNL     1     125.557 119.781 120.749  1.00  0.00    -0.026 C 
ATOM      6  C   UNL     1     124.161 119.102 120.718  1.00  0.00     0.008 C 
ATOM      7  C   UNL     1     123.557 118.877 122.118  1.00  0.00     0.012 C 
ATOM      8  C   UNL     1     123.489 120.163 123.027  1.00  0.00    -0.006 C 
ATOM      9  C   UNL     1     124.825 120.943 122.913  1.00  0.00    -0.064 C 
ATOM     10  C   UNL     1     125.379 121.561 123.993  1.00  0.00    -0.027 C 
ATOM     11  C   UNL     1     124.850 121.490 125.404  1.00  0.00     0.032 C 
ATOM     12  C   UNL     1     123.376 121.038 125.472  1.00  0.00     0.006 C 
ATOM     13  C   UNL     1     123.196 119.764 124.569  1.00  0.00    -0.020 C 
ATOM     14  C   UNL     1     121.738 119.264 124.749  1.00  0.00     0.008 C 
ATOM     15  C   UNL     1     121.363 118.846 126.179  1.00  0.00     0.005 C 
ATOM     16  C   UNL     1     122.109 119.601 127.318  1.00  0.00     0.003 C 
ATOM     17  C   UNL     1     122.636 121.038 126.919  1.00  0.00    -0.025 C 
ATOM     18  C   UNL     1     123.562 121.583 128.083  1.00  0.00     0.010 C 
ATOM     19  C   UNL     1     123.466 120.841 129.429  1.00  0.00     0.033 C 
ATOM     20  C   UNL     1     122.034 120.453 129.802  1.00  0.00     0.120 C 
ATOM     21  C   UNL     1     121.404 119.466 128.746  1.00  0.00    -0.006 C 
ATOM     22  C   UNL     1     121.639 118.018 129.267  1.00  0.00     0.014 C 
ATOM     23  C   UNL     1     119.860 119.655 128.705  1.00  0.00     0.014 C 
ATOM     24  C   UNL     1     121.423 122.013 126.799  1.00  0.00     0.012 C 
ATOM     25  C   UNL     1     124.194 118.636 125.012  1.00  0.00     0.012 C 
ATOM     26  C   UNL     1     125.411 121.142 121.499  1.00  0.00     0.022 C 
ATOM     27  C   UNL     1     126.711 121.980 121.388  1.00  0.00     0.015 C 
ATOM     28  C   UNL     1     122.360 121.066 122.421  1.00  0.00     0.017 C 
ATOM     29  C   UNL     1     126.572 118.852 121.470  1.00  0.00     0.012 C 
ATOM     30  C   UNL     1     127.059 123.738 119.579  1.00  0.00     0.011 C 
ENDROOT
BRANCH  20  31
ATOM     31  O   UNL     1     121.259 121.613 129.979  1.00  0.00    -0.393 OA
ATOM     32  H   UNL     1     120.543 121.601 129.290  1.00  0.00     0.210 HD
ENDBRANCH  20  31
TORSDOF 1
ENDMDL
MODEL 7
REMARK VINA RESULT:    -6.701      3.451      8.561
REMARK INTER + INTRA:          -6.897
REMARK INTER:                  -6.897
REMARK INTRA:                   0.000
REMARK UNBOUND:                 0.000
REMARK SMILES CC1(C)CC[C@]2(C)CC[C@]3(C)C(=CC[C@@H]4[C@]5(C)CC[C@@H](O)C(C)(C)[C@H]5CC[C@]43C)[C@H]2C1
REMARK SMILES IDX 1 1 2 2 4 3 5 4 6 5 8 6 9 7 10 8 12 9 13 10 14 11 15 12
REMARK SMILES IDX 28 13 27 14 26 15 25 16 16 17 18 18 19 19 20 20 22 21 23 22
REMARK SMILES IDX 24 23 17 24 29 25 30 26 31 27 11 28 7 29 3 30 21 31
REMARK H PARENT 21 32
REMARK Flexibility Score: inf
ROOT
ATOM      1  C   UNL     1     113.882 121.524 130.545  1.00  0.00     0.011 C 
ATOM      2  C   UNL     1     114.690 121.324 129.243  1.00  0.00    -0.035 C 
ATOM      3  C   UNL     1     114.387 122.488 128.256  1.00  0.00     0.007 C 
ATOM      4  C   UNL     1     115.086 123.802 128.637  1.00  0.00     0.008 C 
ATOM      5  C   UNL     1     116.626 123.660 128.922  1.00  0.00    -0.026 C 
ATOM      6  C   UNL     1     117.409 124.535 127.906  1.00  0.00     0.008 C 
ATOM      7  C   UNL     1     118.939 124.447 128.071  1.00  0.00     0.012 C 
ATOM      8  C   UNL     1     119.526 122.984 128.057  1.00  0.00    -0.006 C 
ATOM      9  C   UNL     1     118.632 122.064 128.929  1.00  0.00    -0.064 C 
ATOM     10  C   UNL     1     119.170 121.084 129.707  1.00  0.00    -0.027 C 
ATOM     11  C   UNL     1     120.646 120.836 129.898  1.00  0.00     0.032 C 
ATOM     12  C   UNL     1     121.512 121.481 128.796  1.00  0.00     0.006 C 
ATOM     13  C   UNL     1     121.052 122.970 128.598  1.00  0.00    -0.020 C 
ATOM     14  C   UNL     1     122.013 123.627 127.573  1.00  0.00     0.008 C 
ATOM     15  C   UNL     1     123.488 123.675 128.000  1.00  0.00     0.005 C 
ATOM     16  C   UNL     1     123.958 122.518 128.929  1.00  0.00     0.003 C 
ATOM     17  C   UNL     1     123.112 121.188 128.803  1.00  0.00    -0.025 C 
ATOM     18  C   UNL     1     123.549 120.193 129.955  1.00  0.00     0.010 C 
ATOM     19  C   UNL     1     124.869 120.527 130.674  1.00  0.00     0.033 C 
ATOM     20  C   UNL     1     125.964 121.019 129.725  1.00  0.00     0.120 C 
ATOM     21  C   UNL     1     125.547 122.352 128.995  1.00  0.00    -0.006 C 
ATOM     22  C   UNL     1     126.122 123.536 129.828  1.00  0.00     0.014 C 
ATOM     23  C   UNL     1     126.246 122.434 127.607  1.00  0.00     0.014 C 
ATOM     24  C   UNL     1     123.443 120.496 127.444  1.00  0.00     0.012 C 
ATOM     25  C   UNL     1     121.127 123.750 129.960  1.00  0.00     0.012 C 
ATOM     26  C   UNL     1     117.104 122.184 128.750  1.00  0.00     0.022 C 
ATOM     27  C   UNL     1     116.221 121.214 129.577  1.00  0.00     0.015 C 
ATOM     28  C   UNL     1     119.415 122.485 126.575  1.00  0.00     0.017 C 
ATOM     29  C   UNL     1     116.896 124.170 130.365  1.00  0.00     0.012 C 
ATOM     30  C   UNL     1     114.206 120.010 128.587  1.00  0.00     0.011 C 
ENDROOT
BRANCH  20  31
ATOM     31  O   UNL     1     126.300 119.996 128.818  1.00  0.00    -0.393 OA
ATOM     32  H   UNL     1     126.762 120.421 128.049  1.00  0.00     0.210 HD
ENDBRANCH  20  31
TORSDOF 1
ENDMDL
MODEL 8
REMARK VINA RESULT:    -6.643      2.831      8.309
REMARK INTER + INTRA:          -6.837
REMARK INTER:                  -6.837
REMARK INTRA:                   0.000
REMARK UNBOUND:                 0.000
REMARK SMILES CC1(C)CC[C@]2(C)CC[C@]3(C)C(=CC[C@@H]4[C@]5(C)CC[C@@H](O)C(C)(C)[C@H]5CC[C@]43C)[C@H]2C1
REMARK SMILES IDX 1 1 2 2 4 3 5 4 6 5 8 6 9 7 10 8 12 9 13 10 14 11 15 12
REMARK SMILES IDX 28 13 27 14 26 15 25 16 16 17 18 18 19 19 20 20 22 21 23 22
REMARK SMILES IDX 24 23 17 24 29 25 30 26 31 27 11 28 7 29 3 30 21 31
REMARK H PARENT 21 32
REMARK Flexibility Score: inf
ROOT
ATOM      1  C   UNL     1     113.260 122.113 131.219  1.00  0.00     0.011 C 
ATOM      2  C   UNL     1     114.226 120.947 131.527  1.00  0.00    -0.035 C 
ATOM      3  C   UNL     1     114.243 119.952 130.330  1.00  0.00     0.007 C 
ATOM      4  C   UNL     1     115.046 120.466 129.126  1.00  0.00     0.008 C 
ATOM      5  C   UNL     1     116.489 120.982 129.480  1.00  0.00    -0.026 C 
ATOM      6  C   UNL     1     117.532 120.119 128.719  1.00  0.00     0.008 C 
ATOM      7  C   UNL     1     118.991 120.516 129.019  1.00  0.00     0.012 C 
ATOM      8  C   UNL     1     119.368 120.558 130.548  1.00  0.00    -0.006 C 
ATOM      9  C   UNL     1     118.233 121.261 131.338  1.00  0.00    -0.064 C 
ATOM     10  C   UNL     1     118.505 122.089 132.384  1.00  0.00    -0.027 C 
ATOM     11  C   UNL     1     119.885 122.499 132.834  1.00  0.00     0.032 C 
ATOM     12  C   UNL     1     120.992 121.559 132.313  1.00  0.00     0.006 C 
ATOM     13  C   UNL     1     120.775 121.327 130.774  1.00  0.00    -0.020 C 
ATOM     14  C   UNL     1     121.965 120.478 130.255  1.00  0.00     0.008 C 
ATOM     15  C   UNL     1     123.349 121.128 130.411  1.00  0.00     0.005 C 
ATOM     16  C   UNL     1     123.506 122.091 131.624  1.00  0.00     0.003 C 
ATOM     17  C   UNL     1     122.516 121.805 132.824  1.00  0.00    -0.025 C 
ATOM     18  C   UNL     1     122.629 122.988 133.872  1.00  0.00     0.010 C 
ATOM     19  C   UNL     1     123.854 123.909 133.725  1.00  0.00     0.033 C 
ATOM     20  C   UNL     1     125.140 123.151 133.387  1.00  0.00     0.120 C 
ATOM     21  C   UNL     1     125.028 122.397 132.008  1.00  0.00    -0.006 C 
ATOM     22  C   UNL     1     125.621 123.336 130.917  1.00  0.00     0.014 C 
ATOM     23  C   UNL     1     125.938 121.135 132.021  1.00  0.00     0.014 C 
ATOM     24  C   UNL     1     122.958 120.498 133.553  1.00  0.00     0.012 C 
ATOM     25  C   UNL     1     120.743 122.702 130.015  1.00  0.00     0.012 C 
ATOM     26  C   UNL     1     116.782 120.851 131.007  1.00  0.00     0.022 C 
ATOM     27  C   UNL     1     115.657 121.510 131.848  1.00  0.00     0.015 C 
ATOM     28  C   UNL     1     119.423 119.066 131.025  1.00  0.00     0.017 C 
ATOM     29  C   UNL     1     116.597 122.461 129.015  1.00  0.00     0.012 C 
ATOM     30  C   UNL     1     113.677 120.194 132.760  1.00  0.00     0.011 C 
ENDROOT
BRANCH  20  31
ATOM     31  O   UNL     1     125.471 122.284 134.445  1.00  0.00    -0.393 OA
ATOM     32  H   UNL     1     125.601 122.841 135.257  1.00  0.00     0.210 HD
ENDBRANCH  20  31
TORSDOF 1
ENDMDL
MODEL 9
REMARK VINA RESULT:    -6.483      2.422      3.555
REMARK INTER + INTRA:          -6.673
REMARK INTER:                  -6.673
REMARK INTRA:                   0.000
REMARK UNBOUND:                 0.000
REMARK SMILES CC1(C)CC[C@]2(C)CC[C@]3(C)C(=CC[C@@H]4[C@]5(C)CC[C@@H](O)C(C)(C)[C@H]5CC[C@]43C)[C@H]2C1
REMARK SMILES IDX 1 1 2 2 4 3 5 4 6 5 8 6 9 7 10 8 12 9 13 10 14 11 15 12
REMARK SMILES IDX 28 13 27 14 26 15 25 16 16 17 18 18 19 19 20 20 22 21 23 22
REMARK SMILES IDX 24 23 17 24 29 25 30 26 31 27 11 28 7 29 3 30 21 31
REMARK H PARENT 21 32
REMARK Flexibility Score: inf
ROOT
ATOM      1  C   UNL     1     126.391 123.147 129.465  1.00  0.00     0.011 C 
ATOM      2  C   UNL     1     125.332 123.217 128.342  1.00  0.00    -0.035 C 
ATOM      3  C   UNL     1     125.489 121.990 127.398  1.00  0.00     0.007 C 
ATOM      4  C   UNL     1     124.946 120.686 128.002  1.00  0.00     0.008 C 
ATOM      5  C   UNL     1     123.488 120.798 128.582  1.00  0.00    -0.026 C 
ATOM      6  C   UNL     1     122.563 119.819 127.809  1.00  0.00     0.008 C 
ATOM      7  C   UNL     1     121.094 119.868 128.272  1.00  0.00     0.012 C 
ATOM      8  C   UNL     1     120.444 121.304 128.274  1.00  0.00    -0.006 C 
ATOM      9  C   UNL     1     121.447 122.319 128.882  1.00  0.00    -0.064 C 
ATOM     10  C   UNL     1     121.026 123.339 129.682  1.00  0.00    -0.027 C 
ATOM     11  C   UNL     1     119.608 123.550 130.149  1.00  0.00     0.032 C 
ATOM     12  C   UNL     1     118.573 122.792 129.292  1.00  0.00     0.006 C 
ATOM     13  C   UNL     1     119.057 121.308 129.110  1.00  0.00    -0.020 C 
ATOM     14  C   UNL     1     117.945 120.541 128.349  1.00  0.00     0.008 C 
ATOM     15  C   UNL     1     116.588 120.475 129.067  1.00  0.00     0.005 C 
ATOM     16  C   UNL     1     116.256 121.685 129.988  1.00  0.00     0.003 C 
ATOM     17  C   UNL     1     116.994 123.029 129.601  1.00  0.00    -0.025 C 
ATOM     18  C   UNL     1     116.745 124.096 130.746  1.00  0.00     0.010 C 
ATOM     19  C   UNL     1     115.612 123.774 131.737  1.00  0.00     0.033 C 
ATOM     20  C   UNL     1     114.377 123.172 131.065  1.00  0.00     0.120 C 
ATOM     21  C   UNL     1     114.705 121.800 130.362  1.00  0.00    -0.006 C 
ATOM     22  C   UNL     1     114.366 120.667 131.374  1.00  0.00     0.014 C 
ATOM     23  C   UNL     1     113.750 121.586 129.152  1.00  0.00     0.014 C 
ATOM     24  C   UNL     1     116.365 123.600 128.292  1.00  0.00     0.012 C 
ATOM     25  C   UNL     1     119.293 120.635 130.510  1.00  0.00     0.012 C 
ATOM     26  C   UNL     1     122.913 122.238 128.407  1.00  0.00     0.022 C 
ATOM     27  C   UNL     1     123.894 123.300 128.969  1.00  0.00     0.015 C 
ATOM     28  C   UNL     1     120.234 121.689 126.769  1.00  0.00     0.017 C 
ATOM     29  C   UNL     1     123.536 120.393 130.082  1.00  0.00     0.012 C 
ATOM     30  C   UNL     1     125.610 124.491 127.512  1.00  0.00     0.011 C 
ENDROOT
BRANCH  20  31
ATOM     31  O   UNL     1     113.817 124.108 130.176  1.00  0.00    -0.393 OA
ATOM     32  H   UNL     1     114.561 124.490 129.639  1.00  0.00     0.210 HD
ENDBRANCH  20  31
TORSDOF 1
ENDMDL
