MODEL 1
REMARK VINA RESULT:    -1.633      0.000      0.000
REMARK INTER + INTRA:          -2.149
REMARK INTER:                  -2.015
REMARK INTRA:                  -0.133
REMARK UNBOUND:                -0.133
REMARK SMILES CCCCCC(=O)[O-]
REMARK SMILES IDX 4 1 5 2 6 3 7 4 8 5 3 6 2 7 1 8
REMARK H PARENT
REMARK Flexibility Score: inf
ROOT
ATOM      1  C   UNL     1      15.206   6.740   8.091  1.00  0.00     0.006 C 
ENDROOT
BRANCH   1   2
ATOM      2  C   UNL     1      15.648   6.790   9.556  1.00  0.00     0.053 C 
BRANCH   2   3
ATOM      3  C   UNL     1      16.956   7.506   9.686  1.00  0.00     0.041 C 
ATOM      4  O   UNL     1      18.023   6.854   9.835  1.00  0.00    -0.550 OA
ATOM      5  O   UNL     1      16.991   8.895   9.692  1.00  0.00    -0.550 OA
ENDBRANCH   2   3
ENDBRANCH   1   2
BRANCH   1   6
ATOM      6  C   UNL     1      15.530   5.375   7.466  1.00  0.00     0.000 C 
BRANCH   6   7
ATOM      7  C   UNL     1      16.824   5.396   6.638  1.00  0.00    -0.003 C 
ATOM      8  C   UNL     1      17.060   4.093   5.876  1.00  0.00     0.004 C 
ENDBRANCH   6   7
ENDBRANCH   1   6
TORSDOF 4
ENDMDL
MODEL 2
REMARK VINA RESULT:    -0.897      0.776      1.395
REMARK INTER + INTRA:          -1.241
REMARK INTER:                  -1.094
REMARK INTRA:                  -0.146
REMARK UNBOUND:                -0.133
REMARK SMILES CCCCCC(=O)[O-]
REMARK SMILES IDX 4 1 5 2 6 3 7 4 8 5 3 6 2 7 1 8
REMARK H PARENT
REMARK Flexibility Score: inf
ROOT
ATOM      1  C   UNL     1      15.716   6.051   8.860  1.00  0.00     0.006 C 
ENDROOT
BRANCH   1   2
ATOM      2  C   UNL     1      15.695   7.414   9.559  1.00  0.00     0.053 C 
BRANCH   2   3
ATOM      3  C   UNL     1      17.088   7.915   9.775  1.00  0.00     0.041 C 
ATOM      4  O   UNL     1      17.339   9.146   9.688  1.00  0.00    -0.550 OA
ATOM      5  O   UNL     1      18.119   7.018  10.022  1.00  0.00    -0.550 OA
ENDBRANCH   2   3
ENDBRANCH   1   2
BRANCH   1   6
ATOM      6  C   UNL     1      15.559   6.211   7.341  1.00  0.00     0.000 C 
BRANCH   6   7
ATOM      7  C   UNL     1      16.127   5.016   6.559  1.00  0.00    -0.003 C 
ATOM      8  C   UNL     1      17.632   4.843   6.753  1.00  0.00     0.004 C 
ENDBRANCH   6   7
ENDBRANCH   1   6
TORSDOF 4
ENDMDL
MODEL 3
REMARK VINA RESULT:    -0.382      2.258      4.043
REMARK INTER + INTRA:          -0.605
REMARK INTER:                  -0.449
REMARK INTRA:                  -0.156
REMARK UNBOUND:                -0.133
REMARK SMILES CCCCCC(=O)[O-]
REMARK SMILES IDX 4 1 5 2 6 3 7 4 8 5 3 6 2 7 1 8
REMARK H PARENT
REMARK Flexibility Score: inf
ROOT
ATOM      1  C   UNL     1      15.601   6.043   8.803  1.00  0.00     0.006 C 
ENDROOT
BRANCH   1   2
ATOM      2  C   UNL     1      15.682   6.142   7.277  1.00  0.00     0.053 C 
BRANCH   2   3
ATOM      3  C   UNL     1      16.652   5.138   6.737  1.00  0.00     0.041 C 
ATOM      4  O   UNL     1      16.281   4.298   5.877  1.00  0.00    -0.550 OA
ATOM      5  O   UNL     1      17.953   5.098   7.222  1.00  0.00    -0.550 OA
ENDBRANCH   2   3
ENDBRANCH   1   2
BRANCH   1   6
ATOM      6  C   UNL     1      15.962   7.384   9.460  1.00  0.00     0.000 C 
BRANCH   6   7
ATOM      7  C   UNL     1      17.442   7.463   9.866  1.00  0.00    -0.003 C 
ATOM      8  C   UNL     1      17.984   8.892   9.847  1.00  0.00     0.004 C 
ENDBRANCH   6   7
ENDBRANCH   1   6
TORSDOF 4
ENDMDL
