MODEL 1
REMARK VINA RESULT:    -5.302      0.000      0.000
REMARK INTER + INTRA:          -5.889
REMARK INTER:                  -6.387
REMARK INTRA:                   0.498
REMARK UNBOUND:                 0.498
REMARK SMILES Oc1cc(O)c2c(c1)O[C@@H](c1ccc(O)c(O)c1)[C@@H](O)C2
REMARK SMILES IDX 21 1 19 2 10 3 9 4 7 5 8 6 2 7 3 8 4 9 6 10 20 11 11 13
REMARK SMILES IDX 18 14 12 15 16 16 13 17 14 18 17 19 15 21 5 23 1 25
REMARK H PARENT 20 12 17 20 15 22 5 24 1 26
REMARK Flexibility Score: inf
ROOT
ATOM      1  C   UNL     1     -23.175  16.935  18.136  1.00  0.00     0.079 C 
ATOM      2  C   UNL     1     -22.886  15.518  18.652  1.00  0.00     0.164 C 
ATOM      3  C   UNL     1     -23.899  15.105  19.747  1.00  0.00     0.232 C 
ATOM      4  O   UNL     1     -23.968  16.101  20.773  1.00  0.00    -0.482 OA
ATOM      5  C   UNL     1     -23.734  17.463  20.542  1.00  0.00     0.131 A 
ATOM      6  C   UNL     1     -23.908  18.372  21.589  1.00  0.00     0.093 A 
ATOM      7  C   UNL     1     -23.696  19.737  21.382  1.00  0.00     0.122 A 
ATOM      8  C   UNL     1     -23.312  20.199  20.117  1.00  0.00     0.092 A 
ATOM      9  C   UNL     1     -23.133  19.298  19.058  1.00  0.00     0.126 A 
ATOM     10  C   UNL     1     -23.324  17.918  19.272  1.00  0.00     0.039 A 
ENDROOT
BRANCH   2  11
ATOM     11  O   UNL     1     -22.906  14.616  17.577  1.00  0.00    -0.389 OA
ATOM     12  H   UNL     1     -23.482  13.856  17.853  1.00  0.00     0.211 HD
ENDBRANCH   2  11
BRANCH   3  13
ATOM     13  C   UNL     1     -25.279  14.800  19.187  1.00  0.00    -0.001 A 
ATOM     14  C   UNL     1     -26.328  14.488  20.068  1.00  0.00     0.057 A 
ATOM     15  C   UNL     1     -25.529  14.780  17.804  1.00  0.00     0.012 A 
ATOM     16  C   UNL     1     -27.607  14.175  19.590  1.00  0.00     0.157 A 
ATOM     17  C   UNL     1     -26.801  14.471  17.319  1.00  0.00     0.050 A 
ATOM     18  C   UNL     1     -27.847  14.170  18.196  1.00  0.00     0.157 A 
BRANCH  16  19
ATOM     19  O   UNL     1     -28.598  13.875  20.528  1.00  0.00    -0.504 OA
ATOM     20  H   UNL     1     -29.461  13.403  20.304  1.00  0.00     0.293 HD
ENDBRANCH  16  19
BRANCH  18  21
ATOM     21  O   UNL     1     -29.096  13.875  17.646  1.00  0.00    -0.504 OA
ATOM     22  H   UNL     1     -29.583  13.002  17.786  1.00  0.00     0.293 HD
ENDBRANCH  18  21
ENDBRANCH   3  13
BRANCH   9  23
ATOM     23  O   UNL     1     -22.768  19.768  17.797  1.00  0.00    -0.507 OA
ATOM     24  H   UNL     1     -23.043  19.285  16.950  1.00  0.00     0.293 HD
ENDBRANCH   9  23
BRANCH   7  25
ATOM     25  O   UNL     1     -23.874  20.627  22.439  1.00  0.00    -0.508 OA
ATOM     26  H   UNL     1     -24.534  20.439  23.186  1.00  0.00     0.293 HD
ENDBRANCH   7  25
TORSDOF 6
ENDMDL
MODEL 2
REMARK VINA RESULT:    -5.208     11.443     14.185
REMARK INTER + INTRA:          -5.775
REMARK INTER:                  -5.991
REMARK INTRA:                   0.215
REMARK UNBOUND:                 0.498
REMARK SMILES Oc1cc(O)c2c(c1)O[C@@H](c1ccc(O)c(O)c1)[C@@H](O)C2
REMARK SMILES IDX 21 1 19 2 10 3 9 4 7 5 8 6 2 7 3 8 4 9 6 10 20 11 11 13
REMARK SMILES IDX 18 14 12 15 16 16 13 17 14 18 17 19 15 21 5 23 1 25
REMARK H PARENT 20 12 17 20 15 22 5 24 1 26
REMARK Flexibility Score: inf
ROOT
ATOM      1  C   UNL     1     -16.423  15.639  11.110  1.00  0.00     0.079 C 
ATOM      2  C   UNL     1     -16.220  14.398  11.991  1.00  0.00     0.164 C 
ATOM      3  C   UNL     1     -14.718  14.058  12.140  1.00  0.00     0.232 C 
ATOM      4  O   UNL     1     -14.089  13.975  10.857  1.00  0.00    -0.482 OA
ATOM      5  C   UNL     1     -14.512  14.712   9.742  1.00  0.00     0.131 A 
ATOM      6  C   UNL     1     -13.782  14.629   8.554  1.00  0.00     0.093 A 
ATOM      7  C   UNL     1     -14.173  15.365   7.432  1.00  0.00     0.122 A 
ATOM      8  C   UNL     1     -15.300  16.193   7.500  1.00  0.00     0.092 A 
ATOM      9  C   UNL     1     -16.042  16.284   8.686  1.00  0.00     0.126 A 
ATOM     10  C   UNL     1     -15.661  15.525   9.810  1.00  0.00     0.039 A 
ENDROOT
BRANCH   2  11
ATOM     11  O   UNL     1     -16.819  14.611  13.243  1.00  0.00    -0.389 OA
ATOM     12  H   UNL     1     -17.792  14.720  13.078  1.00  0.00     0.211 HD
ENDBRANCH   2  11
BRANCH   3  13
ATOM     13  C   UNL     1     -13.982  15.029  13.049  1.00  0.00    -0.001 A 
ATOM     14  C   UNL     1     -14.490  15.293  14.333  1.00  0.00     0.057 A 
ATOM     15  C   UNL     1     -12.825  15.706  12.627  1.00  0.00     0.012 A 
ATOM     16  C   UNL     1     -13.856  16.202  15.189  1.00  0.00     0.157 A 
ATOM     17  C   UNL     1     -12.186  16.612  13.475  1.00  0.00     0.050 A 
ATOM     18  C   UNL     1     -12.686  16.868  14.756  1.00  0.00     0.157 A 
BRANCH  16  19
ATOM     19  O   UNL     1     -14.420  16.412  16.450  1.00  0.00    -0.504 OA
ATOM     20  H   UNL     1     -14.279  15.800  17.240  1.00  0.00     0.293 HD
ENDBRANCH  16  19
BRANCH  18  21
ATOM     21  O   UNL     1     -11.996  17.781  15.556  1.00  0.00    -0.504 OA
ATOM     22  H   UNL     1     -11.840  18.746  15.305  1.00  0.00     0.293 HD
ENDBRANCH  18  21
ENDBRANCH   3  13
BRANCH   9  23
ATOM     23  O   UNL     1     -17.152  17.126   8.751  1.00  0.00    -0.507 OA
ATOM     24  H   UNL     1     -17.184  18.002   8.245  1.00  0.00     0.293 HD
ENDBRANCH   9  23
BRANCH   7  25
ATOM     25  O   UNL     1     -13.433  15.269   6.256  1.00  0.00    -0.508 OA
ATOM     26  H   UNL     1     -12.442  15.055   6.269  1.00  0.00     0.293 HD
ENDBRANCH   7  25
TORSDOF 6
ENDMDL
MODEL 3
REMARK VINA RESULT:    -4.752     10.972     13.180
REMARK INTER + INTRA:          -5.226
REMARK INTER:                  -5.179
REMARK INTRA:                  -0.047
REMARK UNBOUND:                 0.498
REMARK SMILES Oc1cc(O)c2c(c1)O[C@@H](c1ccc(O)c(O)c1)[C@@H](O)C2
REMARK SMILES IDX 21 1 19 2 10 3 9 4 7 5 8 6 2 7 3 8 4 9 6 10 20 11 11 13
REMARK SMILES IDX 18 14 12 15 16 16 13 17 14 18 17 19 15 21 5 23 1 25
REMARK H PARENT 20 12 17 20 15 22 5 24 1 26
REMARK Flexibility Score: inf
ROOT
ATOM      1  C   UNL     1     -12.629  15.678  12.260  1.00  0.00     0.079 C 
ATOM      2  C   UNL     1     -12.775  14.346  11.512  1.00  0.00     0.164 C 
ATOM      3  C   UNL     1     -14.251  13.879  11.484  1.00  0.00     0.232 C 
ATOM      4  O   UNL     1     -14.803  13.875  12.805  1.00  0.00    -0.482 OA
ATOM      5  C   UNL     1     -14.384  14.747  13.819  1.00  0.00     0.131 A 
ATOM      6  C   UNL     1     -15.042  14.725  15.051  1.00  0.00     0.093 A 
ATOM      7  C   UNL     1     -14.655  15.595  16.074  1.00  0.00     0.122 A 
ATOM      8  C   UNL     1     -13.604  16.496  15.862  1.00  0.00     0.092 A 
ATOM      9  C   UNL     1     -12.935  16.527  14.631  1.00  0.00     0.126 A 
ATOM     10  C   UNL     1     -13.310  15.635  13.607  1.00  0.00     0.039 A 
ENDROOT
BRANCH   2  11
ATOM     11  O   UNL     1     -12.262  14.480  10.212  1.00  0.00    -0.389 OA
ATOM     12  H   UNL     1     -11.924  13.584   9.945  1.00  0.00     0.211 HD
ENDBRANCH   2  11
BRANCH   3  13
ATOM     13  C   UNL     1     -15.109  14.698  10.534  1.00  0.00    -0.001 A 
ATOM     14  C   UNL     1     -15.050  14.440   9.154  1.00  0.00     0.057 A 
ATOM     15  C   UNL     1     -15.934  15.740  10.993  1.00  0.00     0.012 A 
ATOM     16  C   UNL     1     -15.806  15.191   8.244  1.00  0.00     0.157 A 
ATOM     17  C   UNL     1     -16.691  16.492  10.093  1.00  0.00     0.050 A 
ATOM     18  C   UNL     1     -16.640  16.228   8.721  1.00  0.00     0.157 A 
BRANCH  16  19
ATOM     19  O   UNL     1     -15.694  14.875   6.888  1.00  0.00    -0.504 OA
ATOM     20  H   UNL     1     -16.399  14.378   6.365  1.00  0.00     0.293 HD
ENDBRANCH  16  19
BRANCH  18  21
ATOM     21  O   UNL     1     -17.426  17.013   7.875  1.00  0.00    -0.504 OA
ATOM     22  H   UNL     1     -18.067  17.723   8.198  1.00  0.00     0.293 HD
ENDBRANCH  18  21
ENDBRANCH   3  13
BRANCH   9  23
ATOM     23  O   UNL     1     -11.902  17.440  14.421  1.00  0.00    -0.507 OA
ATOM     24  H   UNL     1     -11.064  17.434  14.991  1.00  0.00     0.293 HD
ENDBRANCH   9  23
BRANCH   7  25
ATOM     25  O   UNL     1     -15.323  15.558  17.296  1.00  0.00    -0.508 OA
ATOM     26  H   UNL     1     -15.050  16.158  18.067  1.00  0.00     0.293 HD
ENDBRANCH   7  25
TORSDOF 6
ENDMDL
MODEL 4
REMARK VINA RESULT:    -4.298      1.322      2.033
REMARK INTER + INTRA:          -4.680
REMARK INTER:                  -5.325
REMARK INTRA:                   0.645
REMARK UNBOUND:                 0.498
REMARK SMILES Oc1cc(O)c2c(c1)O[C@@H](c1ccc(O)c(O)c1)[C@@H](O)C2
REMARK SMILES IDX 21 1 19 2 10 3 9 4 7 5 8 6 2 7 3 8 4 9 6 10 20 11 11 13
REMARK SMILES IDX 18 14 12 15 16 16 13 17 14 18 17 19 15 21 5 23 1 25
REMARK H PARENT 20 12 17 20 15 22 5 24 1 26
REMARK Flexibility Score: inf
ROOT
ATOM      1  C   UNL     1     -24.643  16.149  17.697  1.00  0.00     0.079 C 
ATOM      2  C   UNL     1     -24.444  14.661  18.017  1.00  0.00     0.164 C 
ATOM      3  C   UNL     1     -25.059  14.297  19.389  1.00  0.00     0.232 C 
ATOM      4  O   UNL     1     -24.583  15.185  20.407  1.00  0.00    -0.482 OA
ATOM      5  C   UNL     1     -24.211  16.513  20.158  1.00  0.00     0.131 A 
ATOM      6  C   UNL     1     -23.840  17.329  21.231  1.00  0.00     0.093 A 
ATOM      7  C   UNL     1     -23.479  18.661  21.013  1.00  0.00     0.122 A 
ATOM      8  C   UNL     1     -23.493  19.184  19.714  1.00  0.00     0.092 A 
ATOM      9  C   UNL     1     -23.862  18.375  18.629  1.00  0.00     0.126 A 
ATOM     10  C   UNL     1     -24.204  17.026  18.845  1.00  0.00     0.039 A 
ENDROOT
BRANCH   2  11
ATOM     11  O   UNL     1     -25.001  13.883  16.989  1.00  0.00    -0.389 OA
ATOM     12  H   UNL     1     -25.972  13.809  17.183  1.00  0.00     0.211 HD
ENDBRANCH   2  11
BRANCH   3  13
ATOM     13  C   UNL     1     -26.578  14.259  19.362  1.00  0.00    -0.001 A 
ATOM     14  C   UNL     1     -27.258  14.657  18.198  1.00  0.00     0.057 A 
ATOM     15  C   UNL     1     -27.329  13.875  20.486  1.00  0.00     0.012 A 
ATOM     16  C   UNL     1     -28.657  14.662  18.143  1.00  0.00     0.157 A 
ATOM     17  C   UNL     1     -28.725  13.875  20.439  1.00  0.00     0.050 A 
ATOM     18  C   UNL     1     -29.400  14.262  19.278  1.00  0.00     0.157 A 
BRANCH  16  19
ATOM     19  O   UNL     1     -29.260  15.071  16.951  1.00  0.00    -0.504 OA
ATOM     20  H   UNL     1     -28.753  15.426  16.155  1.00  0.00     0.293 HD
ENDBRANCH  16  19
BRANCH  18  21
ATOM     21  O   UNL     1     -30.796  14.235  19.295  1.00  0.00    -0.504 OA
ATOM     22  H   UNL     1     -31.379  14.750  18.652  1.00  0.00     0.293 HD
ENDBRANCH  18  21
ENDBRANCH   3  13
BRANCH   9  23
ATOM     23  O   UNL     1     -23.892  18.908  17.341  1.00  0.00    -0.507 OA
ATOM     24  H   UNL     1     -24.763  19.054  16.846  1.00  0.00     0.293 HD
ENDBRANCH   9  23
BRANCH   7  25
ATOM     25  O   UNL     1     -23.111  19.458  22.095  1.00  0.00    -0.508 OA
ATOM     26  H   UNL     1     -22.147  19.729  22.250  1.00  0.00     0.293 HD
ENDBRANCH   7  25
TORSDOF 6
ENDMDL
MODEL 5
REMARK VINA RESULT:    -4.056      1.306      1.893
REMARK INTER + INTRA:          -4.387
REMARK INTER:                  -5.046
REMARK INTRA:                   0.659
REMARK UNBOUND:                 0.498
REMARK SMILES Oc1cc(O)c2c(c1)O[C@@H](c1ccc(O)c(O)c1)[C@@H](O)C2
REMARK SMILES IDX 21 1 19 2 10 3 9 4 7 5 8 6 2 7 3 8 4 9 6 10 20 11 11 13
REMARK SMILES IDX 18 14 12 15 16 16 13 17 14 18 17 19 15 21 5 23 1 25
REMARK H PARENT 20 12 17 20 15 22 5 24 1 26
REMARK Flexibility Score: inf
ROOT
ATOM      1  C   UNL     1     -24.021  17.128  17.449  1.00  0.00     0.079 C 
ATOM      2  C   UNL     1     -23.588  15.661  17.316  1.00  0.00     0.164 C 
ATOM      3  C   UNL     1     -23.649  14.934  18.681  1.00  0.00     0.232 C 
ATOM      4  O   UNL     1     -22.931  15.670  19.677  1.00  0.00    -0.482 OA
ATOM      5  C   UNL     1     -22.791  17.065  19.654  1.00  0.00     0.131 A 
ATOM      6  C   UNL     1     -22.144  17.702  20.716  1.00  0.00     0.093 A 
ATOM      7  C   UNL     1     -22.005  19.092  20.726  1.00  0.00     0.122 A 
ATOM      8  C   UNL     1     -22.520  19.852  19.668  1.00  0.00     0.092 A 
ATOM      9  C   UNL     1     -23.170  19.224  18.596  1.00  0.00     0.126 A 
ATOM     10  C   UNL     1     -23.290  17.821  18.575  1.00  0.00     0.039 A 
ENDROOT
BRANCH   2  11
ATOM     11  O   UNL     1     -24.397  15.019  16.364  1.00  0.00    -0.389 OA
ATOM     12  H   UNL     1     -25.279  15.474  16.387  1.00  0.00     0.211 HD
ENDBRANCH   2  11
BRANCH   3  13
ATOM     13  C   UNL     1     -25.072  14.647  19.133  1.00  0.00    -0.001 A 
ATOM     14  C   UNL     1     -26.144  14.968  18.282  1.00  0.00     0.057 A 
ATOM     15  C   UNL     1     -25.352  14.106  20.399  1.00  0.00     0.012 A 
ATOM     16  C   UNL     1     -27.470  14.744  18.672  1.00  0.00     0.157 A 
ATOM     17  C   UNL     1     -26.671  13.878  20.795  1.00  0.00     0.050 A 
ATOM     18  C   UNL     1     -27.737  14.188  19.945  1.00  0.00     0.157 A 
BRANCH  16  19
ATOM     19  O   UNL     1     -28.481  15.088  17.772  1.00  0.00    -0.504 OA
ATOM     20  H   UNL     1     -28.351  15.710  16.988  1.00  0.00     0.293 HD
ENDBRANCH  16  19
BRANCH  18  21
ATOM     21  O   UNL     1     -29.032  13.930  20.400  1.00  0.00    -0.504 OA
ATOM     22  H   UNL     1     -29.865  14.321  19.985  1.00  0.00     0.293 HD
ENDBRANCH  18  21
ENDBRANCH   3  13
BRANCH   9  23
ATOM     23  O   UNL     1     -23.696  19.989  17.555  1.00  0.00    -0.507 OA
ATOM     24  H   UNL     1     -23.462  19.802  16.588  1.00  0.00     0.293 HD
ENDBRANCH   9  23
BRANCH   7  25
ATOM     25  O   UNL     1     -21.357  19.710  21.794  1.00  0.00    -0.508 OA
ATOM     26  H   UNL     1     -21.509  19.410  22.751  1.00  0.00     0.293 HD
ENDBRANCH   7  25
TORSDOF 6
ENDMDL
MODEL 6
REMARK VINA RESULT:    -3.558      1.344      6.037
REMARK INTER + INTRA:          -3.788
REMARK INTER:                  -4.296
REMARK INTRA:                   0.508
REMARK UNBOUND:                 0.498
REMARK SMILES Oc1cc(O)c2c(c1)O[C@@H](c1ccc(O)c(O)c1)[C@@H](O)C2
REMARK SMILES IDX 21 1 19 2 10 3 9 4 7 5 8 6 2 7 3 8 4 9 6 10 20 11 11 13
REMARK SMILES IDX 18 14 12 15 16 16 13 17 14 18 17 19 15 21 5 23 1 25
REMARK H PARENT 20 12 17 20 15 22 5 24 1 26
REMARK Flexibility Score: inf
ROOT
ATOM      1  C   UNL     1     -25.056  14.704  20.168  1.00  0.00     0.079 C 
ATOM      2  C   UNL     1     -23.821  14.650  19.259  1.00  0.00     0.164 C 
ATOM      3  C   UNL     1     -23.864  15.768  18.189  1.00  0.00     0.232 C 
ATOM      4  O   UNL     1     -25.112  15.746  17.487  1.00  0.00    -0.482 OA
ATOM      5  C   UNL     1     -26.312  15.305  18.061  1.00  0.00     0.131 A 
ATOM      6  C   UNL     1     -27.496  15.401  17.324  1.00  0.00     0.093 A 
ATOM      7  C   UNL     1     -28.708  14.984  17.878  1.00  0.00     0.122 A 
ATOM      8  C   UNL     1     -28.740  14.472  19.181  1.00  0.00     0.092 A 
ATOM      9  C   UNL     1     -27.559  14.369  19.931  1.00  0.00     0.126 A 
ATOM     10  C   UNL     1     -26.333  14.768  19.364  1.00  0.00     0.039 A 
ENDROOT
BRANCH   2  11
ATOM     11  O   UNL     1     -22.659  14.743  20.042  1.00  0.00    -0.389 OA
ATOM     12  H   UNL     1     -22.942  14.623  20.986  1.00  0.00     0.211 HD
ENDBRANCH   2  11
BRANCH   3  13
ATOM     13  C   UNL     1     -23.586  17.146  18.767  1.00  0.00    -0.001 A 
ATOM     14  C   UNL     1     -23.829  17.386  20.130  1.00  0.00     0.057 A 
ATOM     15  C   UNL     1     -23.129  18.206  17.965  1.00  0.00     0.012 A 
ATOM     16  C   UNL     1     -23.611  18.649  20.693  1.00  0.00     0.157 A 
ATOM     17  C   UNL     1     -22.907  19.468  18.519  1.00  0.00     0.050 A 
ATOM     18  C   UNL     1     -23.140  19.704  19.877  1.00  0.00     0.157 A 
BRANCH  16  19
ATOM     19  O   UNL     1     -23.875  18.809  22.056  1.00  0.00    -0.504 OA
ATOM     20  H   UNL     1     -24.744  18.545  22.496  1.00  0.00     0.293 HD
ENDBRANCH  16  19
BRANCH  18  21
ATOM     21  O   UNL     1     -22.892  20.987  20.370  1.00  0.00    -0.504 OA
ATOM     22  H   UNL     1     -22.299  21.662  19.912  1.00  0.00     0.293 HD
ENDBRANCH  18  21
ENDBRANCH   3  13
BRANCH   9  23
ATOM     23  O   UNL     1     -27.602  13.875  21.234  1.00  0.00    -0.507 OA
ATOM     24  H   UNL     1     -27.374  14.458  22.031  1.00  0.00     0.293 HD
ENDBRANCH   9  23
BRANCH   7  25
ATOM     25  O   UNL     1     -29.878  15.086  17.127  1.00  0.00    -0.508 OA
ATOM     26  H   UNL     1     -29.870  15.455  16.183  1.00  0.00     0.293 HD
ENDBRANCH   7  25
TORSDOF 6
ENDMDL
MODEL 7
REMARK VINA RESULT:    -3.272     11.798     13.963
REMARK INTER + INTRA:          -3.444
REMARK INTER:                  -3.442
REMARK INTRA:                  -0.002
REMARK UNBOUND:                 0.498
REMARK SMILES Oc1cc(O)c2c(c1)O[C@@H](c1ccc(O)c(O)c1)[C@@H](O)C2
REMARK SMILES IDX 21 1 19 2 10 3 9 4 7 5 8 6 2 7 3 8 4 9 6 10 20 11 11 13
REMARK SMILES IDX 18 14 12 15 16 16 13 17 14 18 17 19 15 21 5 23 1 25
REMARK H PARENT 20 12 17 20 15 22 5 24 1 26
REMARK Flexibility Score: inf
ROOT
ATOM      1  C   UNL     1     -12.612  15.485  10.755  1.00  0.00     0.079 C 
ATOM      2  C   UNL     1     -12.810  14.200   9.939  1.00  0.00     0.164 C 
ATOM      3  C   UNL     1     -14.313  13.876   9.764  1.00  0.00     0.232 C 
ATOM      4  O   UNL     1     -14.980  13.876  11.030  1.00  0.00    -0.482 OA
ATOM      5  C   UNL     1     -14.577  14.667  12.115  1.00  0.00     0.131 A 
ATOM      6  C   UNL     1     -15.342  14.663  13.284  1.00  0.00     0.093 A 
ATOM      7  C   UNL     1     -14.972  15.455  14.373  1.00  0.00     0.122 A 
ATOM      8  C   UNL     1     -13.829  16.260  14.293  1.00  0.00     0.092 A 
ATOM      9  C   UNL     1     -13.051  16.272  13.126  1.00  0.00     0.126 A 
ATOM     10  C   UNL     1     -13.412  15.457  12.035  1.00  0.00     0.039 A 
ENDROOT
BRANCH   2  11
ATOM     11  O   UNL     1     -12.172  14.333   8.695  1.00  0.00    -0.389 OA
ATOM     12  H   UNL     1     -12.263  13.458   8.234  1.00  0.00     0.211 HD
ENDBRANCH   2  11
BRANCH   3  13
ATOM     13  C   UNL     1     -15.005  14.806   8.780  1.00  0.00    -0.001 A 
ATOM     14  C   UNL     1     -16.007  15.677   9.242  1.00  0.00     0.057 A 
ATOM     15  C   UNL     1     -14.700  14.792   7.408  1.00  0.00     0.012 A 
ATOM     16  C   UNL     1     -16.686  16.529   8.363  1.00  0.00     0.157 A 
ATOM     17  C   UNL     1     -15.371  15.641   6.526  1.00  0.00     0.050 A 
ATOM     18  C   UNL     1     -16.361  16.513   6.986  1.00  0.00     0.157 A 
BRANCH  16  19
ATOM     19  O   UNL     1     -17.670  17.366   8.896  1.00  0.00    -0.504 OA
ATOM     20  H   UNL     1     -18.614  17.071   9.095  1.00  0.00     0.293 HD
ENDBRANCH  16  19
BRANCH  18  21
ATOM     21  O   UNL     1     -16.990  17.339   6.052  1.00  0.00    -0.504 OA
ATOM     22  H   UNL     1     -17.977  17.548   6.058  1.00  0.00     0.293 HD
ENDBRANCH  18  21
ENDBRANCH   3  13
BRANCH   9  23
ATOM     23  O   UNL     1     -11.925  17.091  13.048  1.00  0.00    -0.507 OA
ATOM     24  H   UNL     1     -11.758  17.830  13.719  1.00  0.00     0.293 HD
ENDBRANCH   9  23
BRANCH   7  25
ATOM     25  O   UNL     1     -15.747  15.437  15.531  1.00  0.00    -0.508 OA
ATOM     26  H   UNL     1     -15.360  15.152  16.423  1.00  0.00     0.293 HD
ENDBRANCH   7  25
TORSDOF 6
ENDMDL
MODEL 8
REMARK VINA RESULT:    -2.968     10.778     12.535
REMARK INTER + INTRA:          -3.077
REMARK INTER:                  -2.985
REMARK INTRA:                  -0.092
REMARK UNBOUND:                 0.498
REMARK SMILES Oc1cc(O)c2c(c1)O[C@@H](c1ccc(O)c(O)c1)[C@@H](O)C2
REMARK SMILES IDX 21 1 19 2 10 3 9 4 7 5 8 6 2 7 3 8 4 9 6 10 20 11 11 13
REMARK SMILES IDX 18 14 12 15 16 16 13 17 14 18 17 19 15 21 5 23 1 25
REMARK H PARENT 20 12 17 20 15 22 5 24 1 26
REMARK Flexibility Score: inf
ROOT
ATOM      1  C   UNL     1     -12.229  16.971  14.927  1.00  0.00     0.079 C 
ATOM      2  C   UNL     1     -11.929  16.068  13.722  1.00  0.00     0.164 C 
ATOM      3  C   UNL     1     -12.981  14.940  13.593  1.00  0.00     0.232 C 
ATOM      4  O   UNL     1     -13.123  14.238  14.832  1.00  0.00    -0.482 OA
ATOM      5  C   UNL     1     -12.912  14.832  16.084  1.00  0.00     0.131 A 
ATOM      6  C   UNL     1     -13.158  14.089  17.242  1.00  0.00     0.093 A 
ATOM      7  C   UNL     1     -12.972  14.662  18.502  1.00  0.00     0.122 A 
ATOM      8  C   UNL     1     -12.541  15.991  18.607  1.00  0.00     0.092 A 
ATOM      9  C   UNL     1     -12.289  16.747  17.453  1.00  0.00     0.126 A 
ATOM     10  C   UNL     1     -12.455  16.162  16.182  1.00  0.00     0.039 A 
ENDROOT
BRANCH   2  11
ATOM     11  O   UNL     1     -11.875  16.847  12.555  1.00  0.00    -0.389 OA
ATOM     12  H   UNL     1     -12.580  17.541  12.644  1.00  0.00     0.211 HD
ENDBRANCH   2  11
BRANCH   3  13
ATOM     13  C   UNL     1     -14.325  15.444  13.093  1.00  0.00    -0.001 A 
ATOM     14  C   UNL     1     -14.599  15.428  11.714  1.00  0.00     0.057 A 
ATOM     15  C   UNL     1     -15.292  15.966  13.969  1.00  0.00     0.012 A 
ATOM     16  C   UNL     1     -15.814  15.909  11.212  1.00  0.00     0.157 A 
ATOM     17  C   UNL     1     -16.508  16.446  13.476  1.00  0.00     0.050 A 
ATOM     18  C   UNL     1     -16.783  16.421  12.106  1.00  0.00     0.157 A 
BRANCH  16  19
ATOM     19  O   UNL     1     -16.013  15.860   9.830  1.00  0.00    -0.504 OA
ATOM     20  H   UNL     1     -15.663  15.124   9.236  1.00  0.00     0.293 HD
ENDBRANCH  16  19
BRANCH  18  21
ATOM     21  O   UNL     1     -18.020  16.910  11.680  1.00  0.00    -0.504 OA
ATOM     22  H   UNL     1     -18.877  16.815  12.205  1.00  0.00     0.293 HD
ENDBRANCH  18  21
ENDBRANCH   3  13
BRANCH   9  23
ATOM     23  O   UNL     1     -11.878  18.074  17.566  1.00  0.00    -0.507 OA
ATOM     24  H   UNL     1     -12.448  18.838  17.223  1.00  0.00     0.293 HD
ENDBRANCH   9  23
BRANCH   7  25
ATOM     25  O   UNL     1     -13.221  13.905  19.645  1.00  0.00    -0.508 OA
ATOM     26  H   UNL     1     -12.605  13.942  20.449  1.00  0.00     0.293 HD
ENDBRANCH   7  25
TORSDOF 6
ENDMDL
