MODEL 1
REMARK VINA RESULT:    -6.478      0.000      0.000
REMARK INTER + INTRA:         -19.658
REMARK INTER:                 -17.081
REMARK INTRA:                  -2.577
REMARK UNBOUND:                -2.577
REMARK SMILES CCCCCCCCCCCCCCCCCCCCCCCCCCCCCC(=O)[O-]
REMARK SMILES IDX 16 1 17 2 18 3 19 4 20 5 21 6 22 7 23 8 24 9 25 10 26 11
REMARK SMILES IDX 27 12 28 13 29 14 30 15 31 16 32 17 15 18 14 19 13 20 12 21
REMARK SMILES IDX 11 22 10 23 9 24 8 25 7 26 6 27 5 28 4 29 3 30 2 31 1 32
REMARK H PARENT
REMARK Flexibility Score: inf
ROOT
ATOM      1  C   UNL     1       9.098  14.859   2.438  1.00  0.00     0.000 C 
ENDROOT
BRANCH   1   2
ATOM      2  C   UNL     1       8.632  14.203   1.118  1.00  0.00     0.000 C 
BRANCH   2   3
ATOM      3  C   UNL     1       9.810  13.885   0.179  1.00  0.00     0.000 C 
BRANCH   3   4
ATOM      4  C   UNL     1      11.160  13.808   0.913  1.00  0.00     0.000 C 
BRANCH   4   5
ATOM      5  C   UNL     1      12.140  14.908   0.467  1.00  0.00     0.000 C 
BRANCH   5   6
ATOM      6  C   UNL     1      11.461  16.004  -0.386  1.00  0.00     0.000 C 
BRANCH   6   7
ATOM      7  C   UNL     1      11.419  17.386   0.294  1.00  0.00     0.000 C 
BRANCH   7   8
ATOM      8  C   UNL     1      11.792  17.385   1.789  1.00  0.00     0.000 C 
BRANCH   8   9
ATOM      9  C   UNL     1      10.922  18.293   2.684  1.00  0.00     0.000 C 
BRANCH   9  10
ATOM     10  C   UNL     1      11.706  19.180   3.669  1.00  0.00     0.000 C 
BRANCH  10  11
ATOM     11  C   UNL     1      13.230  19.086   3.478  1.00  0.00     0.000 C 
BRANCH  11  12
ATOM     12  C   UNL     1      14.011  19.640   4.681  1.00  0.00     0.000 C 
BRANCH  12  13
ATOM     13  C   UNL     1      13.095  20.251   5.752  1.00  0.00     0.006 C 
BRANCH  13  14
ATOM     14  C   UNL     1      13.826  20.381   7.093  1.00  0.00     0.053 C 
BRANCH  14  15
ATOM     15  C   UNL     1      12.981  21.110   8.090  1.00  0.00     0.041 C 
ATOM     16  O   UNL     1      12.516  20.505   9.093  1.00  0.00    -0.550 OA
ATOM     17  O   UNL     1      12.700  22.461   7.913  1.00  0.00    -0.550 OA
ENDBRANCH  14  15
ENDBRANCH  13  14
ENDBRANCH  12  13
ENDBRANCH  11  12
ENDBRANCH  10  11
ENDBRANCH   9  10
ENDBRANCH   8   9
ENDBRANCH   7   8
ENDBRANCH   6   7
ENDBRANCH   5   6
ENDBRANCH   4   5
ENDBRANCH   3   4
ENDBRANCH   2   3
ENDBRANCH   1   2
BRANCH   1  18
ATOM     18  C   UNL     1       8.049  14.821   3.565  1.00  0.00     0.000 C 
BRANCH  18  19
ATOM     19  C   UNL     1       7.103  16.033   3.625  1.00  0.00     0.000 C 
BRANCH  19  20
ATOM     20  C   UNL     1       5.676  15.664   4.063  1.00  0.00     0.000 C 
BRANCH  20  21
ATOM     21  C   UNL     1       4.632  15.922   2.961  1.00  0.00     0.000 C 
BRANCH  21  22
ATOM     22  C   UNL     1       5.133  15.592   1.537  1.00  0.00     0.000 C 
BRANCH  22  23
ATOM     23  C   UNL     1       5.083  14.087   1.216  1.00  0.00     0.000 C 
BRANCH  23  24
ATOM     24  C   UNL     1       3.813  13.400   1.756  1.00  0.00    -0.000 C 
BRANCH  24  25
ATOM     25  C   UNL     1       2.502  13.783   1.041  1.00  0.00    -0.000 C 
BRANCH  25  26
ATOM     26  C   UNL     1       1.467  14.423   1.981  1.00  0.00    -0.000 C 
BRANCH  26  27
ATOM     27  C   UNL     1       0.252  13.511   2.231  1.00  0.00    -0.000 C 
BRANCH  27  28
ATOM     28  C   UNL     1      -0.887  14.224   2.977  1.00  0.00    -0.000 C 
BRANCH  28  29
ATOM     29  C   UNL     1      -0.996  13.715   4.423  1.00  0.00    -0.000 C 
BRANCH  29  30
ATOM     30  C   UNL     1      -1.493  14.799   5.398  1.00  0.00    -0.000 C 
BRANCH  30  31
ATOM     31  C   UNL     1      -0.739  14.802   6.745  1.00  0.00    -0.003 C 
ATOM     32  C   UNL     1      -1.499  15.558   7.836  1.00  0.00     0.004 C 
ENDBRANCH  30  31
ENDBRANCH  29  30
ENDBRANCH  28  29
ENDBRANCH  27  28
ENDBRANCH  26  27
ENDBRANCH  25  26
ENDBRANCH  24  25
ENDBRANCH  23  24
ENDBRANCH  22  23
ENDBRANCH  21  22
ENDBRANCH  20  21
ENDBRANCH  19  20
ENDBRANCH  18  19
ENDBRANCH   1  18
TORSDOF 28
ENDMDL
MODEL 2
REMARK VINA RESULT:    -6.463      4.235     11.529
REMARK INTER + INTRA:         -19.619
REMARK INTER:                 -17.006
REMARK INTRA:                  -2.613
REMARK UNBOUND:                -2.577
REMARK SMILES CCCCCCCCCCCCCCCCCCCCCCCCCCCCCC(=O)[O-]
REMARK SMILES IDX 16 1 17 2 18 3 19 4 20 5 21 6 22 7 23 8 24 9 25 10 26 11
REMARK SMILES IDX 27 12 28 13 29 14 30 15 31 16 32 17 15 18 14 19 13 20 12 21
REMARK SMILES IDX 11 22 10 23 9 24 8 25 7 26 6 27 5 28 4 29 3 30 2 31 1 32
REMARK H PARENT
REMARK Flexibility Score: inf
ROOT
ATOM      1  C   UNL     1       6.038  15.579   3.860  1.00  0.00     0.000 C 
ENDROOT
BRANCH   1   2
ATOM      2  C   UNL     1       5.003  16.433   3.093  1.00  0.00     0.000 C 
BRANCH   2   3
ATOM      3  C   UNL     1       5.224  16.385   1.570  1.00  0.00     0.000 C 
BRANCH   3   4
ATOM      4  C   UNL     1       4.178  15.527   0.837  1.00  0.00     0.000 C 
BRANCH   4   5
ATOM      5  C   UNL     1       4.524  14.028   0.858  1.00  0.00     0.000 C 
BRANCH   5   6
ATOM      6  C   UNL     1       3.606  13.214   1.798  1.00  0.00     0.000 C 
BRANCH   6   7
ATOM      7  C   UNL     1       2.479  14.045   2.441  1.00  0.00     0.000 C 
BRANCH   7   8
ATOM      8  C   UNL     1       1.144  14.032   1.672  1.00  0.00     0.000 C 
BRANCH   8   9
ATOM      9  C   UNL     1      -0.070  14.577   2.455  1.00  0.00     0.000 C 
BRANCH   9  10
ATOM     10  C   UNL     1      -0.676  13.599   3.478  1.00  0.00     0.000 C 
BRANCH  10  11
ATOM     11  C   UNL     1      -1.149  14.295   4.766  1.00  0.00     0.000 C 
BRANCH  11  12
ATOM     12  C   UNL     1      -0.017  14.471   5.792  1.00  0.00     0.000 C 
BRANCH  12  13
ATOM     13  C   UNL     1      -0.533  14.559   7.236  1.00  0.00     0.006 C 
BRANCH  13  14
ATOM     14  C   UNL     1      -1.621  15.632   7.367  1.00  0.00     0.053 C 
BRANCH  14  15
ATOM     15  C   UNL     1      -2.656  15.219   8.366  1.00  0.00     0.041 C 
ATOM     16  O   UNL     1      -2.453  15.386   9.598  1.00  0.00    -0.550 OA
ATOM     17  O   UNL     1      -3.848  14.643   7.939  1.00  0.00    -0.550 OA
ENDBRANCH  14  15
ENDBRANCH  13  14
ENDBRANCH  12  13
ENDBRANCH  11  12
ENDBRANCH  10  11
ENDBRANCH   9  10
ENDBRANCH   8   9
ENDBRANCH   7   8
ENDBRANCH   6   7
ENDBRANCH   5   6
ENDBRANCH   4   5
ENDBRANCH   3   4
ENDBRANCH   2   3
ENDBRANCH   1   2
BRANCH   1  18
ATOM     18  C   UNL     1       7.490  16.074   3.721  1.00  0.00     0.000 C 
BRANCH  18  19
ATOM     19  C   UNL     1       8.499  15.025   3.221  1.00  0.00     0.000 C 
BRANCH  19  20
ATOM     20  C   UNL     1       7.996  14.240   1.998  1.00  0.00     0.000 C 
BRANCH  20  21
ATOM     21  C   UNL     1       9.058  14.125   0.890  1.00  0.00     0.000 C 
BRANCH  21  22
ATOM     22  C   UNL     1      10.458  13.719   1.406  1.00  0.00     0.000 C 
BRANCH  22  23
ATOM     23  C   UNL     1      11.560  14.713   0.997  1.00  0.00     0.000 C 
BRANCH  23  24
ATOM     24  C   UNL     1      11.003  16.081   0.556  1.00  0.00    -0.000 C 
BRANCH  24  25
ATOM     25  C   UNL     1      11.564  17.297   1.317  1.00  0.00    -0.000 C 
BRANCH  25  26
ATOM     26  C   UNL     1      10.752  17.650   2.574  1.00  0.00    -0.000 C 
BRANCH  26  27
ATOM     27  C   UNL     1      10.953  19.110   3.018  1.00  0.00    -0.000 C 
BRANCH  27  28
ATOM     28  C   UNL     1      11.638  19.230   4.389  1.00  0.00    -0.000 C 
BRANCH  28  29
ATOM     29  C   UNL     1      13.163  19.327   4.232  1.00  0.00    -0.000 C 
BRANCH  29  30
ATOM     30  C   UNL     1      13.858  19.870   5.495  1.00  0.00    -0.000 C 
BRANCH  30  31
ATOM     31  C   UNL     1      12.878  20.490   6.514  1.00  0.00    -0.003 C 
ATOM     32  C   UNL     1      13.520  20.697   7.886  1.00  0.00     0.004 C 
ENDBRANCH  30  31
ENDBRANCH  29  30
ENDBRANCH  28  29
ENDBRANCH  27  28
ENDBRANCH  26  27
ENDBRANCH  25  26
ENDBRANCH  24  25
ENDBRANCH  23  24
ENDBRANCH  22  23
ENDBRANCH  21  22
ENDBRANCH  20  21
ENDBRANCH  19  20
ENDBRANCH  18  19
ENDBRANCH   1  18
TORSDOF 28
ENDMDL
MODEL 3
REMARK VINA RESULT:    -6.414      3.692     11.250
REMARK INTER + INTRA:         -19.490
REMARK INTER:                 -17.118
REMARK INTRA:                  -2.372
REMARK UNBOUND:                -2.577
REMARK SMILES CCCCCCCCCCCCCCCCCCCCCCCCCCCCCC(=O)[O-]
REMARK SMILES IDX 16 1 17 2 18 3 19 4 20 5 21 6 22 7 23 8 24 9 25 10 26 11
REMARK SMILES IDX 27 12 28 13 29 14 30 15 31 16 32 17 15 18 14 19 13 20 12 21
REMARK SMILES IDX 11 22 10 23 9 24 8 25 7 26 6 27 5 28 4 29 3 30 2 31 1 32
REMARK H PARENT
REMARK Flexibility Score: inf
ROOT
ATOM      1  C   UNL     1       8.633  14.758   1.417  1.00  0.00     0.000 C 
ENDROOT
BRANCH   1   2
ATOM      2  C   UNL     1       8.450  14.495   2.929  1.00  0.00     0.000 C 
BRANCH   2   3
ATOM      3  C   UNL     1       7.652  15.615   3.622  1.00  0.00     0.000 C 
BRANCH   3   4
ATOM      4  C   UNL     1       6.135  15.360   3.623  1.00  0.00     0.000 C 
BRANCH   4   5
ATOM      5  C   UNL     1       5.360  16.396   2.790  1.00  0.00     0.000 C 
BRANCH   5   6
ATOM      6  C   UNL     1       4.551  15.755   1.640  1.00  0.00     0.000 C 
BRANCH   6   7
ATOM      7  C   UNL     1       5.041  14.351   1.240  1.00  0.00     0.000 C 
BRANCH   7   8
ATOM      8  C   UNL     1       4.060  13.206   1.559  1.00  0.00     0.000 C 
BRANCH   8   9
ATOM      9  C   UNL     1       2.743  13.639   2.237  1.00  0.00     0.000 C 
BRANCH   9  10
ATOM     10  C   UNL     1       1.590  13.963   1.271  1.00  0.00     0.000 C 
BRANCH  10  11
ATOM     11  C   UNL     1       0.203  13.810   1.919  1.00  0.00     0.000 C 
BRANCH  11  12
ATOM     12  C   UNL     1       0.101  14.531   3.273  1.00  0.00     0.000 C 
BRANCH  12  13
ATOM     13  C   UNL     1      -0.736  13.753   4.298  1.00  0.00     0.006 C 
BRANCH  13  14
ATOM     14  C   UNL     1      -1.453  14.706   5.261  1.00  0.00     0.053 C 
BRANCH  14  15
ATOM     15  C   UNL     1      -0.788  14.706   6.603  1.00  0.00     0.041 C 
ATOM     16  O   UNL     1       0.346  14.177   6.749  1.00  0.00    -0.550 OA
ATOM     17  O   UNL     1      -1.421  15.285   7.696  1.00  0.00    -0.550 OA
ENDBRANCH  14  15
ENDBRANCH  13  14
ENDBRANCH  12  13
ENDBRANCH  11  12
ENDBRANCH  10  11
ENDBRANCH   9  10
ENDBRANCH   8   9
ENDBRANCH   7   8
ENDBRANCH   6   7
ENDBRANCH   5   6
ENDBRANCH   4   5
ENDBRANCH   3   4
ENDBRANCH   2   3
ENDBRANCH   1   2
BRANCH   1  18
ATOM     18  C   UNL     1       8.548  13.493   0.542  1.00  0.00     0.000 C 
BRANCH  18  19
ATOM     19  C   UNL     1       9.665  13.339  -0.505  1.00  0.00     0.000 C 
BRANCH  19  20
ATOM     20  C   UNL     1      10.440  14.643  -0.755  1.00  0.00     0.000 C 
BRANCH  20  21
ATOM     21  C   UNL     1      11.863  14.609  -0.167  1.00  0.00     0.000 C 
BRANCH  21  22
ATOM     22  C   UNL     1      12.082  15.603   0.997  1.00  0.00     0.000 C 
BRANCH  22  23
ATOM     23  C   UNL     1      11.155  16.829   0.922  1.00  0.00     0.000 C 
BRANCH  23  24
ATOM     24  C   UNL     1      11.616  17.987   1.829  1.00  0.00    -0.000 C 
BRANCH  24  25
ATOM     25  C   UNL     1      10.755  18.222   3.086  1.00  0.00    -0.000 C 
BRANCH  25  26
ATOM     26  C   UNL     1      11.399  19.196   4.086  1.00  0.00    -0.000 C 
BRANCH  26  27
ATOM     27  C   UNL     1      12.902  19.403   3.824  1.00  0.00    -0.000 C 
BRANCH  27  28
ATOM     28  C   UNL     1      13.657  19.929   5.055  1.00  0.00    -0.000 C 
BRANCH  28  29
ATOM     29  C   UNL     1      12.717  20.045   6.265  1.00  0.00    -0.000 C 
BRANCH  29  30
ATOM     30  C   UNL     1      13.347  20.824   7.435  1.00  0.00    -0.000 C 
BRANCH  30  31
ATOM     31  C   UNL     1      12.403  20.980   8.645  1.00  0.00    -0.003 C 
ATOM     32  C   UNL     1      12.034  22.439   8.912  1.00  0.00     0.004 C 
ENDBRANCH  30  31
ENDBRANCH  29  30
ENDBRANCH  28  29
ENDBRANCH  27  28
ENDBRANCH  26  27
ENDBRANCH  25  26
ENDBRANCH  24  25
ENDBRANCH  23  24
ENDBRANCH  22  23
ENDBRANCH  21  22
ENDBRANCH  20  21
ENDBRANCH  19  20
ENDBRANCH  18  19
ENDBRANCH   1  18
TORSDOF 28
ENDMDL
MODEL 4
REMARK VINA RESULT:    -6.407      1.671      4.823
REMARK INTER + INTRA:         -19.470
REMARK INTER:                 -16.262
REMARK INTRA:                  -3.208
REMARK UNBOUND:                -2.577
REMARK SMILES CCCCCCCCCCCCCCCCCCCCCCCCCCCCCC(=O)[O-]
REMARK SMILES IDX 16 1 17 2 18 3 19 4 20 5 21 6 22 7 23 8 24 9 25 10 26 11
REMARK SMILES IDX 27 12 28 13 29 14 30 15 31 16 32 17 15 18 14 19 13 20 12 21
REMARK SMILES IDX 11 22 10 23 9 24 8 25 7 26 6 27 5 28 4 29 3 30 2 31 1 32
REMARK H PARENT
REMARK Flexibility Score: inf
ROOT
ATOM      1  C   UNL     1       5.375  16.161   4.513  1.00  0.00     0.000 C 
ENDROOT
BRANCH   1   2
ATOM      2  C   UNL     1       6.212  15.168   3.676  1.00  0.00     0.000 C 
BRANCH   2   3
ATOM      3  C   UNL     1       7.698  15.565   3.616  1.00  0.00     0.000 C 
BRANCH   3   4
ATOM      4  C   UNL     1       8.615  14.400   3.206  1.00  0.00     0.000 C 
BRANCH   4   5
ATOM      5  C   UNL     1       8.993  14.442   1.714  1.00  0.00     0.000 C 
BRANCH   5   6
ATOM      6  C   UNL     1      10.223  13.566   1.383  1.00  0.00     0.000 C 
BRANCH   6   7
ATOM      7  C   UNL     1      11.226  14.236   0.425  1.00  0.00     0.000 C 
BRANCH   7   8
ATOM      8  C   UNL     1      11.957  15.463   1.004  1.00  0.00     0.000 C 
BRANCH   8   9
ATOM      9  C   UNL     1      11.405  16.831   0.550  1.00  0.00     0.000 C 
BRANCH   9  10
ATOM     10  C   UNL     1      11.521  17.957   1.593  1.00  0.00     0.000 C 
BRANCH  10  11
ATOM     11  C   UNL     1      10.687  17.692   2.858  1.00  0.00     0.000 C 
BRANCH  11  12
ATOM     12  C   UNL     1      10.589  18.926   3.770  1.00  0.00     0.000 C 
BRANCH  12  13
ATOM     13  C   UNL     1      11.620  18.905   4.909  1.00  0.00     0.006 C 
BRANCH  13  14
ATOM     14  C   UNL     1      12.713  19.956   4.681  1.00  0.00     0.053 C 
BRANCH  14  15
ATOM     15  C   UNL     1      14.071  19.368   4.910  1.00  0.00     0.041 C 
ATOM     16  O   UNL     1      14.661  18.754   3.982  1.00  0.00    -0.550 OA
ATOM     17  O   UNL     1      14.686  19.492   6.151  1.00  0.00    -0.550 OA
ENDBRANCH  14  15
ENDBRANCH  13  14
ENDBRANCH  12  13
ENDBRANCH  11  12
ENDBRANCH  10  11
ENDBRANCH   9  10
ENDBRANCH   8   9
ENDBRANCH   7   8
ENDBRANCH   6   7
ENDBRANCH   5   6
ENDBRANCH   4   5
ENDBRANCH   3   4
ENDBRANCH   2   3
ENDBRANCH   1   2
BRANCH   1  18
ATOM     18  C   UNL     1       3.853  16.020   4.323  1.00  0.00     0.000 C 
BRANCH  18  19
ATOM     19  C   UNL     1       3.131  15.180   5.391  1.00  0.00     0.000 C 
BRANCH  19  20
ATOM     20  C   UNL     1       1.671  14.865   5.025  1.00  0.00     0.000 C 
BRANCH  20  21
ATOM     21  C   UNL     1       0.764  14.738   6.263  1.00  0.00     0.000 C 
BRANCH  21  22
ATOM     22  C   UNL     1      -0.740  14.625   5.925  1.00  0.00     0.000 C 
BRANCH  22  23
ATOM     23  C   UNL     1      -1.024  13.661   4.760  1.00  0.00     0.000 C 
BRANCH  23  24
ATOM     24  C   UNL     1      -1.909  14.287   3.663  1.00  0.00    -0.000 C 
BRANCH  24  25
ATOM     25  C   UNL     1      -1.466  13.998   2.216  1.00  0.00    -0.000 C 
BRANCH  25  26
ATOM     26  C   UNL     1      -0.101  13.295   2.130  1.00  0.00    -0.000 C 
BRANCH  26  27
ATOM     27  C   UNL     1       1.036  14.258   1.745  1.00  0.00    -0.000 C 
BRANCH  27  28
ATOM     28  C   UNL     1       2.427  13.610   1.841  1.00  0.00    -0.000 C 
BRANCH  28  29
ATOM     29  C   UNL     1       3.212  13.802   0.535  1.00  0.00    -0.000 C 
BRANCH  29  30
ATOM     30  C   UNL     1       4.728  13.601   0.717  1.00  0.00    -0.000 C 
BRANCH  30  31
ATOM     31  C   UNL     1       5.569  14.790   0.205  1.00  0.00    -0.003 C 
ATOM     32  C   UNL     1       4.962  16.140   0.589  1.00  0.00     0.004 C 
ENDBRANCH  30  31
ENDBRANCH  29  30
ENDBRANCH  28  29
ENDBRANCH  27  28
ENDBRANCH  26  27
ENDBRANCH  25  26
ENDBRANCH  24  25
ENDBRANCH  23  24
ENDBRANCH  22  23
ENDBRANCH  21  22
ENDBRANCH  20  21
ENDBRANCH  19  20
ENDBRANCH  18  19
ENDBRANCH   1  18
TORSDOF 28
ENDMDL
MODEL 5
REMARK VINA RESULT:    -6.382      1.176      2.788
REMARK INTER + INTRA:         -19.404
REMARK INTER:                 -17.847
REMARK INTRA:                  -1.557
REMARK UNBOUND:                -2.577
REMARK SMILES CCCCCCCCCCCCCCCCCCCCCCCCCCCCCC(=O)[O-]
REMARK SMILES IDX 16 1 17 2 18 3 19 4 20 5 21 6 22 7 23 8 24 9 25 10 26 11
REMARK SMILES IDX 27 12 28 13 29 14 30 15 31 16 32 17 15 18 14 19 13 20 12 21
REMARK SMILES IDX 11 22 10 23 9 24 8 25 7 26 6 27 5 28 4 29 3 30 2 31 1 32
REMARK H PARENT
REMARK Flexibility Score: inf
ROOT
ATOM      1  C   UNL     1       6.971  14.735   2.843  1.00  0.00     0.000 C 
ENDROOT
BRANCH   1   2
ATOM      2  C   UNL     1       8.460  14.494   2.508  1.00  0.00     0.000 C 
BRANCH   2   3
ATOM      3  C   UNL     1       8.653  13.931   1.088  1.00  0.00     0.000 C 
BRANCH   3   4
ATOM      4  C   UNL     1       9.754  14.660   0.298  1.00  0.00     0.000 C 
BRANCH   4   5
ATOM      5  C   UNL     1      10.661  15.517   1.200  1.00  0.00     0.000 C 
BRANCH   5   6
ATOM      6  C   UNL     1      11.472  16.567   0.408  1.00  0.00     0.000 C 
BRANCH   6   7
ATOM      7  C   UNL     1      11.664  17.900   1.156  1.00  0.00     0.000 C 
BRANCH   7   8
ATOM      8  C   UNL     1      10.966  17.981   2.528  1.00  0.00     0.000 C 
BRANCH   8   9
ATOM      9  C   UNL     1      11.609  18.957   3.535  1.00  0.00     0.000 C 
BRANCH   9  10
ATOM     10  C   UNL     1      13.126  19.156   3.370  1.00  0.00     0.000 C 
BRANCH  10  11
ATOM     11  C   UNL     1      13.788  19.787   4.608  1.00  0.00     0.000 C 
BRANCH  11  12
ATOM     12  C   UNL     1      12.760  20.261   5.648  1.00  0.00     0.000 C 
BRANCH  12  13
ATOM     13  C   UNL     1      13.340  20.325   7.069  1.00  0.00     0.006 C 
BRANCH  13  14
ATOM     14  C   UNL     1      12.983  21.651   7.750  1.00  0.00     0.053 C 
BRANCH  14  15
ATOM     15  C   UNL     1      12.485  21.416   9.142  1.00  0.00     0.041 C 
ATOM     16  O   UNL     1      11.402  21.934   9.524  1.00  0.00    -0.550 OA
ATOM     17  O   UNL     1      13.218  20.629  10.023  1.00  0.00    -0.550 OA
ENDBRANCH  14  15
ENDBRANCH  13  14
ENDBRANCH  12  13
ENDBRANCH  11  12
ENDBRANCH  10  11
ENDBRANCH   9  10
ENDBRANCH   8   9
ENDBRANCH   7   8
ENDBRANCH   6   7
ENDBRANCH   5   6
ENDBRANCH   4   5
ENDBRANCH   3   4
ENDBRANCH   2   3
ENDBRANCH   1   2
BRANCH   1  18
ATOM     18  C   UNL     1       6.031  14.658   1.625  1.00  0.00     0.000 C 
BRANCH  18  19
ATOM     19  C   UNL     1       5.368  13.290   1.389  1.00  0.00     0.000 C 
BRANCH  19  20
ATOM     20  C   UNL     1       4.038  13.126   2.143  1.00  0.00     0.000 C 
BRANCH  20  21
ATOM     21  C   UNL     1       3.096  14.327   1.949  1.00  0.00     0.000 C 
BRANCH  21  22
ATOM     22  C   UNL     1       1.913  14.045   0.994  1.00  0.00     0.000 C 
BRANCH  22  23
ATOM     23  C   UNL     1       0.666  13.515   1.723  1.00  0.00     0.000 C 
BRANCH  23  24
ATOM     24  C   UNL     1       0.154  14.477   2.815  1.00  0.00    -0.000 C 
BRANCH  24  25
ATOM     25  C   UNL     1      -1.328  14.305   3.202  1.00  0.00    -0.000 C 
BRANCH  25  26
ATOM     26  C   UNL     1      -1.571  14.398   4.717  1.00  0.00    -0.000 C 
BRANCH  26  27
ATOM     27  C   UNL     1      -0.292  14.152   5.537  1.00  0.00    -0.000 C 
BRANCH  27  28
ATOM     28  C   UNL     1      -0.415  14.625   6.994  1.00  0.00    -0.000 C 
BRANCH  28  29
ATOM     29  C   UNL     1      -1.735  15.380   7.215  1.00  0.00    -0.000 C 
BRANCH  29  30
ATOM     30  C   UNL     1      -2.211  15.330   8.679  1.00  0.00    -0.000 C 
BRANCH  30  31
ATOM     31  C   UNL     1      -3.667  14.842   8.833  1.00  0.00    -0.003 C 
ATOM     32  C   UNL     1      -4.464  15.692   9.823  1.00  0.00     0.004 C 
ENDBRANCH  30  31
ENDBRANCH  29  30
ENDBRANCH  28  29
ENDBRANCH  27  28
ENDBRANCH  26  27
ENDBRANCH  25  26
ENDBRANCH  24  25
ENDBRANCH  23  24
ENDBRANCH  22  23
ENDBRANCH  21  22
ENDBRANCH  20  21
ENDBRANCH  19  20
ENDBRANCH  18  19
ENDBRANCH   1  18
TORSDOF 28
ENDMDL
MODEL 6
REMARK VINA RESULT:    -6.342      4.223     10.800
REMARK INTER + INTRA:         -19.299
REMARK INTER:                 -15.246
REMARK INTRA:                  -4.053
REMARK UNBOUND:                -2.577
REMARK SMILES CCCCCCCCCCCCCCCCCCCCCCCCCCCCCC(=O)[O-]
REMARK SMILES IDX 16 1 17 2 18 3 19 4 20 5 21 6 22 7 23 8 24 9 25 10 26 11
REMARK SMILES IDX 27 12 28 13 29 14 30 15 31 16 32 17 15 18 14 19 13 20 12 21
REMARK SMILES IDX 11 22 10 23 9 24 8 25 7 26 6 27 5 28 4 29 3 30 2 31 1 32
REMARK H PARENT
REMARK Flexibility Score: inf
ROOT
ATOM      1  C   UNL     1       8.047  14.604   3.325  1.00  0.00     0.000 C 
ENDROOT
BRANCH   1   2
ATOM      2  C   UNL     1       7.155  15.840   3.578  1.00  0.00     0.000 C 
BRANCH   2   3
ATOM      3  C   UNL     1       5.732  15.450   4.017  1.00  0.00     0.000 C 
BRANCH   3   4
ATOM      4  C   UNL     1       4.639  16.273   3.311  1.00  0.00     0.000 C 
BRANCH   4   5
ATOM      5  C   UNL     1       5.148  16.954   2.028  1.00  0.00     0.000 C 
BRANCH   5   6
ATOM      6  C   UNL     1       4.668  16.243   0.742  1.00  0.00     0.000 C 
BRANCH   6   7
ATOM      7  C   UNL     1       5.675  15.220   0.183  1.00  0.00     0.000 C 
BRANCH   7   8
ATOM      8  C   UNL     1       5.169  13.765   0.148  1.00  0.00     0.000 C 
BRANCH   8   9
ATOM      9  C   UNL     1       5.173  13.035   1.508  1.00  0.00     0.000 C 
BRANCH   9  10
ATOM     10  C   UNL     1       3.784  12.824   2.137  1.00  0.00     0.000 C 
BRANCH  10  11
ATOM     11  C   UNL     1       2.705  13.737   1.529  1.00  0.00     0.000 C 
BRANCH  11  12
ATOM     12  C   UNL     1       1.296  13.418   2.055  1.00  0.00     0.000 C 
BRANCH  12  13
ATOM     13  C   UNL     1       0.615  14.634   2.701  1.00  0.00     0.006 C 
BRANCH  13  14
ATOM     14  C   UNL     1      -0.907  14.568   2.529  1.00  0.00     0.053 C 
BRANCH  14  15
ATOM     15  C   UNL     1      -1.576  14.245   3.829  1.00  0.00     0.041 C 
ATOM     16  O   UNL     1      -2.829  14.129   3.887  1.00  0.00    -0.550 OA
ATOM     17  O   UNL     1      -0.817  14.076   4.981  1.00  0.00    -0.550 OA
ENDBRANCH  14  15
ENDBRANCH  13  14
ENDBRANCH  12  13
ENDBRANCH  11  12
ENDBRANCH  10  11
ENDBRANCH   9  10
ENDBRANCH   8   9
ENDBRANCH   7   8
ENDBRANCH   6   7
ENDBRANCH   5   6
ENDBRANCH   4   5
ENDBRANCH   3   4
ENDBRANCH   2   3
ENDBRANCH   1   2
BRANCH   1  18
ATOM     18  C   UNL     1       8.886  14.686   2.035  1.00  0.00     0.000 C 
BRANCH  18  19
ATOM     19  C   UNL     1       8.962  13.386   1.215  1.00  0.00     0.000 C 
BRANCH  19  20
ATOM     20  C   UNL     1       8.865  13.624  -0.301  1.00  0.00     0.000 C 
BRANCH  20  21
ATOM     21  C   UNL     1      10.174  13.287  -1.038  1.00  0.00     0.000 C 
BRANCH  21  22
ATOM     22  C   UNL     1      10.710  14.440  -1.917  1.00  0.00     0.000 C 
BRANCH  22  23
ATOM     23  C   UNL     1      12.074  14.973  -1.442  1.00  0.00     0.000 C 
BRANCH  23  24
ATOM     24  C   UNL     1      12.465  14.460  -0.042  1.00  0.00    -0.000 C 
BRANCH  24  25
ATOM     25  C   UNL     1      12.299  15.479   1.103  1.00  0.00    -0.000 C 
BRANCH  25  26
ATOM     26  C   UNL     1      11.410  16.674   0.723  1.00  0.00    -0.000 C 
BRANCH  26  27
ATOM     27  C   UNL     1      11.495  17.823   1.744  1.00  0.00    -0.000 C 
BRANCH  27  28
ATOM     28  C   UNL     1      10.364  17.785   2.784  1.00  0.00    -0.000 C 
BRANCH  28  29
ATOM     29  C   UNL     1      10.599  18.828   3.887  1.00  0.00    -0.000 C 
BRANCH  29  30
ATOM     30  C   UNL     1      12.086  19.194   4.054  1.00  0.00    -0.000 C 
BRANCH  30  31
ATOM     31  C   UNL     1      12.462  19.587   5.498  1.00  0.00    -0.003 C 
ATOM     32  C   UNL     1      13.950  19.904   5.646  1.00  0.00     0.004 C 
ENDBRANCH  30  31
ENDBRANCH  29  30
ENDBRANCH  28  29
ENDBRANCH  27  28
ENDBRANCH  26  27
ENDBRANCH  25  26
ENDBRANCH  24  25
ENDBRANCH  23  24
ENDBRANCH  22  23
ENDBRANCH  21  22
ENDBRANCH  20  21
ENDBRANCH  19  20
ENDBRANCH  18  19
ENDBRANCH   1  18
TORSDOF 28
ENDMDL
MODEL 7
REMARK VINA RESULT:    -6.337      1.437      3.120
REMARK INTER + INTRA:         -19.288
REMARK INTER:                 -15.974
REMARK INTRA:                  -3.314
REMARK UNBOUND:                -2.577
REMARK SMILES CCCCCCCCCCCCCCCCCCCCCCCCCCCCCC(=O)[O-]
REMARK SMILES IDX 16 1 17 2 18 3 19 4 20 5 21 6 22 7 23 8 24 9 25 10 26 11
REMARK SMILES IDX 27 12 28 13 29 14 30 15 31 16 32 17 15 18 14 19 13 20 12 21
REMARK SMILES IDX 11 22 10 23 9 24 8 25 7 26 6 27 5 28 4 29 3 30 2 31 1 32
REMARK H PARENT
REMARK Flexibility Score: inf
ROOT
ATOM      1  C   UNL     1       5.290  15.473   0.056  1.00  0.00     0.000 C 
ENDROOT
BRANCH   1   2
ATOM      2  C   UNL     1       5.026  13.953  -0.023  1.00  0.00     0.000 C 
BRANCH   2   3
ATOM      3  C   UNL     1       5.818  13.169   1.040  1.00  0.00     0.000 C 
BRANCH   3   4
ATOM      4  C   UNL     1       7.321  13.501   1.035  1.00  0.00     0.000 C 
BRANCH   4   5
ATOM      5  C   UNL     1       7.798  14.100   2.370  1.00  0.00     0.000 C 
BRANCH   5   6
ATOM      6  C   UNL     1       9.196  14.751   2.269  1.00  0.00     0.000 C 
BRANCH   6   7
ATOM      7  C   UNL     1      10.281  13.813   1.708  1.00  0.00     0.000 C 
BRANCH   7   8
ATOM      8  C   UNL     1      11.131  14.411   0.570  1.00  0.00     0.000 C 
BRANCH   8   9
ATOM      9  C   UNL     1      12.009  15.616   0.969  1.00  0.00     0.000 C 
BRANCH   9  10
ATOM     10  C   UNL     1      11.383  16.995   0.691  1.00  0.00     0.000 C 
BRANCH  10  11
ATOM     11  C   UNL     1      11.705  18.031   1.783  1.00  0.00     0.000 C 
BRANCH  11  12
ATOM     12  C   UNL     1      10.620  18.099   2.870  1.00  0.00     0.000 C 
BRANCH  12  13
ATOM     13  C   UNL     1      11.108  18.786   4.153  1.00  0.00     0.006 C 
BRANCH  13  14
ATOM     14  C   UNL     1      12.485  19.426   3.946  1.00  0.00     0.053 C 
BRANCH  14  15
ATOM     15  C   UNL     1      13.180  19.629   5.256  1.00  0.00     0.041 C 
ATOM     16  O   UNL     1      12.602  20.240   6.194  1.00  0.00    -0.550 OA
ATOM     17  O   UNL     1      14.471  19.148   5.444  1.00  0.00    -0.550 OA
ENDBRANCH  14  15
ENDBRANCH  13  14
ENDBRANCH  12  13
ENDBRANCH  11  12
ENDBRANCH  10  11
ENDBRANCH   9  10
ENDBRANCH   8   9
ENDBRANCH   7   8
ENDBRANCH   6   7
ENDBRANCH   5   6
ENDBRANCH   4   5
ENDBRANCH   3   4
ENDBRANCH   2   3
ENDBRANCH   1   2
BRANCH   1  18
ATOM     18  C   UNL     1       4.516  16.189   1.178  1.00  0.00     0.000 C 
BRANCH  18  19
ATOM     19  C   UNL     1       5.384  16.800   2.292  1.00  0.00     0.000 C 
BRANCH  19  20
ATOM     20  C   UNL     1       5.375  15.971   3.587  1.00  0.00     0.000 C 
BRANCH  20  21
ATOM     21  C   UNL     1       4.307  16.448   4.588  1.00  0.00     0.000 C 
BRANCH  21  22
ATOM     22  C   UNL     1       3.218  15.394   4.890  1.00  0.00     0.000 C 
BRANCH  22  23
ATOM     23  C   UNL     1       2.208  15.228   3.739  1.00  0.00     0.000 C 
BRANCH  23  24
ATOM     24  C   UNL     1       2.481  13.980   2.877  1.00  0.00    -0.000 C 
BRANCH  24  25
ATOM     25  C   UNL     1       1.611  13.851   1.611  1.00  0.00    -0.000 C 
BRANCH  25  26
ATOM     26  C   UNL     1       0.168  14.338   1.818  1.00  0.00    -0.000 C 
BRANCH  26  27
ATOM     27  C   UNL     1      -0.634  13.425   2.764  1.00  0.00    -0.000 C 
BRANCH  27  28
ATOM     28  C   UNL     1      -1.914  14.090   3.294  1.00  0.00    -0.000 C 
BRANCH  28  29
ATOM     29  C   UNL     1      -1.720  14.580   4.737  1.00  0.00    -0.000 C 
BRANCH  29  30
ATOM     30  C   UNL     1      -0.559  13.868   5.456  1.00  0.00    -0.000 C 
BRANCH  30  31
ATOM     31  C   UNL     1      -0.074  14.610   6.719  1.00  0.00    -0.003 C 
ATOM     32  C   UNL     1      -1.203  15.370   7.417  1.00  0.00     0.004 C 
ENDBRANCH  30  31
ENDBRANCH  29  30
ENDBRANCH  28  29
ENDBRANCH  27  28
ENDBRANCH  26  27
ENDBRANCH  25  26
ENDBRANCH  24  25
ENDBRANCH  23  24
ENDBRANCH  22  23
ENDBRANCH  21  22
ENDBRANCH  20  21
ENDBRANCH  19  20
ENDBRANCH  18  19
ENDBRANCH   1  18
TORSDOF 28
ENDMDL
MODEL 8
REMARK VINA RESULT:    -6.326      0.893      2.023
REMARK INTER + INTRA:         -19.256
REMARK INTER:                 -16.785
REMARK INTRA:                  -2.472
REMARK UNBOUND:                -2.577
REMARK SMILES CCCCCCCCCCCCCCCCCCCCCCCCCCCCCC(=O)[O-]
REMARK SMILES IDX 16 1 17 2 18 3 19 4 20 5 21 6 22 7 23 8 24 9 25 10 26 11
REMARK SMILES IDX 27 12 28 13 29 14 30 15 31 16 32 17 15 18 14 19 13 20 12 21
REMARK SMILES IDX 11 22 10 23 9 24 8 25 7 26 6 27 5 28 4 29 3 30 2 31 1 32
REMARK H PARENT
REMARK Flexibility Score: inf
ROOT
ATOM      1  C   UNL     1       7.349  15.970   3.817  1.00  0.00     0.000 C 
ENDROOT
BRANCH   1   2
ATOM      2  C   UNL     1       8.383  14.853   3.552  1.00  0.00     0.000 C 
BRANCH   2   3
ATOM      3  C   UNL     1       9.025  14.975   2.157  1.00  0.00     0.000 C 
BRANCH   3   4
ATOM      4  C   UNL     1       9.992  13.821   1.838  1.00  0.00     0.000 C 
BRANCH   4   5
ATOM      5  C   UNL     1      10.490  13.852   0.382  1.00  0.00     0.000 C 
BRANCH   5   6
ATOM      6  C   UNL     1      11.674  14.822   0.175  1.00  0.00     0.000 C 
BRANCH   6   7
ATOM      7  C   UNL     1      11.313  16.084  -0.632  1.00  0.00     0.000 C 
BRANCH   7   8
ATOM      8  C   UNL     1      11.555  17.416   0.103  1.00  0.00     0.000 C 
BRANCH   8   9
ATOM      9  C   UNL     1      11.891  17.287   1.604  1.00  0.00     0.000 C 
BRANCH   9  10
ATOM     10  C   UNL     1      10.913  18.001   2.553  1.00  0.00     0.000 C 
BRANCH  10  11
ATOM     11  C   UNL     1      11.572  19.144   3.345  1.00  0.00     0.000 C 
BRANCH  11  12
ATOM     12  C   UNL     1      13.107  19.110   3.264  1.00  0.00     0.000 C 
BRANCH  12  13
ATOM     13  C   UNL     1      13.781  19.619   4.546  1.00  0.00     0.006 C 
BRANCH  13  14
ATOM     14  C   UNL     1      12.751  19.837   5.660  1.00  0.00     0.053 C 
BRANCH  14  15
ATOM     15  C   UNL     1      13.380  20.506   6.843  1.00  0.00     0.041 C 
ATOM     16  O   UNL     1      12.815  21.489   7.391  1.00  0.00    -0.550 OA
ATOM     17  O   UNL     1      14.596  20.048   7.339  1.00  0.00    -0.550 OA
ENDBRANCH  14  15
ENDBRANCH  13  14
ENDBRANCH  12  13
ENDBRANCH  11  12
ENDBRANCH  10  11
ENDBRANCH   9  10
ENDBRANCH   8   9
ENDBRANCH   7   8
ENDBRANCH   6   7
ENDBRANCH   5   6
ENDBRANCH   4   5
ENDBRANCH   3   4
ENDBRANCH   2   3
ENDBRANCH   1   2
BRANCH   1  18
ATOM     18  C   UNL     1       5.910  15.607   3.404  1.00  0.00     0.000 C 
BRANCH  18  19
ATOM     19  C   UNL     1       5.372  16.350   2.168  1.00  0.00     0.000 C 
BRANCH  19  20
ATOM     20  C   UNL     1       5.548  15.556   0.864  1.00  0.00     0.000 C 
BRANCH  20  21
ATOM     21  C   UNL     1       5.776  14.053   1.111  1.00  0.00     0.000 C 
BRANCH  21  22
ATOM     22  C   UNL     1       4.526  13.181   0.851  1.00  0.00     0.000 C 
BRANCH  22  23
ATOM     23  C   UNL     1       3.540  13.178   2.033  1.00  0.00     0.000 C 
BRANCH  23  24
ATOM     24  C   UNL     1       2.518  14.330   1.966  1.00  0.00    -0.000 C 
BRANCH  24  25
ATOM     25  C   UNL     1       1.038  13.898   1.950  1.00  0.00    -0.000 C 
BRANCH  25  26
ATOM     26  C   UNL     1       0.164  14.702   2.926  1.00  0.00    -0.000 C 
BRANCH  26  27
ATOM     27  C   UNL     1      -1.076  13.919   3.392  1.00  0.00    -0.000 C 
BRANCH  27  28
ATOM     28  C   UNL     1      -1.523  14.296   4.813  1.00  0.00    -0.000 C 
BRANCH  28  29
ATOM     29  C   UNL     1      -0.326  14.316   5.776  1.00  0.00    -0.000 C 
BRANCH  29  30
ATOM     30  C   UNL     1      -0.642  15.030   7.103  1.00  0.00    -0.000 C 
BRANCH  30  31
ATOM     31  C   UNL     1      -2.141  15.008   7.469  1.00  0.00    -0.003 C 
ATOM     32  C   UNL     1      -2.402  15.514   8.888  1.00  0.00     0.004 C 
ENDBRANCH  30  31
ENDBRANCH  29  30
ENDBRANCH  28  29
ENDBRANCH  27  28
ENDBRANCH  26  27
ENDBRANCH  25  26
ENDBRANCH  24  25
ENDBRANCH  23  24
ENDBRANCH  22  23
ENDBRANCH  21  22
ENDBRANCH  20  21
ENDBRANCH  19  20
ENDBRANCH  18  19
ENDBRANCH   1  18
TORSDOF 28
ENDMDL
MODEL 9
REMARK VINA RESULT:    -6.250      1.583      2.654
REMARK INTER + INTRA:         -19.058
REMARK INTER:                 -16.042
REMARK INTRA:                  -3.015
REMARK UNBOUND:                -2.577
REMARK SMILES CCCCCCCCCCCCCCCCCCCCCCCCCCCCCC(=O)[O-]
REMARK SMILES IDX 16 1 17 2 18 3 19 4 20 5 21 6 22 7 23 8 24 9 25 10 26 11
REMARK SMILES IDX 27 12 28 13 29 14 30 15 31 16 32 17 15 18 14 19 13 20 12 21
REMARK SMILES IDX 11 22 10 23 9 24 8 25 7 26 6 27 5 28 4 29 3 30 2 31 1 32
REMARK H PARENT
REMARK Flexibility Score: inf
ROOT
ATOM      1  C   UNL     1       8.156  14.107   1.230  1.00  0.00     0.000 C 
ENDROOT
BRANCH   1   2
ATOM      2  C   UNL     1       9.460  13.845   0.443  1.00  0.00     0.000 C 
BRANCH   2   3
ATOM      3  C   UNL     1      10.665  13.618   1.374  1.00  0.00     0.000 C 
BRANCH   3   4
ATOM      4  C   UNL     1      12.010  13.618   0.627  1.00  0.00     0.000 C 
BRANCH   4   5
ATOM      5  C   UNL     1      11.839  13.481  -0.897  1.00  0.00     0.000 C 
BRANCH   5   6
ATOM      6  C   UNL     1      12.861  14.325  -1.692  1.00  0.00     0.000 C 
BRANCH   6   7
ATOM      7  C   UNL     1      12.217  15.398  -2.591  1.00  0.00     0.000 C 
BRANCH   7   8
ATOM      8  C   UNL     1      11.177  16.294  -1.891  1.00  0.00     0.000 C 
BRANCH   8   9
ATOM      9  C   UNL     1      11.745  17.235  -0.808  1.00  0.00     0.000 C 
BRANCH   9  10
ATOM     10  C   UNL     1      11.119  17.071   0.590  1.00  0.00     0.000 C 
BRANCH  10  11
ATOM     11  C   UNL     1      11.779  17.967   1.652  1.00  0.00     0.000 C 
BRANCH  11  12
ATOM     12  C   UNL     1      10.912  18.125   2.912  1.00  0.00     0.000 C 
BRANCH  12  13
ATOM     13  C   UNL     1      11.398  19.258   3.828  1.00  0.00     0.006 C 
BRANCH  13  14
ATOM     14  C   UNL     1      12.925  19.381   3.789  1.00  0.00     0.053 C 
BRANCH  14  15
ATOM     15  C   UNL     1      13.474  19.629   5.159  1.00  0.00     0.041 C 
ATOM     16  O   UNL     1      14.554  19.089   5.519  1.00  0.00    -0.550 OA
ATOM     17  O   UNL     1      12.791  20.455   6.046  1.00  0.00    -0.550 OA
ENDBRANCH  14  15
ENDBRANCH  13  14
ENDBRANCH  12  13
ENDBRANCH  11  12
ENDBRANCH  10  11
ENDBRANCH   9  10
ENDBRANCH   8   9
ENDBRANCH   7   8
ENDBRANCH   6   7
ENDBRANCH   5   6
ENDBRANCH   4   5
ENDBRANCH   3   4
ENDBRANCH   2   3
ENDBRANCH   1   2
BRANCH   1  18
ATOM     18  C   UNL     1       8.370  14.377   2.732  1.00  0.00     0.000 C 
BRANCH  18  19
ATOM     19  C   UNL     1       8.058  15.811   3.194  1.00  0.00     0.000 C 
BRANCH  19  20
ATOM     20  C   UNL     1       6.732  15.921   3.965  1.00  0.00     0.000 C 
BRANCH  20  21
ATOM     21  C   UNL     1       5.522  16.125   3.035  1.00  0.00     0.000 C 
BRANCH  21  22
ATOM     22  C   UNL     1       4.342  15.169   3.327  1.00  0.00     0.000 C 
BRANCH  22  23
ATOM     23  C   UNL     1       4.593  13.736   2.826  1.00  0.00     0.000 C 
BRANCH  23  24
ATOM     24  C   UNL     1       4.142  13.522   1.366  1.00  0.00    -0.000 C 
BRANCH  24  25
ATOM     25  C   UNL     1       3.073  14.508   0.856  1.00  0.00    -0.000 C 
BRANCH  25  26
ATOM     26  C   UNL     1       1.645  13.944   0.937  1.00  0.00    -0.000 C 
BRANCH  26  27
ATOM     27  C   UNL     1       1.071  13.993   2.365  1.00  0.00    -0.000 C 
BRANCH  27  28
ATOM     28  C   UNL     1      -0.415  14.385   2.398  1.00  0.00    -0.000 C 
BRANCH  28  29
ATOM     29  C   UNL     1      -0.945  14.402   3.840  1.00  0.00    -0.000 C 
BRANCH  29  30
ATOM     30  C   UNL     1      -2.401  13.913   3.945  1.00  0.00    -0.000 C 
BRANCH  30  31
ATOM     31  C   UNL     1      -3.286  14.369   2.766  1.00  0.00    -0.003 C 
ATOM     32  C   UNL     1      -4.333  15.400   3.189  1.00  0.00     0.004 C 
ENDBRANCH  30  31
ENDBRANCH  29  30
ENDBRANCH  28  29
ENDBRANCH  27  28
ENDBRANCH  26  27
ENDBRANCH  25  26
ENDBRANCH  24  25
ENDBRANCH  23  24
ENDBRANCH  22  23
ENDBRANCH  21  22
ENDBRANCH  20  21
ENDBRANCH  19  20
ENDBRANCH  18  19
ENDBRANCH   1  18
TORSDOF 28
ENDMDL
