MODEL 1
REMARK VINA RESULT:     3.658      0.000      0.000
REMARK INTER + INTRA:           4.967
REMARK INTER:                   5.047
REMARK INTRA:                  -0.081
REMARK UNBOUND:                -0.081
REMARK SMILES O=C([O-])[C@@H]1O[C@H](Oc2cc3oc(-c4ccccc4)cc(=O)c3c(O)c2O)[C@H](O)[C@H](O)[C@@H]1O
REMARK SMILES IDX 7 1 6 2 4 3 31 4 5 5 29 6 27 7 2 8 1 9 3 10 32 11 30 13
REMARK SMILES IDX 28 15 8 17 25 18 9 19 23 20 10 21 22 22 11 23 20 24 12 25
REMARK SMILES IDX 19 26 21 27 26 28 24 30 13 32 14 33 18 34 15 35 17 36 16 37
REMARK H PARENT 32 12 30 14 28 16 26 29 24 31
REMARK Flexibility Score: inf
ROOT
ATOM      1  O   UNL     1     -31.733 -21.498 -32.611  1.00  0.00    -0.458 OA
ENDROOT
BRANCH   1   2
ATOM      2  C   UNL     1     -30.641 -22.234 -32.051  1.00  0.00     0.339 C 
ATOM      3  C   UNL     1     -29.113 -20.406 -31.984  1.00  0.00     0.199 C 
ATOM      4  C   UNL     1     -29.220 -20.308 -30.439  1.00  0.00     0.180 C 
ATOM      5  O   UNL     1     -29.384 -21.715 -32.472  1.00  0.00    -0.328 OA
ATOM      6  C   UNL     1     -30.537 -20.901 -29.903  1.00  0.00     0.181 C 
ATOM      7  C   UNL     1     -30.756 -22.287 -30.516  1.00  0.00     0.214 C 
BRANCH   3   8
ATOM      8  C   UNL     1     -29.855 -19.352 -32.774  1.00  0.00     0.073 C 
ATOM      9  O   UNL     1     -29.326 -18.875 -33.813  1.00  0.00    -0.547 OA
ATOM     10  O   UNL     1     -31.097 -18.875 -32.374  1.00  0.00    -0.547 OA
ENDBRANCH   3   8
BRANCH   4  11
ATOM     11  O   UNL     1     -29.050 -18.980 -30.014  1.00  0.00    -0.387 OA
ATOM     12  H   UNL     1     -28.455 -19.007 -29.218  1.00  0.00     0.211 HD
ENDBRANCH   4  11
BRANCH   6  13
ATOM     13  O   UNL     1     -31.630 -20.066 -30.192  1.00  0.00    -0.387 OA
ATOM     14  H   UNL     1     -32.442 -20.521 -29.845  1.00  0.00     0.211 HD
ENDBRANCH   6  13
BRANCH   7  15
ATOM     15  O   UNL     1     -32.016 -22.778 -30.134  1.00  0.00    -0.384 OA
ATOM     16  H   UNL     1     -32.057 -22.722 -29.143  1.00  0.00     0.211 HD
ENDBRANCH   7  15
ENDBRANCH   1   2
BRANCH   1  17
ATOM     17  C   UNL     1     -32.221 -21.559 -33.930  1.00  0.00     0.172 A 
ATOM     18  C   UNL     1     -32.722 -20.451 -34.652  1.00  0.00     0.201 A 
ATOM     19  C   UNL     1     -32.212 -22.816 -34.534  1.00  0.00     0.098 A 
ATOM     20  C   UNL     1     -33.210 -20.619 -35.967  1.00  0.00     0.176 A 
ATOM     21  C   UNL     1     -32.649 -22.993 -35.844  1.00  0.00     0.146 A 
ATOM     22  C   UNL     1     -33.129 -21.895 -36.597  1.00  0.00     0.111 A 
ATOM     23  O   UNL     1     -32.593 -24.212 -36.372  1.00  0.00    -0.456 OA
ATOM     24  C   UNL     1     -33.471 -22.148 -37.948  1.00  0.00     0.197 A 
ATOM     25  C   UNL     1     -32.948 -24.486 -37.622  1.00  0.00     0.138 A 
ATOM     26  C   UNL     1     -33.401 -23.449 -38.450  1.00  0.00     0.100 A 
ATOM     27  O   UNL     1     -33.813 -21.228 -38.734  1.00  0.00    -0.289 OA
BRANCH  18  28
ATOM     28  O   UNL     1     -32.758 -19.186 -34.065  1.00  0.00    -0.502 OA
ATOM     29  H   UNL     1     -31.934 -18.609 -33.944  1.00  0.00     0.293 HD
ENDBRANCH  18  28
BRANCH  20  30
ATOM     30  O   UNL     1     -33.787 -19.504 -36.582  1.00  0.00    -0.504 OA
ATOM     31  H   UNL     1     -34.036 -19.451 -37.559  1.00  0.00     0.293 HD
ENDBRANCH  20  30
BRANCH  25  32
ATOM     32  C   UNL     1     -32.857 -25.889 -38.099  1.00  0.00     0.017 A 
ATOM     33  C   UNL     1     -34.026 -26.667 -38.188  1.00  0.00     0.012 A 
ATOM     34  C   UNL     1     -31.622 -26.479 -38.440  1.00  0.00     0.012 A 
ATOM     35  C   UNL     1     -33.966 -27.993 -38.626  1.00  0.00     0.001 A 
ATOM     36  C   UNL     1     -31.569 -27.806 -38.876  1.00  0.00     0.001 A 
ATOM     37  C   UNL     1     -32.739 -28.562 -38.972  1.00  0.00     0.000 A 
ENDBRANCH  25  32
ENDBRANCH   1  17
TORSDOF 9
ENDMDL
MODEL 2
REMARK VINA RESULT:     4.647      0.765      2.304
REMARK INTER + INTRA:           6.332
REMARK INTER:                   5.178
REMARK INTRA:                   1.154
REMARK UNBOUND:                -0.081
REMARK SMILES O=C([O-])[C@@H]1O[C@H](Oc2cc3oc(-c4ccccc4)cc(=O)c3c(O)c2O)[C@H](O)[C@H](O)[C@@H]1O
REMARK SMILES IDX 7 1 6 2 4 3 31 4 5 5 29 6 27 7 2 8 1 9 3 10 32 11 30 13
REMARK SMILES IDX 28 15 8 17 25 18 9 19 23 20 10 21 22 22 11 23 20 24 12 25
REMARK SMILES IDX 19 26 21 27 26 28 24 30 13 32 14 33 18 34 15 35 17 36 16 37
REMARK H PARENT 32 12 30 14 28 16 26 29 24 31
REMARK Flexibility Score: inf
ROOT
ATOM      1  O   UNL     1     -31.663 -20.954 -33.025  1.00  0.00    -0.458 OA
ENDROOT
BRANCH   1   2
ATOM      2  C   UNL     1     -31.615 -19.724 -32.293  1.00  0.00     0.339 C 
ATOM      3  C   UNL     1     -30.934 -20.688 -30.223  1.00  0.00     0.199 C 
ATOM      4  C   UNL     1     -29.501 -20.110 -30.367  1.00  0.00     0.180 C 
ATOM      5  O   UNL     1     -31.910 -19.918 -30.914  1.00  0.00    -0.328 OA
ATOM      6  C   UNL     1     -29.129 -19.823 -31.834  1.00  0.00     0.181 C 
ATOM      7  C   UNL     1     -30.256 -19.028 -32.498  1.00  0.00     0.214 C 
BRANCH   3   8
ATOM      8  C   UNL     1     -31.089 -22.167 -30.503  1.00  0.00     0.073 C 
ATOM      9  O   UNL     1     -30.938 -22.990 -29.561  1.00  0.00    -0.547 OA
ATOM     10  O   UNL     1     -31.372 -22.646 -31.776  1.00  0.00    -0.547 OA
ENDBRANCH   3   8
BRANCH   4  11
ATOM     11  O   UNL     1     -28.561 -20.958 -29.760  1.00  0.00    -0.387 OA
ATOM     12  H   UNL     1     -28.877 -21.122 -28.832  1.00  0.00     0.211 HD
ENDBRANCH   4  11
BRANCH   6  13
ATOM     13  O   UNL     1     -28.893 -21.012 -32.545  1.00  0.00    -0.387 OA
ATOM     14  H   UNL     1     -27.943 -21.258 -32.392  1.00  0.00     0.211 HD
ENDBRANCH   6  13
BRANCH   7  15
ATOM     15  O   UNL     1     -29.983 -18.875 -33.868  1.00  0.00    -0.384 OA
ATOM     16  H   UNL     1     -30.855 -18.918 -34.340  1.00  0.00     0.211 HD
ENDBRANCH   7  15
ENDBRANCH   1   2
BRANCH   1  17
ATOM     17  C   UNL     1     -32.215 -21.170 -34.303  1.00  0.00     0.172 A 
ATOM     18  C   UNL     1     -32.858 -20.176 -35.077  1.00  0.00     0.201 A 
ATOM     19  C   UNL     1     -32.118 -22.467 -34.805  1.00  0.00     0.098 A 
ATOM     20  C   UNL     1     -33.399 -20.498 -36.341  1.00  0.00     0.176 A 
ATOM     21  C   UNL     1     -32.607 -22.792 -36.067  1.00  0.00     0.146 A 
ATOM     22  C   UNL     1     -33.231 -21.809 -36.873  1.00  0.00     0.111 A 
ATOM     23  O   UNL     1     -32.463 -24.041 -36.501  1.00  0.00    -0.456 OA
ATOM     24  C   UNL     1     -33.620 -22.205 -38.176  1.00  0.00     0.197 A 
ATOM     25  C   UNL     1     -32.858 -24.450 -37.701  1.00  0.00     0.138 A 
ATOM     26  C   UNL     1     -33.453 -23.531 -38.578  1.00  0.00     0.100 A 
ATOM     27  O   UNL     1     -34.091 -21.390 -39.009  1.00  0.00    -0.289 OA
BRANCH  18  28
ATOM     28  O   UNL     1     -32.984 -18.875 -34.589  1.00  0.00    -0.502 OA
ATOM     29  H   UNL     1     -32.545 -18.562 -33.731  1.00  0.00     0.293 HD
ENDBRANCH  18  28
BRANCH  20  30
ATOM     30  O   UNL     1     -34.113 -19.496 -37.004  1.00  0.00    -0.504 OA
ATOM     31  H   UNL     1     -35.097 -19.309 -36.873  1.00  0.00     0.293 HD
ENDBRANCH  20  30
BRANCH  25  32
ATOM     32  C   UNL     1     -32.658 -25.874 -38.071  1.00  0.00     0.017 A 
ATOM     33  C   UNL     1     -33.766 -26.649 -38.462  1.00  0.00     0.012 A 
ATOM     34  C   UNL     1     -31.389 -26.485 -38.013  1.00  0.00     0.012 A 
ATOM     35  C   UNL     1     -33.606 -27.994 -38.808  1.00  0.00     0.001 A 
ATOM     36  C   UNL     1     -31.236 -27.831 -38.359  1.00  0.00     0.001 A 
ATOM     37  C   UNL     1     -32.342 -28.585 -38.759  1.00  0.00     0.000 A 
ENDBRANCH  25  32
ENDBRANCH   1  17
TORSDOF 9
ENDMDL
