MODEL 1
REMARK VINA RESULT:    -3.606      0.000      0.000
REMARK INTER + INTRA:          -6.179
REMARK INTER:                  -5.503
REMARK INTRA:                  -0.676
REMARK UNBOUND:                -0.676
REMARK SMILES CCCCCCCCCCC(=O)[O-]
REMARK SMILES IDX 7 1 8 2 9 3 10 4 11 5 12 6 13 7 6 8 5 9 4 10 3 11 2 12 1 13
REMARK H PARENT
REMARK Flexibility Score: inf
ROOT
ATOM      1  C   UNL     1      60.952  32.711  59.724  1.00  0.00     0.000 C 
ENDROOT
BRANCH   1   2
ATOM      2  C   UNL     1      60.408  31.413  60.340  1.00  0.00     0.000 C 
BRANCH   2   3
ATOM      3  C   UNL     1      60.928  31.173  61.769  1.00  0.00     0.006 C 
BRANCH   3   4
ATOM      4  C   UNL     1      61.748  29.881  61.877  1.00  0.00     0.053 C 
BRANCH   4   5
ATOM      5  C   UNL     1      63.098  30.025  61.243  1.00  0.00     0.041 C 
ATOM      6  O   UNL     1      63.860  30.967  61.583  1.00  0.00    -0.550 OA
ATOM      7  O   UNL     1      63.499  29.139  60.250  1.00  0.00    -0.550 OA
ENDBRANCH   4   5
ENDBRANCH   3   4
ENDBRANCH   2   3
ENDBRANCH   1   2
BRANCH   1   8
ATOM      8  C   UNL     1      61.753  33.552  60.728  1.00  0.00     0.000 C 
BRANCH   8   9
ATOM      9  C   UNL     1      61.461  35.047  60.549  1.00  0.00    -0.000 C 
BRANCH   9  10
ATOM     10  C   UNL     1      62.736  35.883  60.719  1.00  0.00    -0.000 C 
BRANCH  10  11
ATOM     11  C   UNL     1      63.931  34.992  61.090  1.00  0.00    -0.000 C 
BRANCH  11  12
ATOM     12  C   UNL     1      65.069  35.779  61.758  1.00  0.00    -0.003 C 
ATOM     13  C   UNL     1      64.608  37.124  62.319  1.00  0.00     0.004 C 
ENDBRANCH  11  12
ENDBRANCH  10  11
ENDBRANCH   9  10
ENDBRANCH   8   9
ENDBRANCH   1   8
TORSDOF 9
ENDMDL
MODEL 2
REMARK VINA RESULT:    -3.580     12.223     14.148
REMARK INTER + INTRA:          -6.140
REMARK INTER:                  -5.056
REMARK INTRA:                  -1.084
REMARK UNBOUND:                -0.676
REMARK SMILES CCCCCCCCCCC(=O)[O-]
REMARK SMILES IDX 7 1 8 2 9 3 10 4 11 5 12 6 13 7 6 8 5 9 4 10 3 11 2 12 1 13
REMARK H PARENT
REMARK Flexibility Score: inf
ROOT
ATOM      1  C   UNL     1      56.891  28.272  51.757  1.00  0.00     0.000 C 
ENDROOT
BRANCH   1   2
ATOM      2  C   UNL     1      57.048  29.134  50.495  1.00  0.00     0.000 C 
BRANCH   2   3
ATOM      3  C   UNL     1      58.498  29.602  50.275  1.00  0.00     0.006 C 
BRANCH   3   4
ATOM      4  C   UNL     1      59.126  28.970  49.025  1.00  0.00     0.053 C 
BRANCH   4   5
ATOM      5  C   UNL     1      60.119  27.906  49.381  1.00  0.00     0.041 C 
ATOM      6  O   UNL     1      61.353  28.134  49.287  1.00  0.00    -0.550 OA
ATOM      7  O   UNL     1      59.680  26.650  49.782  1.00  0.00    -0.550 OA
ENDBRANCH   4   5
ENDBRANCH   3   4
ENDBRANCH   2   3
ENDBRANCH   1   2
BRANCH   1   8
ATOM      8  C   UNL     1      56.174  26.942  51.479  1.00  0.00     0.000 C 
BRANCH   8   9
ATOM      9  C   UNL     1      56.124  26.649  49.975  1.00  0.00    -0.000 C 
BRANCH   9  10
ATOM     10  C   UNL     1      54.710  26.247  49.538  1.00  0.00    -0.000 C 
BRANCH  10  11
ATOM     11  C   UNL     1      53.651  26.890  50.445  1.00  0.00    -0.000 C 
BRANCH  11  12
ATOM     12  C   UNL     1      52.875  28.015  49.742  1.00  0.00    -0.003 C 
ATOM     13  C   UNL     1      53.361  29.408  50.141  1.00  0.00     0.004 C 
ENDBRANCH  11  12
ENDBRANCH  10  11
ENDBRANCH   9  10
ENDBRANCH   8   9
ENDBRANCH   1   8
TORSDOF 9
ENDMDL
MODEL 3
REMARK VINA RESULT:    -3.481      2.587      5.570
REMARK INTER + INTRA:          -5.988
REMARK INTER:                  -4.739
REMARK INTRA:                  -1.248
REMARK UNBOUND:                -0.676
REMARK SMILES CCCCCCCCCCC(=O)[O-]
REMARK SMILES IDX 7 1 8 2 9 3 10 4 11 5 12 6 13 7 6 8 5 9 4 10 3 11 2 12 1 13
REMARK H PARENT
REMARK Flexibility Score: inf
ROOT
ATOM      1  C   UNL     1      65.050  31.034  59.916  1.00  0.00     0.000 C 
ENDROOT
BRANCH   1   2
ATOM      2  C   UNL     1      64.384  32.397  59.669  1.00  0.00     0.000 C 
BRANCH   2   3
ATOM      3  C   UNL     1      64.044  33.134  60.977  1.00  0.00     0.006 C 
BRANCH   3   4
ATOM      4  C   UNL     1      63.068  34.296  60.749  1.00  0.00     0.053 C 
BRANCH   4   5
ATOM      5  C   UNL     1      63.565  35.569  61.363  1.00  0.00     0.041 C 
ATOM      6  O   UNL     1      62.847  36.603  61.350  1.00  0.00    -0.550 OA
ATOM      7  O   UNL     1      64.838  35.622  61.918  1.00  0.00    -0.550 OA
ENDBRANCH   4   5
ENDBRANCH   3   4
ENDBRANCH   2   3
ENDBRANCH   1   2
BRANCH   1   8
ATOM      8  C   UNL     1      64.339  30.216  61.004  1.00  0.00     0.000 C 
BRANCH   8   9
ATOM      9  C   UNL     1      63.482  29.105  60.384  1.00  0.00    -0.000 C 
BRANCH   9  10
ATOM     10  C   UNL     1      62.001  29.286  60.741  1.00  0.00    -0.000 C 
BRANCH  10  11
ATOM     11  C   UNL     1      61.834  30.268  61.910  1.00  0.00    -0.000 C 
BRANCH  11  12
ATOM     12  C   UNL     1      60.752  31.325  61.642  1.00  0.00    -0.003 C 
ATOM     13  C   UNL     1      60.528  31.578  60.152  1.00  0.00     0.004 C 
ENDBRANCH  11  12
ENDBRANCH  10  11
ENDBRANCH   9  10
ENDBRANCH   8   9
ENDBRANCH   1   8
TORSDOF 9
ENDMDL
MODEL 4
REMARK VINA RESULT:    -3.468      1.103      1.998
REMARK INTER + INTRA:          -5.968
REMARK INTER:                  -5.126
REMARK INTRA:                  -0.842
REMARK UNBOUND:                -0.676
REMARK SMILES CCCCCCCCCCC(=O)[O-]
REMARK SMILES IDX 7 1 8 2 9 3 10 4 11 5 12 6 13 7 6 8 5 9 4 10 3 11 2 12 1 13
REMARK H PARENT
REMARK Flexibility Score: inf
ROOT
ATOM      1  C   UNL     1      60.448  30.662  60.482  1.00  0.00     0.000 C 
ENDROOT
BRANCH   1   2
ATOM      2  C   UNL     1      61.275  30.545  61.771  1.00  0.00     0.000 C 
BRANCH   2   3
ATOM      3  C   UNL     1      62.535  29.680  61.589  1.00  0.00     0.006 C 
BRANCH   3   4
ATOM      4  C   UNL     1      63.812  30.528  61.504  1.00  0.00     0.053 C 
BRANCH   4   5
ATOM      5  C   UNL     1      64.265  30.709  60.087  1.00  0.00     0.041 C 
ATOM      6  O   UNL     1      65.252  31.445  59.827  1.00  0.00    -0.550 OA
ATOM      7  O   UNL     1      63.573  30.093  59.051  1.00  0.00    -0.550 OA
ENDBRANCH   4   5
ENDBRANCH   3   4
ENDBRANCH   2   3
ENDBRANCH   1   2
BRANCH   1   8
ATOM      8  C   UNL     1      60.533  32.060  59.850  1.00  0.00     0.000 C 
BRANCH   8   9
ATOM      9  C   UNL     1      61.282  33.033  60.768  1.00  0.00    -0.000 C 
BRANCH   9  10
ATOM     10  C   UNL     1      61.263  34.456  60.196  1.00  0.00    -0.000 C 
BRANCH  10  11
ATOM     11  C   UNL     1      62.338  35.329  60.858  1.00  0.00    -0.000 C 
BRANCH  11  12
ATOM     12  C   UNL     1      63.673  34.589  61.035  1.00  0.00    -0.003 C 
ATOM     13  C   UNL     1      64.728  35.433  61.749  1.00  0.00     0.004 C 
ENDBRANCH  11  12
ENDBRANCH  10  11
ENDBRANCH   9  10
ENDBRANCH   8   9
ENDBRANCH   1   8
TORSDOF 9
ENDMDL
MODEL 5
REMARK VINA RESULT:    -3.458      2.642      5.100
REMARK INTER + INTRA:          -5.952
REMARK INTER:                  -5.004
REMARK INTRA:                  -0.949
REMARK UNBOUND:                -0.676
REMARK SMILES CCCCCCCCCCC(=O)[O-]
REMARK SMILES IDX 7 1 8 2 9 3 10 4 11 5 12 6 13 7 6 8 5 9 4 10 3 11 2 12 1 13
REMARK H PARENT
REMARK Flexibility Score: inf
ROOT
ATOM      1  C   UNL     1      61.306  33.148  59.492  1.00  0.00     0.000 C 
ENDROOT
BRANCH   1   2
ATOM      2  C   UNL     1      61.425  34.132  60.666  1.00  0.00     0.000 C 
BRANCH   2   3
ATOM      3  C   UNL     1      62.577  35.136  60.481  1.00  0.00     0.006 C 
BRANCH   3   4
ATOM      4  C   UNL     1      63.863  34.674  61.179  1.00  0.00     0.053 C 
BRANCH   4   5
ATOM      5  C   UNL     1      64.816  35.810  61.397  1.00  0.00     0.041 C 
ATOM      6  O   UNL     1      65.689  36.080  60.531  1.00  0.00    -0.550 OA
ATOM      7  O   UNL     1      64.762  36.549  62.573  1.00  0.00    -0.550 OA
ENDBRANCH   4   5
ENDBRANCH   3   4
ENDBRANCH   2   3
ENDBRANCH   1   2
BRANCH   1   8
ATOM      8  C   UNL     1      60.773  31.774  59.924  1.00  0.00     0.000 C 
BRANCH   8   9
ATOM      9  C   UNL     1      60.711  31.665  61.453  1.00  0.00    -0.000 C 
BRANCH   9  10
ATOM     10  C   UNL     1      61.532  30.470  61.954  1.00  0.00    -0.000 C 
BRANCH  10  11
ATOM     11  C   UNL     1      62.411  29.898  60.832  1.00  0.00    -0.000 C 
BRANCH  11  12
ATOM     12  C   UNL     1      63.909  29.965  61.164  1.00  0.00    -0.003 C 
ATOM     13  C   UNL     1      64.601  31.172  60.530  1.00  0.00     0.004 C 
ENDBRANCH  11  12
ENDBRANCH  10  11
ENDBRANCH   9  10
ENDBRANCH   8   9
ENDBRANCH   1   8
TORSDOF 9
ENDMDL
MODEL 6
REMARK VINA RESULT:    -3.457     13.281     14.566
REMARK INTER + INTRA:          -5.951
REMARK INTER:                  -5.368
REMARK INTRA:                  -0.583
REMARK UNBOUND:                -0.676
REMARK SMILES CCCCCCCCCCC(=O)[O-]
REMARK SMILES IDX 7 1 8 2 9 3 10 4 11 5 12 6 13 7 6 8 5 9 4 10 3 11 2 12 1 13
REMARK H PARENT
REMARK Flexibility Score: inf
ROOT
ATOM      1  C   UNL     1      56.988  28.380  50.610  1.00  0.00     0.000 C 
ENDROOT
BRANCH   1   2
ATOM      2  C   UNL     1      55.602  29.044  50.632  1.00  0.00     0.000 C 
BRANCH   2   3
ATOM      3  C   UNL     1      54.506  28.146  50.033  1.00  0.00     0.006 C 
BRANCH   3   4
ATOM      4  C   UNL     1      54.972  26.692  49.875  1.00  0.00     0.053 C 
BRANCH   4   5
ATOM      5  C   UNL     1      53.820  25.761  49.648  1.00  0.00     0.041 C 
ATOM      6  O   UNL     1      53.222  25.751  48.540  1.00  0.00    -0.550 OA
ATOM      7  O   UNL     1      53.383  24.931  50.674  1.00  0.00    -0.550 OA
ENDBRANCH   4   5
ENDBRANCH   3   4
ENDBRANCH   2   3
ENDBRANCH   1   2
BRANCH   1   8
ATOM      8  C   UNL     1      58.089  29.324  50.105  1.00  0.00     0.000 C 
BRANCH   8   9
ATOM      9  C   UNL     1      59.168  28.549  49.339  1.00  0.00    -0.000 C 
BRANCH   9  10
ATOM     10  C   UNL     1      58.903  27.039  49.390  1.00  0.00    -0.000 C 
BRANCH  10  11
ATOM     11  C   UNL     1      60.138  26.281  49.898  1.00  0.00    -0.000 C 
BRANCH  11  12
ATOM     12  C   UNL     1      59.779  24.943  50.561  1.00  0.00    -0.003 C 
ATOM     13  C   UNL     1      60.645  23.785  50.064  1.00  0.00     0.004 C 
ENDBRANCH  11  12
ENDBRANCH  10  11
ENDBRANCH   9  10
ENDBRANCH   8   9
ENDBRANCH   1   8
TORSDOF 9
ENDMDL
MODEL 7
REMARK VINA RESULT:    -3.383     11.773     13.956
REMARK INTER + INTRA:          -5.839
REMARK INTER:                  -5.190
REMARK INTRA:                  -0.649
REMARK UNBOUND:                -0.676
REMARK SMILES CCCCCCCCCCC(=O)[O-]
REMARK SMILES IDX 7 1 8 2 9 3 10 4 11 5 12 6 13 7 6 8 5 9 4 10 3 11 2 12 1 13
REMARK H PARENT
REMARK Flexibility Score: inf
ROOT
ATOM      1  C   UNL     1      57.226  26.216  50.104  1.00  0.00     0.000 C 
ENDROOT
BRANCH   1   2
ATOM      2  C   UNL     1      58.204  27.335  50.498  1.00  0.00     0.000 C 
BRANCH   2   3
ATOM      3  C   UNL     1      57.715  28.728  50.062  1.00  0.00     0.006 C 
BRANCH   3   4
ATOM      4  C   UNL     1      58.823  29.541  49.377  1.00  0.00     0.053 C 
BRANCH   4   5
ATOM      5  C   UNL     1      59.985  29.777  50.292  1.00  0.00     0.041 C 
ATOM      6  O   UNL     1      61.132  29.360  49.981  1.00  0.00    -0.550 OA
ATOM      7  O   UNL     1      59.795  30.426  51.506  1.00  0.00    -0.550 OA
ENDBRANCH   4   5
ENDBRANCH   3   4
ENDBRANCH   2   3
ENDBRANCH   1   2
BRANCH   1   8
ATOM      8  C   UNL     1      55.816  26.437  50.670  1.00  0.00     0.000 C 
BRANCH   8   9
ATOM      9  C   UNL     1      54.745  26.042  49.646  1.00  0.00    -0.000 C 
BRANCH   9  10
ATOM     10  C   UNL     1      53.684  27.141  49.507  1.00  0.00    -0.000 C 
BRANCH  10  11
ATOM     11  C   UNL     1      54.165  28.454  50.142  1.00  0.00    -0.000 C 
BRANCH  11  12
ATOM     12  C   UNL     1      53.035  29.482  50.300  1.00  0.00    -0.003 C 
ATOM     13  C   UNL     1      53.439  30.675  51.167  1.00  0.00     0.004 C 
ENDBRANCH  11  12
ENDBRANCH  10  11
ENDBRANCH   9  10
ENDBRANCH   8   9
ENDBRANCH   1   8
TORSDOF 9
ENDMDL
MODEL 8
REMARK VINA RESULT:    -3.373      2.089      3.196
REMARK INTER + INTRA:          -5.822
REMARK INTER:                  -4.914
REMARK INTRA:                  -0.908
REMARK UNBOUND:                -0.676
REMARK SMILES CCCCCCCCCCC(=O)[O-]
REMARK SMILES IDX 7 1 8 2 9 3 10 4 11 5 12 6 13 7 6 8 5 9 4 10 3 11 2 12 1 13
REMARK H PARENT
REMARK Flexibility Score: inf
ROOT
ATOM      1  C   UNL     1      63.335  30.423  60.574  1.00  0.00     0.000 C 
ENDROOT
BRANCH   1   2
ATOM      2  C   UNL     1      62.414  30.061  61.750  1.00  0.00     0.000 C 
BRANCH   2   3
ATOM      3  C   UNL     1      61.109  30.876  61.752  1.00  0.00     0.006 C 
BRANCH   3   4
ATOM      4  C   UNL     1      60.344  30.745  60.427  1.00  0.00     0.053 C 
BRANCH   4   5
ATOM      5  C   UNL     1      59.868  29.343  60.197  1.00  0.00     0.041 C 
ATOM      6  O   UNL     1      60.270  28.693  59.197  1.00  0.00    -0.550 OA
ATOM      7  O   UNL     1      58.951  28.767  61.069  1.00  0.00    -0.550 OA
ENDBRANCH   4   5
ENDBRANCH   3   4
ENDBRANCH   2   3
ENDBRANCH   1   2
BRANCH   1   8
ATOM      8  C   UNL     1      64.275  31.594  60.898  1.00  0.00     0.000 C 
BRANCH   8   9
ATOM      9  C   UNL     1      63.948  32.816  60.031  1.00  0.00    -0.000 C 
BRANCH   9  10
ATOM     10  C   UNL     1      63.324  33.938  60.871  1.00  0.00    -0.000 C 
BRANCH  10  11
ATOM     11  C   UNL     1      61.871  34.196  60.449  1.00  0.00    -0.000 C 
BRANCH  11  12
ATOM     12  C   UNL     1      61.435  35.649  60.691  1.00  0.00    -0.003 C 
ATOM     13  C   UNL     1      62.564  36.522  61.239  1.00  0.00     0.004 C 
ENDBRANCH  11  12
ENDBRANCH  10  11
ENDBRANCH   9  10
ENDBRANCH   8   9
ENDBRANCH   1   8
TORSDOF 9
ENDMDL
MODEL 9
REMARK VINA RESULT:    -3.322     12.172     13.901
REMARK INTER + INTRA:          -5.746
REMARK INTER:                  -5.156
REMARK INTRA:                  -0.589
REMARK UNBOUND:                -0.676
REMARK SMILES CCCCCCCCCCC(=O)[O-]
REMARK SMILES IDX 7 1 8 2 9 3 10 4 11 5 12 6 13 7 6 8 5 9 4 10 3 11 2 12 1 13
REMARK H PARENT
REMARK Flexibility Score: inf
ROOT
ATOM      1  C   UNL     1      58.292  29.631  50.125  1.00  0.00     0.000 C 
ENDROOT
BRANCH   1   2
ATOM      2  C   UNL     1      59.145  28.832  49.127  1.00  0.00     0.000 C 
BRANCH   2   3
ATOM      3  C   UNL     1      59.126  27.320  49.411  1.00  0.00     0.006 C 
BRANCH   3   4
ATOM      4  C   UNL     1      60.504  26.793  49.832  1.00  0.00     0.053 C 
BRANCH   4   5
ATOM      5  C   UNL     1      60.397  25.522  50.619  1.00  0.00     0.041 C 
ATOM      6  O   UNL     1      60.341  24.413  50.027  1.00  0.00    -0.550 OA
ATOM      7  O   UNL     1      60.323  25.567  52.006  1.00  0.00    -0.550 OA
ENDBRANCH   4   5
ENDBRANCH   3   4
ENDBRANCH   2   3
ENDBRANCH   1   2
BRANCH   1   8
ATOM      8  C   UNL     1      57.479  28.728  51.064  1.00  0.00     0.000 C 
BRANCH   8   9
ATOM      9  C   UNL     1      56.155  29.396  51.459  1.00  0.00    -0.000 C 
BRANCH   9  10
ATOM     10  C   UNL     1      55.048  29.064  50.450  1.00  0.00    -0.000 C 
BRANCH  10  11
ATOM     11  C   UNL     1      55.060  27.571  50.093  1.00  0.00    -0.000 C 
BRANCH  11  12
ATOM     12  C   UNL     1      53.678  27.057  49.662  1.00  0.00    -0.003 C 
ATOM     13  C   UNL     1      53.742  25.690  48.981  1.00  0.00     0.004 C 
ENDBRANCH  11  12
ENDBRANCH  10  11
ENDBRANCH   9  10
ENDBRANCH   8   9
ENDBRANCH   1   8
TORSDOF 9
ENDMDL
