MODEL 1
REMARK VINA RESULT:    -4.760      0.000      0.000
REMARK INTER + INTRA:          -6.076
REMARK INTER:                  -6.708
REMARK INTRA:                   0.632
REMARK UNBOUND:                 0.632
REMARK SMILES CC1=CCC(=C(C)C)C(=O)CC(C)=CCC1
REMARK SMILES IDX 12 1 14 2 13 3 15 4 16 5 2 6 1 7 3 8 11 10 9 11 10 12 5 13
REMARK SMILES IDX 6 14 7 15 8 16 4 17
REMARK H PARENT
REMARK Flexibility Score: 60.00
ROOT
ATOM      1  C   UNL     1     -10.348 -34.106  32.004  1.00  0.00    -0.070 C 
ATOM      2  C   UNL     1      -9.879 -33.505  30.885  1.00  0.00    -0.027 C 
ATOM      3  C   UNL     1     -10.280 -33.327  33.294  1.00  0.00     0.039 C 
ENDROOT
BRANCH   2   4
ATOM      4  C   UNL     1      -9.945 -34.052  29.481  1.00  0.00     0.032 C 
BRANCH   4   5
ATOM      5  C   UNL     1     -11.264 -33.698  28.767  1.00  0.00     0.034 C 
BRANCH   5   6
ATOM      6  C   UNL     1     -11.743 -34.817  27.862  1.00  0.00    -0.077 C 
ATOM      7  C   UNL     1     -11.021 -35.041  26.558  1.00  0.00     0.039 C 
ATOM      8  C   UNL     1     -12.800 -35.611  28.147  1.00  0.00    -0.023 CG0
ATOM      9  G   UNL     1     -13.666 -35.518  29.380  1.00  0.00     0.000 G0
ENDBRANCH   5   6
ENDBRANCH   4   5
ENDBRANCH   2   4
BRANCH   1  10
ATOM     10  C   UNL     1     -10.991 -35.483  32.015  1.00  0.00     0.111 C 
BRANCH  10  11
ATOM     11  C   UNL     1     -12.452 -35.416  31.643  1.00  0.00     0.163 C 
ATOM     12  O   UNL     1     -13.203 -34.664  32.322  1.00  0.00    -0.294 OA
BRANCH  11  13
ATOM     13  C   UNL     1     -13.028 -36.249  30.542  1.00  0.00    -0.002 C 
ATOM     14  C   UNL     1     -13.038 -37.615  30.603  1.00  0.00    -0.069 C 
ATOM     15  C   UNL     1     -12.533 -38.357  31.821  1.00  0.00     0.039 C 
ATOM     16  C   UNL     1     -13.587 -38.451  29.469  1.00  0.00     0.039 C 
BRANCH  13  17
ATOM     17  C   UNL     1     -13.671 -35.510  29.383  1.00  0.00     0.066 CG0
ATOM     18  G   UNL     1     -12.797 -35.619  28.157  1.00  0.00     0.000 G0
ENDBRANCH  13  17
ENDBRANCH  11  13
ENDBRANCH  10  11
ENDBRANCH   1  10
TORSDOF 0
ENDMDL
MODEL 2
REMARK VINA RESULT:    -4.494      1.788      3.869
REMARK INTER + INTRA:          -5.700
REMARK INTER:                  -6.462
REMARK INTRA:                   0.761
REMARK UNBOUND:                 0.632
REMARK SMILES CC1=CCC(=C(C)C)C(=O)CC(C)=CCC1
REMARK SMILES IDX 12 1 14 2 13 3 15 4 16 5 2 6 1 7 3 8 11 10 9 11 10 12 5 13
REMARK SMILES IDX 6 14 7 15 8 16 4 17
REMARK H PARENT
REMARK Flexibility Score: 60.00
ROOT
ATOM      1  C   UNL     1     -13.115 -34.441  31.601  1.00  0.00    -0.070 C 
ATOM      2  C   UNL     1     -13.619 -35.674  31.847  1.00  0.00    -0.027 C 
ATOM      3  C   UNL     1     -14.066 -33.272  31.678  1.00  0.00     0.039 C 
ENDROOT
BRANCH   2   4
ATOM      4  C   UNL     1     -12.836 -36.961  31.928  1.00  0.00     0.032 C 
BRANCH   4   5
ATOM      5  C   UNL     1     -12.017 -37.238  30.652  1.00  0.00     0.034 C 
BRANCH   5   6
ATOM      6  C   UNL     1     -12.892 -37.319  29.417  1.00  0.00    -0.077 C 
ATOM      7  C   UNL     1     -13.983 -38.359  29.380  1.00  0.00     0.039 C 
ATOM      8  C   UNL     1     -12.735 -36.526  28.333  1.00  0.00    -0.023 CG0
ATOM      9  G   UNL     1     -11.682 -35.457  28.167  1.00  0.00     0.000 G0
ENDBRANCH   5   6
ENDBRANCH   4   5
ENDBRANCH   2   4
BRANCH   1  10
ATOM     10  C   UNL     1     -11.646 -34.171  31.321  1.00  0.00     0.111 C 
BRANCH  10  11
ATOM     11  C   UNL     1     -11.439 -33.608  29.937  1.00  0.00     0.163 C 
ATOM     12  O   UNL     1     -10.651 -32.633  29.805  1.00  0.00    -0.294 OA
BRANCH  11  13
ATOM     13  C   UNL     1     -12.176 -34.139  28.747  1.00  0.00    -0.002 C 
ATOM     14  C   UNL     1     -13.204 -33.446  28.171  1.00  0.00    -0.069 C 
ATOM     15  C   UNL     1     -13.605 -32.072  28.659  1.00  0.00     0.039 C 
ATOM     16  C   UNL     1     -13.970 -34.006  26.993  1.00  0.00     0.039 C 
BRANCH  13  17
ATOM     17  C   UNL     1     -11.684 -35.449  28.159  1.00  0.00     0.066 CG0
ATOM     18  G   UNL     1     -12.734 -36.518  28.340  1.00  0.00     0.000 G0
ENDBRANCH  13  17
ENDBRANCH  11  13
ENDBRANCH  10  11
ENDBRANCH   1  10
TORSDOF 0
ENDMDL
MODEL 3
REMARK VINA RESULT:    -4.374      1.805      2.341
REMARK INTER + INTRA:          -5.532
REMARK INTER:                  -6.325
REMARK INTRA:                   0.793
REMARK UNBOUND:                 0.632
REMARK SMILES CC1=CCC(=C(C)C)C(=O)CC(C)=CCC1
REMARK SMILES IDX 12 1 14 2 13 3 15 4 16 5 2 6 1 7 3 8 11 10 9 11 10 12 5 13
REMARK SMILES IDX 6 14 7 15 8 16 4 17
REMARK H PARENT
REMARK Flexibility Score: 60.00
ROOT
ATOM      1  C   UNL     1     -13.056 -33.645  30.978  1.00  0.00    -0.070 C 
ATOM      2  C   UNL     1     -13.783 -33.120  29.963  1.00  0.00    -0.027 C 
ATOM      3  C   UNL     1     -13.807 -34.120  32.198  1.00  0.00     0.039 C 
ENDROOT
BRANCH   2   4
ATOM      4  C   UNL     1     -13.255 -32.684  28.618  1.00  0.00     0.032 C 
BRANCH   4   5
ATOM      5  C   UNL     1     -13.687 -33.627  27.478  1.00  0.00     0.034 C 
BRANCH   5   6
ATOM      6  C   UNL     1     -12.577 -34.575  27.068  1.00  0.00    -0.077 C 
ATOM      7  C   UNL     1     -11.742 -34.220  25.864  1.00  0.00     0.039 C 
ATOM      8  C   UNL     1     -12.308 -35.736  27.707  1.00  0.00    -0.023 CG0
ATOM      9  G   UNL     1     -13.052 -36.277  28.903  1.00  0.00     0.000 G0
ENDBRANCH   5   6
ENDBRANCH   4   5
ENDBRANCH   2   4
BRANCH   1  10
ATOM     10  C   UNL     1     -11.550 -33.839  30.925  1.00  0.00     0.111 C 
BRANCH  10  11
ATOM     11  C   UNL     1     -11.181 -35.138  30.251  1.00  0.00     0.163 C 
ATOM     12  O   UNL     1     -10.031 -35.238  29.743  1.00  0.00    -0.294 OA
BRANCH  11  13
ATOM     13  C   UNL     1     -12.153 -36.269  30.126  1.00  0.00    -0.002 C 
ATOM     14  C   UNL     1     -12.284 -37.215  31.104  1.00  0.00    -0.069 C 
ATOM     15  C   UNL     1     -11.506 -37.129  32.399  1.00  0.00     0.039 C 
ATOM     16  C   UNL     1     -13.241 -38.377  30.955  1.00  0.00     0.039 C 
BRANCH  13  17
ATOM     17  C   UNL     1     -13.044 -36.282  28.897  1.00  0.00     0.066 CG0
ATOM     18  G   UNL     1     -12.284 -35.744  27.709  1.00  0.00     0.000 G0
ENDBRANCH  13  17
ENDBRANCH  11  13
ENDBRANCH  10  11
ENDBRANCH   1  10
TORSDOF 0
ENDMDL
MODEL 4
REMARK VINA RESULT:    -4.337      1.680      2.178
REMARK INTER + INTRA:          -5.480
REMARK INTER:                  -6.439
REMARK INTRA:                   0.959
REMARK UNBOUND:                 0.632
REMARK SMILES CC1=CCC(=C(C)C)C(=O)CC(C)=CCC1
REMARK SMILES IDX 12 1 14 2 13 3 15 4 16 5 2 6 1 7 3 8 11 10 9 11 10 12 5 13
REMARK SMILES IDX 6 14 7 15 8 16 4 17
REMARK H PARENT
REMARK Flexibility Score: 60.00
ROOT
ATOM      1  C   UNL     1     -12.570 -34.719  31.897  1.00  0.00    -0.070 C 
ATOM      2  C   UNL     1     -12.242 -33.575  31.251  1.00  0.00    -0.027 C 
ATOM      3  C   UNL     1     -13.954 -34.810  32.491  1.00  0.00     0.039 C 
ENDROOT
BRANCH   2   4
ATOM      4  C   UNL     1     -10.962 -33.309  30.498  1.00  0.00     0.032 C 
BRANCH   4   5
ATOM      5  C   UNL     1     -11.173 -33.248  28.972  1.00  0.00     0.034 C 
BRANCH   5   6
ATOM      6  C   UNL     1     -12.598 -33.585  28.578  1.00  0.00    -0.077 C 
ATOM      7  C   UNL     1     -13.617 -32.474  28.560  1.00  0.00     0.039 C 
ATOM      8  C   UNL     1     -13.015 -34.833  28.266  1.00  0.00    -0.023 CG0
ATOM      9  G   UNL     1     -12.156 -36.075  28.262  1.00  0.00     0.000 G0
ENDBRANCH   5   6
ENDBRANCH   4   5
ENDBRANCH   2   4
BRANCH   1  10
ATOM     10  C   UNL     1     -11.651 -35.925  31.996  1.00  0.00     0.111 C 
BRANCH  10  11
ATOM     11  C   UNL     1     -11.234 -36.418  30.632  1.00  0.00     0.163 C 
ATOM     12  O   UNL     1     -10.002 -36.454  30.365  1.00  0.00    -0.294 OA
BRANCH  11  13
ATOM     13  C   UNL     1     -12.236 -36.806  29.590  1.00  0.00    -0.002 C 
ATOM     14  C   UNL     1     -13.225 -37.714  29.847  1.00  0.00    -0.069 C 
ATOM     15  C   UNL     1     -13.405 -38.321  31.221  1.00  0.00     0.039 C 
ATOM     16  C   UNL     1     -14.211 -38.131  28.778  1.00  0.00     0.039 C 
BRANCH  13  17
ATOM     17  C   UNL     1     -12.153 -36.092  28.254  1.00  0.00     0.066 CG0
ATOM     18  G   UNL     1     -13.011 -34.850  28.283  1.00  0.00     0.000 G0
ENDBRANCH  13  17
ENDBRANCH  11  13
ENDBRANCH  10  11
ENDBRANCH   1  10
TORSDOF 0
ENDMDL
MODEL 5
REMARK VINA RESULT:    -4.280      2.367      4.691
REMARK INTER + INTRA:          -5.399
REMARK INTER:                  -6.047
REMARK INTRA:                   0.648
REMARK UNBOUND:                 0.632
REMARK SMILES CC1=CCC(=C(C)C)C(=O)CC(C)=CCC1
REMARK SMILES IDX 12 1 14 2 13 3 15 4 16 5 2 6 1 7 3 8 11 10 9 11 10 12 5 13
REMARK SMILES IDX 6 14 7 15 8 16 4 17
REMARK H PARENT
REMARK Flexibility Score: 60.00
ROOT
ATOM      1  C   UNL     1     -11.351 -33.937  28.392  1.00  0.00    -0.070 C 
ATOM      2  C   UNL     1     -10.170 -33.993  29.052  1.00  0.00    -0.027 C 
ATOM      3  C   UNL     1     -11.432 -34.618  27.048  1.00  0.00     0.039 C 
ENDROOT
BRANCH   2   4
ATOM      4  C   UNL     1      -9.896 -33.477  30.443  1.00  0.00     0.032 C 
BRANCH   4   5
ATOM      5  C   UNL     1     -10.288 -34.488  31.538  1.00  0.00     0.034 C 
BRANCH   5   6
ATOM      6  C   UNL     1     -10.839 -33.806  32.775  1.00  0.00    -0.077 C 
ATOM      7  C   UNL     1      -9.882 -33.048  33.660  1.00  0.00     0.039 C 
ATOM      8  C   UNL     1     -12.138 -33.859  33.146  1.00  0.00    -0.023 CG0
ATOM      9  G   UNL     1     -13.235 -34.594  32.414  1.00  0.00     0.000 G0
ENDBRANCH   5   6
ENDBRANCH   4   5
ENDBRANCH   2   4
BRANCH   1  10
ATOM     10  C   UNL     1     -12.603 -33.287  28.958  1.00  0.00     0.111 C 
BRANCH  10  11
ATOM     11  C   UNL     1     -13.332 -34.215  29.899  1.00  0.00     0.163 C 
ATOM     12  O   UNL     1     -13.620 -35.371  29.488  1.00  0.00    -0.294 OA
BRANCH  11  13
ATOM     13  C   UNL     1     -13.760 -33.780  31.266  1.00  0.00    -0.002 C 
ATOM     14  C   UNL     1     -14.618 -32.732  31.451  1.00  0.00    -0.069 C 
ATOM     15  C   UNL     1     -15.240 -32.001  30.281  1.00  0.00     0.039 C 
ATOM     16  C   UNL     1     -15.017 -32.274  32.836  1.00  0.00     0.039 C 
BRANCH  13  17
ATOM     17  C   UNL     1     -13.259 -34.602  32.439  1.00  0.00     0.066 CG0
ATOM     18  G   UNL     1     -12.151 -33.860  33.148  1.00  0.00     0.000 G0
ENDBRANCH  13  17
ENDBRANCH  11  13
ENDBRANCH  10  11
ENDBRANCH   1  10
TORSDOF 0
ENDMDL
MODEL 6
REMARK VINA RESULT:    -4.213      1.979      2.707
REMARK INTER + INTRA:          -5.304
REMARK INTER:                  -6.148
REMARK INTRA:                   0.844
REMARK UNBOUND:                 0.632
REMARK SMILES CC1=CCC(=C(C)C)C(=O)CC(C)=CCC1
REMARK SMILES IDX 12 1 14 2 13 3 15 4 16 5 2 6 1 7 3 8 11 10 9 11 10 12 5 13
REMARK SMILES IDX 6 14 7 15 8 16 4 17
REMARK H PARENT
REMARK Flexibility Score: 60.00
ROOT
ATOM      1  C   UNL     1     -11.013 -34.399  32.064  1.00  0.00    -0.070 C 
ATOM      2  C   UNL     1     -10.144 -34.010  31.100  1.00  0.00    -0.027 C 
ATOM      3  C   UNL     1     -11.086 -33.560  33.316  1.00  0.00     0.039 C 
ENDROOT
BRANCH   2   4
ATOM      4  C   UNL     1      -9.984 -34.634  29.736  1.00  0.00     0.032 C 
BRANCH   4   5
ATOM      5  C   UNL     1     -10.470 -33.711  28.601  1.00  0.00     0.034 C 
BRANCH   5   6
ATOM      6  C   UNL     1     -11.780 -34.184  28.001  1.00  0.00    -0.077 C 
ATOM      7  C   UNL     1     -11.732 -35.024  26.749  1.00  0.00     0.039 C 
ATOM      8  C   UNL     1     -12.994 -33.876  28.511  1.00  0.00    -0.023 CG0
ATOM      9  G   UNL     1     -13.247 -33.023  29.731  1.00  0.00     0.000 G0
ENDBRANCH   5   6
ENDBRANCH   4   5
ENDBRANCH   2   4
BRANCH   1  10
ATOM     10  C   UNL     1     -11.954 -35.584  31.922  1.00  0.00     0.111 C 
BRANCH  10  11
ATOM     11  C   UNL     1     -13.104 -35.272  30.996  1.00  0.00     0.163 C 
ATOM     12  O   UNL     1     -13.535 -36.196  30.254  1.00  0.00    -0.294 OA
BRANCH  11  13
ATOM     13  C   UNL     1     -13.697 -33.901  30.904  1.00  0.00    -0.002 C 
ATOM     14  C   UNL     1     -14.550 -33.421  31.858  1.00  0.00    -0.069 C 
ATOM     15  C   UNL     1     -14.884 -34.222  33.097  1.00  0.00     0.039 C 
ATOM     16  C   UNL     1     -15.175 -32.049  31.738  1.00  0.00     0.039 C 
BRANCH  13  17
ATOM     17  C   UNL     1     -13.251 -33.035  29.741  1.00  0.00     0.066 CG0
ATOM     18  G   UNL     1     -13.009 -33.895  28.523  1.00  0.00     0.000 G0
ENDBRANCH  13  17
ENDBRANCH  11  13
ENDBRANCH  10  11
ENDBRANCH   1  10
TORSDOF 0
ENDMDL
MODEL 7
REMARK VINA RESULT:    -4.205      1.992      4.121
REMARK INTER + INTRA:          -5.294
REMARK INTER:                  -6.336
REMARK INTRA:                   1.042
REMARK UNBOUND:                 0.632
REMARK SMILES CC1=CCC(=C(C)C)C(=O)CC(C)=CCC1
REMARK SMILES IDX 12 1 14 2 13 3 15 4 16 5 2 6 1 7 3 8 11 10 9 11 10 12 5 13
REMARK SMILES IDX 6 14 7 15 8 16 4 17
REMARK H PARENT
REMARK Flexibility Score: 60.00
ROOT
ATOM      1  C   UNL     1     -13.351 -34.460  31.685  1.00  0.00    -0.070 C 
ATOM      2  C   UNL     1     -12.326 -34.959  32.416  1.00  0.00    -0.027 C 
ATOM      3  C   UNL     1     -14.201 -33.387  32.319  1.00  0.00     0.039 C 
ENDROOT
BRANCH   2   4
ATOM      4  C   UNL     1     -11.293 -35.954  31.945  1.00  0.00     0.032 C 
BRANCH   4   5
ATOM      5  C   UNL     1      -9.921 -35.303  31.680  1.00  0.00     0.034 C 
BRANCH   5   6
ATOM      6  C   UNL     1     -10.050 -33.866  31.214  1.00  0.00    -0.077 C 
ATOM      7  C   UNL     1      -9.876 -32.766  32.230  1.00  0.00     0.039 C 
ATOM      8  C   UNL     1     -10.336 -33.514  29.940  1.00  0.00    -0.023 CG0
ATOM      9  G   UNL     1     -10.578 -34.467  28.794  1.00  0.00     0.000 G0
ENDBRANCH   5   6
ENDBRANCH   4   5
ENDBRANCH   2   4
BRANCH   1  10
ATOM     10  C   UNL     1     -13.645 -34.874  30.252  1.00  0.00     0.111 C 
BRANCH  10  11
ATOM     11  C   UNL     1     -13.044 -33.907  29.261  1.00  0.00     0.163 C 
ATOM     12  O   UNL     1     -13.472 -32.721  29.256  1.00  0.00    -0.294 OA
BRANCH  11  13
ATOM     13  C   UNL     1     -12.009 -34.332  28.268  1.00  0.00    -0.002 C 
ATOM     14  C   UNL     1     -12.314 -34.526  26.950  1.00  0.00    -0.069 C 
ATOM     15  C   UNL     1     -13.700 -34.251  26.409  1.00  0.00     0.039 C 
ATOM     16  C   UNL     1     -11.271 -34.992  25.958  1.00  0.00     0.039 C 
BRANCH  13  17
ATOM     17  C   UNL     1     -10.584 -34.467  28.772  1.00  0.00     0.066 CG0
ATOM     18  G   UNL     1     -10.361 -33.529  29.934  1.00  0.00     0.000 G0
ENDBRANCH  13  17
ENDBRANCH  11  13
ENDBRANCH  10  11
ENDBRANCH   1  10
TORSDOF 0
ENDMDL
MODEL 8
REMARK VINA RESULT:    -4.102      2.253      4.133
REMARK INTER + INTRA:          -5.148
REMARK INTER:                  -6.572
REMARK INTRA:                   1.424
REMARK UNBOUND:                 0.632
REMARK SMILES CC1=CCC(=C(C)C)C(=O)CC(C)=CCC1
REMARK SMILES IDX 12 1 14 2 13 3 15 4 16 5 2 6 1 7 3 8 11 10 9 11 10 12 5 13
REMARK SMILES IDX 6 14 7 15 8 16 4 17
REMARK H PARENT
REMARK Flexibility Score: 60.00
ROOT
ATOM      1  C   UNL     1     -13.166 -33.275  29.362  1.00  0.00    -0.070 C 
ATOM      2  C   UNL     1     -13.974 -33.261  30.449  1.00  0.00    -0.027 C 
ATOM      3  C   UNL     1     -13.797 -32.982  28.023  1.00  0.00     0.039 C 
ENDROOT
BRANCH   2   4
ATOM      4  C   UNL     1     -13.542 -33.420  31.886  1.00  0.00     0.032 C 
BRANCH   4   5
ATOM      5  C   UNL     1     -12.838 -34.766  32.148  1.00  0.00     0.034 C 
BRANCH   5   6
ATOM      6  C   UNL     1     -11.355 -34.594  32.409  1.00  0.00    -0.077 C 
ATOM      7  C   UNL     1     -10.914 -33.481  33.326  1.00  0.00     0.039 C 
ATOM      8  C   UNL     1     -10.400 -35.369  31.847  1.00  0.00    -0.023 CG0
ATOM      9  G   UNL     1     -10.639 -36.504  30.881  1.00  0.00     0.000 G0
ENDBRANCH   5   6
ENDBRANCH   4   5
ENDBRANCH   2   4
BRANCH   1  10
ATOM     10  C   UNL     1     -11.665 -33.501  29.429  1.00  0.00     0.111 C 
BRANCH  10  11
ATOM     11  C   UNL     1     -11.293 -34.896  28.989  1.00  0.00     0.163 C 
ATOM     12  O   UNL     1     -10.720 -35.033  27.875  1.00  0.00    -0.294 OA
BRANCH  11  13
ATOM     13  C   UNL     1     -11.634 -36.101  29.807  1.00  0.00    -0.002 C 
ATOM     14  C   UNL     1     -12.758 -36.840  29.566  1.00  0.00    -0.069 C 
ATOM     15  C   UNL     1     -13.683 -36.522  28.411  1.00  0.00     0.039 C 
ATOM     16  C   UNL     1     -13.116 -38.035  30.421  1.00  0.00     0.039 C 
BRANCH  13  17
ATOM     17  C   UNL     1     -10.635 -36.516  30.873  1.00  0.00     0.066 CG0
ATOM     18  G   UNL     1     -10.416 -35.378  31.840  1.00  0.00     0.000 G0
ENDBRANCH  13  17
ENDBRANCH  11  13
ENDBRANCH  10  11
ENDBRANCH   1  10
TORSDOF 0
ENDMDL
MODEL 9
REMARK VINA RESULT:    -3.959      2.310      4.851
REMARK INTER + INTRA:          -4.948
REMARK INTER:                  -5.934
REMARK INTRA:                   0.986
REMARK UNBOUND:                 0.632
REMARK SMILES CC1=CCC(=C(C)C)C(=O)CC(C)=CCC1
REMARK SMILES IDX 12 1 14 2 13 3 15 4 16 5 2 6 1 7 3 8 11 10 9 11 10 12 5 13
REMARK SMILES IDX 6 14 7 15 8 16 4 17
REMARK H PARENT
REMARK Flexibility Score: 60.00
ROOT
ATOM      1  C   UNL     1     -12.991 -36.898  29.528  1.00  0.00    -0.070 C 
ATOM      2  C   UNL     1     -13.256 -37.139  30.834  1.00  0.00    -0.027 C 
ATOM      3  C   UNL     1     -14.105 -37.130  28.537  1.00  0.00     0.039 C 
ENDROOT
BRANCH   2   4
ATOM      4  C   UNL     1     -12.332 -36.877  31.998  1.00  0.00     0.032 C 
BRANCH   4   5
ATOM      5  C   UNL     1     -12.084 -35.374  32.231  1.00  0.00     0.034 C 
BRANCH   5   6
ATOM      6  C   UNL     1     -13.300 -34.534  31.893  1.00  0.00    -0.077 C 
ATOM      7  C   UNL     1     -14.542 -34.703  32.731  1.00  0.00     0.039 C 
ATOM      8  C   UNL     1     -13.344 -33.658  30.864  1.00  0.00    -0.023 CG0
ATOM      9  G   UNL     1     -12.220 -33.378  29.895  1.00  0.00     0.000 G0
ENDBRANCH   5   6
ENDBRANCH   4   5
ENDBRANCH   2   4
BRANCH   1  10
ATOM     10  C   UNL     1     -11.667 -36.349  29.024  1.00  0.00     0.111 C 
BRANCH  10  11
ATOM     11  C   UNL     1     -11.870 -35.182  28.089  1.00  0.00     0.163 C 
ATOM     12  O   UNL     1     -11.381 -35.259  26.929  1.00  0.00    -0.294 OA
BRANCH  11  13
ATOM     13  C   UNL     1     -12.580 -33.937  28.519  1.00  0.00    -0.002 C 
ATOM     14  C   UNL     1     -13.555 -33.364  27.750  1.00  0.00    -0.069 C 
ATOM     15  C   UNL     1     -14.021 -33.998  26.458  1.00  0.00     0.039 C 
ATOM     16  C   UNL     1     -14.242 -32.084  28.173  1.00  0.00     0.039 C 
BRANCH  13  17
ATOM     17  C   UNL     1     -12.224 -33.376  29.883  1.00  0.00     0.066 CG0
ATOM     18  G   UNL     1     -13.344 -33.652  30.858  1.00  0.00     0.000 G0
ENDBRANCH  13  17
ENDBRANCH  11  13
ENDBRANCH  10  11
ENDBRANCH   1  10
TORSDOF 0
ENDMDL
