MODEL 1
REMARK VINA RESULT:    -5.014      0.000      0.000
REMARK INTER + INTRA:          -5.489
REMARK INTER:                  -5.453
REMARK INTRA:                  -0.036
REMARK UNBOUND:                -0.036
REMARK SMILES O=C([O-])c1ccc(O)cc1
REMARK SMILES IDX 4 1 5 2 10 3 6 4 9 5 7 6 2 7 1 8 3 9 8 10
REMARK H PARENT 8 11
REMARK Flexibility Score: inf
ROOT
ATOM      1  C   UNL     1     -18.880  -8.362  11.130  1.00  0.00    -0.003 A 
ATOM      2  C   UNL     1     -19.171  -9.082   9.957  1.00  0.00     0.014 A 
ATOM      3  C   UNL     1     -19.435  -8.791  12.349  1.00  0.00     0.014 A 
ATOM      4  C   UNL     1     -20.000 -10.206  10.005  1.00  0.00     0.047 A 
ATOM      5  C   UNL     1     -20.264  -9.916  12.393  1.00  0.00     0.047 A 
ATOM      6  C   UNL     1     -20.550 -10.626  11.223  1.00  0.00     0.115 A 
ENDROOT
BRANCH   1   7
ATOM      7  C   UNL     1     -18.002  -7.171  11.087  1.00  0.00     0.071 C 
ATOM      8  O   UNL     1     -17.465  -6.811  10.007  1.00  0.00    -0.545 OA
ATOM      9  O   UNL     1     -17.760  -6.433  12.240  1.00  0.00    -0.545 OA
ENDBRANCH   1   7
BRANCH   6  10
ATOM     10  O   UNL     1     -21.378 -11.745  11.282  1.00  0.00    -0.508 OA
ATOM     11  H   UNL     1     -21.000 -12.685  11.254  1.00  0.00     0.293 HD
ENDBRANCH   6  10
TORSDOF 2
ENDMDL
MODEL 2
REMARK VINA RESULT:    -4.985      1.979      2.781
REMARK INTER + INTRA:          -5.459
REMARK INTER:                  -5.423
REMARK INTRA:                  -0.035
REMARK UNBOUND:                -0.036
REMARK SMILES O=C([O-])c1ccc(O)cc1
REMARK SMILES IDX 4 1 5 2 10 3 6 4 9 5 7 6 2 7 1 8 3 9 8 10
REMARK H PARENT 8 11
REMARK Flexibility Score: inf
ROOT
ATOM      1  C   UNL     1     -19.766  -8.512  11.376  1.00  0.00    -0.003 A 
ATOM      2  C   UNL     1     -20.173  -9.837  11.611  1.00  0.00     0.014 A 
ATOM      3  C   UNL     1     -18.936  -8.238  10.274  1.00  0.00     0.014 A 
ATOM      4  C   UNL     1     -19.759 -10.866  10.759  1.00  0.00     0.047 A 
ATOM      5  C   UNL     1     -18.524  -9.269   9.424  1.00  0.00     0.047 A 
ATOM      6  C   UNL     1     -18.933 -10.585   9.664  1.00  0.00     0.115 A 
ENDROOT
BRANCH   1   7
ATOM      7  C   UNL     1     -20.201  -7.417  12.272  1.00  0.00     0.071 C 
ATOM      8  O   UNL     1     -20.700  -7.674  13.400  1.00  0.00    -0.545 OA
ATOM      9  O   UNL     1     -20.064  -6.090  11.882  1.00  0.00    -0.545 OA
ENDBRANCH   1   7
BRANCH   6  10
ATOM     10  O   UNL     1     -18.514 -11.602   8.809  1.00  0.00    -0.508 OA
ATOM     11  H   UNL     1     -19.131 -11.990   8.107  1.00  0.00     0.293 HD
ENDBRANCH   6  10
TORSDOF 2
ENDMDL
MODEL 3
REMARK VINA RESULT:    -4.832      1.155      4.391
REMARK INTER + INTRA:          -5.291
REMARK INTER:                  -5.256
REMARK INTRA:                  -0.035
REMARK UNBOUND:                -0.036
REMARK SMILES O=C([O-])c1ccc(O)cc1
REMARK SMILES IDX 4 1 5 2 10 3 6 4 9 5 7 6 2 7 1 8 3 9 8 10
REMARK H PARENT 8 11
REMARK Flexibility Score: inf
ROOT
ATOM      1  C   UNL     1     -19.399  -9.589  10.991  1.00  0.00    -0.003 A 
ATOM      2  C   UNL     1     -19.774  -9.082  12.249  1.00  0.00     0.014 A 
ATOM      3  C   UNL     1     -18.505  -8.849  10.196  1.00  0.00     0.014 A 
ATOM      4  C   UNL     1     -19.264  -7.861  12.700  1.00  0.00     0.047 A 
ATOM      5  C   UNL     1     -17.998  -7.628  10.651  1.00  0.00     0.047 A 
ATOM      6  C   UNL     1     -18.375  -7.130  11.902  1.00  0.00     0.115 A 
ENDROOT
BRANCH   1   7
ATOM      7  C   UNL     1     -19.933 -10.881  10.507  1.00  0.00     0.071 C 
ATOM      8  O   UNL     1     -20.986 -11.364  11.003  1.00  0.00    -0.545 OA
ATOM      9  O   UNL     1     -19.282 -11.580   9.498  1.00  0.00    -0.545 OA
ENDBRANCH   1   7
BRANCH   6  10
ATOM     10  O   UNL     1     -17.861  -5.912  12.342  1.00  0.00    -0.508 OA
ATOM     11  H   UNL     1     -18.465  -5.124  12.541  1.00  0.00     0.293 HD
ENDBRANCH   6  10
TORSDOF 2
ENDMDL
MODEL 4
REMARK VINA RESULT:    -4.818      1.149      4.154
REMARK INTER + INTRA:          -5.276
REMARK INTER:                  -5.241
REMARK INTRA:                  -0.035
REMARK UNBOUND:                -0.036
REMARK SMILES O=C([O-])c1ccc(O)cc1
REMARK SMILES IDX 4 1 5 2 10 3 6 4 9 5 7 6 2 7 1 8 3 9 8 10
REMARK H PARENT 8 11
REMARK Flexibility Score: inf
ROOT
ATOM      1  C   UNL     1     -19.378  -9.596  10.989  1.00  0.00    -0.003 A 
ATOM      2  C   UNL     1     -18.485  -8.864  10.185  1.00  0.00     0.014 A 
ATOM      3  C   UNL     1     -19.742  -9.081  12.246  1.00  0.00     0.014 A 
ATOM      4  C   UNL     1     -17.969  -7.643  10.631  1.00  0.00     0.047 A 
ATOM      5  C   UNL     1     -19.224  -7.860  12.689  1.00  0.00     0.047 A 
ATOM      6  C   UNL     1     -18.336  -7.138  11.885  1.00  0.00     0.115 A 
ENDROOT
BRANCH   1   7
ATOM      7  C   UNL     1     -19.929 -10.887  10.524  1.00  0.00     0.071 C 
ATOM      8  O   UNL     1     -20.985 -11.352  11.029  1.00  0.00    -0.545 OA
ATOM      9  O   UNL     1     -19.289 -11.605   9.520  1.00  0.00    -0.545 OA
ENDBRANCH   1   7
BRANCH   6  10
ATOM     10  O   UNL     1     -17.828  -5.923  12.339  1.00  0.00    -0.508 OA
ATOM     11  H   UNL     1     -18.022  -5.055  11.855  1.00  0.00     0.293 HD
ENDBRANCH   6  10
TORSDOF 2
ENDMDL
MODEL 5
REMARK VINA RESULT:    -3.950      2.105      3.818
REMARK INTER + INTRA:          -4.333
REMARK INTER:                  -4.300
REMARK INTRA:                  -0.033
REMARK UNBOUND:                -0.036
REMARK SMILES O=C([O-])c1ccc(O)cc1
REMARK SMILES IDX 4 1 5 2 10 3 6 4 9 5 7 6 2 7 1 8 3 9 8 10
REMARK H PARENT 8 11
REMARK Flexibility Score: inf
ROOT
ATOM      1  C   UNL     1     -19.133  -9.058  11.613  1.00  0.00    -0.003 A 
ATOM      2  C   UNL     1     -18.512  -8.094  10.798  1.00  0.00     0.014 A 
ATOM      3  C   UNL     1     -20.121  -8.647  12.526  1.00  0.00     0.014 A 
ATOM      4  C   UNL     1     -18.874  -6.747  10.897  1.00  0.00     0.047 A 
ATOM      5  C   UNL     1     -20.479  -7.299  12.622  1.00  0.00     0.047 A 
ATOM      6  C   UNL     1     -19.858  -6.345  11.809  1.00  0.00     0.115 A 
ENDROOT
BRANCH   1   7
ATOM      7  C   UNL     1     -18.757 -10.486  11.514  1.00  0.00     0.071 C 
ATOM      8  O   UNL     1     -18.408 -10.981  10.409  1.00  0.00    -0.545 OA
ATOM      9  O   UNL     1     -18.782 -11.301  12.640  1.00  0.00    -0.545 OA
ENDBRANCH   1   7
BRANCH   6  10
ATOM     10  O   UNL     1     -20.225  -5.006  11.916  1.00  0.00    -0.508 OA
ATOM     11  H   UNL     1     -20.655  -4.641  12.757  1.00  0.00     0.293 HD
ENDBRANCH   6  10
TORSDOF 2
ENDMDL
MODEL 6
REMARK VINA RESULT:    -3.654     16.027     17.068
REMARK INTER + INTRA:          -4.010
REMARK INTER:                  -3.974
REMARK INTRA:                  -0.036
REMARK UNBOUND:                -0.036
REMARK SMILES O=C([O-])c1ccc(O)cc1
REMARK SMILES IDX 4 1 5 2 10 3 6 4 9 5 7 6 2 7 1 8 3 9 8 10
REMARK H PARENT 8 11
REMARK Flexibility Score: inf
ROOT
ATOM      1  C   UNL     1     -18.268   5.176  20.918  1.00  0.00    -0.003 A 
ATOM      2  C   UNL     1     -19.363   5.690  21.635  1.00  0.00     0.014 A 
ATOM      3  C   UNL     1     -18.097   3.782  20.839  1.00  0.00     0.014 A 
ATOM      4  C   UNL     1     -20.267   4.826  22.261  1.00  0.00     0.047 A 
ATOM      5  C   UNL     1     -19.003   2.922  21.467  1.00  0.00     0.047 A 
ATOM      6  C   UNL     1     -20.089   3.440  22.179  1.00  0.00     0.115 A 
ENDROOT
BRANCH   1   7
ATOM      7  C   UNL     1     -17.307   6.084  20.252  1.00  0.00     0.071 C 
ATOM      8  O   UNL     1     -16.432   5.628  19.469  1.00  0.00    -0.545 OA
ATOM      9  O   UNL     1     -17.360   7.454  20.479  1.00  0.00    -0.545 OA
ENDBRANCH   1   7
BRANCH   6  10
ATOM     10  O   UNL     1     -20.983   2.570  22.799  1.00  0.00    -0.508 OA
ATOM     11  H   UNL     1     -21.639   2.014  22.262  1.00  0.00     0.293 HD
ENDBRANCH   6  10
TORSDOF 2
ENDMDL
MODEL 7
REMARK VINA RESULT:    -3.262      2.549      3.404
REMARK INTER + INTRA:          -3.584
REMARK INTER:                  -3.553
REMARK INTRA:                  -0.031
REMARK UNBOUND:                -0.036
REMARK SMILES O=C([O-])c1ccc(O)cc1
REMARK SMILES IDX 4 1 5 2 10 3 6 4 9 5 7 6 2 7 1 8 3 9 8 10
REMARK H PARENT 8 11
REMARK Flexibility Score: inf
ROOT
ATOM      1  C   UNL     1     -19.424  -9.898  11.440  1.00  0.00    -0.003 A 
ATOM      2  C   UNL     1     -20.553  -9.147  11.065  1.00  0.00     0.014 A 
ATOM      3  C   UNL     1     -18.646 -10.506  10.439  1.00  0.00     0.014 A 
ATOM      4  C   UNL     1     -20.894  -9.008   9.716  1.00  0.00     0.047 A 
ATOM      5  C   UNL     1     -18.990 -10.365   9.091  1.00  0.00     0.047 A 
ATOM      6  C   UNL     1     -20.114  -9.617   8.725  1.00  0.00     0.115 A 
ENDROOT
BRANCH   1   7
ATOM      7  C   UNL     1     -19.056 -10.048  12.865  1.00  0.00     0.071 C 
ATOM      8  O   UNL     1     -19.055  -9.051  13.635  1.00  0.00    -0.545 OA
ATOM      9  O   UNL     1     -18.709 -11.294  13.376  1.00  0.00    -0.545 OA
ENDBRANCH   1   7
BRANCH   6  10
ATOM     10  O   UNL     1     -20.444  -9.485   7.378  1.00  0.00    -0.508 OA
ATOM     11  H   UNL     1     -19.987 -10.041   6.665  1.00  0.00     0.293 HD
ENDBRANCH   6  10
TORSDOF 2
ENDMDL
MODEL 8
REMARK VINA RESULT:    -2.975     15.574     17.530
REMARK INTER + INTRA:          -3.272
REMARK INTER:                  -3.236
REMARK INTRA:                  -0.036
REMARK UNBOUND:                -0.036
REMARK SMILES O=C([O-])c1ccc(O)cc1
REMARK SMILES IDX 4 1 5 2 10 3 6 4 9 5 7 6 2 7 1 8 3 9 8 10
REMARK H PARENT 8 11
REMARK Flexibility Score: inf
ROOT
ATOM      1  C   UNL     1     -18.824   4.298  21.150  1.00  0.00    -0.003 A 
ATOM      2  C   UNL     1     -19.494   5.451  21.599  1.00  0.00     0.014 A 
ATOM      3  C   UNL     1     -17.654   4.444  20.382  1.00  0.00     0.014 A 
ATOM      4  C   UNL     1     -19.002   6.722  21.286  1.00  0.00     0.047 A 
ATOM      5  C   UNL     1     -17.166   5.716  20.071  1.00  0.00     0.047 A 
ATOM      6  C   UNL     1     -17.837   6.858  20.520  1.00  0.00     0.115 A 
ENDROOT
BRANCH   1   7
ATOM      7  C   UNL     1     -19.337   2.950  21.478  1.00  0.00     0.071 C 
ATOM      8  O   UNL     1     -18.790   1.922  20.998  1.00  0.00    -0.545 OA
ATOM      9  O   UNL     1     -20.430   2.799  22.324  1.00  0.00    -0.545 OA
ENDBRANCH   1   7
BRANCH   6  10
ATOM     10  O   UNL     1     -17.338   8.119  20.202  1.00  0.00    -0.508 OA
ATOM     11  H   UNL     1     -17.953   8.882  19.947  1.00  0.00     0.293 HD
ENDBRANCH   6  10
TORSDOF 2
ENDMDL
