MODEL 1
REMARK VINA RESULT:    -3.590      0.000      0.000
REMARK INTER + INTRA:          -8.637
REMARK INTER:                  -6.738
REMARK INTRA:                  -1.899
REMARK UNBOUND:                -1.899
REMARK SMILES O=C([O-])CCCCCCCCCCCCCCC(=O)[O-]
REMARK SMILES IDX 10 1 9 2 8 3 7 4 6 5 5 6 4 7 2 8 1 9 3 10 11 11 12 12 13 13
REMARK SMILES IDX 14 14 15 15 16 16 17 17 18 18 19 19 20 20
REMARK H PARENT
REMARK Flexibility Score: inf
ROOT
ATOM      1  C   UNL     1       0.176  -1.362   8.106  1.00  0.00     0.000 C 
ENDROOT
BRANCH   1   2
ATOM      2  C   UNL     1       1.500  -1.507   8.885  1.00  0.00     0.000 C 
BRANCH   2   3
ATOM      3  C   UNL     1       2.256  -0.190   9.141  1.00  0.00     0.000 C 
BRANCH   3   4
ATOM      4  C   UNL     1       3.696  -0.414   9.635  1.00  0.00     0.000 C 
BRANCH   4   5
ATOM      5  C   UNL     1       4.469   0.911   9.811  1.00  0.00     0.000 C 
BRANCH   5   6
ATOM      6  C   UNL     1       4.261   1.909   8.660  1.00  0.00     0.006 C 
BRANCH   6   7
ATOM      7  C   UNL     1       5.403   1.890   7.638  1.00  0.00     0.053 C 
BRANCH   7   8
ATOM      8  C   UNL     1       6.351   3.018   7.891  1.00  0.00     0.041 C 
ATOM      9  O   UNL     1       7.410   3.121   7.217  1.00  0.00    -0.550 OA
ATOM     10  O   UNL     1       6.041   3.988   8.836  1.00  0.00    -0.550 OA
ENDBRANCH   7   8
ENDBRANCH   6   7
ENDBRANCH   5   6
ENDBRANCH   4   5
ENDBRANCH   3   4
ENDBRANCH   2   3
ENDBRANCH   1   2
BRANCH   1  11
ATOM     11  C   UNL     1      -0.240   0.085   7.787  1.00  0.00     0.000 C 
BRANCH  11  12
ATOM     12  C   UNL     1      -1.621   0.449   8.350  1.00  0.00     0.000 C 
BRANCH  12  13
ATOM     13  C   UNL     1      -1.589   1.828   9.028  1.00  0.00     0.000 C 
BRANCH  13  14
ATOM     14  C   UNL     1      -0.377   2.004   9.957  1.00  0.00     0.000 C 
BRANCH  14  15
ATOM     15  C   UNL     1       0.427   3.279   9.646  1.00  0.00     0.000 C 
BRANCH  15  16
ATOM     16  C   UNL     1       0.210   3.774   8.201  1.00  0.00     0.006 C 
BRANCH  16  17
ATOM     17  C   UNL     1       1.380   3.449   7.258  1.00  0.00     0.053 C 
BRANCH  17  18
ATOM     18  C   UNL     1       2.187   4.663   6.914  1.00  0.00     0.041 C 
ATOM     19  O   UNL     1       3.374   4.542   6.512  1.00  0.00    -0.550 OA
ATOM     20  O   UNL     1       1.635   5.929   7.062  1.00  0.00    -0.550 OA
ENDBRANCH  17  18
ENDBRANCH  16  17
ENDBRANCH  15  16
ENDBRANCH  14  15
ENDBRANCH  13  14
ENDBRANCH  12  13
ENDBRANCH  11  12
ENDBRANCH   1  11
TORSDOF 15
ENDMDL
MODEL 2
REMARK VINA RESULT:    -3.550     12.364     13.767
REMARK INTER + INTRA:          -8.562
REMARK INTER:                  -6.209
REMARK INTRA:                  -2.353
REMARK UNBOUND:                -1.899
REMARK SMILES O=C([O-])CCCCCCCCCCCCCCC(=O)[O-]
REMARK SMILES IDX 10 1 9 2 8 3 7 4 6 5 5 6 4 7 2 8 1 9 3 10 11 11 12 12 13 13
REMARK SMILES IDX 14 14 15 15 16 16 17 17 18 18 19 19 20 20
REMARK H PARENT
REMARK Flexibility Score: inf
ROOT
ATOM      1  C   UNL     1       3.348  -0.693  -5.275  1.00  0.00     0.000 C 
ENDROOT
BRANCH   1   2
ATOM      2  C   UNL     1       4.502   0.070  -4.593  1.00  0.00     0.000 C 
BRANCH   2   3
ATOM      3  C   UNL     1       5.184  -0.675  -3.431  1.00  0.00     0.000 C 
BRANCH   3   4
ATOM      4  C   UNL     1       5.348  -2.181  -3.700  1.00  0.00     0.000 C 
BRANCH   4   5
ATOM      5  C   UNL     1       4.869  -3.045  -2.513  1.00  0.00     0.000 C 
BRANCH   5   6
ATOM      6  C   UNL     1       4.131  -4.326  -2.934  1.00  0.00     0.006 C 
BRANCH   6   7
ATOM      7  C   UNL     1       3.735  -4.329  -4.415  1.00  0.00     0.053 C 
BRANCH   7   8
ATOM      8  C   UNL     1       3.264  -5.687  -4.829  1.00  0.00     0.041 C 
ATOM      9  O   UNL     1       2.050  -6.000  -4.717  1.00  0.00    -0.550 OA
ATOM     10  O   UNL     1       4.158  -6.592  -5.389  1.00  0.00    -0.550 OA
ENDBRANCH   7   8
ENDBRANCH   6   7
ENDBRANCH   5   6
ENDBRANCH   4   5
ENDBRANCH   3   4
ENDBRANCH   2   3
ENDBRANCH   1   2
BRANCH   1  11
ATOM     11  C   UNL     1       1.959  -0.049  -5.125  1.00  0.00     0.000 C 
BRANCH  11  12
ATOM     12  C   UNL     1       0.994  -0.895  -4.281  1.00  0.00     0.000 C 
BRANCH  12  13
ATOM     13  C   UNL     1       1.484  -0.996  -2.828  1.00  0.00     0.000 C 
BRANCH  13  14
ATOM     14  C   UNL     1       1.141  -2.346  -2.178  1.00  0.00     0.000 C 
BRANCH  14  15
ATOM     15  C   UNL     1       0.432  -3.307  -3.148  1.00  0.00     0.000 C 
BRANCH  15  16
ATOM     16  C   UNL     1      -0.197  -4.515  -2.425  1.00  0.00     0.006 C 
BRANCH  16  17
ATOM     17  C   UNL     1       0.745  -5.184  -1.410  1.00  0.00     0.053 C 
BRANCH  17  18
ATOM     18  C   UNL     1       0.021  -5.652  -0.186  1.00  0.00     0.041 C 
ATOM     19  O   UNL     1      -0.330  -6.857  -0.079  1.00  0.00    -0.550 OA
ATOM     20  O   UNL     1      -0.287  -4.753   0.826  1.00  0.00    -0.550 OA
ENDBRANCH  17  18
ENDBRANCH  16  17
ENDBRANCH  15  16
ENDBRANCH  14  15
ENDBRANCH  13  14
ENDBRANCH  12  13
ENDBRANCH  11  12
ENDBRANCH   1  11
TORSDOF 15
ENDMDL
MODEL 3
REMARK VINA RESULT:    -3.526      3.707      5.814
REMARK INTER + INTRA:          -8.516
REMARK INTER:                  -7.445
REMARK INTRA:                  -1.071
REMARK UNBOUND:                -1.899
REMARK SMILES O=C([O-])CCCCCCCCCCCCCCC(=O)[O-]
REMARK SMILES IDX 10 1 9 2 8 3 7 4 6 5 5 6 4 7 2 8 1 9 3 10 11 11 12 12 13 13
REMARK SMILES IDX 14 14 15 15 16 16 17 17 18 18 19 19 20 20
REMARK H PARENT
REMARK Flexibility Score: inf
ROOT
ATOM      1  C   UNL     1       3.458  -0.425   9.632  1.00  0.00     0.000 C 
ENDROOT
BRANCH   1   2
ATOM      2  C   UNL     1       4.347   0.827   9.490  1.00  0.00     0.000 C 
BRANCH   2   3
ATOM      3  C   UNL     1       3.811   1.906   8.532  1.00  0.00     0.000 C 
BRANCH   3   4
ATOM      4  C   UNL     1       4.921   2.577   7.704  1.00  0.00     0.000 C 
BRANCH   4   5
ATOM      5  C   UNL     1       4.551   4.016   7.284  1.00  0.00     0.000 C 
BRANCH   5   6
ATOM      6  C   UNL     1       3.223   4.118   6.517  1.00  0.00     0.006 C 
BRANCH   6   7
ATOM      7  C   UNL     1       2.268   5.162   7.109  1.00  0.00     0.053 C 
BRANCH   7   8
ATOM      8  C   UNL     1       0.849   4.707   6.978  1.00  0.00     0.041 C 
ATOM      9  O   UNL     1       0.491   3.599   7.456  1.00  0.00    -0.550 OA
ATOM     10  O   UNL     1      -0.092   5.532   6.374  1.00  0.00    -0.550 OA
ENDBRANCH   7   8
ENDBRANCH   6   7
ENDBRANCH   5   6
ENDBRANCH   4   5
ENDBRANCH   3   4
ENDBRANCH   2   3
ENDBRANCH   1   2
BRANCH   1  11
ATOM     11  C   UNL     1       1.996  -0.243   9.188  1.00  0.00     0.000 C 
BRANCH  11  12
ATOM     12  C   UNL     1       1.306  -1.569   8.836  1.00  0.00     0.000 C 
BRANCH  12  13
ATOM     13  C   UNL     1       0.049  -1.324   7.987  1.00  0.00     0.000 C 
BRANCH  13  14
ATOM     14  C   UNL     1      -0.201   0.167   7.715  1.00  0.00     0.000 C 
BRANCH  14  15
ATOM     15  C   UNL     1      -1.650   0.589   8.013  1.00  0.00     0.000 C 
BRANCH  15  16
ATOM     16  C   UNL     1      -2.333  -0.337   9.042  1.00  0.00     0.006 C 
BRANCH  16  17
ATOM     17  C   UNL     1      -3.782  -0.699   8.677  1.00  0.00     0.053 C 
BRANCH  17  18
ATOM     18  C   UNL     1      -4.211  -2.000   9.280  1.00  0.00     0.041 C 
ATOM     19  O   UNL     1      -3.381  -2.935   9.426  1.00  0.00    -0.550 OA
ATOM     20  O   UNL     1      -5.534  -2.188   9.659  1.00  0.00    -0.550 OA
ENDBRANCH  17  18
ENDBRANCH  16  17
ENDBRANCH  15  16
ENDBRANCH  14  15
ENDBRANCH  13  14
ENDBRANCH  12  13
ENDBRANCH  11  12
ENDBRANCH   1  11
TORSDOF 15
ENDMDL
MODEL 4
REMARK VINA RESULT:    -3.518      2.037      4.643
REMARK INTER + INTRA:          -8.501
REMARK INTER:                  -6.932
REMARK INTRA:                  -1.569
REMARK UNBOUND:                -1.899
REMARK SMILES O=C([O-])CCCCCCCCCCCCCCC(=O)[O-]
REMARK SMILES IDX 10 1 9 2 8 3 7 4 6 5 5 6 4 7 2 8 1 9 3 10 11 11 12 12 13 13
REMARK SMILES IDX 14 14 15 15 16 16 17 17 18 18 19 19 20 20
REMARK H PARENT
REMARK Flexibility Score: inf
ROOT
ATOM      1  C   UNL     1      -0.169   1.997   8.662  1.00  0.00     0.000 C 
ENDROOT
BRANCH   1   2
ATOM      2  C   UNL     1       0.497   2.987   7.686  1.00  0.00     0.000 C 
BRANCH   2   3
ATOM      3  C   UNL     1       1.990   3.260   7.947  1.00  0.00     0.000 C 
BRANCH   3   4
ATOM      4  C   UNL     1       2.599   2.308   8.991  1.00  0.00     0.000 C 
BRANCH   4   5
ATOM      5  C   UNL     1       4.141   2.382   9.023  1.00  0.00     0.000 C 
BRANCH   5   6
ATOM      6  C   UNL     1       4.798   2.268   7.637  1.00  0.00     0.006 C 
BRANCH   6   7
ATOM      7  C   UNL     1       6.282   1.892   7.707  1.00  0.00     0.053 C 
BRANCH   7   8
ATOM      8  C   UNL     1       7.136   3.057   7.319  1.00  0.00     0.041 C 
ATOM      9  O   UNL     1       6.643   4.214   7.257  1.00  0.00    -0.550 OA
ATOM     10  O   UNL     1       8.492   2.874   7.077  1.00  0.00    -0.550 OA
ENDBRANCH   7   8
ENDBRANCH   6   7
ENDBRANCH   5   6
ENDBRANCH   4   5
ENDBRANCH   3   4
ENDBRANCH   2   3
ENDBRANCH   1   2
BRANCH   1  11
ATOM     11  C   UNL     1      -0.877   0.801   8.000  1.00  0.00     0.000 C 
BRANCH  11  12
ATOM     12  C   UNL     1       0.086  -0.341   7.641  1.00  0.00     0.000 C 
BRANCH  12  13
ATOM     13  C   UNL     1      -0.169  -1.569   8.528  1.00  0.00     0.000 C 
BRANCH  13  14
ATOM     14  C   UNL     1       1.130  -2.250   8.987  1.00  0.00     0.000 C 
BRANCH  14  15
ATOM     15  C   UNL     1       2.298  -1.259   9.132  1.00  0.00     0.000 C 
BRANCH  15  16
ATOM     16  C   UNL     1       3.518  -1.886   9.840  1.00  0.00     0.006 C 
BRANCH  16  17
ATOM     17  C   UNL     1       4.350  -0.873  10.643  1.00  0.00     0.053 C 
BRANCH  17  18
ATOM     18  C   UNL     1       5.822  -1.099  10.489  1.00  0.00     0.041 C 
ATOM     19  O   UNL     1       6.629  -0.604  11.320  1.00  0.00    -0.550 OA
ATOM     20  O   UNL     1       6.304  -1.835   9.415  1.00  0.00    -0.550 OA
ENDBRANCH  17  18
ENDBRANCH  16  17
ENDBRANCH  15  16
ENDBRANCH  14  15
ENDBRANCH  13  14
ENDBRANCH  12  13
ENDBRANCH  11  12
ENDBRANCH   1  11
TORSDOF 15
ENDMDL
MODEL 5
REMARK VINA RESULT:    -3.508      3.105      6.261
REMARK INTER + INTRA:          -8.484
REMARK INTER:                  -6.501
REMARK INTRA:                  -1.983
REMARK UNBOUND:                -1.899
REMARK SMILES O=C([O-])CCCCCCCCCCCCCCC(=O)[O-]
REMARK SMILES IDX 10 1 9 2 8 3 7 4 6 5 5 6 4 7 2 8 1 9 3 10 11 11 12 12 13 13
REMARK SMILES IDX 14 14 15 15 16 16 17 17 18 18 19 19 20 20
REMARK H PARENT
REMARK Flexibility Score: inf
ROOT
ATOM      1  C   UNL     1       1.454  -2.073   8.780  1.00  0.00     0.000 C 
ENDROOT
BRANCH   1   2
ATOM      2  C   UNL     1       0.203  -1.419   8.159  1.00  0.00     0.000 C 
BRANCH   2   3
ATOM      3  C   UNL     1      -1.112  -1.665   8.922  1.00  0.00     0.000 C 
BRANCH   3   4
ATOM      4  C   UNL     1      -1.706  -0.378   9.521  1.00  0.00     0.000 C 
BRANCH   4   5
ATOM      5  C   UNL     1      -2.521   0.429   8.487  1.00  0.00     0.000 C 
BRANCH   5   6
ATOM      6  C   UNL     1      -3.994  -0.001   8.385  1.00  0.00     0.006 C 
BRANCH   6   7
ATOM      7  C   UNL     1      -4.806   0.343   9.639  1.00  0.00     0.053 C 
BRANCH   7   8
ATOM      8  C   UNL     1      -5.056   1.815   9.713  1.00  0.00     0.041 C 
ATOM      9  O   UNL     1      -4.450   2.521  10.562  1.00  0.00    -0.550 OA
ATOM     10  O   UNL     1      -5.920   2.420   8.808  1.00  0.00    -0.550 OA
ENDBRANCH   7   8
ENDBRANCH   6   7
ENDBRANCH   5   6
ENDBRANCH   4   5
ENDBRANCH   3   4
ENDBRANCH   2   3
ENDBRANCH   1   2
BRANCH   1  11
ATOM     11  C   UNL     1       2.299  -1.150   9.676  1.00  0.00     0.000 C 
BRANCH  11  12
ATOM     12  C   UNL     1       2.404   0.282   9.132  1.00  0.00     0.000 C 
BRANCH  12  13
ATOM     13  C   UNL     1       1.841   1.293  10.141  1.00  0.00     0.000 C 
BRANCH  13  14
ATOM     14  C   UNL     1       0.761   2.201   9.532  1.00  0.00     0.000 C 
BRANCH  14  15
ATOM     15  C   UNL     1       0.856   2.288   7.999  1.00  0.00     0.000 C 
BRANCH  15  16
ATOM     16  C   UNL     1       1.104   3.729   7.505  1.00  0.00     0.006 C 
BRANCH  16  17
ATOM     17  C   UNL     1       2.465   3.917   6.814  1.00  0.00     0.053 C 
BRANCH  17  18
ATOM     18  C   UNL     1       3.610   3.549   7.706  1.00  0.00     0.041 C 
ATOM     19  O   UNL     1       4.405   2.632   7.371  1.00  0.00    -0.550 OA
ATOM     20  O   UNL     1       3.784   4.201   8.920  1.00  0.00    -0.550 OA
ENDBRANCH  17  18
ENDBRANCH  16  17
ENDBRANCH  15  16
ENDBRANCH  14  15
ENDBRANCH  13  14
ENDBRANCH  12  13
ENDBRANCH  11  12
ENDBRANCH   1  11
TORSDOF 15
ENDMDL
MODEL 6
REMARK VINA RESULT:    -3.506      6.872      9.025
REMARK INTER + INTRA:          -8.480
REMARK INTER:                  -7.004
REMARK INTRA:                  -1.475
REMARK UNBOUND:                -1.899
REMARK SMILES O=C([O-])CCCCCCCCCCCCCCC(=O)[O-]
REMARK SMILES IDX 10 1 9 2 8 3 7 4 6 5 5 6 4 7 2 8 1 9 3 10 11 11 12 12 13 13
REMARK SMILES IDX 14 14 15 15 16 16 17 17 18 18 19 19 20 20
REMARK H PARENT
REMARK Flexibility Score: inf
ROOT
ATOM      1  C   UNL     1      -3.958   0.004   8.248  1.00  0.00     0.000 C 
ENDROOT
BRANCH   1   2
ATOM      2  C   UNL     1      -3.408   0.842   9.420  1.00  0.00     0.000 C 
BRANCH   2   3
ATOM      3  C   UNL     1      -1.973   1.368   9.233  1.00  0.00     0.000 C 
BRANCH   3   4
ATOM      4  C   UNL     1      -1.269   0.763   8.006  1.00  0.00     0.000 C 
BRANCH   4   5
ATOM      5  C   UNL     1       0.079   0.104   8.369  1.00  0.00     0.000 C 
BRANCH   5   6
ATOM      6  C   UNL     1       0.149  -1.395   8.031  1.00  0.00     0.006 C 
BRANCH   6   7
ATOM      7  C   UNL     1      -0.783  -2.248   8.898  1.00  0.00     0.053 C 
BRANCH   7   8
ATOM      8  C   UNL     1      -0.546  -1.974  10.349  1.00  0.00     0.041 C 
ATOM      9  O   UNL     1      -1.499  -1.626  11.094  1.00  0.00    -0.550 OA
ATOM     10  O   UNL     1       0.721  -2.155  10.892  1.00  0.00    -0.550 OA
ENDBRANCH   7   8
ENDBRANCH   6   7
ENDBRANCH   5   6
ENDBRANCH   4   5
ENDBRANCH   3   4
ENDBRANCH   2   3
ENDBRANCH   1   2
BRANCH   1  11
ATOM     11  C   UNL     1      -4.376  -1.433   8.610  1.00  0.00     0.000 C 
BRANCH  11  12
ATOM     12  C   UNL     1      -5.004  -1.540  10.007  1.00  0.00     0.000 C 
BRANCH  12  13
ATOM     13  C   UNL     1      -5.806  -2.843  10.148  1.00  0.00     0.000 C 
BRANCH  13  14
ATOM     14  C   UNL     1      -5.381  -3.914   9.131  1.00  0.00     0.000 C 
BRANCH  14  15
ATOM     15  C   UNL     1      -6.577  -4.696   8.561  1.00  0.00     0.000 C 
BRANCH  15  16
ATOM     16  C   UNL     1      -6.301  -5.245   7.145  1.00  0.00     0.006 C 
BRANCH  16  17
ATOM     17  C   UNL     1      -7.567  -5.392   6.285  1.00  0.00     0.053 C 
BRANCH  17  18
ATOM     18  C   UNL     1      -7.281  -5.236   4.824  1.00  0.00     0.041 C 
ATOM     19  O   UNL     1      -7.482  -4.131   4.253  1.00  0.00    -0.550 OA
ATOM     20  O   UNL     1      -6.817  -6.317   4.086  1.00  0.00    -0.550 OA
ENDBRANCH  17  18
ENDBRANCH  16  17
ENDBRANCH  15  16
ENDBRANCH  14  15
ENDBRANCH  13  14
ENDBRANCH  12  13
ENDBRANCH  11  12
ENDBRANCH   1  11
TORSDOF 15
ENDMDL
MODEL 7
REMARK VINA RESULT:    -3.456      3.603      4.847
REMARK INTER + INTRA:          -8.385
REMARK INTER:                  -6.855
REMARK INTRA:                  -1.530
REMARK UNBOUND:                -1.899
REMARK SMILES O=C([O-])CCCCCCCCCCCCCCC(=O)[O-]
REMARK SMILES IDX 10 1 9 2 8 3 7 4 6 5 5 6 4 7 2 8 1 9 3 10 11 11 12 12 13 13
REMARK SMILES IDX 14 14 15 15 16 16 17 17 18 18 19 19 20 20
REMARK H PARENT
REMARK Flexibility Score: inf
ROOT
ATOM      1  C   UNL     1       1.442  -2.086   8.744  1.00  0.00     0.000 C 
ENDROOT
BRANCH   1   2
ATOM      2  C   UNL     1       2.707  -1.657   9.515  1.00  0.00     0.000 C 
BRANCH   2   3
ATOM      3  C   UNL     1       2.668  -0.232  10.098  1.00  0.00     0.000 C 
BRANCH   3   4
ATOM      4  C   UNL     1       3.588   0.747   9.347  1.00  0.00     0.000 C 
BRANCH   4   5
ATOM      5  C   UNL     1       2.810   1.933   8.738  1.00  0.00     0.000 C 
BRANCH   5   6
ATOM      6  C   UNL     1       3.667   2.846   7.846  1.00  0.00     0.006 C 
BRANCH   6   7
ATOM      7  C   UNL     1       5.051   2.260   7.544  1.00  0.00     0.053 C 
BRANCH   7   8
ATOM      8  C   UNL     1       6.120   3.264   7.836  1.00  0.00     0.041 C 
ATOM      9  O   UNL     1       5.838   4.335   8.435  1.00  0.00    -0.550 OA
ATOM     10  O   UNL     1       7.439   2.994   7.493  1.00  0.00    -0.550 OA
ENDBRANCH   7   8
ENDBRANCH   6   7
ENDBRANCH   5   6
ENDBRANCH   4   5
ENDBRANCH   3   4
ENDBRANCH   2   3
ENDBRANCH   1   2
BRANCH   1  11
ATOM     11  C   UNL     1       0.215  -1.178   8.943  1.00  0.00     0.000 C 
BRANCH  11  12
ATOM     12  C   UNL     1      -0.144  -0.372   7.687  1.00  0.00     0.000 C 
BRANCH  12  13
ATOM     13  C   UNL     1      -0.728   0.998   8.064  1.00  0.00     0.000 C 
BRANCH  13  14
ATOM     14  C   UNL     1      -1.952   0.889   8.986  1.00  0.00     0.000 C 
BRANCH  14  15
ATOM     15  C   UNL     1      -3.194   0.344   8.260  1.00  0.00     0.000 C 
BRANCH  15  16
ATOM     16  C   UNL     1      -4.189  -0.336   9.223  1.00  0.00     0.006 C 
BRANCH  16  17
ATOM     17  C   UNL     1      -4.220  -1.868   9.095  1.00  0.00     0.053 C 
BRANCH  17  18
ATOM     18  C   UNL     1      -3.180  -2.530   9.944  1.00  0.00     0.041 C 
ATOM     19  O   UNL     1      -2.951  -2.109  11.109  1.00  0.00    -0.550 OA
ATOM     20  O   UNL     1      -2.447  -3.597   9.442  1.00  0.00    -0.550 OA
ENDBRANCH  17  18
ENDBRANCH  16  17
ENDBRANCH  15  16
ENDBRANCH  14  15
ENDBRANCH  13  14
ENDBRANCH  12  13
ENDBRANCH  11  12
ENDBRANCH   1  11
TORSDOF 15
ENDMDL
MODEL 8
REMARK VINA RESULT:    -3.449     12.393     14.150
REMARK INTER + INTRA:          -8.373
REMARK INTER:                  -6.176
REMARK INTRA:                  -2.198
REMARK UNBOUND:                -1.899
REMARK SMILES O=C([O-])CCCCCCCCCCCCCCC(=O)[O-]
REMARK SMILES IDX 10 1 9 2 8 3 7 4 6 5 5 6 4 7 2 8 1 9 3 10 11 11 12 12 13 13
REMARK SMILES IDX 14 14 15 15 16 16 17 17 18 18 19 19 20 20
REMARK H PARENT
REMARK Flexibility Score: inf
ROOT
ATOM      1  C   UNL     1       2.349  -1.773  -6.399  1.00  0.00     0.000 C 
ENDROOT
BRANCH   1   2
ATOM      2  C   UNL     1       1.219  -1.011  -5.676  1.00  0.00     0.000 C 
BRANCH   2   3
ATOM      3  C   UNL     1       0.590  -1.751  -4.482  1.00  0.00     0.000 C 
BRANCH   3   4
ATOM      4  C   UNL     1       1.108  -1.245  -3.124  1.00  0.00     0.000 C 
BRANCH   4   5
ATOM      5  C   UNL     1       1.056  -2.336  -2.032  1.00  0.00     0.000 C 
BRANCH   5   6
ATOM      6  C   UNL     1       0.609  -3.713  -2.551  1.00  0.00     0.006 C 
BRANCH   6   7
ATOM      7  C   UNL     1       0.869  -4.843  -1.549  1.00  0.00     0.053 C 
BRANCH   7   8
ATOM      8  C   UNL     1      -0.331  -5.063  -0.684  1.00  0.00     0.041 C 
ATOM      9  O   UNL     1      -0.234  -4.988   0.569  1.00  0.00    -0.550 OA
ATOM     10  O   UNL     1      -1.572  -5.300  -1.265  1.00  0.00    -0.550 OA
ENDBRANCH   7   8
ENDBRANCH   6   7
ENDBRANCH   5   6
ENDBRANCH   4   5
ENDBRANCH   3   4
ENDBRANCH   2   3
ENDBRANCH   1   2
BRANCH   1  11
ATOM     11  C   UNL     1       3.558  -0.914  -6.811  1.00  0.00     0.000 C 
BRANCH  11  12
ATOM     12  C   UNL     1       4.004   0.059  -5.710  1.00  0.00     0.000 C 
BRANCH  12  13
ATOM     13  C   UNL     1       5.386  -0.330  -5.164  1.00  0.00     0.000 C 
BRANCH  13  14
ATOM     14  C   UNL     1       5.489  -0.168  -3.639  1.00  0.00     0.000 C 
BRANCH  14  15
ATOM     15  C   UNL     1       4.563  -1.132  -2.877  1.00  0.00     0.000 C 
BRANCH  15  16
ATOM     16  C   UNL     1       5.059  -2.592  -2.932  1.00  0.00     0.006 C 
BRANCH  16  17
ATOM     17  C   UNL     1       4.102  -3.539  -3.675  1.00  0.00     0.053 C 
BRANCH  17  18
ATOM     18  C   UNL     1       4.257  -4.962  -3.235  1.00  0.00     0.041 C 
ATOM     19  O   UNL     1       5.103  -5.265  -2.353  1.00  0.00    -0.550 OA
ATOM     20  O   UNL     1       3.482  -5.958  -3.816  1.00  0.00    -0.550 OA
ENDBRANCH  17  18
ENDBRANCH  16  17
ENDBRANCH  15  16
ENDBRANCH  14  15
ENDBRANCH  13  14
ENDBRANCH  12  13
ENDBRANCH  11  12
ENDBRANCH   1  11
TORSDOF 15
ENDMDL
MODEL 9
REMARK VINA RESULT:    -3.446      2.547      4.431
REMARK INTER + INTRA:          -8.367
REMARK INTER:                  -6.190
REMARK INTRA:                  -2.177
REMARK UNBOUND:                -1.899
REMARK SMILES O=C([O-])CCCCCCCCCCCCCCC(=O)[O-]
REMARK SMILES IDX 10 1 9 2 8 3 7 4 6 5 5 6 4 7 2 8 1 9 3 10 11 11 12 12 13 13
REMARK SMILES IDX 14 14 15 15 16 16 17 17 18 18 19 19 20 20
REMARK H PARENT
REMARK Flexibility Score: inf
ROOT
ATOM      1  C   UNL     1       1.626   3.064  10.179  1.00  0.00     0.000 C 
ENDROOT
BRANCH   1   2
ATOM      2  C   UNL     1       1.129   3.540   8.798  1.00  0.00     0.000 C 
BRANCH   2   3
ATOM      3  C   UNL     1       1.900   2.972   7.593  1.00  0.00     0.000 C 
BRANCH   3   4
ATOM      4  C   UNL     1       2.801   4.017   6.911  1.00  0.00     0.000 C 
BRANCH   4   5
ATOM      5  C   UNL     1       4.266   3.929   7.390  1.00  0.00     0.000 C 
BRANCH   5   6
ATOM      6  C   UNL     1       4.627   2.586   8.045  1.00  0.00     0.006 C 
BRANCH   6   7
ATOM      7  C   UNL     1       5.804   1.883   7.359  1.00  0.00     0.053 C 
BRANCH   7   8
ATOM      8  C   UNL     1       7.103   2.409   7.881  1.00  0.00     0.041 C 
ATOM      9  O   UNL     1       7.420   2.235   9.087  1.00  0.00    -0.550 OA
ATOM     10  O   UNL     1       7.990   3.046   7.021  1.00  0.00    -0.550 OA
ENDBRANCH   7   8
ENDBRANCH   6   7
ENDBRANCH   5   6
ENDBRANCH   4   5
ENDBRANCH   3   4
ENDBRANCH   2   3
ENDBRANCH   1   2
BRANCH   1  11
ATOM     11  C   UNL     1       0.676   2.107  10.921  1.00  0.00     0.000 C 
BRANCH  11  12
ATOM     12  C   UNL     1       1.315   0.744  11.225  1.00  0.00     0.000 C 
BRANCH  12  13
ATOM     13  C   UNL     1       2.578   0.532  10.377  1.00  0.00     0.000 C 
BRANCH  13  14
ATOM     14  C   UNL     1       2.345  -0.418   9.192  1.00  0.00     0.000 C 
BRANCH  14  15
ATOM     15  C   UNL     1       1.004  -1.166   9.287  1.00  0.00     0.000 C 
BRANCH  15  16
ATOM     16  C   UNL     1       0.183  -1.071   7.984  1.00  0.00     0.006 C 
BRANCH  16  17
ATOM     17  C   UNL     1      -0.503   0.290   7.787  1.00  0.00     0.053 C 
BRANCH  17  18
ATOM     18  C   UNL     1      -1.772   0.406   8.572  1.00  0.00     0.041 C 
ATOM     19  O   UNL     1      -2.198   1.537   8.925  1.00  0.00    -0.550 OA
ATOM     20  O   UNL     1      -2.471  -0.737   8.937  1.00  0.00    -0.550 OA
ENDBRANCH  17  18
ENDBRANCH  16  17
ENDBRANCH  15  16
ENDBRANCH  14  15
ENDBRANCH  13  14
ENDBRANCH  12  13
ENDBRANCH  11  12
ENDBRANCH   1  11
TORSDOF 15
ENDMDL
