MODEL 1
REMARK VINA RESULT:    -4.524      0.000      0.000
REMARK INTER + INTRA:          -8.883
REMARK INTER:                  -7.962
REMARK INTRA:                  -0.920
REMARK UNBOUND:                -0.920
REMARK SMILES CCCCCCC=CCCCCCCCC(=O)[O-]
REMARK SMILES IDX 10 1 11 2 12 3 13 4 14 5 15 6 16 7 17 8 18 9 9 10 8 11 7 12
REMARK SMILES IDX 6 13 5 14 4 15 3 16 2 17 1 18
REMARK H PARENT
REMARK Flexibility Score: inf
ROOT
ATOM      1  C   UNL     1      35.057 169.381 157.300  1.00  0.00     0.004 C 
ENDROOT
BRANCH   1   2
ATOM      2  C   UNL     1      34.910 170.112 155.953  1.00  0.00     0.000 C 
BRANCH   2   3
ATOM      3  C   UNL     1      33.541 169.940 155.263  1.00  0.00     0.000 C 
BRANCH   3   4
ATOM      4  C   UNL     1      32.572 171.125 155.425  1.00  0.00     0.000 C 
BRANCH   4   5
ATOM      5  C   UNL     1      31.792 171.440 154.138  1.00  0.00     0.006 C 
BRANCH   5   6
ATOM      6  C   UNL     1      31.160 172.837 154.171  1.00  0.00     0.053 C 
BRANCH   6   7
ATOM      7  C   UNL     1      29.671 172.772 154.330  1.00  0.00     0.041 C 
ATOM      8  O   UNL     1      29.097 171.660 154.464  1.00  0.00    -0.550 OA
ATOM      9  O   UNL     1      28.916 173.938 154.301  1.00  0.00    -0.550 OA
ENDBRANCH   6   7
ENDBRANCH   5   6
ENDBRANCH   4   5
ENDBRANCH   3   4
ENDBRANCH   2   3
ENDBRANCH   1   2
BRANCH   1  10
ATOM     10  C   UNL     1      33.927 168.373 157.556  1.00  0.00     0.027 C 
BRANCH  10  11
ATOM     11  C   UNL     1      33.229 168.662 158.856  1.00  0.00    -0.031 C 
ATOM     12  C   UNL     1      32.260 169.586 158.942  1.00  0.00    -0.031 C 
BRANCH  12  13
ATOM     13  C   UNL     1      31.562 169.878 160.241  1.00  0.00     0.027 C 
BRANCH  13  14
ATOM     14  C   UNL     1      30.489 170.962 160.061  1.00  0.00     0.004 C 
BRANCH  14  15
ATOM     15  C   UNL     1      30.048 171.587 161.394  1.00  0.00     0.000 C 
BRANCH  15  16
ATOM     16  C   UNL     1      30.237 173.114 161.421  1.00  0.00    -0.000 C 
BRANCH  16  17
ATOM     17  C   UNL     1      29.169 173.824 162.267  1.00  0.00    -0.003 C 
ATOM     18  C   UNL     1      27.946 174.241 161.451  1.00  0.00     0.004 C 
ENDBRANCH  16  17
ENDBRANCH  15  16
ENDBRANCH  14  15
ENDBRANCH  13  14
ENDBRANCH  12  13
ENDBRANCH  10  11
ENDBRANCH   1  10
TORSDOF 13
ENDMDL
MODEL 2
REMARK VINA RESULT:    -4.409      3.154      6.611
REMARK INTER + INTRA:          -8.679
REMARK INTER:                  -7.192
REMARK INTRA:                  -1.487
REMARK UNBOUND:                -0.920
REMARK SMILES CCCCCCC=CCCCCCCCC(=O)[O-]
REMARK SMILES IDX 10 1 11 2 12 3 13 4 14 5 15 6 16 7 17 8 18 9 9 10 8 11 7 12
REMARK SMILES IDX 6 13 5 14 4 15 3 16 2 17 1 18
REMARK H PARENT
REMARK Flexibility Score: inf
ROOT
ATOM      1  C   UNL     1      32.515 168.930 160.251  1.00  0.00     0.004 C 
ENDROOT
BRANCH   1   2
ATOM      2  C   UNL     1      31.762 170.158 159.710  1.00  0.00     0.000 C 
BRANCH   2   3
ATOM      3  C   UNL     1      30.250 169.949 159.486  1.00  0.00     0.000 C 
BRANCH   3   4
ATOM      4  C   UNL     1      29.338 170.994 160.156  1.00  0.00     0.000 C 
BRANCH   4   5
ATOM      5  C   UNL     1      29.969 171.619 161.411  1.00  0.00     0.006 C 
BRANCH   5   6
ATOM      6  C   UNL     1      30.021 173.150 161.331  1.00  0.00     0.053 C 
BRANCH   6   7
ATOM      7  C   UNL     1      29.223 173.793 162.425  1.00  0.00     0.041 C 
ATOM      8  O   UNL     1      29.419 173.471 163.625  1.00  0.00    -0.550 OA
ATOM      9  O   UNL     1      28.243 174.727 162.114  1.00  0.00    -0.550 OA
ENDBRANCH   6   7
ENDBRANCH   5   6
ENDBRANCH   4   5
ENDBRANCH   3   4
ENDBRANCH   2   3
ENDBRANCH   1   2
BRANCH   1  10
ATOM     10  C   UNL     1      33.365 168.233 159.178  1.00  0.00     0.027 C 
BRANCH  10  11
ATOM     11  C   UNL     1      33.596 169.139 158.000  1.00  0.00    -0.031 C 
ATOM     12  C   UNL     1      34.729 169.083 157.283  1.00  0.00    -0.031 C 
BRANCH  12  13
ATOM     13  C   UNL     1      34.961 169.988 156.105  1.00  0.00     0.027 C 
BRANCH  13  14
ATOM     14  C   UNL     1      33.648 170.633 155.636  1.00  0.00     0.004 C 
BRANCH  14  15
ATOM     15  C   UNL     1      33.231 170.173 154.230  1.00  0.00     0.000 C 
BRANCH  15  16
ATOM     16  C   UNL     1      31.788 169.642 154.186  1.00  0.00    -0.000 C 
BRANCH  16  17
ATOM     17  C   UNL     1      31.620 168.332 154.970  1.00  0.00    -0.003 C 
ATOM     18  C   UNL     1      30.563 168.429 156.071  1.00  0.00     0.004 C 
ENDBRANCH  16  17
ENDBRANCH  15  16
ENDBRANCH  14  15
ENDBRANCH  13  14
ENDBRANCH  12  13
ENDBRANCH  10  11
ENDBRANCH   1  10
TORSDOF 13
ENDMDL
MODEL 3
REMARK VINA RESULT:    -4.377      3.419      6.947
REMARK INTER + INTRA:          -8.624
REMARK INTER:                  -7.848
REMARK INTRA:                  -0.775
REMARK UNBOUND:                -0.920
REMARK SMILES CCCCCCC=CCCCCCCCC(=O)[O-]
REMARK SMILES IDX 10 1 11 2 12 3 13 4 14 5 15 6 16 7 17 8 18 9 9 10 8 11 7 12
REMARK SMILES IDX 6 13 5 14 4 15 3 16 2 17 1 18
REMARK H PARENT
REMARK Flexibility Score: inf
ROOT
ATOM      1  C   UNL     1      31.920 170.115 159.158  1.00  0.00     0.004 C 
ENDROOT
BRANCH   1   2
ATOM      2  C   UNL     1      30.862 169.916 160.258  1.00  0.00     0.000 C 
BRANCH   2   3
ATOM      3  C   UNL     1      29.749 170.984 160.292  1.00  0.00     0.000 C 
BRANCH   3   4
ATOM      4  C   UNL     1      29.602 171.734 161.629  1.00  0.00     0.000 C 
BRANCH   4   5
ATOM      5  C   UNL     1      29.997 173.217 161.527  1.00  0.00     0.006 C 
BRANCH   5   6
ATOM      6  C   UNL     1      28.909 174.146 162.080  1.00  0.00     0.053 C 
BRANCH   6   7
ATOM      7  C   UNL     1      28.684 173.929 163.546  1.00  0.00     0.041 C 
ATOM      8  O   UNL     1      27.543 173.609 163.971  1.00  0.00    -0.550 OA
ATOM      9  O   UNL     1      29.728 174.109 164.444  1.00  0.00    -0.550 OA
ENDBRANCH   6   7
ENDBRANCH   5   6
ENDBRANCH   4   5
ENDBRANCH   3   4
ENDBRANCH   2   3
ENDBRANCH   1   2
BRANCH   1  10
ATOM     10  C   UNL     1      32.964 168.988 159.127  1.00  0.00     0.027 C 
BRANCH  10  11
ATOM     11  C   UNL     1      33.794 169.055 157.874  1.00  0.00    -0.031 C 
ATOM     12  C   UNL     1      33.696 170.087 157.022  1.00  0.00    -0.031 C 
BRANCH  12  13
ATOM     13  C   UNL     1      34.523 170.155 155.768  1.00  0.00     0.027 C 
BRANCH  13  14
ATOM     14  C   UNL     1      33.643 170.427 154.539  1.00  0.00     0.004 C 
BRANCH  14  15
ATOM     15  C   UNL     1      32.208 170.828 154.915  1.00  0.00     0.000 C 
BRANCH  15  16
ATOM     16  C   UNL     1      31.565 171.763 153.875  1.00  0.00    -0.000 C 
BRANCH  16  17
ATOM     17  C   UNL     1      30.542 172.723 154.501  1.00  0.00    -0.003 C 
ATOM     18  C   UNL     1      30.782 174.182 154.113  1.00  0.00     0.004 C 
ENDBRANCH  16  17
ENDBRANCH  15  16
ENDBRANCH  14  15
ENDBRANCH  13  14
ENDBRANCH  12  13
ENDBRANCH  10  11
ENDBRANCH   1  10
TORSDOF 13
ENDMDL
MODEL 4
REMARK VINA RESULT:    -4.375      2.686      6.798
REMARK INTER + INTRA:          -8.620
REMARK INTER:                  -7.406
REMARK INTRA:                  -1.213
REMARK UNBOUND:                -0.920
REMARK SMILES CCCCCCC=CCCCCCCCC(=O)[O-]
REMARK SMILES IDX 10 1 11 2 12 3 13 4 14 5 15 6 16 7 17 8 18 9 9 10 8 11 7 12
REMARK SMILES IDX 6 13 5 14 4 15 3 16 2 17 1 18
REMARK H PARENT
REMARK Flexibility Score: inf
ROOT
ATOM      1  C   UNL     1      31.281 170.084 159.359  1.00  0.00     0.004 C 
ENDROOT
BRANCH   1   2
ATOM      2  C   UNL     1      30.085 170.588 160.186  1.00  0.00     0.000 C 
BRANCH   2   3
ATOM      3  C   UNL     1      30.282 170.540 161.716  1.00  0.00     0.000 C 
BRANCH   3   4
ATOM      4  C   UNL     1      29.983 171.856 162.456  1.00  0.00     0.000 C 
BRANCH   4   5
ATOM      5  C   UNL     1      29.924 173.070 161.515  1.00  0.00     0.006 C 
BRANCH   5   6
ATOM      6  C   UNL     1      29.101 174.222 162.107  1.00  0.00     0.053 C 
BRANCH   6   7
ATOM      7  C   UNL     1      27.663 174.152 161.692  1.00  0.00     0.041 C 
ATOM      8  O   UNL     1      26.840 175.005 162.114  1.00  0.00    -0.550 OA
ATOM      9  O   UNL     1      27.228 173.127 160.861  1.00  0.00    -0.550 OA
ENDBRANCH   6   7
ENDBRANCH   5   6
ENDBRANCH   4   5
ENDBRANCH   3   4
ENDBRANCH   2   3
ENDBRANCH   1   2
BRANCH   1  10
ATOM     10  C   UNL     1      32.072 168.976 160.071  1.00  0.00     0.027 C 
BRANCH  10  11
ATOM     11  C   UNL     1      33.331 168.642 159.319  1.00  0.00    -0.031 C 
ATOM     12  C   UNL     1      33.557 169.116 158.084  1.00  0.00    -0.031 C 
BRANCH  12  13
ATOM     13  C   UNL     1      34.814 168.783 157.331  1.00  0.00     0.027 C 
BRANCH  13  14
ATOM     14  C   UNL     1      35.042 169.766 156.172  1.00  0.00     0.004 C 
BRANCH  14  15
ATOM     15  C   UNL     1      33.800 170.619 155.867  1.00  0.00     0.000 C 
BRANCH  15  16
ATOM     16  C   UNL     1      33.362 170.517 154.395  1.00  0.00    -0.000 C 
BRANCH  16  17
ATOM     17  C   UNL     1      32.349 169.386 154.160  1.00  0.00    -0.003 C 
ATOM     18  C   UNL     1      31.186 169.416 155.152  1.00  0.00     0.004 C 
ENDBRANCH  16  17
ENDBRANCH  15  16
ENDBRANCH  14  15
ENDBRANCH  13  14
ENDBRANCH  12  13
ENDBRANCH  10  11
ENDBRANCH   1  10
TORSDOF 13
ENDMDL
MODEL 5
REMARK VINA RESULT:    -4.276      1.610      2.067
REMARK INTER + INTRA:          -8.446
REMARK INTER:                  -7.337
REMARK INTRA:                  -1.109
REMARK UNBOUND:                -0.920
REMARK SMILES CCCCCCC=CCCCCCCCC(=O)[O-]
REMARK SMILES IDX 10 1 11 2 12 3 13 4 14 5 15 6 16 7 17 8 18 9 9 10 8 11 7 12
REMARK SMILES IDX 6 13 5 14 4 15 3 16 2 17 1 18
REMARK H PARENT
REMARK Flexibility Score: inf
ROOT
ATOM      1  C   UNL     1      33.420 168.569 157.826  1.00  0.00     0.004 C 
ENDROOT
BRANCH   1   2
ATOM      2  C   UNL     1      34.820 168.852 157.252  1.00  0.00     0.000 C 
BRANCH   2   3
ATOM      3  C   UNL     1      34.886 170.008 156.232  1.00  0.00     0.000 C 
BRANCH   3   4
ATOM      4  C   UNL     1      33.526 170.610 155.835  1.00  0.00     0.000 C 
BRANCH   4   5
ATOM      5  C   UNL     1      33.204 170.426 154.343  1.00  0.00     0.006 C 
BRANCH   5   6
ATOM      6  C   UNL     1      32.136 169.349 154.109  1.00  0.00     0.053 C 
BRANCH   6   7
ATOM      7  C   UNL     1      30.887 169.624 154.889  1.00  0.00     0.041 C 
ATOM      8  O   UNL     1      30.461 168.779 155.719  1.00  0.00    -0.550 OA
ATOM      9  O   UNL     1      30.179 170.800 154.679  1.00  0.00    -0.550 OA
ENDBRANCH   6   7
ENDBRANCH   5   6
ENDBRANCH   4   5
ENDBRANCH   3   4
ENDBRANCH   2   3
ENDBRANCH   1   2
BRANCH   1  10
ATOM     10  C   UNL     1      33.399 168.553 159.362  1.00  0.00     0.027 C 
BRANCH  10  11
ATOM     11  C   UNL     1      32.185 169.264 159.893  1.00  0.00    -0.031 C 
ATOM     12  C   UNL     1      31.207 169.687 159.078  1.00  0.00    -0.031 C 
BRANCH  12  13
ATOM     13  C   UNL     1      29.993 170.399 159.607  1.00  0.00     0.027 C 
BRANCH  13  14
ATOM     14  C   UNL     1      30.387 171.478 160.627  1.00  0.00     0.004 C 
BRANCH  14  15
ATOM     15  C   UNL     1      29.172 172.240 161.183  1.00  0.00     0.000 C 
BRANCH  15  16
ATOM     16  C   UNL     1      29.554 173.609 161.773  1.00  0.00    -0.000 C 
BRANCH  16  17
ATOM     17  C   UNL     1      28.331 174.398 162.264  1.00  0.00    -0.003 C 
ATOM     18  C   UNL     1      27.244 174.533 161.198  1.00  0.00     0.004 C 
ENDBRANCH  16  17
ENDBRANCH  15  16
ENDBRANCH  14  15
ENDBRANCH  13  14
ENDBRANCH  12  13
ENDBRANCH  10  11
ENDBRANCH   1  10
TORSDOF 13
ENDMDL
MODEL 6
REMARK VINA RESULT:    -4.257      3.678      7.316
REMARK INTER + INTRA:          -8.412
REMARK INTER:                  -7.215
REMARK INTRA:                  -1.198
REMARK UNBOUND:                -0.920
REMARK SMILES CCCCCCC=CCCCCCCCC(=O)[O-]
REMARK SMILES IDX 10 1 11 2 12 3 13 4 14 5 15 6 16 7 17 8 18 9 9 10 8 11 7 12
REMARK SMILES IDX 6 13 5 14 4 15 3 16 2 17 1 18
REMARK H PARENT
REMARK Flexibility Score: inf
ROOT
ATOM      1  C   UNL     1      30.889 169.744 159.095  1.00  0.00     0.004 C 
ENDROOT
BRANCH   1   2
ATOM      2  C   UNL     1      29.734 170.357 159.906  1.00  0.00     0.000 C 
BRANCH   2   3
ATOM      3  C   UNL     1      30.152 171.034 161.229  1.00  0.00     0.000 C 
BRANCH   3   4
ATOM      4  C   UNL     1      30.228 172.571 161.182  1.00  0.00     0.000 C 
BRANCH   4   5
ATOM      5  C   UNL     1      28.884 173.245 161.505  1.00  0.00     0.006 C 
BRANCH   5   6
ATOM      6  C   UNL     1      29.008 174.267 162.642  1.00  0.00     0.053 C 
BRANCH   6   7
ATOM      7  C   UNL     1      29.219 173.603 163.968  1.00  0.00     0.041 C 
ATOM      8  O   UNL     1      30.197 173.928 164.691  1.00  0.00    -0.550 OA
ATOM      9  O   UNL     1      28.352 172.604 164.392  1.00  0.00    -0.550 OA
ENDBRANCH   6   7
ENDBRANCH   5   6
ENDBRANCH   4   5
ENDBRANCH   3   4
ENDBRANCH   2   3
ENDBRANCH   1   2
BRANCH   1  10
ATOM     10  C   UNL     1      31.892 168.979 159.972  1.00  0.00     0.027 C 
BRANCH  10  11
ATOM     11  C   UNL     1      33.231 168.874 159.295  1.00  0.00    -0.031 C 
ATOM     12  C   UNL     1      33.376 169.119 157.984  1.00  0.00    -0.031 C 
BRANCH  12  13
ATOM     13  C   UNL     1      34.713 169.013 157.305  1.00  0.00     0.027 C 
BRANCH  13  14
ATOM     14  C   UNL     1      34.868 170.087 156.218  1.00  0.00     0.004 C 
BRANCH  14  15
ATOM     15  C   UNL     1      33.517 170.611 155.706  1.00  0.00     0.000 C 
BRANCH  15  16
ATOM     16  C   UNL     1      33.334 170.390 154.194  1.00  0.00    -0.000 C 
BRANCH  16  17
ATOM     17  C   UNL     1      32.218 169.382 153.879  1.00  0.00    -0.003 C 
ATOM     18  C   UNL     1      31.220 169.222 155.026  1.00  0.00     0.004 C 
ENDBRANCH  16  17
ENDBRANCH  15  16
ENDBRANCH  14  15
ENDBRANCH  13  14
ENDBRANCH  12  13
ENDBRANCH  10  11
ENDBRANCH   1  10
TORSDOF 13
ENDMDL
MODEL 7
REMARK VINA RESULT:    -4.199      3.091      6.919
REMARK INTER + INTRA:          -8.310
REMARK INTER:                  -6.987
REMARK INTRA:                  -1.323
REMARK UNBOUND:                -0.920
REMARK SMILES CCCCCCC=CCCCCCCCC(=O)[O-]
REMARK SMILES IDX 10 1 11 2 12 3 13 4 14 5 15 6 16 7 17 8 18 9 9 10 8 11 7 12
REMARK SMILES IDX 6 13 5 14 4 15 3 16 2 17 1 18
REMARK H PARENT
REMARK Flexibility Score: inf
ROOT
ATOM      1  C   UNL     1      29.209 170.322 158.503  1.00  0.00     0.004 C 
ENDROOT
BRANCH   1   2
ATOM      2  C   UNL     1      30.556 169.782 159.017  1.00  0.00     0.000 C 
BRANCH   2   3
ATOM      3  C   UNL     1      31.115 170.500 160.263  1.00  0.00     0.000 C 
BRANCH   3   4
ATOM      4  C   UNL     1      30.280 170.331 161.545  1.00  0.00     0.000 C 
BRANCH   4   5
ATOM      5  C   UNL     1      30.024 171.663 162.271  1.00  0.00     0.006 C 
BRANCH   5   6
ATOM      6  C   UNL     1      29.677 172.795 161.295  1.00  0.00     0.053 C 
BRANCH   6   7
ATOM      7  C   UNL     1      28.918 173.898 161.968  1.00  0.00     0.041 C 
ATOM      8  O   UNL     1      28.005 174.507 161.351  1.00  0.00    -0.550 OA
ATOM      9  O   UNL     1      29.239 174.272 163.267  1.00  0.00    -0.550 OA
ENDBRANCH   6   7
ENDBRANCH   5   6
ENDBRANCH   4   5
ENDBRANCH   3   4
ENDBRANCH   2   3
ENDBRANCH   1   2
BRANCH   1  10
ATOM     10  C   UNL     1      29.079 170.239 156.975  1.00  0.00     0.027 C 
BRANCH  10  11
ATOM     11  C   UNL     1      30.302 169.614 156.362  1.00  0.00    -0.031 C 
ATOM     12  C   UNL     1      30.810 170.058 155.201  1.00  0.00    -0.031 C 
BRANCH  12  13
ATOM     13  C   UNL     1      32.032 169.433 154.587  1.00  0.00     0.027 C 
BRANCH  13  14
ATOM     14  C   UNL     1      33.218 170.410 154.600  1.00  0.00     0.004 C 
BRANCH  14  15
ATOM     15  C   UNL     1      33.810 170.604 156.005  1.00  0.00     0.000 C 
BRANCH  15  16
ATOM     16  C   UNL     1      35.186 169.934 156.163  1.00  0.00    -0.000 C 
BRANCH  16  17
ATOM     17  C   UNL     1      35.156 168.757 157.151  1.00  0.00    -0.003 C 
ATOM     18  C   UNL     1      33.805 168.603 157.850  1.00  0.00     0.004 C 
ENDBRANCH  16  17
ENDBRANCH  15  16
ENDBRANCH  14  15
ENDBRANCH  13  14
ENDBRANCH  12  13
ENDBRANCH  10  11
ENDBRANCH   1  10
TORSDOF 13
ENDMDL
MODEL 8
REMARK VINA RESULT:    -4.146      2.050      4.476
REMARK INTER + INTRA:          -8.216
REMARK INTER:                  -7.022
REMARK INTRA:                  -1.194
REMARK UNBOUND:                -0.920
REMARK SMILES CCCCCCC=CCCCCCCCC(=O)[O-]
REMARK SMILES IDX 10 1 11 2 12 3 13 4 14 5 15 6 16 7 17 8 18 9 9 10 8 11 7 12
REMARK SMILES IDX 6 13 5 14 4 15 3 16 2 17 1 18
REMARK H PARENT
REMARK Flexibility Score: inf
ROOT
ATOM      1  C   UNL     1      31.046 169.943 160.337  1.00  0.00     0.004 C 
ENDROOT
BRANCH   1   2
ATOM      2  C   UNL     1      32.066 170.158 159.204  1.00  0.00     0.000 C 
BRANCH   2   3
ATOM      3  C   UNL     1      32.893 168.912 158.824  1.00  0.00     0.000 C 
BRANCH   3   4
ATOM      4  C   UNL     1      33.947 169.137 157.725  1.00  0.00     0.000 C 
BRANCH   4   5
ATOM      5  C   UNL     1      33.757 170.467 156.977  1.00  0.00     0.006 C 
BRANCH   5   6
ATOM      6  C   UNL     1      34.110 170.350 155.488  1.00  0.00     0.053 C 
BRANCH   6   7
ATOM      7  C   UNL     1      32.889 170.396 154.621  1.00  0.00     0.041 C 
ATOM      8  O   UNL     1      32.604 169.420 153.878  1.00  0.00    -0.550 OA
ATOM      9  O   UNL     1      32.084 171.527 154.611  1.00  0.00    -0.550 OA
ENDBRANCH   6   7
ENDBRANCH   5   6
ENDBRANCH   4   5
ENDBRANCH   3   4
ENDBRANCH   2   3
ENDBRANCH   1   2
BRANCH   1  10
ATOM     10  C   UNL     1      29.825 170.867 160.221  1.00  0.00     0.027 C 
BRANCH  10  11
ATOM     11  C   UNL     1      30.025 172.128 161.015  1.00  0.00    -0.031 C 
ATOM     12  C   UNL     1      28.985 172.866 161.434  1.00  0.00    -0.031 C 
BRANCH  12  13
ATOM     13  C   UNL     1      29.184 174.128 162.226  1.00  0.00     0.027 C 
BRANCH  13  14
ATOM     14  C   UNL     1      28.791 173.925 163.697  1.00  0.00     0.004 C 
BRANCH  14  15
ATOM     15  C   UNL     1      30.007 173.892 164.637  1.00  0.00     0.000 C 
BRANCH  15  16
ATOM     16  C   UNL     1      30.200 172.518 165.303  1.00  0.00    -0.000 C 
BRANCH  16  17
ATOM     17  C   UNL     1      31.101 171.587 164.478  1.00  0.00    -0.003 C 
ATOM     18  C   UNL     1      30.443 170.242 164.171  1.00  0.00     0.004 C 
ENDBRANCH  16  17
ENDBRANCH  15  16
ENDBRANCH  14  15
ENDBRANCH  13  14
ENDBRANCH  12  13
ENDBRANCH  10  11
ENDBRANCH   1  10
TORSDOF 13
ENDMDL
MODEL 9
REMARK VINA RESULT:    -4.069      2.585      4.066
REMARK INTER + INTRA:          -8.082
REMARK INTER:                  -6.743
REMARK INTRA:                  -1.339
REMARK UNBOUND:                -0.920
REMARK SMILES CCCCCCC=CCCCCCCCC(=O)[O-]
REMARK SMILES IDX 10 1 11 2 12 3 13 4 14 5 15 6 16 7 17 8 18 9 9 10 8 11 7 12
REMARK SMILES IDX 6 13 5 14 4 15 3 16 2 17 1 18
REMARK H PARENT
REMARK Flexibility Score: inf
ROOT
ATOM      1  C   UNL     1      29.319 170.687 154.823  1.00  0.00     0.004 C 
ENDROOT
BRANCH   1   2
ATOM      2  C   UNL     1      29.944 172.074 154.592  1.00  0.00     0.000 C 
BRANCH   2   3
ATOM      3  C   UNL     1      31.423 172.060 154.152  1.00  0.00     0.000 C 
BRANCH   3   4
ATOM      4  C   UNL     1      32.010 170.664 153.875  1.00  0.00     0.000 C 
BRANCH   4   5
ATOM      5  C   UNL     1      33.408 170.472 154.487  1.00  0.00     0.006 C 
BRANCH   5   6
ATOM      6  C   UNL     1      33.397 170.626 156.014  1.00  0.00     0.053 C 
BRANCH   6   7
ATOM      7  C   UNL     1      33.964 169.421 156.700  1.00  0.00     0.041 C 
ATOM      8  O   UNL     1      33.236 168.420 156.927  1.00  0.00    -0.550 OA
ATOM      9  O   UNL     1      35.290 169.416 157.115  1.00  0.00    -0.550 OA
ENDBRANCH   6   7
ENDBRANCH   5   6
ENDBRANCH   4   5
ENDBRANCH   3   4
ENDBRANCH   2   3
ENDBRANCH   1   2
BRANCH   1  10
ATOM     10  C   UNL     1      28.884 170.464 156.279  1.00  0.00     0.027 C 
BRANCH  10  11
ATOM     11  C   UNL     1      30.072 170.205 157.164  1.00  0.00    -0.031 C 
ATOM     12  C   UNL     1      29.936 170.032 158.488  1.00  0.00    -0.031 C 
BRANCH  12  13
ATOM     13  C   UNL     1      31.122 169.774 159.374  1.00  0.00     0.027 C 
BRANCH  13  14
ATOM     14  C   UNL     1      30.844 170.225 160.816  1.00  0.00     0.004 C 
BRANCH  14  15
ATOM     15  C   UNL     1      29.577 171.089 160.933  1.00  0.00     0.000 C 
BRANCH  15  16
ATOM     16  C   UNL     1      29.640 172.072 162.115  1.00  0.00    -0.000 C 
BRANCH  16  17
ATOM     17  C   UNL     1      29.703 173.537 161.658  1.00  0.00    -0.003 C 
ATOM     18  C   UNL     1      28.375 174.273 161.837  1.00  0.00     0.004 C 
ENDBRANCH  16  17
ENDBRANCH  15  16
ENDBRANCH  14  15
ENDBRANCH  13  14
ENDBRANCH  12  13
ENDBRANCH  10  11
ENDBRANCH   1  10
TORSDOF 13
ENDMDL
