MODEL 1
REMARK VINA RESULT:    -6.649      0.000      0.000
REMARK INTER + INTRA:         -11.595
REMARK INTER:                 -10.341
REMARK INTRA:                  -1.254
REMARK UNBOUND:                -1.254
REMARK SMILES C[C@]12C[C@]3(O)O[C@H](O1)[C@@]1(COC(=O)c4ccccc4)[C@@H]3C[C@]12O[C@H]1O[C@H](CO)[C@@H](O)[C@H](O)[C@H]1O
REMARK SMILES IDX 1 1 2 2 3 3 4 4 20 5 21 6 22 7 9 8 7 9 8 10 6 11 23 12 24 13
REMARK SMILES IDX 33 14 25 15 31 16 26 17 29 18 34 19 32 21 27 23 28 24 30 26
REMARK SMILES IDX 5 28 10 30 11 31 12 32 13 33 14 34 15 35 19 36 16 37 18 38
REMARK SMILES IDX 17 39
REMARK H PARENT 34 20 32 22 28 25 30 27 5 29
REMARK Flexibility Score: inf
ROOT
ATOM      1  C   UNL     1       3.067  -3.046  25.949  1.00  0.00     0.046 C 
ATOM      2  C   UNL     1       2.895  -3.436  24.482  1.00  0.00     0.104 C 
ATOM      3  C   UNL     1       3.715  -4.734  24.137  1.00  0.00     0.104 C 
ATOM      4  C   UNL     1       3.341  -5.013  22.642  1.00  0.00     0.175 C 
ATOM      5  C   UNL     1       1.792  -4.964  22.452  1.00  0.00     0.070 C 
ATOM      6  C   UNL     1       1.015  -5.093  23.775  1.00  0.00     0.050 C 
ATOM      7  C   UNL     1       1.395  -3.609  24.025  1.00  0.00     0.115 C 
ATOM      8  C   UNL     1       1.615  -3.449  22.520  1.00  0.00     0.096 C 
ATOM      9  C   UNL     1       2.996  -2.842  22.340  1.00  0.00     0.267 C 
ATOM     10  O   UNL     1       3.408  -2.428  23.633  1.00  0.00    -0.342 OA
ATOM     11  O   UNL     1       3.826  -3.907  21.903  1.00  0.00    -0.320 OA
ENDROOT
BRANCH   7  12
ATOM     12  O   UNL     1       0.506  -2.649  24.602  1.00  0.00    -0.339 OA
BRANCH  12  13
ATOM     13  C   UNL     1      -0.323  -3.145  25.643  1.00  0.00     0.282 C 
ATOM     14  C   UNL     1      -1.805  -3.087  25.220  1.00  0.00     0.202 C 
ATOM     15  O   UNL     1      -0.111  -2.458  26.869  1.00  0.00    -0.341 OA
ATOM     16  C   UNL     1      -2.297  -1.631  25.156  1.00  0.00     0.179 C 
ATOM     17  C   UNL     1      -0.460  -1.086  26.775  1.00  0.00     0.178 C 
ATOM     18  C   UNL     1      -1.965  -0.916  26.473  1.00  0.00     0.177 C 
BRANCH  14  19
ATOM     19  O   UNL     1      -1.954  -3.707  23.968  1.00  0.00    -0.385 OA
ATOM     20  H   UNL     1      -2.683  -3.229  23.493  1.00  0.00     0.211 HD
ENDBRANCH  14  19
BRANCH  16  21
ATOM     21  O   UNL     1      -3.687  -1.603  24.953  1.00  0.00    -0.387 OA
ATOM     22  H   UNL     1      -3.965  -0.650  24.981  1.00  0.00     0.211 HD
ENDBRANCH  16  21
BRANCH  17  23
ATOM     23  C   UNL     1      -0.056  -0.390  28.083  1.00  0.00     0.191 C 
BRANCH  23  24
ATOM     24  O   UNL     1       0.335   0.936  27.847  1.00  0.00    -0.394 OA
ATOM     25  H   UNL     1       0.219   1.428  28.701  1.00  0.00     0.210 HD
ENDBRANCH  23  24
ENDBRANCH  17  23
BRANCH  18  26
ATOM     26  O   UNL     1      -2.273   0.449  26.362  1.00  0.00    -0.387 OA
ATOM     27  H   UNL     1      -3.221   0.509  26.074  1.00  0.00     0.211 HD
ENDBRANCH  18  26
ENDBRANCH  12  13
ENDBRANCH   7  12
BRANCH   4  28
ATOM     28  O   UNL     1       3.877  -6.220  22.172  1.00  0.00    -0.365 OA
ATOM     29  H   UNL     1       3.479  -6.942  22.725  1.00  0.00     0.214 HD
ENDBRANCH   4  28
BRANCH   8  30
ATOM     30  C   UNL     1       0.476  -2.848  21.667  1.00  0.00     0.249 C 
BRANCH  30  31
ATOM     31  O   UNL     1       1.005  -2.178  20.523  1.00  0.00    -0.461 OA
BRANCH  31  32
ATOM     32  C   UNL     1       0.531  -2.363  19.218  1.00  0.00     0.338 C 
ATOM     33  O   UNL     1      -0.473  -1.719  18.808  1.00  0.00    -0.246 OA
BRANCH  32  34
ATOM     34  C   UNL     1       1.227  -3.305  18.314  1.00  0.00     0.060 A 
ATOM     35  C   UNL     1       1.176  -3.131  16.918  1.00  0.00     0.015 A 
ATOM     36  C   UNL     1       1.945  -4.395  18.841  1.00  0.00     0.015 A 
ATOM     37  C   UNL     1       1.833  -4.030  16.070  1.00  0.00     0.001 A 
ATOM     38  C   UNL     1       2.600  -5.289  17.988  1.00  0.00     0.001 A 
ATOM     39  C   UNL     1       2.545  -5.107  16.605  1.00  0.00     0.000 A 
ENDBRANCH  32  34
ENDBRANCH  31  32
ENDBRANCH  30  31
ENDBRANCH   8  30
TORSDOF 12
ENDMDL
MODEL 2
REMARK VINA RESULT:    -6.024      3.530      6.677
REMARK INTER + INTRA:         -10.623
REMARK INTER:                  -9.978
REMARK INTRA:                  -0.645
REMARK UNBOUND:                -1.254
REMARK SMILES C[C@]12C[C@]3(O)O[C@H](O1)[C@@]1(COC(=O)c4ccccc4)[C@@H]3C[C@]12O[C@H]1O[C@H](CO)[C@@H](O)[C@H](O)[C@H]1O
REMARK SMILES IDX 1 1 2 2 3 3 4 4 20 5 21 6 22 7 9 8 7 9 8 10 6 11 23 12 24 13
REMARK SMILES IDX 33 14 25 15 31 16 26 17 29 18 34 19 32 21 27 23 28 24 30 26
REMARK SMILES IDX 5 28 10 30 11 31 12 32 13 33 14 34 15 35 19 36 16 37 18 38
REMARK SMILES IDX 17 39
REMARK H PARENT 34 20 32 22 28 25 30 27 5 29
REMARK Flexibility Score: inf
ROOT
ATOM      1  C   UNL     1      -2.876  -3.631  25.187  1.00  0.00     0.046 C 
ATOM      2  C   UNL     1      -3.312  -2.437  24.339  1.00  0.00     0.104 C 
ATOM      3  C   UNL     1      -4.106  -1.387  25.200  1.00  0.00     0.104 C 
ATOM      4  C   UNL     1      -4.380  -0.221  24.189  1.00  0.00     0.175 C 
ATOM      5  C   UNL     1      -3.065   0.173  23.447  1.00  0.00     0.070 C 
ATOM      6  C   UNL     1      -1.794  -0.330  24.157  1.00  0.00     0.050 C 
ATOM      7  C   UNL     1      -2.138  -1.723  23.565  1.00  0.00     0.115 C 
ATOM      8  C   UNL     1      -2.984  -1.022  22.501  1.00  0.00     0.096 C 
ATOM      9  C   UNL     1      -4.351  -1.685  22.521  1.00  0.00     0.267 C 
ATOM     10  O   UNL     1      -4.207  -2.846  23.323  1.00  0.00    -0.342 OA
ATOM     11  O   UNL     1      -5.209  -0.766  23.179  1.00  0.00    -0.320 OA
ENDROOT
BRANCH   7  12
ATOM     12  O   UNL     1      -1.159  -2.628  23.047  1.00  0.00    -0.339 OA
BRANCH  12  13
ATOM     13  C   UNL     1       0.186  -2.183  23.148  1.00  0.00     0.282 C 
ATOM     14  C   UNL     1       1.063  -2.887  22.092  1.00  0.00     0.202 C 
ATOM     15  O   UNL     1       0.712  -2.363  24.456  1.00  0.00    -0.341 OA
ATOM     16  C   UNL     1       1.246  -4.374  22.439  1.00  0.00     0.179 C 
ATOM     17  C   UNL     1       0.775  -3.733  24.819  1.00  0.00     0.178 C 
ATOM     18  C   UNL     1       1.733  -4.509  23.889  1.00  0.00     0.177 C 
BRANCH  14  19
ATOM     19  O   UNL     1       0.464  -2.752  20.828  1.00  0.00    -0.385 OA
ATOM     20  H   UNL     1       0.824  -3.481  20.257  1.00  0.00     0.211 HD
ENDBRANCH  14  19
BRANCH  16  21
ATOM     21  O   UNL     1       2.191  -4.955  21.578  1.00  0.00    -0.387 OA
ATOM     22  H   UNL     1       3.089  -4.708  21.924  1.00  0.00     0.211 HD
ENDBRANCH  16  21
BRANCH  17  23
ATOM     23  C   UNL     1       1.203  -3.827  26.290  1.00  0.00     0.191 C 
BRANCH  23  24
ATOM     24  O   UNL     1       0.086  -3.912  27.134  1.00  0.00    -0.394 OA
ATOM     25  H   UNL     1      -0.659  -3.443  26.675  1.00  0.00     0.210 HD
ENDBRANCH  23  24
ENDBRANCH  17  23
BRANCH  18  26
ATOM     26  O   UNL     1       1.753  -5.864  24.258  1.00  0.00    -0.387 OA
ATOM     27  H   UNL     1       0.887  -6.054  24.704  1.00  0.00     0.211 HD
ENDBRANCH  18  26
ENDBRANCH  12  13
ENDBRANCH   7  12
BRANCH   4  28
ATOM     28  O   UNL     1      -4.977   0.890  24.800  1.00  0.00    -0.365 OA
ATOM     29  H   UNL     1      -4.237   1.473  25.112  1.00  0.00     0.214 HD
ENDBRANCH   4  28
BRANCH   8  30
ATOM     30  C   UNL     1      -2.357  -0.764  21.113  1.00  0.00     0.249 C 
BRANCH  30  31
ATOM     31  O   UNL     1      -3.345  -0.872  20.088  1.00  0.00    -0.461 OA
BRANCH  31  32
ATOM     32  C   UNL     1      -3.111  -0.578  18.739  1.00  0.00     0.338 C 
ATOM     33  O   UNL     1      -2.075  -1.011  18.164  1.00  0.00    -0.246 OA
BRANCH  32  34
ATOM     34  C   UNL     1      -4.096   0.230  17.985  1.00  0.00     0.060 A 
ATOM     35  C   UNL     1      -4.443  -0.111  16.664  1.00  0.00     0.015 A 
ATOM     36  C   UNL     1      -4.692   1.357  18.580  1.00  0.00     0.015 A 
ATOM     37  C   UNL     1      -5.370   0.661  15.957  1.00  0.00     0.001 A 
ATOM     38  C   UNL     1      -5.620   2.124  17.867  1.00  0.00     0.001 A 
ATOM     39  C   UNL     1      -5.959   1.777  16.558  1.00  0.00     0.000 A 
ENDBRANCH  32  34
ENDBRANCH  31  32
ENDBRANCH  30  31
ENDBRANCH   8  30
TORSDOF 12
ENDMDL
MODEL 3
REMARK VINA RESULT:    -5.990      3.197      6.616
REMARK INTER + INTRA:         -10.571
REMARK INTER:                  -9.503
REMARK INTRA:                  -1.068
REMARK UNBOUND:                -1.254
REMARK SMILES C[C@]12C[C@]3(O)O[C@H](O1)[C@@]1(COC(=O)c4ccccc4)[C@@H]3C[C@]12O[C@H]1O[C@H](CO)[C@@H](O)[C@H](O)[C@H]1O
REMARK SMILES IDX 1 1 2 2 3 3 4 4 20 5 21 6 22 7 9 8 7 9 8 10 6 11 23 12 24 13
REMARK SMILES IDX 33 14 25 15 31 16 26 17 29 18 34 19 32 21 27 23 28 24 30 26
REMARK SMILES IDX 5 28 10 30 11 31 12 32 13 33 14 34 15 35 19 36 16 37 18 38
REMARK SMILES IDX 17 39
REMARK H PARENT 34 20 32 22 28 25 30 27 5 29
REMARK Flexibility Score: inf
ROOT
ATOM      1  C   UNL     1      -1.275  -3.329  26.742  1.00  0.00     0.046 C 
ATOM      2  C   UNL     1      -2.113  -2.323  25.956  1.00  0.00     0.104 C 
ATOM      3  C   UNL     1      -2.582  -1.133  26.872  1.00  0.00     0.104 C 
ATOM      4  C   UNL     1      -3.334  -0.184  25.878  1.00  0.00     0.175 C 
ATOM      5  C   UNL     1      -2.464   0.071  24.607  1.00  0.00     0.070 C 
ATOM      6  C   UNL     1      -0.978  -0.279  24.810  1.00  0.00     0.050 C 
ATOM      7  C   UNL     1      -1.411  -1.762  24.660  1.00  0.00     0.115 C 
ATOM      8  C   UNL     1      -2.668  -1.283  23.931  1.00  0.00     0.096 C 
ATOM      9  C   UNL     1      -3.852  -1.939  24.622  1.00  0.00     0.267 C 
ATOM     10  O   UNL     1      -3.302  -2.925  25.481  1.00  0.00    -0.342 OA
ATOM     11  O   UNL     1      -4.449  -0.917  25.405  1.00  0.00    -0.320 OA
ENDROOT
BRANCH   7  12
ATOM     12  O   UNL     1      -0.650  -2.742  23.950  1.00  0.00    -0.339 OA
BRANCH  12  13
ATOM     13  C   UNL     1       0.701  -2.386  23.694  1.00  0.00     0.282 C 
ATOM     14  C   UNL     1       1.196  -3.061  22.399  1.00  0.00     0.202 C 
ATOM     15  O   UNL     1       1.552  -2.692  24.790  1.00  0.00    -0.341 OA
ATOM     16  C   UNL     1       1.352  -4.579  22.600  1.00  0.00     0.179 C 
ATOM     17  C   UNL     1       1.607  -4.086  25.047  1.00  0.00     0.178 C 
ATOM     18  C   UNL     1       2.208  -4.847  23.846  1.00  0.00     0.177 C 
BRANCH  14  19
ATOM     19  O   UNL     1       0.284  -2.799  21.362  1.00  0.00    -0.385 OA
ATOM     20  H   UNL     1       0.544  -1.929  20.961  1.00  0.00     0.211 HD
ENDBRANCH  14  19
BRANCH  16  21
ATOM     21  O   UNL     1       1.976  -5.150  21.478  1.00  0.00    -0.387 OA
ATOM     22  H   UNL     1       1.415  -4.927  20.690  1.00  0.00     0.211 HD
ENDBRANCH  16  21
BRANCH  17  23
ATOM     23  C   UNL     1       2.416  -4.313  26.332  1.00  0.00     0.191 C 
BRANCH  23  24
ATOM     24  O   UNL     1       2.217  -5.610  26.829  1.00  0.00    -0.394 OA
ATOM     25  H   UNL     1       1.239  -5.723  26.957  1.00  0.00     0.210 HD
ENDBRANCH  23  24
ENDBRANCH  17  23
BRANCH  18  26
ATOM     26  O   UNL     1       2.225  -6.224  24.121  1.00  0.00    -0.387 OA
ATOM     27  H   UNL     1       1.293  -6.486  24.343  1.00  0.00     0.211 HD
ENDBRANCH  18  26
ENDBRANCH  12  13
ENDBRANCH   7  12
BRANCH   4  28
ATOM     28  O   UNL     1      -3.727   1.020  26.479  1.00  0.00    -0.365 OA
ATOM     29  H   UNL     1      -3.429   1.749  25.876  1.00  0.00     0.214 HD
ENDBRANCH   4  28
BRANCH   8  30
ATOM     30  C   UNL     1      -2.674  -1.290  22.387  1.00  0.00     0.249 C 
BRANCH  30  31
ATOM     31  O   UNL     1      -4.006  -1.425  21.890  1.00  0.00    -0.461 OA
BRANCH  31  32
ATOM     32  C   UNL     1      -4.781  -0.356  21.425  1.00  0.00     0.338 C 
ATOM     33  O   UNL     1      -5.422   0.366  22.236  1.00  0.00    -0.246 OA
BRANCH  32  34
ATOM     34  C   UNL     1      -4.830  -0.064  19.975  1.00  0.00     0.060 A 
ATOM     35  C   UNL     1      -3.787  -0.475  19.123  1.00  0.00     0.015 A 
ATOM     36  C   UNL     1      -5.921   0.638  19.430  1.00  0.00     0.015 A 
ATOM     37  C   UNL     1      -3.839  -0.190  17.755  1.00  0.00     0.001 A 
ATOM     38  C   UNL     1      -5.967   0.919  18.060  1.00  0.00     0.001 A 
ATOM     39  C   UNL     1      -4.929   0.505  17.223  1.00  0.00     0.000 A 
ENDBRANCH  32  34
ENDBRANCH  31  32
ENDBRANCH  30  31
ENDBRANCH   8  30
TORSDOF 12
ENDMDL
MODEL 4
REMARK VINA RESULT:    -5.734      1.569      2.712
REMARK INTER + INTRA:         -10.173
REMARK INTER:                  -9.528
REMARK INTRA:                  -0.645
REMARK UNBOUND:                -1.254
REMARK SMILES C[C@]12C[C@]3(O)O[C@H](O1)[C@@]1(COC(=O)c4ccccc4)[C@@H]3C[C@]12O[C@H]1O[C@H](CO)[C@@H](O)[C@H](O)[C@H]1O
REMARK SMILES IDX 1 1 2 2 3 3 4 4 20 5 21 6 22 7 9 8 7 9 8 10 6 11 23 12 24 13
REMARK SMILES IDX 33 14 25 15 31 16 26 17 29 18 34 19 32 21 27 23 28 24 30 26
REMARK SMILES IDX 5 28 10 30 11 31 12 32 13 33 14 34 15 35 19 36 16 37 18 38
REMARK SMILES IDX 17 39
REMARK H PARENT 34 20 32 22 28 25 30 27 5 29
REMARK Flexibility Score: inf
ROOT
ATOM      1  C   UNL     1       2.822  -2.964  25.860  1.00  0.00     0.046 C 
ATOM      2  C   UNL     1       2.712  -3.390  24.397  1.00  0.00     0.104 C 
ATOM      3  C   UNL     1       3.555  -4.687  24.116  1.00  0.00     0.104 C 
ATOM      4  C   UNL     1       3.244  -5.004  22.613  1.00  0.00     0.175 C 
ATOM      5  C   UNL     1       1.704  -4.973  22.360  1.00  0.00     0.070 C 
ATOM      6  C   UNL     1       0.875  -5.079  23.654  1.00  0.00     0.050 C 
ATOM      7  C   UNL     1       1.233  -3.586  23.884  1.00  0.00     0.115 C 
ATOM      8  C   UNL     1       1.512  -3.459  22.386  1.00  0.00     0.096 C 
ATOM      9  C   UNL     1       2.894  -2.844  22.248  1.00  0.00     0.267 C 
ATOM     10  O   UNL     1       3.251  -2.397  23.546  1.00  0.00    -0.342 OA
ATOM     11  O   UNL     1       3.749  -3.911  21.869  1.00  0.00    -0.320 OA
ENDROOT
BRANCH   7  12
ATOM     12  O   UNL     1       0.314  -2.621  24.402  1.00  0.00    -0.339 OA
BRANCH  12  13
ATOM     13  C   UNL     1      -0.654  -3.135  25.306  1.00  0.00     0.282 C 
ATOM     14  C   UNL     1      -2.077  -2.853  24.784  1.00  0.00     0.202 C 
ATOM     15  O   UNL     1      -0.479  -2.628  26.623  1.00  0.00    -0.341 OA
ATOM     16  C   UNL     1      -2.402  -1.352  24.870  1.00  0.00     0.179 C 
ATOM     17  C   UNL     1      -0.669  -1.223  26.679  1.00  0.00     0.178 C 
ATOM     18  C   UNL     1      -2.113  -0.842  26.288  1.00  0.00     0.177 C 
BRANCH  14  19
ATOM     19  O   UNL     1      -2.180  -3.299  23.455  1.00  0.00    -0.385 OA
ATOM     20  H   UNL     1      -2.717  -4.135  23.471  1.00  0.00     0.211 HD
ENDBRANCH  14  19
BRANCH  16  21
ATOM     21  O   UNL     1      -3.756  -1.136  24.567  1.00  0.00    -0.387 OA
ATOM     22  H   UNL     1      -4.176  -0.746  25.379  1.00  0.00     0.211 HD
ENDBRANCH  16  21
BRANCH  17  23
ATOM     23  C   UNL     1      -0.310  -0.740  28.091  1.00  0.00     0.191 C 
BRANCH  23  24
ATOM     24  O   UNL     1       0.228   0.556  28.058  1.00  0.00    -0.394 OA
ATOM     25  H   UNL     1      -0.229   1.076  28.769  1.00  0.00     0.210 HD
ENDBRANCH  23  24
ENDBRANCH  17  23
BRANCH  18  26
ATOM     26  O   UNL     1      -2.261   0.554  26.330  1.00  0.00    -0.387 OA
ATOM     27  H   UNL     1      -3.111   0.768  25.864  1.00  0.00     0.211 HD
ENDBRANCH  18  26
ENDBRANCH  12  13
ENDBRANCH   7  12
BRANCH   4  28
ATOM     28  O   UNL     1       3.808  -6.217  22.194  1.00  0.00    -0.365 OA
ATOM     29  H   UNL     1       4.709  -6.269  22.607  1.00  0.00     0.214 HD
ENDBRANCH   4  28
BRANCH   8  30
ATOM     30  C   UNL     1       0.403  -2.888  21.474  1.00  0.00     0.249 C 
BRANCH  30  31
ATOM     31  O   UNL     1       0.970  -2.283  20.312  1.00  0.00    -0.461 OA
BRANCH  31  32
ATOM     32  C   UNL     1       0.236  -1.937  19.171  1.00  0.00     0.338 C 
ATOM     33  O   UNL     1       0.725  -2.117  18.022  1.00  0.00    -0.246 OA
BRANCH  32  34
ATOM     34  C   UNL     1      -1.125  -1.377  19.319  1.00  0.00     0.060 A 
ATOM     35  C   UNL     1      -1.617  -1.007  20.584  1.00  0.00     0.015 A 
ATOM     36  C   UNL     1      -1.950  -1.213  18.191  1.00  0.00     0.015 A 
ATOM     37  C   UNL     1      -2.907  -0.482  20.715  1.00  0.00     0.001 A 
ATOM     38  C   UNL     1      -3.239  -0.687  18.328  1.00  0.00     0.001 A 
ATOM     39  C   UNL     1      -3.717  -0.321  19.588  1.00  0.00     0.000 A 
ENDBRANCH  32  34
ENDBRANCH  31  32
ENDBRANCH  30  31
ENDBRANCH   8  30
TORSDOF 12
ENDMDL
MODEL 5
REMARK VINA RESULT:    -5.642      2.001      7.336
REMARK INTER + INTRA:         -10.029
REMARK INTER:                  -8.543
REMARK INTRA:                  -1.485
REMARK UNBOUND:                -1.254
REMARK SMILES C[C@]12C[C@]3(O)O[C@H](O1)[C@@]1(COC(=O)c4ccccc4)[C@@H]3C[C@]12O[C@H]1O[C@H](CO)[C@@H](O)[C@H](O)[C@H]1O
REMARK SMILES IDX 1 1 2 2 3 3 4 4 20 5 21 6 22 7 9 8 7 9 8 10 6 11 23 12 24 13
REMARK SMILES IDX 33 14 25 15 31 16 26 17 29 18 34 19 32 21 27 23 28 24 30 26
REMARK SMILES IDX 5 28 10 30 11 31 12 32 13 33 14 34 15 35 19 36 16 37 18 38
REMARK SMILES IDX 17 39
REMARK H PARENT 34 20 32 22 28 25 30 27 5 29
REMARK Flexibility Score: inf
ROOT
ATOM      1  C   UNL     1       2.933  -5.410  20.498  1.00  0.00     0.046 C 
ATOM      2  C   UNL     1       2.509  -4.890  21.871  1.00  0.00     0.104 C 
ATOM      3  C   UNL     1       3.731  -4.830  22.859  1.00  0.00     0.104 C 
ATOM      4  C   UNL     1       3.119  -4.198  24.156  1.00  0.00     0.175 C 
ATOM      5  C   UNL     1       2.304  -2.915  23.801  1.00  0.00     0.070 C 
ATOM      6  C   UNL     1       2.643  -2.347  22.410  1.00  0.00     0.050 C 
ATOM      7  C   UNL     1       1.770  -3.497  21.840  1.00  0.00     0.115 C 
ATOM      8  C   UNL     1       1.078  -3.597  23.200  1.00  0.00     0.096 C 
ATOM      9  C   UNL     1       1.144  -5.056  23.619  1.00  0.00     0.267 C 
ATOM     10  O   UNL     1       1.579  -5.769  22.473  1.00  0.00    -0.342 OA
ATOM     11  O   UNL     1       2.149  -5.119  24.619  1.00  0.00    -0.320 OA
ENDROOT
BRANCH   7  12
ATOM     12  O   UNL     1       0.882  -3.343  20.730  1.00  0.00    -0.339 OA
BRANCH  12  13
ATOM     13  C   UNL     1       1.120  -2.199  19.922  1.00  0.00     0.282 C 
ATOM     14  C   UNL     1      -0.212  -1.628  19.396  1.00  0.00     0.202 C 
ATOM     15  O   UNL     1       2.018  -2.475  18.855  1.00  0.00    -0.341 OA
ATOM     16  C   UNL     1      -0.834  -2.570  18.351  1.00  0.00     0.179 C 
ATOM     17  C   UNL     1       1.488  -3.430  17.950  1.00  0.00     0.178 C 
ATOM     18  C   UNL     1       0.207  -2.901  17.272  1.00  0.00     0.177 C 
BRANCH  14  19
ATOM     19  O   UNL     1      -1.096  -1.446  20.474  1.00  0.00    -0.385 OA
ATOM     20  H   UNL     1      -0.638  -0.855  21.128  1.00  0.00     0.211 HD
ENDBRANCH  14  19
BRANCH  16  21
ATOM     21  O   UNL     1      -1.944  -1.954  17.750  1.00  0.00    -0.387 OA
ATOM     22  H   UNL     1      -2.685  -2.615  17.763  1.00  0.00     0.211 HD
ENDBRANCH  16  21
BRANCH  17  23
ATOM     23  C   UNL     1       2.575  -3.784  16.925  1.00  0.00     0.191 C 
BRANCH  23  24
ATOM     24  O   UNL     1       2.300  -5.012  16.304  1.00  0.00    -0.394 OA
ATOM     25  H   UNL     1       3.047  -5.625  16.533  1.00  0.00     0.210 HD
ENDBRANCH  23  24
ENDBRANCH  17  23
BRANCH  18  26
ATOM     26  O   UNL     1      -0.306  -3.878  16.403  1.00  0.00    -0.387 OA
ATOM     27  H   UNL     1       0.267  -3.871  15.591  1.00  0.00     0.211 HD
ENDBRANCH  18  26
ENDBRANCH  12  13
ENDBRANCH   7  12
BRANCH   4  28
ATOM     28  O   UNL     1       4.088  -3.936  25.134  1.00  0.00    -0.365 OA
ATOM     29  H   UNL     1       4.817  -3.435  24.683  1.00  0.00     0.214 HD
ENDBRANCH   4  28
BRANCH   8  30
ATOM     30  C   UNL     1      -0.276  -2.879  23.393  1.00  0.00     0.249 C 
BRANCH  30  31
ATOM     31  O   UNL     1      -1.243  -3.771  23.950  1.00  0.00    -0.461 OA
BRANCH  31  32
ATOM     32  C   UNL     1      -1.960  -3.515  25.124  1.00  0.00     0.338 C 
ATOM     33  O   UNL     1      -3.168  -3.867  25.222  1.00  0.00    -0.246 OA
BRANCH  32  34
ATOM     34  C   UNL     1      -1.290  -2.844  26.260  1.00  0.00     0.060 A 
ATOM     35  C   UNL     1      -0.229  -3.470  26.940  1.00  0.00     0.015 A 
ATOM     36  C   UNL     1      -1.713  -1.569  26.681  1.00  0.00     0.015 A 
ATOM     37  C   UNL     1       0.396  -2.831  28.016  1.00  0.00     0.001 A 
ATOM     38  C   UNL     1      -1.084  -0.934  27.757  1.00  0.00     0.001 A 
ATOM     39  C   UNL     1      -0.030  -1.564  28.423  1.00  0.00     0.000 A 
ENDBRANCH  32  34
ENDBRANCH  31  32
ENDBRANCH  30  31
ENDBRANCH   8  30
TORSDOF 12
ENDMDL
MODEL 6
REMARK VINA RESULT:    -5.582      3.267      7.007
REMARK INTER + INTRA:          -9.936
REMARK INTER:                  -9.282
REMARK INTRA:                  -0.653
REMARK UNBOUND:                -1.254
REMARK SMILES C[C@]12C[C@]3(O)O[C@H](O1)[C@@]1(COC(=O)c4ccccc4)[C@@H]3C[C@]12O[C@H]1O[C@H](CO)[C@@H](O)[C@H](O)[C@H]1O
REMARK SMILES IDX 1 1 2 2 3 3 4 4 20 5 21 6 22 7 9 8 7 9 8 10 6 11 23 12 24 13
REMARK SMILES IDX 33 14 25 15 31 16 26 17 29 18 34 19 32 21 27 23 28 24 30 26
REMARK SMILES IDX 5 28 10 30 11 31 12 32 13 33 14 34 15 35 19 36 16 37 18 38
REMARK SMILES IDX 17 39
REMARK H PARENT 34 20 32 22 28 25 30 27 5 29
REMARK Flexibility Score: inf
ROOT
ATOM      1  C   UNL     1      -4.070   2.000  23.876  1.00  0.00     0.046 C 
ATOM      2  C   UNL     1      -3.381   0.843  24.597  1.00  0.00     0.104 C 
ATOM      3  C   UNL     1      -4.045   0.567  25.996  1.00  0.00     0.104 C 
ATOM      4  C   UNL     1      -3.270  -0.687  26.525  1.00  0.00     0.175 C 
ATOM      5  C   UNL     1      -3.214  -1.794  25.426  1.00  0.00     0.070 C 
ATOM      6  C   UNL     1      -4.256  -1.592  24.309  1.00  0.00     0.050 C 
ATOM      7  C   UNL     1      -3.306  -0.493  23.762  1.00  0.00     0.115 C 
ATOM      8  C   UNL     1      -2.159  -1.154  24.528  1.00  0.00     0.096 C 
ATOM      9  C   UNL     1      -1.494  -0.063  25.350  1.00  0.00     0.267 C 
ATOM     10  O   UNL     1      -2.032   1.162  24.876  1.00  0.00    -0.342 OA
ATOM     11  O   UNL     1      -1.924  -0.277  26.685  1.00  0.00    -0.320 OA
ENDROOT
BRANCH   7  12
ATOM     12  O   UNL     1      -3.051  -0.286  22.371  1.00  0.00    -0.339 OA
BRANCH  12  13
ATOM     13  C   UNL     1      -3.852  -1.061  21.489  1.00  0.00     0.282 C 
ATOM     14  C   UNL     1      -3.261  -1.033  20.065  1.00  0.00     0.202 C 
ATOM     15  O   UNL     1      -5.209  -0.640  21.491  1.00  0.00    -0.341 OA
ATOM     16  C   UNL     1      -3.432   0.358  19.430  1.00  0.00     0.179 C 
ATOM     17  C   UNL     1      -5.354   0.687  21.009  1.00  0.00     0.178 C 
ATOM     18  C   UNL     1      -4.900   0.795  19.538  1.00  0.00     0.177 C 
BRANCH  14  19
ATOM     19  O   UNL     1      -1.899  -1.378  20.122  1.00  0.00    -0.385 OA
ATOM     20  H   UNL     1      -1.777  -1.943  20.929  1.00  0.00     0.211 HD
ENDBRANCH  14  19
BRANCH  16  21
ATOM     21  O   UNL     1      -3.060   0.316  18.077  1.00  0.00    -0.387 OA
ATOM     22  H   UNL     1      -3.613   0.992  17.603  1.00  0.00     0.211 HD
ENDBRANCH  16  21
BRANCH  17  23
ATOM     23  C   UNL     1      -6.818   1.113  21.190  1.00  0.00     0.191 C 
BRANCH  23  24
ATOM     24  O   UNL     1      -7.444   1.302  19.949  1.00  0.00    -0.394 OA
ATOM     25  H   UNL     1      -7.435   2.278  19.766  1.00  0.00     0.210 HD
ENDBRANCH  23  24
ENDBRANCH  17  23
BRANCH  18  26
ATOM     26  O   UNL     1      -5.032   2.123  19.100  1.00  0.00    -0.387 OA
ATOM     27  H   UNL     1      -4.854   2.123  18.122  1.00  0.00     0.211 HD
ENDBRANCH  18  26
ENDBRANCH  12  13
ENDBRANCH   7  12
BRANCH   4  28
ATOM     28  O   UNL     1      -3.803  -1.181  27.723  1.00  0.00    -0.365 OA
ATOM     29  H   UNL     1      -4.743  -0.864  27.768  1.00  0.00     0.214 HD
ENDBRANCH   4  28
BRANCH   8  30
ATOM     30  C   UNL     1      -1.222  -2.118  23.766  1.00  0.00     0.249 C 
BRANCH  30  31
ATOM     31  O   UNL     1       0.122  -1.981  24.227  1.00  0.00    -0.461 OA
BRANCH  31  32
ATOM     32  C   UNL     1       0.898  -3.043  24.707  1.00  0.00     0.338 C 
ATOM     33  O   UNL     1       0.846  -3.370  25.924  1.00  0.00    -0.246 OA
BRANCH  32  34
ATOM     34  C   UNL     1       1.768  -3.793  23.774  1.00  0.00     0.060 A 
ATOM     35  C   UNL     1       2.939  -3.209  23.255  1.00  0.00     0.015 A 
ATOM     36  C   UNL     1       1.429  -5.103  23.387  1.00  0.00     0.015 A 
ATOM     37  C   UNL     1       3.752  -3.924  22.370  1.00  0.00     0.001 A 
ATOM     38  C   UNL     1       2.247  -5.814  22.502  1.00  0.00     0.001 A 
ATOM     39  C   UNL     1       3.408  -5.225  21.995  1.00  0.00     0.000 A 
ENDBRANCH  32  34
ENDBRANCH  31  32
ENDBRANCH  30  31
ENDBRANCH   8  30
TORSDOF 12
ENDMDL
MODEL 7
REMARK VINA RESULT:    -5.570      2.168      8.720
REMARK INTER + INTRA:          -9.918
REMARK INTER:                  -8.133
REMARK INTRA:                  -1.784
REMARK UNBOUND:                -1.254
REMARK SMILES C[C@]12C[C@]3(O)O[C@H](O1)[C@@]1(COC(=O)c4ccccc4)[C@@H]3C[C@]12O[C@H]1O[C@H](CO)[C@@H](O)[C@H](O)[C@H]1O
REMARK SMILES IDX 1 1 2 2 3 3 4 4 20 5 21 6 22 7 9 8 7 9 8 10 6 11 23 12 24 13
REMARK SMILES IDX 33 14 25 15 31 16 26 17 29 18 34 19 32 21 27 23 28 24 30 26
REMARK SMILES IDX 5 28 10 30 11 31 12 32 13 33 14 34 15 35 19 36 16 37 18 38
REMARK SMILES IDX 17 39
REMARK H PARENT 34 20 32 22 28 25 30 27 5 29
REMARK Flexibility Score: inf
ROOT
ATOM      1  C   UNL     1      -2.251  -1.407  22.355  1.00  0.00     0.046 C 
ATOM      2  C   UNL     1      -2.431  -1.128  23.846  1.00  0.00     0.104 C 
ATOM      3  C   UNL     1      -3.931  -1.315  24.283  1.00  0.00     0.104 C 
ATOM      4  C   UNL     1      -3.890  -1.076  25.831  1.00  0.00     0.175 C 
ATOM      5  C   UNL     1      -2.750  -1.921  26.480  1.00  0.00     0.070 C 
ATOM      6  C   UNL     1      -2.253  -3.065  25.576  1.00  0.00     0.050 C 
ATOM      7  C   UNL     1      -1.486  -1.971  24.786  1.00  0.00     0.115 C 
ATOM      8  C   UNL     1      -1.565  -1.073  26.022  1.00  0.00     0.096 C 
ATOM      9  C   UNL     1      -2.137   0.257  25.561  1.00  0.00     0.267 C 
ATOM     10  O   UNL     1      -2.115   0.218  24.143  1.00  0.00    -0.342 OA
ATOM     11  O   UNL     1      -3.483   0.268  26.009  1.00  0.00    -0.320 OA
ENDROOT
BRANCH   7  12
ATOM     12  O   UNL     1      -0.167  -2.148  24.263  1.00  0.00    -0.339 OA
BRANCH  12  13
ATOM     13  C   UNL     1       0.154  -3.477  23.877  1.00  0.00     0.282 C 
ATOM     14  C   UNL     1       1.387  -3.978  24.656  1.00  0.00     0.202 C 
ATOM     15  O   UNL     1       0.350  -3.594  22.474  1.00  0.00    -0.341 OA
ATOM     16  C   UNL     1       2.659  -3.248  24.190  1.00  0.00     0.179 C 
ATOM     17  C   UNL     1       1.458  -2.829  22.028  1.00  0.00     0.178 C 
ATOM     18  C   UNL     1       2.772  -3.335  22.662  1.00  0.00     0.177 C 
BRANCH  14  19
ATOM     19  O   UNL     1       1.182  -3.770  26.031  1.00  0.00    -0.385 OA
ATOM     20  H   UNL     1       2.034  -3.418  26.401  1.00  0.00     0.211 HD
ENDBRANCH  14  19
BRANCH  16  21
ATOM     21  O   UNL     1       3.792  -3.840  24.772  1.00  0.00    -0.387 OA
ATOM     22  H   UNL     1       4.368  -4.157  24.028  1.00  0.00     0.211 HD
ENDBRANCH  16  21
BRANCH  17  23
ATOM     23  C   UNL     1       1.503  -2.886  20.494  1.00  0.00     0.191 C 
BRANCH  23  24
ATOM     24  O   UNL     1       2.327  -3.932  20.053  1.00  0.00    -0.394 OA
ATOM     25  H   UNL     1       3.031  -4.056  20.742  1.00  0.00     0.210 HD
ENDBRANCH  23  24
ENDBRANCH  17  23
BRANCH  18  26
ATOM     26  O   UNL     1       3.844  -2.542  22.221  1.00  0.00    -0.387 OA
ATOM     27  H   UNL     1       4.474  -2.458  22.984  1.00  0.00     0.211 HD
ENDBRANCH  18  26
ENDBRANCH  12  13
ENDBRANCH   7  12
BRANCH   4  28
ATOM     28  O   UNL     1      -5.125  -1.325  26.445  1.00  0.00    -0.365 OA
ATOM     29  H   UNL     1      -5.094  -2.260  26.776  1.00  0.00     0.214 HD
ENDBRANCH   4  28
BRANCH   8  30
ATOM     30  C   UNL     1      -0.348  -1.016  26.971  1.00  0.00     0.249 C 
BRANCH  30  31
ATOM     31  O   UNL     1      -0.300   0.239  27.651  1.00  0.00    -0.461 OA
BRANCH  31  32
ATOM     32  C   UNL     1      -0.724   0.432  28.971  1.00  0.00     0.338 C 
ATOM     33  O   UNL     1       0.117   0.665  29.882  1.00  0.00    -0.246 OA
BRANCH  32  34
ATOM     34  C   UNL     1      -2.168   0.380  29.291  1.00  0.00     0.060 A 
ATOM     35  C   UNL     1      -2.989   1.506  29.094  1.00  0.00     0.015 A 
ATOM     36  C   UNL     1      -2.737  -0.799  29.807  1.00  0.00     0.015 A 
ATOM     37  C   UNL     1      -4.351   1.450  29.404  1.00  0.00     0.001 A 
ATOM     38  C   UNL     1      -4.101  -0.849  30.115  1.00  0.00     0.001 A 
ATOM     39  C   UNL     1      -4.907   0.273  29.913  1.00  0.00     0.000 A 
ENDBRANCH  32  34
ENDBRANCH  31  32
ENDBRANCH  30  31
ENDBRANCH   8  30
TORSDOF 12
ENDMDL
MODEL 8
REMARK VINA RESULT:    -5.564      2.876      6.172
REMARK INTER + INTRA:          -9.908
REMARK INTER:                  -8.590
REMARK INTRA:                  -1.318
REMARK UNBOUND:                -1.254
REMARK SMILES C[C@]12C[C@]3(O)O[C@H](O1)[C@@]1(COC(=O)c4ccccc4)[C@@H]3C[C@]12O[C@H]1O[C@H](CO)[C@@H](O)[C@H](O)[C@H]1O
REMARK SMILES IDX 1 1 2 2 3 3 4 4 20 5 21 6 22 7 9 8 7 9 8 10 6 11 23 12 24 13
REMARK SMILES IDX 33 14 25 15 31 16 26 17 29 18 34 19 32 21 27 23 28 24 30 26
REMARK SMILES IDX 5 28 10 30 11 31 12 32 13 33 14 34 15 35 19 36 16 37 18 38
REMARK SMILES IDX 17 39
REMARK H PARENT 34 20 32 22 28 25 30 27 5 29
REMARK Flexibility Score: inf
ROOT
ATOM      1  C   UNL     1      -2.522   1.898  25.302  1.00  0.00     0.046 C 
ATOM      2  C   UNL     1      -1.967   0.717  26.095  1.00  0.00     0.104 C 
ATOM      3  C   UNL     1      -1.987   1.008  27.640  1.00  0.00     0.104 C 
ATOM      4  C   UNL     1      -1.473  -0.333  28.269  1.00  0.00     0.175 C 
ATOM      5  C   UNL     1      -2.249  -1.546  27.667  1.00  0.00     0.070 C 
ATOM      6  C   UNL     1      -3.564  -1.141  26.975  1.00  0.00     0.050 C 
ATOM      7  C   UNL     1      -2.676  -0.660  25.796  1.00  0.00     0.115 C 
ATOM      8  C   UNL     1      -1.566  -1.582  26.302  1.00  0.00     0.096 C 
ATOM      9  C   UNL     1      -0.312  -0.734  26.422  1.00  0.00     0.267 C 
ATOM     10  O   UNL     1      -0.609   0.491  25.770  1.00  0.00    -0.342 OA
ATOM     11  O   UNL     1      -0.145  -0.497  27.810  1.00  0.00    -0.320 OA
ENDROOT
BRANCH   7  12
ATOM     12  O   UNL     1      -3.019  -0.841  24.420  1.00  0.00    -0.339 OA
BRANCH  12  13
ATOM     13  C   UNL     1      -4.382  -1.163  24.175  1.00  0.00     0.282 C 
ATOM     14  C   UNL     1      -4.509  -2.016  22.897  1.00  0.00     0.202 C 
ATOM     15  O   UNL     1      -5.200  -0.003  24.103  1.00  0.00    -0.341 OA
ATOM     16  C   UNL     1      -4.204  -1.174  21.646  1.00  0.00     0.179 C 
ATOM     17  C   UNL     1      -4.843   0.831  23.012  1.00  0.00     0.178 C 
ATOM     18  C   UNL     1      -5.053   0.104  21.666  1.00  0.00     0.177 C 
BRANCH  14  19
ATOM     19  O   UNL     1      -3.625  -3.106  22.978  1.00  0.00    -0.385 OA
ATOM     20  H   UNL     1      -3.427  -3.388  22.046  1.00  0.00     0.211 HD
ENDBRANCH  14  19
BRANCH  16  21
ATOM     21  O   UNL     1      -4.502  -1.910  20.488  1.00  0.00    -0.387 OA
ATOM     22  H   UNL     1      -3.827  -1.660  19.804  1.00  0.00     0.211 HD
ENDBRANCH  16  21
BRANCH  17  23
ATOM     23  C   UNL     1      -5.665   2.125  23.100  1.00  0.00     0.191 C 
BRANCH  23  24
ATOM     24  O   UNL     1      -6.988   1.856  23.481  1.00  0.00    -0.394 OA
ATOM     25  H   UNL     1      -7.059   0.874  23.603  1.00  0.00     0.210 HD
ENDBRANCH  23  24
ENDBRANCH  17  23
BRANCH  18  26
ATOM     26  O   UNL     1      -4.668   0.946  20.610  1.00  0.00    -0.387 OA
ATOM     27  H   UNL     1      -4.494   0.363  19.825  1.00  0.00     0.211 HD
ENDBRANCH  18  26
ENDBRANCH  12  13
ENDBRANCH   7  12
BRANCH   4  28
ATOM     28  O   UNL     1      -1.538  -0.327  29.669  1.00  0.00    -0.365 OA
ATOM     29  H   UNL     1      -2.493  -0.450  29.910  1.00  0.00     0.214 HD
ENDBRANCH   4  28
BRANCH   8  30
ATOM     30  C   UNL     1      -1.406  -2.972  25.647  1.00  0.00     0.249 C 
BRANCH  30  31
ATOM     31  O   UNL     1      -0.141  -3.076  24.993  1.00  0.00    -0.461 OA
BRANCH  31  32
ATOM     32  C   UNL     1       0.016  -3.212  23.608  1.00  0.00     0.338 C 
ATOM     33  O   UNL     1      -0.775  -2.629  22.817  1.00  0.00    -0.246 OA
BRANCH  32  34
ATOM     34  C   UNL     1       1.128  -4.031  23.075  1.00  0.00     0.060 A 
ATOM     35  C   UNL     1       1.391  -5.312  23.595  1.00  0.00     0.015 A 
ATOM     36  C   UNL     1       1.944  -3.531  22.043  1.00  0.00     0.015 A 
ATOM     37  C   UNL     1       2.447  -6.076  23.089  1.00  0.00     0.001 A 
ATOM     38  C   UNL     1       2.998  -4.301  21.540  1.00  0.00     0.001 A 
ATOM     39  C   UNL     1       3.249  -5.572  22.061  1.00  0.00     0.000 A 
ENDBRANCH  32  34
ENDBRANCH  31  32
ENDBRANCH  30  31
ENDBRANCH   8  30
TORSDOF 12
ENDMDL
MODEL 9
REMARK VINA RESULT:    -5.505      2.490      4.950
REMARK INTER + INTRA:          -9.816
REMARK INTER:                 -10.117
REMARK INTRA:                   0.301
REMARK UNBOUND:                -1.254
REMARK SMILES C[C@]12C[C@]3(O)O[C@H](O1)[C@@]1(COC(=O)c4ccccc4)[C@@H]3C[C@]12O[C@H]1O[C@H](CO)[C@@H](O)[C@H](O)[C@H]1O
REMARK SMILES IDX 1 1 2 2 3 3 4 4 20 5 21 6 22 7 9 8 7 9 8 10 6 11 23 12 24 13
REMARK SMILES IDX 33 14 25 15 31 16 26 17 29 18 34 19 32 21 27 23 28 24 30 26
REMARK SMILES IDX 5 28 10 30 11 31 12 32 13 33 14 34 15 35 19 36 16 37 18 38
REMARK SMILES IDX 17 39
REMARK H PARENT 34 20 32 22 28 25 30 27 5 29
REMARK Flexibility Score: inf
ROOT
ATOM      1  C   UNL     1       4.123  -3.088  24.831  1.00  0.00     0.046 C 
ATOM      2  C   UNL     1       3.036  -3.370  23.794  1.00  0.00     0.104 C 
ATOM      3  C   UNL     1       3.660  -3.676  22.383  1.00  0.00     0.104 C 
ATOM      4  C   UNL     1       2.412  -4.020  21.501  1.00  0.00     0.175 C 
ATOM      5  C   UNL     1       1.507  -5.064  22.226  1.00  0.00     0.070 C 
ATOM      6  C   UNL     1       2.231  -5.808  23.364  1.00  0.00     0.050 C 
ATOM      7  C   UNL     1       2.030  -4.515  24.199  1.00  0.00     0.115 C 
ATOM      8  C   UNL     1       0.885  -4.129  23.261  1.00  0.00     0.096 C 
ATOM      9  C   UNL     1       1.164  -2.713  22.788  1.00  0.00     0.267 C 
ATOM     10  O   UNL     1       2.218  -2.231  23.607  1.00  0.00    -0.342 OA
ATOM     11  O   UNL     1       1.629  -2.841  21.454  1.00  0.00    -0.320 OA
ENDROOT
BRANCH   7  12
ATOM     12  O   UNL     1       1.688  -4.513  25.587  1.00  0.00    -0.339 OA
BRANCH  12  13
ATOM     13  C   UNL     1       2.377  -3.553  26.377  1.00  0.00     0.282 C 
ATOM     14  C   UNL     1       3.026  -4.233  27.599  1.00  0.00     0.202 C 
ATOM     15  O   UNL     1       1.533  -2.481  26.773  1.00  0.00    -0.341 OA
ATOM     16  C   UNL     1       1.954  -4.687  28.604  1.00  0.00     0.179 C 
ATOM     17  C   UNL     1       0.475  -2.920  27.611  1.00  0.00     0.178 C 
ATOM     18  C   UNL     1       1.022  -3.512  28.929  1.00  0.00     0.177 C 
BRANCH  14  19
ATOM     19  O   UNL     1       3.786  -5.334  27.168  1.00  0.00    -0.385 OA
ATOM     20  H   UNL     1       4.619  -5.341  27.709  1.00  0.00     0.211 HD
ENDBRANCH  14  19
BRANCH  16  21
ATOM     21  O   UNL     1       2.564  -5.134  29.788  1.00  0.00    -0.387 OA
ATOM     22  H   UNL     1       1.837  -5.432  30.395  1.00  0.00     0.211 HD
ENDBRANCH  16  21
BRANCH  17  23
ATOM     23  C   UNL     1      -0.470  -1.737  27.863  1.00  0.00     0.191 C 
BRANCH  23  24
ATOM     24  O   UNL     1      -0.107  -1.040  29.025  1.00  0.00    -0.394 OA
ATOM     25  H   UNL     1       0.340  -0.204  28.732  1.00  0.00     0.210 HD
ENDBRANCH  23  24
ENDBRANCH  17  23
BRANCH  18  26
ATOM     26  O   UNL     1      -0.046  -3.959  29.724  1.00  0.00    -0.387 OA
ATOM     27  H   UNL     1      -0.366  -4.811  29.325  1.00  0.00     0.211 HD
ENDBRANCH  18  26
ENDBRANCH  12  13
ENDBRANCH   7  12
BRANCH   4  28
ATOM     28  O   UNL     1       2.767  -4.453  20.216  1.00  0.00    -0.365 OA
ATOM     29  H   UNL     1       1.949  -4.846  19.813  1.00  0.00     0.214 HD
ENDBRANCH   4  28
BRANCH   8  30
ATOM     30  C   UNL     1      -0.563  -4.445  23.695  1.00  0.00     0.249 C 
BRANCH  30  31
ATOM     31  O   UNL     1      -1.136  -3.331  24.381  1.00  0.00    -0.461 OA
BRANCH  31  32
ATOM     32  C   UNL     1      -2.509  -3.068  24.439  1.00  0.00     0.338 C 
ATOM     33  O   UNL     1      -3.198  -3.488  25.409  1.00  0.00    -0.246 OA
BRANCH  32  34
ATOM     34  C   UNL     1      -3.149  -2.277  23.363  1.00  0.00     0.060 A 
ATOM     35  C   UNL     1      -2.413  -1.318  22.643  1.00  0.00     0.015 A 
ATOM     36  C   UNL     1      -4.508  -2.471  23.053  1.00  0.00     0.015 A 
ATOM     37  C   UNL     1      -3.027  -0.572  21.631  1.00  0.00     0.001 A 
ATOM     38  C   UNL     1      -5.116  -1.722  22.040  1.00  0.00     0.001 A 
ATOM     39  C   UNL     1      -4.376  -0.774  21.329  1.00  0.00     0.000 A 
ENDBRANCH  32  34
ENDBRANCH  31  32
ENDBRANCH  30  31
ENDBRANCH   8  30
TORSDOF 12
ENDMDL
