MODEL 1
REMARK VINA RESULT:    -3.325      0.000      0.000
REMARK INTER + INTRA:          -4.219
REMARK INTER:                  -4.103
REMARK INTRA:                  -0.116
REMARK UNBOUND:                -0.116
REMARK SMILES CCCCCC(=O)[O-]
REMARK SMILES IDX 4 1 5 2 6 3 7 4 8 5 3 6 2 7 1 8
REMARK H PARENT
REMARK Flexibility Score: inf
ROOT
ATOM      1  C   UNL     1      -5.112   8.166   3.135  1.00  0.00     0.006 C 
ENDROOT
BRANCH   1   2
ATOM      2  C   UNL     1      -5.539   8.563   4.554  1.00  0.00     0.053 C 
BRANCH   2   3
ATOM      3  C   UNL     1      -4.515   8.170   5.574  1.00  0.00     0.041 C 
ATOM      4  O   UNL     1      -4.787   8.227   6.802  1.00  0.00    -0.550 OA
ATOM      5  O   UNL     1      -3.268   7.711   5.166  1.00  0.00    -0.550 OA
ENDBRANCH   2   3
ENDBRANCH   1   2
BRANCH   1   6
ATOM      6  C   UNL     1      -4.619   9.373   2.318  1.00  0.00     0.000 C 
BRANCH   6   7
ATOM      7  C   UNL     1      -4.945   9.245   0.823  1.00  0.00    -0.003 C 
ATOM      8  C   UNL     1      -5.562   7.892   0.465  1.00  0.00     0.004 C 
ENDBRANCH   6   7
ENDBRANCH   1   6
TORSDOF 4
ENDMDL
MODEL 2
REMARK VINA RESULT:    -3.321     19.569     20.142
REMARK INTER + INTRA:          -4.214
REMARK INTER:                  -4.100
REMARK INTRA:                  -0.114
REMARK UNBOUND:                -0.116
REMARK SMILES CCCCCC(=O)[O-]
REMARK SMILES IDX 4 1 5 2 6 3 7 4 8 5 3 6 2 7 1 8
REMARK H PARENT
REMARK Flexibility Score: inf
ROOT
ATOM      1  C   UNL     1       5.557  -8.689  -0.088  1.00  0.00     0.006 C 
ENDROOT
BRANCH   1   2
ATOM      2  C   UNL     1       5.638  -7.618   1.008  1.00  0.00     0.053 C 
BRANCH   2   3
ATOM      3  C   UNL     1       4.447  -6.709   0.986  1.00  0.00     0.041 C 
ATOM      4  O   UNL     1       4.021  -6.247  -0.105  1.00  0.00    -0.550 OA
ATOM      5  O   UNL     1       3.791  -6.394   2.170  1.00  0.00    -0.550 OA
ENDBRANCH   2   3
ENDBRANCH   1   2
BRANCH   1   6
ATOM      6  C   UNL     1       6.771  -9.633  -0.069  1.00  0.00     0.000 C 
BRANCH   6   7
ATOM      7  C   UNL     1       7.462  -9.675   1.303  1.00  0.00    -0.003 C 
ATOM      8  C   UNL     1       8.976  -9.486   1.209  1.00  0.00     0.004 C 
ENDBRANCH   6   7
ENDBRANCH   1   6
TORSDOF 4
ENDMDL
MODEL 3
REMARK VINA RESULT:    -3.121      2.188      3.975
REMARK INTER + INTRA:          -3.967
REMARK INTER:                  -3.755
REMARK INTRA:                  -0.212
REMARK UNBOUND:                -0.116
REMARK SMILES CCCCCC(=O)[O-]
REMARK SMILES IDX 4 1 5 2 6 3 7 4 8 5 3 6 2 7 1 8
REMARK H PARENT
REMARK Flexibility Score: inf
ROOT
ATOM      1  C   UNL     1      -4.732   9.786   4.023  1.00  0.00     0.006 C 
ENDROOT
BRANCH   1   2
ATOM      2  C   UNL     1      -4.604   9.298   2.573  1.00  0.00     0.053 C 
BRANCH   2   3
ATOM      3  C   UNL     1      -5.079   7.886   2.419  1.00  0.00     0.041 C 
ATOM      4  O   UNL     1      -5.434   7.220   3.427  1.00  0.00    -0.550 OA
ATOM      5  O   UNL     1      -5.159   7.314   1.154  1.00  0.00    -0.550 OA
ENDBRANCH   2   3
ENDBRANCH   1   2
BRANCH   1   6
ATOM      6  C   UNL     1      -3.383   9.769   4.762  1.00  0.00     0.000 C 
BRANCH   6   7
ATOM      7  C   UNL     1      -3.333   8.708   5.872  1.00  0.00    -0.003 C 
ATOM      8  C   UNL     1      -4.679   8.520   6.572  1.00  0.00     0.004 C 
ENDBRANCH   6   7
ENDBRANCH   1   6
TORSDOF 4
ENDMDL
MODEL 4
REMARK VINA RESULT:    -3.058     14.503     15.450
REMARK INTER + INTRA:          -3.890
REMARK INTER:                  -3.788
REMARK INTRA:                  -0.101
REMARK UNBOUND:                -0.116
REMARK SMILES CCCCCC(=O)[O-]
REMARK SMILES IDX 4 1 5 2 6 3 7 4 8 5 3 6 2 7 1 8
REMARK H PARENT
REMARK Flexibility Score: inf
ROOT
ATOM      1  C   UNL     1      -3.618  -6.463   8.569  1.00  0.00     0.006 C 
ENDROOT
BRANCH   1   2
ATOM      2  C   UNL     1      -3.863  -7.316   7.317  1.00  0.00     0.053 C 
BRANCH   2   3
ATOM      3  C   UNL     1      -2.640  -7.406   6.457  1.00  0.00     0.041 C 
ATOM      4  O   UNL     1      -1.585  -7.925   6.906  1.00  0.00    -0.550 OA
ATOM      5  O   UNL     1      -2.675  -6.942   5.148  1.00  0.00    -0.550 OA
ENDBRANCH   2   3
ENDBRANCH   1   2
BRANCH   1   6
ATOM      6  C   UNL     1      -4.484  -5.192   8.584  1.00  0.00     0.000 C 
BRANCH   6   7
ATOM      7  C   UNL     1      -5.001  -4.815   7.187  1.00  0.00    -0.003 C 
ATOM      8  C   UNL     1      -5.968  -3.631   7.213  1.00  0.00     0.004 C 
ENDBRANCH   6   7
ENDBRANCH   1   6
TORSDOF 4
ENDMDL
MODEL 5
REMARK VINA RESULT:    -2.967     17.251     17.968
REMARK INTER + INTRA:          -3.777
REMARK INTER:                  -3.707
REMARK INTRA:                  -0.069
REMARK UNBOUND:                -0.116
REMARK SMILES CCCCCC(=O)[O-]
REMARK SMILES IDX 4 1 5 2 6 3 7 4 8 5 3 6 2 7 1 8
REMARK H PARENT
REMARK Flexibility Score: inf
ROOT
ATOM      1  C   UNL     1       3.683  -6.403  -1.588  1.00  0.00     0.006 C 
ENDROOT
BRANCH   1   2
ATOM      2  C   UNL     1       4.783  -7.119  -0.792  1.00  0.00     0.053 C 
BRANCH   2   3
ATOM      3  C   UNL     1       4.644  -6.886   0.681  1.00  0.00     0.041 C 
ATOM      4  O   UNL     1       4.718  -5.719   1.150  1.00  0.00    -0.550 OA
ATOM      5  O   UNL     1       4.403  -7.956   1.535  1.00  0.00    -0.550 OA
ENDBRANCH   2   3
ENDBRANCH   1   2
BRANCH   1   6
ATOM      6  C   UNL     1       4.143  -6.031  -3.008  1.00  0.00     0.000 C 
BRANCH   6   7
ATOM      7  C   UNL     1       4.307  -4.516  -3.196  1.00  0.00    -0.003 C 
ATOM      8  C   UNL     1       5.431  -4.157  -4.167  1.00  0.00     0.004 C 
ENDBRANCH   6   7
ENDBRANCH   1   6
TORSDOF 4
ENDMDL
MODEL 6
REMARK VINA RESULT:    -2.966     15.553     16.732
REMARK INTER + INTRA:          -3.776
REMARK INTER:                  -3.670
REMARK INTRA:                  -0.107
REMARK UNBOUND:                -0.116
REMARK SMILES CCCCCC(=O)[O-]
REMARK SMILES IDX 4 1 5 2 6 3 7 4 8 5 3 6 2 7 1 8
REMARK H PARENT
REMARK Flexibility Score: inf
ROOT
ATOM      1  C   UNL     1       5.696   0.998  -6.012  1.00  0.00     0.006 C 
ENDROOT
BRANCH   1   2
ATOM      2  C   UNL     1       6.857   0.012  -5.823  1.00  0.00     0.053 C 
BRANCH   2   3
ATOM      3  C   UNL     1       6.402  -1.411  -5.936  1.00  0.00     0.041 C 
ATOM      4  O   UNL     1       6.790  -2.270  -5.101  1.00  0.00    -0.550 OA
ATOM      5  O   UNL     1       5.524  -1.782  -6.947  1.00  0.00    -0.550 OA
ENDBRANCH   2   3
ENDBRANCH   1   2
BRANCH   1   6
ATOM      6  C   UNL     1       5.973   2.013  -7.134  1.00  0.00     0.000 C 
BRANCH   6   7
ATOM      7  C   UNL     1       4.977   3.182  -7.130  1.00  0.00    -0.003 C 
ATOM      8  C   UNL     1       4.161   3.261  -5.840  1.00  0.00     0.004 C 
ENDBRANCH   6   7
ENDBRANCH   1   6
TORSDOF 4
ENDMDL
MODEL 7
REMARK VINA RESULT:    -2.912     11.547     13.292
REMARK INTER + INTRA:          -3.709
REMARK INTER:                  -3.599
REMARK INTRA:                  -0.110
REMARK UNBOUND:                -0.116
REMARK SMILES CCCCCC(=O)[O-]
REMARK SMILES IDX 4 1 5 2 6 3 7 4 8 5 3 6 2 7 1 8
REMARK H PARENT
REMARK Flexibility Score: inf
ROOT
ATOM      1  C   UNL     1      -8.727  -0.379  -5.508  1.00  0.00     0.006 C 
ENDROOT
BRANCH   1   2
ATOM      2  C   UNL     1      -9.709   0.774  -5.758  1.00  0.00     0.053 C 
BRANCH   2   3
ATOM      3  C   UNL     1      -9.441   1.939  -4.855  1.00  0.00     0.041 C 
ATOM      4  O   UNL     1      -9.770   3.103  -5.204  1.00  0.00    -0.550 OA
ATOM      5  O   UNL     1      -8.853   1.734  -3.613  1.00  0.00    -0.550 OA
ENDBRANCH   2   3
ENDBRANCH   1   2
BRANCH   1   6
ATOM      6  C   UNL     1      -9.153  -1.670  -6.227  1.00  0.00     0.000 C 
BRANCH   6   7
ATOM      7  C   UNL     1      -9.650  -2.750  -5.253  1.00  0.00    -0.003 C 
ATOM      8  C   UNL     1      -9.340  -2.419  -3.793  1.00  0.00     0.004 C 
ENDBRANCH   6   7
ENDBRANCH   1   6
TORSDOF 4
ENDMDL
MODEL 8
REMARK VINA RESULT:    -2.883     15.035     16.327
REMARK INTER + INTRA:          -3.674
REMARK INTER:                  -3.590
REMARK INTRA:                  -0.084
REMARK UNBOUND:                -0.116
REMARK SMILES CCCCCC(=O)[O-]
REMARK SMILES IDX 4 1 5 2 6 3 7 4 8 5 3 6 2 7 1 8
REMARK H PARENT
REMARK Flexibility Score: inf
ROOT
ATOM      1  C   UNL     1       6.478   1.697  -7.044  1.00  0.00     0.006 C 
ENDROOT
BRANCH   1   2
ATOM      2  C   UNL     1       5.298   2.566  -7.500  1.00  0.00     0.053 C 
BRANCH   2   3
ATOM      3  C   UNL     1       4.845   3.499  -6.418  1.00  0.00     0.041 C 
ATOM      4  O   UNL     1       5.467   4.572  -6.204  1.00  0.00    -0.550 OA
ATOM      5  O   UNL     1       3.716   3.195  -5.667  1.00  0.00    -0.550 OA
ENDBRANCH   2   3
ENDBRANCH   1   2
BRANCH   1   6
ATOM      6  C   UNL     1       6.021   0.495  -6.199  1.00  0.00     0.000 C 
BRANCH   6   7
ATOM      7  C   UNL     1       7.200  -0.336  -5.671  1.00  0.00    -0.003 C 
ATOM      8  C   UNL     1       6.811  -1.780  -5.352  1.00  0.00     0.004 C 
ENDBRANCH   6   7
ENDBRANCH   1   6
TORSDOF 4
ENDMDL
MODEL 9
REMARK VINA RESULT:    -2.760     13.900     14.843
REMARK INTER + INTRA:          -3.522
REMARK INTER:                  -3.442
REMARK INTRA:                  -0.080
REMARK UNBOUND:                -0.116
REMARK SMILES CCCCCC(=O)[O-]
REMARK SMILES IDX 4 1 5 2 6 3 7 4 8 5 3 6 2 7 1 8
REMARK H PARENT
REMARK Flexibility Score: inf
ROOT
ATOM      1  C   UNL     1      -4.158  -5.814   7.670  1.00  0.00     0.006 C 
ENDROOT
BRANCH   1   2
ATOM      2  C   UNL     1      -5.139  -4.843   8.341  1.00  0.00     0.053 C 
BRANCH   2   3
ATOM      3  C   UNL     1      -5.623  -3.795   7.387  1.00  0.00     0.041 C 
ATOM      4  O   UNL     1      -6.068  -2.699   7.820  1.00  0.00    -0.550 OA
ATOM      5  O   UNL     1      -5.555  -4.017   6.017  1.00  0.00    -0.550 OA
ENDBRANCH   2   3
ENDBRANCH   1   2
BRANCH   1   6
ATOM      6  C   UNL     1      -3.488  -6.757   8.684  1.00  0.00     0.000 C 
BRANCH   6   7
ATOM      7  C   UNL     1      -2.573  -7.791   8.012  1.00  0.00    -0.003 C 
ATOM      8  C   UNL     1      -2.619  -7.720   6.486  1.00  0.00     0.004 C 
ENDBRANCH   6   7
ENDBRANCH   1   6
TORSDOF 4
ENDMDL
