MODEL 1
REMARK VINA RESULT:    -2.888      0.000      0.000
REMARK INTER + INTRA:          -3.641
REMARK INTER:                  -4.070
REMARK INTRA:                   0.430
REMARK UNBOUND:                 0.430
REMARK SMILES CC1=CCC(=C(C)C)C(=O)CC(C)=CCC1
REMARK SMILES IDX 12 1 14 2 13 3 15 4 16 5 2 6 1 7 3 8 11 10 9 11 10 12 5 13
REMARK SMILES IDX 6 14 7 15 8 16 4 17
REMARK H PARENT
REMARK Flexibility Score: 60.00
ROOT
ATOM      1  C   UNL     1      82.480  -5.861  27.517  1.00  0.00    -0.070 C 
ATOM      2  C   UNL     1      82.493  -6.876  26.623  1.00  0.00    -0.027 C 
ATOM      3  C   UNL     1      81.186  -5.113  27.723  1.00  0.00     0.039 C 
ENDROOT
BRANCH   2   4
ATOM      4  C   UNL     1      83.686  -7.752  26.317  1.00  0.00     0.032 C 
BRANCH   4   5
ATOM      5  C   UNL     1      83.446  -9.208  26.743  1.00  0.00     0.034 C 
BRANCH   5   6
ATOM      6  C   UNL     1      82.792  -9.344  28.110  1.00  0.00    -0.077 C 
ATOM      7  C   UNL     1      81.361  -9.813  28.189  1.00  0.00     0.039 C 
ATOM      8  C   UNL     1      83.437  -9.093  29.273  1.00  0.00    -0.023 CG0
ATOM      9  G   UNL     1      84.842  -8.549  29.395  1.00  0.00     0.000 G0
ENDBRANCH   5   6
ENDBRANCH   4   5
ENDBRANCH   2   4
BRANCH   1  10
ATOM     10  C   UNL     1      83.703  -5.444  28.310  1.00  0.00     0.111 C 
BRANCH  10  11
ATOM     11  C   UNL     1      83.772  -6.172  29.624  1.00  0.00     0.163 C 
ATOM     12  O   UNL     1      82.851  -6.012  30.470  1.00  0.00    -0.294 OA
BRANCH  11  13
ATOM     13  C   UNL     1      84.892  -7.096  29.936  1.00  0.00    -0.002 C 
ATOM     14  C   UNL     1      85.954  -6.666  30.670  1.00  0.00    -0.069 C 
ATOM     15  C   UNL     1      87.125  -7.577  30.957  1.00  0.00     0.039 C 
ATOM     16  C   UNL     1      85.983  -5.274  31.261  1.00  0.00     0.039 C 
BRANCH  13  17
ATOM     17  C   UNL     1      84.838  -8.528  29.416  1.00  0.00     0.066 CG0
ATOM     18  G   UNL     1      83.434  -9.072  29.279  1.00  0.00     0.000 G0
ENDBRANCH  13  17
ENDBRANCH  11  13
ENDBRANCH  10  11
ENDBRANCH   1  10
TORSDOF 0
ENDMDL
MODEL 2
REMARK VINA RESULT:    -2.888      2.050      4.578
REMARK INTER + INTRA:          -3.640
REMARK INTER:                  -4.186
REMARK INTRA:                   0.545
REMARK UNBOUND:                 0.430
REMARK SMILES CC1=CCC(=C(C)C)C(=O)CC(C)=CCC1
REMARK SMILES IDX 12 1 14 2 13 3 15 4 16 5 2 6 1 7 3 8 11 10 9 11 10 12 5 13
REMARK SMILES IDX 6 14 7 15 8 16 4 17
REMARK H PARENT
REMARK Flexibility Score: 60.00
ROOT
ATOM      1  C   UNL     1      82.706  -4.468  27.866  1.00  0.00    -0.070 C 
ATOM      2  C   UNL     1      83.349  -4.563  29.052  1.00  0.00    -0.027 C 
ATOM      3  C   UNL     1      83.375  -3.700  26.754  1.00  0.00     0.039 C 
ENDROOT
BRANCH   2   4
ATOM      4  C   UNL     1      82.845  -5.320  30.259  1.00  0.00     0.032 C 
BRANCH   4   5
ATOM      5  C   UNL     1      83.826  -6.422  30.690  1.00  0.00     0.034 C 
BRANCH   5   6
ATOM      6  C   UNL     1      84.116  -7.441  29.598  1.00  0.00    -0.077 C 
ATOM      7  C   UNL     1      85.539  -7.619  29.129  1.00  0.00     0.039 C 
ATOM      8  C   UNL     1      83.166  -8.225  29.040  1.00  0.00    -0.023 CG0
ATOM      9  G   UNL     1      81.684  -8.144  29.326  1.00  0.00     0.000 G0
ENDBRANCH   5   6
ENDBRANCH   4   5
ENDBRANCH   2   4
BRANCH   1  10
ATOM     10  C   UNL     1      81.346  -5.091  27.613  1.00  0.00     0.111 C 
BRANCH  10  11
ATOM     11  C   UNL     1      81.472  -6.552  27.282  1.00  0.00     0.163 C 
ATOM     12  O   UNL     1      82.127  -6.902  26.263  1.00  0.00    -0.294 OA
BRANCH  11  13
ATOM     13  C   UNL     1      80.862  -7.594  28.146  1.00  0.00    -0.002 C 
ATOM     14  C   UNL     1      79.602  -8.043  27.896  1.00  0.00    -0.069 C 
ATOM     15  C   UNL     1      78.946  -9.067  28.793  1.00  0.00     0.039 C 
ATOM     16  C   UNL     1      78.827  -7.564  26.689  1.00  0.00     0.039 C 
BRANCH  13  17
ATOM     17  C   UNL     1      81.663  -8.147  29.320  1.00  0.00     0.066 CG0
ATOM     18  G   UNL     1      83.149  -8.234  29.053  1.00  0.00     0.000 G0
ENDBRANCH  13  17
ENDBRANCH  11  13
ENDBRANCH  10  11
ENDBRANCH   1  10
TORSDOF 0
ENDMDL
MODEL 3
REMARK VINA RESULT:    -2.883      4.947      7.162
REMARK INTER + INTRA:          -3.633
REMARK INTER:                  -4.202
REMARK INTRA:                   0.569
REMARK UNBOUND:                 0.430
REMARK SMILES CC1=CCC(=C(C)C)C(=O)CC(C)=CCC1
REMARK SMILES IDX 12 1 14 2 13 3 15 4 16 5 2 6 1 7 3 8 11 10 9 11 10 12 5 13
REMARK SMILES IDX 6 14 7 15 8 16 4 17
REMARK H PARENT
REMARK Flexibility Score: 60.00
ROOT
ATOM      1  C   UNL     1      76.178  -8.310  29.538  1.00  0.00    -0.070 C 
ATOM      2  C   UNL     1      76.825  -8.603  30.689  1.00  0.00    -0.027 C 
ATOM      3  C   UNL     1      75.791  -9.452  28.631  1.00  0.00     0.039 C 
ENDROOT
BRANCH   2   4
ATOM      4  C   UNL     1      77.254  -7.592  31.728  1.00  0.00     0.032 C 
BRANCH   4   5
ATOM      5  C   UNL     1      78.781  -7.555  31.889  1.00  0.00     0.034 C 
BRANCH   5   6
ATOM      6  C   UNL     1      79.435  -6.354  31.222  1.00  0.00    -0.077 C 
ATOM      7  C   UNL     1      79.837  -5.176  32.075  1.00  0.00     0.039 C 
ATOM      8  C   UNL     1      79.707  -6.293  29.898  1.00  0.00    -0.023 CG0
ATOM      9  G   UNL     1      79.317  -7.336  28.876  1.00  0.00     0.000 G0
ENDBRANCH   5   6
ENDBRANCH   4   5
ENDBRANCH   2   4
BRANCH   1  10
ATOM     10  C   UNL     1      75.834  -6.893  29.122  1.00  0.00     0.111 C 
BRANCH  10  11
ATOM     11  C   UNL     1      77.039  -6.181  28.573  1.00  0.00     0.163 C 
ATOM     12  O   UNL     1      77.102  -4.924  28.646  1.00  0.00    -0.294 OA
BRANCH  11  13
ATOM     13  C   UNL     1      78.169  -6.932  27.970  1.00  0.00    -0.002 C 
ATOM     14  C   UNL     1      78.149  -7.260  26.650  1.00  0.00    -0.069 C 
ATOM     15  C   UNL     1      79.267  -8.065  26.028  1.00  0.00     0.039 C 
ATOM     16  C   UNL     1      77.028  -6.797  25.746  1.00  0.00     0.039 C 
BRANCH  13  17
ATOM     17  C   UNL     1      79.347  -7.334  28.851  1.00  0.00     0.066 CG0
ATOM     18  G   UNL     1      79.705  -6.301  29.895  1.00  0.00     0.000 G0
ENDBRANCH  13  17
ENDBRANCH  11  13
ENDBRANCH  10  11
ENDBRANCH   1  10
TORSDOF 0
ENDMDL
MODEL 4
REMARK VINA RESULT:    -2.834      3.290      4.742
REMARK INTER + INTRA:          -3.564
REMARK INTER:                  -4.073
REMARK INTRA:                   0.510
REMARK UNBOUND:                 0.430
REMARK SMILES CC1=CCC(=C(C)C)C(=O)CC(C)=CCC1
REMARK SMILES IDX 12 1 14 2 13 3 15 4 16 5 2 6 1 7 3 8 11 10 9 11 10 12 5 13
REMARK SMILES IDX 6 14 7 15 8 16 4 17
REMARK H PARENT
REMARK Flexibility Score: 60.00
ROOT
ATOM      1  C   UNL     1      78.508  -6.455  30.587  1.00  0.00    -0.070 C 
ATOM      2  C   UNL     1      77.613  -6.515  29.575  1.00  0.00    -0.027 C 
ATOM      3  C   UNL     1      78.368  -7.443  31.718  1.00  0.00     0.039 C 
ENDROOT
BRANCH   2   4
ATOM      4  C   UNL     1      77.624  -5.631  28.349  1.00  0.00     0.032 C 
BRANCH   4   5
ATOM      5  C   UNL     1      77.834  -6.444  27.063  1.00  0.00     0.034 C 
BRANCH   5   6
ATOM      6  C   UNL     1      78.973  -7.447  27.155  1.00  0.00    -0.077 C 
ATOM      7  C   UNL     1      78.659  -8.919  27.048  1.00  0.00     0.039 C 
ATOM      8  C   UNL     1      80.270  -7.090  27.300  1.00  0.00    -0.023 CG0
ATOM      9  G   UNL     1      80.773  -5.678  27.497  1.00  0.00     0.000 G0
ENDBRANCH   5   6
ENDBRANCH   4   5
ENDBRANCH   2   4
BRANCH   1  10
ATOM     10  C   UNL     1      79.634  -5.441  30.634  1.00  0.00     0.111 C 
BRANCH  10  11
ATOM     11  C   UNL     1      80.903  -6.012  30.065  1.00  0.00     0.163 C 
ATOM     12  O   UNL     1      81.459  -6.985  30.643  1.00  0.00    -0.294 OA
BRANCH  11  13
ATOM     13  C   UNL     1      81.503  -5.468  28.820  1.00  0.00    -0.002 C 
ATOM     14  C   UNL     1      82.674  -4.777  28.866  1.00  0.00    -0.069 C 
ATOM     15  C   UNL     1      83.275  -4.175  27.617  1.00  0.00     0.039 C 
ATOM     16  C   UNL     1      83.439  -4.620  30.161  1.00  0.00     0.039 C 
BRANCH  13  17
ATOM     17  C   UNL     1      80.785  -5.690  27.493  1.00  0.00     0.066 CG0
ATOM     18  G   UNL     1      80.289  -7.105  27.300  1.00  0.00     0.000 G0
ENDBRANCH  13  17
ENDBRANCH  11  13
ENDBRANCH  10  11
ENDBRANCH   1  10
TORSDOF 0
ENDMDL
MODEL 5
REMARK VINA RESULT:    -2.750      2.483      4.221
REMARK INTER + INTRA:          -3.446
REMARK INTER:                  -3.722
REMARK INTRA:                   0.276
REMARK UNBOUND:                 0.430
REMARK SMILES CC1=CCC(=C(C)C)C(=O)CC(C)=CCC1
REMARK SMILES IDX 12 1 14 2 13 3 15 4 16 5 2 6 1 7 3 8 11 10 9 11 10 12 5 13
REMARK SMILES IDX 6 14 7 15 8 16 4 17
REMARK H PARENT
REMARK Flexibility Score: 60.00
ROOT
ATOM      1  C   UNL     1      84.355  -7.399  28.538  1.00  0.00    -0.070 C 
ATOM      2  C   UNL     1      84.340  -8.006  27.330  1.00  0.00    -0.027 C 
ATOM      3  C   UNL     1      85.624  -6.708  28.971  1.00  0.00     0.039 C 
ENDROOT
BRANCH   2   4
ATOM      4  C   UNL     1      83.149  -8.713  26.724  1.00  0.00     0.032 C 
BRANCH   4   5
ATOM      5  C   UNL     1      82.180  -7.725  26.059  1.00  0.00     0.034 C 
BRANCH   5   6
ATOM      6  C   UNL     1      80.718  -7.985  26.393  1.00  0.00    -0.077 C 
ATOM      7  C   UNL     1      80.050  -9.214  25.829  1.00  0.00     0.039 C 
ATOM      8  C   UNL     1      79.985  -7.185  27.201  1.00  0.00    -0.023 CG0
ATOM      9  G   UNL     1      80.455  -5.879  27.800  1.00  0.00     0.000 G0
ENDBRANCH   5   6
ENDBRANCH   4   5
ENDBRANCH   2   4
BRANCH   1  10
ATOM     10  C   UNL     1      83.159  -7.391  29.472  1.00  0.00     0.111 C 
BRANCH  10  11
ATOM     11  C   UNL     1      82.450  -6.066  29.433  1.00  0.00     0.163 C 
ATOM     12  O   UNL     1      83.116  -5.002  29.555  1.00  0.00    -0.294 OA
BRANCH  11  13
ATOM     13  C   UNL     1      80.982  -5.983  29.227  1.00  0.00    -0.002 C 
ATOM     14  C   UNL     1      80.136  -6.015  30.293  1.00  0.00    -0.069 C 
ATOM     15  C   UNL     1      78.637  -5.981  30.100  1.00  0.00     0.039 C 
ATOM     16  C   UNL     1      80.664  -6.044  31.709  1.00  0.00     0.039 C 
BRANCH  13  17
ATOM     17  C   UNL     1      80.437  -5.870  27.808  1.00  0.00     0.066 CG0
ATOM     18  G   UNL     1      80.009  -7.193  27.214  1.00  0.00     0.000 G0
ENDBRANCH  13  17
ENDBRANCH  11  13
ENDBRANCH  10  11
ENDBRANCH   1  10
TORSDOF 0
ENDMDL
MODEL 6
REMARK VINA RESULT:    -2.679      2.983      4.696
REMARK INTER + INTRA:          -3.346
REMARK INTER:                  -3.918
REMARK INTRA:                   0.572
REMARK UNBOUND:                 0.430
REMARK SMILES CC1=CCC(=C(C)C)C(=O)CC(C)=CCC1
REMARK SMILES IDX 12 1 14 2 13 3 15 4 16 5 2 6 1 7 3 8 11 10 9 11 10 12 5 13
REMARK SMILES IDX 6 14 7 15 8 16 4 17
REMARK H PARENT
REMARK Flexibility Score: 60.00
ROOT
ATOM      1  C   UNL     1      81.521  -5.656  31.147  1.00  0.00    -0.070 C 
ATOM      2  C   UNL     1      80.191  -5.428  31.237  1.00  0.00    -0.027 C 
ATOM      3  C   UNL     1      82.459  -4.523  31.480  1.00  0.00     0.039 C 
ENDROOT
BRANCH   2   4
ATOM      4  C   UNL     1      79.112  -6.454  30.976  1.00  0.00     0.032 C 
BRANCH   4   5
ATOM      5  C   UNL     1      78.293  -6.112  29.723  1.00  0.00     0.034 C 
BRANCH   5   6
ATOM      6  C   UNL     1      78.664  -6.946  28.505  1.00  0.00    -0.077 C 
ATOM      7  C   UNL     1      77.850  -8.175  28.189  1.00  0.00     0.039 C 
ATOM      8  C   UNL     1      79.675  -6.628  27.665  1.00  0.00    -0.023 CG0
ATOM      9  G   UNL     1      80.643  -5.482  27.855  1.00  0.00     0.000 G0
ENDBRANCH   5   6
ENDBRANCH   4   5
ENDBRANCH   2   4
BRANCH   1  10
ATOM     10  C   UNL     1      82.103  -6.990  30.722  1.00  0.00     0.111 C 
BRANCH  10  11
ATOM     11  C   UNL     1      82.131  -7.117  29.224  1.00  0.00     0.163 C 
ATOM     12  O   UNL     1      82.217  -8.261  28.700  1.00  0.00    -0.294 OA
BRANCH  11  13
ATOM     13  C   UNL     1      82.033  -5.922  28.347  1.00  0.00    -0.002 C 
ATOM     14  C   UNL     1      83.153  -5.233  27.997  1.00  0.00    -0.069 C 
ATOM     15  C   UNL     1      83.068  -3.987  27.145  1.00  0.00     0.039 C 
ATOM     16  C   UNL     1      84.526  -5.710  28.413  1.00  0.00     0.039 C 
BRANCH  13  17
ATOM     17  C   UNL     1      80.662  -5.476  27.852  1.00  0.00     0.066 CG0
ATOM     18  G   UNL     1      79.684  -6.614  27.664  1.00  0.00     0.000 G0
ENDBRANCH  13  17
ENDBRANCH  11  13
ENDBRANCH  10  11
ENDBRANCH   1  10
TORSDOF 0
ENDMDL
MODEL 7
REMARK VINA RESULT:    -2.651      2.680      5.475
REMARK INTER + INTRA:          -3.307
REMARK INTER:                  -3.723
REMARK INTRA:                   0.416
REMARK UNBOUND:                 0.430
REMARK SMILES CC1=CCC(=C(C)C)C(=O)CC(C)=CCC1
REMARK SMILES IDX 12 1 14 2 13 3 15 4 16 5 2 6 1 7 3 8 11 10 9 11 10 12 5 13
REMARK SMILES IDX 6 14 7 15 8 16 4 17
REMARK H PARENT
REMARK Flexibility Score: 60.00
ROOT
ATOM      1  C   UNL     1      82.553  -7.582  26.565  1.00  0.00    -0.070 C 
ATOM      2  C   UNL     1      83.329  -6.498  26.793  1.00  0.00    -0.027 C 
ATOM      3  C   UNL     1      83.227  -8.925  26.439  1.00  0.00     0.039 C 
ENDROOT
BRANCH   2   4
ATOM      4  C   UNL     1      82.821  -5.087  26.981  1.00  0.00     0.032 C 
BRANCH   4   5
ATOM      5  C   UNL     1      83.229  -4.513  28.346  1.00  0.00     0.034 C 
BRANCH   5   6
ATOM      6  C   UNL     1      82.781  -5.365  29.525  1.00  0.00    -0.077 C 
ATOM      7  C   UNL     1      83.825  -5.909  30.468  1.00  0.00     0.039 C 
ATOM      8  C   UNL     1      81.485  -5.642  29.794  1.00  0.00    -0.023 CG0
ATOM      9  G   UNL     1      80.308  -5.249  28.930  1.00  0.00     0.000 G0
ENDBRANCH   5   6
ENDBRANCH   4   5
ENDBRANCH   2   4
BRANCH   1  10
ATOM     10  C   UNL     1      81.044  -7.503  26.426  1.00  0.00     0.111 C 
BRANCH  10  11
ATOM     11  C   UNL     1      80.371  -7.576  27.768  1.00  0.00     0.163 C 
ATOM     12  O   UNL     1      80.506  -8.612  28.473  1.00  0.00    -0.294 OA
BRANCH  11  13
ATOM     13  C   UNL     1      79.570  -6.440  28.291  1.00  0.00    -0.002 C 
ATOM     14  C   UNL     1      78.213  -6.451  28.188  1.00  0.00    -0.069 C 
ATOM     15  C   UNL     1      77.385  -5.282  28.672  1.00  0.00     0.039 C 
ATOM     16  C   UNL     1      77.481  -7.648  27.625  1.00  0.00     0.039 C 
BRANCH  13  17
ATOM     17  C   UNL     1      80.289  -5.261  28.938  1.00  0.00     0.066 CG0
ATOM     18  G   UNL     1      81.470  -5.663  29.791  1.00  0.00     0.000 G0
ENDBRANCH  13  17
ENDBRANCH  11  13
ENDBRANCH  10  11
ENDBRANCH   1  10
TORSDOF 0
ENDMDL
MODEL 8
REMARK VINA RESULT:    -2.624      2.360      3.950
REMARK INTER + INTRA:          -3.267
REMARK INTER:                  -3.876
REMARK INTRA:                   0.608
REMARK UNBOUND:                 0.430
REMARK SMILES CC1=CCC(=C(C)C)C(=O)CC(C)=CCC1
REMARK SMILES IDX 12 1 14 2 13 3 15 4 16 5 2 6 1 7 3 8 11 10 9 11 10 12 5 13
REMARK SMILES IDX 6 14 7 15 8 16 4 17
REMARK H PARENT
REMARK Flexibility Score: 60.00
ROOT
ATOM      1  C   UNL     1      81.613  -4.946  28.222  1.00  0.00    -0.070 C 
ATOM      2  C   UNL     1      80.409  -4.771  27.632  1.00  0.00    -0.027 C 
ATOM      3  C   UNL     1      82.833  -4.399  27.523  1.00  0.00     0.039 C 
ENDROOT
BRANCH   2   4
ATOM      4  C   UNL     1      79.084  -5.220  28.206  1.00  0.00     0.032 C 
BRANCH   4   5
ATOM      5  C   UNL     1      78.467  -6.363  27.385  1.00  0.00     0.034 C 
BRANCH   5   6
ATOM      6  C   UNL     1      78.674  -7.738  28.003  1.00  0.00    -0.077 C 
ATOM      7  C   UNL     1      77.567  -8.337  28.833  1.00  0.00     0.039 C 
ATOM      8  C   UNL     1      79.795  -8.473  27.824  1.00  0.00    -0.023 CG0
ATOM      9  G   UNL     1      81.034  -8.016  27.089  1.00  0.00     0.000 G0
ENDBRANCH   5   6
ENDBRANCH   4   5
ENDBRANCH   2   4
BRANCH   1  10
ATOM     10  C   UNL     1      81.787  -5.668  29.544  1.00  0.00     0.111 C 
BRANCH  10  11
ATOM     11  C   UNL     1      81.977  -7.145  29.335  1.00  0.00     0.163 C 
ATOM     12  O   UNL     1      81.900  -7.926  30.322  1.00  0.00    -0.294 OA
BRANCH  11  13
ATOM     13  C   UNL     1      82.226  -7.706  27.983  1.00  0.00    -0.002 C 
ATOM     14  C   UNL     1      83.499  -7.931  27.557  1.00  0.00    -0.069 C 
ATOM     15  C   UNL     1      83.776  -8.455  26.166  1.00  0.00     0.039 C 
ATOM     16  C   UNL     1      84.682  -7.703  28.471  1.00  0.00     0.039 C 
BRANCH  13  17
ATOM     17  C   UNL     1      81.040  -8.018  27.078  1.00  0.00     0.066 CG0
ATOM     18  G   UNL     1      79.809  -8.474  27.827  1.00  0.00     0.000 G0
ENDBRANCH  13  17
ENDBRANCH  11  13
ENDBRANCH  10  11
ENDBRANCH   1  10
TORSDOF 0
ENDMDL
MODEL 9
REMARK VINA RESULT:    -2.586      2.365      3.834
REMARK INTER + INTRA:          -3.215
REMARK INTER:                  -3.788
REMARK INTRA:                   0.573
REMARK UNBOUND:                 0.430
REMARK SMILES CC1=CCC(=C(C)C)C(=O)CC(C)=CCC1
REMARK SMILES IDX 12 1 14 2 13 3 15 4 16 5 2 6 1 7 3 8 11 10 9 11 10 12 5 13
REMARK SMILES IDX 6 14 7 15 8 16 4 17
REMARK H PARENT
REMARK Flexibility Score: 60.00
ROOT
ATOM      1  C   UNL     1      82.263  -8.296  26.286  1.00  0.00    -0.070 C 
ATOM      2  C   UNL     1      80.985  -8.736  26.347  1.00  0.00    -0.027 C 
ATOM      3  C   UNL     1      83.370  -9.298  26.495  1.00  0.00     0.039 C 
ENDROOT
BRANCH   2   4
ATOM      4  C   UNL     1      79.758  -7.882  26.128  1.00  0.00     0.032 C 
BRANCH   4   5
ATOM      5  C   UNL     1      78.947  -7.709  27.421  1.00  0.00     0.034 C 
BRANCH   5   6
ATOM      6  C   UNL     1      79.111  -6.340  28.065  1.00  0.00    -0.077 C 
ATOM      7  C   UNL     1      78.110  -5.258  27.743  1.00  0.00     0.039 C 
ATOM      8  C   UNL     1      80.098  -6.043  28.942  1.00  0.00    -0.023 CG0
ATOM      9  G   UNL     1      81.229  -6.967  29.332  1.00  0.00     0.000 G0
ENDBRANCH   5   6
ENDBRANCH   4   5
ENDBRANCH   2   4
BRANCH   1  10
ATOM     10  C   UNL     1      82.624  -6.847  26.023  1.00  0.00     0.111 C 
BRANCH  10  11
ATOM     11  C   UNL     1      82.537  -6.029  27.282  1.00  0.00     0.163 C 
ATOM     12  O   UNL     1      82.416  -4.777  27.201  1.00  0.00    -0.294 OA
BRANCH  11  13
ATOM     13  C   UNL     1      82.565  -6.671  28.621  1.00  0.00    -0.002 C 
ATOM     14  C   UNL     1      83.752  -6.984  29.208  1.00  0.00    -0.069 C 
ATOM     15  C   UNL     1      83.800  -7.681  30.549  1.00  0.00     0.039 C 
ATOM     16  C   UNL     1      85.067  -6.609  28.562  1.00  0.00     0.039 C 
BRANCH  13  17
ATOM     17  C   UNL     1      81.248  -6.980  29.324  1.00  0.00     0.066 CG0
ATOM     18  G   UNL     1      80.123  -6.044  28.944  1.00  0.00     0.000 G0
ENDBRANCH  13  17
ENDBRANCH  11  13
ENDBRANCH  10  11
ENDBRANCH   1  10
TORSDOF 0
ENDMDL
