MODEL 1
REMARK VINA RESULT:    -3.435      0.000      0.000
REMARK INTER + INTRA:         -10.882
REMARK INTER:                  -7.451
REMARK INTRA:                  -3.430
REMARK UNBOUND:                -3.430
REMARK SMILES CCCCCCCCCCCCCCCCCCCCCC(=O)[O-]
REMARK SMILES IDX 12 1 11 2 10 3 9 4 8 5 7 6 6 7 5 8 4 9 3 10 2 11 1 12 13 13
REMARK SMILES IDX 14 14 15 15 16 16 17 17 18 18 19 19 20 20 21 21 22 22 23 23
REMARK SMILES IDX 24 24
REMARK H PARENT
REMARK Flexibility Score: inf
ROOT
ATOM      1  C   UNL     1      63.742  28.126  58.370  1.00  0.00     0.000 C 
ENDROOT
BRANCH   1   2
ATOM      2  C   UNL     1      64.202  29.372  59.142  1.00  0.00     0.000 C 
BRANCH   2   3
ATOM      3  C   UNL     1      64.506  29.029  60.608  1.00  0.00     0.000 C 
BRANCH   3   4
ATOM      4  C   UNL     1      63.751  29.933  61.601  1.00  0.00    -0.000 C 
BRANCH   4   5
ATOM      5  C   UNL     1      62.301  29.486  61.875  1.00  0.00    -0.000 C 
BRANCH   5   6
ATOM      6  C   UNL     1      61.258  30.601  61.625  1.00  0.00    -0.000 C 
BRANCH   6   7
ATOM      7  C   UNL     1      60.894  30.781  60.139  1.00  0.00    -0.000 C 
BRANCH   7   8
ATOM      8  C   UNL     1      61.489  32.041  59.487  1.00  0.00    -0.000 C 
BRANCH   8   9
ATOM      9  C   UNL     1      62.087  33.015  60.516  1.00  0.00    -0.000 C 
BRANCH   9  10
ATOM     10  C   UNL     1      63.470  33.538  60.096  1.00  0.00    -0.000 C 
BRANCH  10  11
ATOM     11  C   UNL     1      64.502  33.443  61.229  1.00  0.00    -0.003 C 
ATOM     12  C   UNL     1      64.946  34.830  61.685  1.00  0.00     0.004 C 
ENDBRANCH  10  11
ENDBRANCH   9  10
ENDBRANCH   8   9
ENDBRANCH   7   8
ENDBRANCH   6   7
ENDBRANCH   5   6
ENDBRANCH   4   5
ENDBRANCH   3   4
ENDBRANCH   2   3
ENDBRANCH   1   2
BRANCH   1  13
ATOM     13  C   UNL     1      62.312  27.691  58.734  1.00  0.00     0.000 C 
BRANCH  13  14
ATOM     14  C   UNL     1      62.188  26.263  59.304  1.00  0.00     0.000 C 
BRANCH  14  15
ATOM     15  C   UNL     1      63.513  25.617  59.751  1.00  0.00     0.000 C 
BRANCH  15  16
ATOM     16  C   UNL     1      63.698  25.636  61.279  1.00  0.00     0.000 C 
BRANCH  16  17
ATOM     17  C   UNL     1      62.395  25.954  62.030  1.00  0.00     0.000 C 
BRANCH  17  18
ATOM     18  C   UNL     1      61.954  24.810  62.961  1.00  0.00     0.000 C 
BRANCH  18  19
ATOM     19  C   UNL     1      60.425  24.734  63.116  1.00  0.00     0.000 C 
BRANCH  19  20
ATOM     20  C   UNL     1      59.684  25.007  61.795  1.00  0.00     0.006 C 
BRANCH  20  21
ATOM     21  C   UNL     1      58.257  25.524  62.027  1.00  0.00     0.053 C 
BRANCH  21  22
ATOM     22  C   UNL     1      58.095  26.941  61.570  1.00  0.00     0.041 C 
ATOM     23  O   UNL     1      56.968  27.500  61.624  1.00  0.00    -0.550 OA
ATOM     24  O   UNL     1      59.184  27.636  61.057  1.00  0.00    -0.550 OA
ENDBRANCH  21  22
ENDBRANCH  20  21
ENDBRANCH  19  20
ENDBRANCH  18  19
ENDBRANCH  17  18
ENDBRANCH  16  17
ENDBRANCH  15  16
ENDBRANCH  14  15
ENDBRANCH  13  14
ENDBRANCH   1  13
TORSDOF 20
ENDMDL
MODEL 2
REMARK VINA RESULT:    -3.432      9.710     12.273
REMARK INTER + INTRA:         -10.875
REMARK INTER:                  -7.043
REMARK INTRA:                  -3.831
REMARK UNBOUND:                -3.430
REMARK SMILES CCCCCCCCCCCCCCCCCCCCCC(=O)[O-]
REMARK SMILES IDX 12 1 11 2 10 3 9 4 8 5 7 6 6 7 5 8 4 9 3 10 2 11 1 12 13 13
REMARK SMILES IDX 14 14 15 15 16 16 17 17 18 18 19 19 20 20 21 21 22 22 23 23
REMARK SMILES IDX 24 24
REMARK H PARENT
REMARK Flexibility Score: inf
ROOT
ATOM      1  C   UNL     1      59.117  28.643  49.965  1.00  0.00     0.000 C 
ENDROOT
BRANCH   1   2
ATOM      2  C   UNL     1      57.706  28.207  50.386  1.00  0.00     0.000 C 
BRANCH   2   3
ATOM      3  C   UNL     1      57.424  28.591  51.846  1.00  0.00     0.000 C 
BRANCH   3   4
ATOM      4  C   UNL     1      55.928  28.832  52.120  1.00  0.00    -0.000 C 
BRANCH   4   5
ATOM      5  C   UNL     1      55.063  28.909  50.847  1.00  0.00    -0.000 C 
BRANCH   5   6
ATOM      6  C   UNL     1      53.544  28.828  51.131  1.00  0.00    -0.000 C 
BRANCH   6   7
ATOM      7  C   UNL     1      52.967  27.407  50.991  1.00  0.00    -0.000 C 
BRANCH   7   8
ATOM      8  C   UNL     1      53.313  26.706  49.667  1.00  0.00    -0.000 C 
BRANCH   8   9
ATOM      9  C   UNL     1      53.923  25.308  49.877  1.00  0.00    -0.000 C 
BRANCH   9  10
ATOM     10  C   UNL     1      55.458  25.325  49.842  1.00  0.00    -0.000 C 
BRANCH  10  11
ATOM     11  C   UNL     1      56.079  25.192  51.241  1.00  0.00    -0.003 C 
ATOM     12  C   UNL     1      55.063  24.652  52.243  1.00  0.00     0.004 C 
ENDBRANCH  10  11
ENDBRANCH   9  10
ENDBRANCH   8   9
ENDBRANCH   7   8
ENDBRANCH   6   7
ENDBRANCH   5   6
ENDBRANCH   4   5
ENDBRANCH   3   4
ENDBRANCH   2   3
ENDBRANCH   1   2
BRANCH   1  13
ATOM     13  C   UNL     1      59.984  27.470  49.476  1.00  0.00     0.000 C 
BRANCH  13  14
ATOM     14  C   UNL     1      59.452  26.068  49.839  1.00  0.00     0.000 C 
BRANCH  14  15
ATOM     15  C   UNL     1      60.531  25.024  50.180  1.00  0.00     0.000 C 
BRANCH  15  16
ATOM     16  C   UNL     1      60.782  24.901  51.693  1.00  0.00     0.000 C 
BRANCH  16  17
ATOM     17  C   UNL     1      59.687  25.580  52.533  1.00  0.00     0.000 C 
BRANCH  17  18
ATOM     18  C   UNL     1      60.215  26.787  53.329  1.00  0.00     0.000 C 
BRANCH  18  19
ATOM     19  C   UNL     1      61.714  27.038  53.092  1.00  0.00     0.000 C 
BRANCH  19  20
ATOM     20  C   UNL     1      61.985  28.392  52.412  1.00  0.00     0.006 C 
BRANCH  20  21
ATOM     21  C   UNL     1      63.066  28.289  51.326  1.00  0.00     0.053 C 
BRANCH  21  22
ATOM     22  C   UNL     1      63.065  29.482  50.421  1.00  0.00     0.041 C 
ATOM     23  O   UNL     1      62.161  30.354  50.521  1.00  0.00    -0.550 OA
ATOM     24  O   UNL     1      64.048  29.618  49.449  1.00  0.00    -0.550 OA
ENDBRANCH  21  22
ENDBRANCH  20  21
ENDBRANCH  19  20
ENDBRANCH  18  19
ENDBRANCH  17  18
ENDBRANCH  16  17
ENDBRANCH  15  16
ENDBRANCH  14  15
ENDBRANCH  13  14
ENDBRANCH   1  13
TORSDOF 20
ENDMDL
MODEL 3
REMARK VINA RESULT:    -3.220      9.761     12.852
REMARK INTER + INTRA:         -10.415
REMARK INTER:                  -6.954
REMARK INTRA:                  -3.460
REMARK UNBOUND:                -3.430
REMARK SMILES CCCCCCCCCCCCCCCCCCCCCC(=O)[O-]
REMARK SMILES IDX 12 1 11 2 10 3 9 4 8 5 7 6 6 7 5 8 4 9 3 10 2 11 1 12 13 13
REMARK SMILES IDX 14 14 15 15 16 16 17 17 18 18 19 19 20 20 21 21 22 22 23 23
REMARK SMILES IDX 24 24
REMARK H PARENT
REMARK Flexibility Score: inf
ROOT
ATOM      1  C   UNL     1      60.515  25.415  51.985  1.00  0.00     0.000 C 
ENDROOT
BRANCH   1   2
ATOM      2  C   UNL     1      60.789  25.205  50.488  1.00  0.00     0.000 C 
BRANCH   2   3
ATOM      3  C   UNL     1      59.833  26.047  49.630  1.00  0.00     0.000 C 
BRANCH   3   4
ATOM      4  C   UNL     1      60.350  27.478  49.393  1.00  0.00    -0.000 C 
BRANCH   4   5
ATOM      5  C   UNL     1      59.267  28.567  49.540  1.00  0.00    -0.000 C 
BRANCH   5   6
ATOM      6  C   UNL     1      58.794  28.768  50.999  1.00  0.00    -0.000 C 
BRANCH   6   7
ATOM      7  C   UNL     1      57.346  28.304  51.246  1.00  0.00    -0.000 C 
BRANCH   7   8
ATOM      8  C   UNL     1      57.201  27.223  52.331  1.00  0.00    -0.000 C 
BRANCH   8   9
ATOM      9  C   UNL     1      56.794  25.856  51.755  1.00  0.00    -0.000 C 
BRANCH   9  10
ATOM     10  C   UNL     1      56.203  25.965  50.341  1.00  0.00    -0.000 C 
BRANCH  10  11
ATOM     11  C   UNL     1      54.668  26.003  50.347  1.00  0.00    -0.003 C 
ATOM     12  C   UNL     1      54.093  25.112  49.250  1.00  0.00     0.004 C 
ENDBRANCH  10  11
ENDBRANCH   9  10
ENDBRANCH   8   9
ENDBRANCH   7   8
ENDBRANCH   6   7
ENDBRANCH   5   6
ENDBRANCH   4   5
ENDBRANCH   3   4
ENDBRANCH   2   3
ENDBRANCH   1   2
BRANCH   1  13
ATOM     13  C   UNL     1      61.688  26.088  52.719  1.00  0.00     0.000 C 
BRANCH  13  14
ATOM     14  C   UNL     1      61.387  27.490  53.286  1.00  0.00     0.000 C 
BRANCH  14  15
ATOM     15  C   UNL     1      62.574  28.471  53.279  1.00  0.00     0.000 C 
BRANCH  15  16
ATOM     16  C   UNL     1      62.320  29.706  52.398  1.00  0.00     0.000 C 
BRANCH  16  17
ATOM     17  C   UNL     1      62.665  29.463  50.920  1.00  0.00     0.000 C 
BRANCH  17  18
ATOM     18  C   UNL     1      64.052  28.822  50.733  1.00  0.00     0.000 C 
BRANCH  18  19
ATOM     19  C   UNL     1      63.973  27.426  50.092  1.00  0.00     0.000 C 
BRANCH  19  20
ATOM     20  C   UNL     1      64.221  27.459  48.574  1.00  0.00     0.006 C 
BRANCH  20  21
ATOM     21  C   UNL     1      64.928  28.748  48.131  1.00  0.00     0.053 C 
BRANCH  21  22
ATOM     22  C   UNL     1      66.171  28.463  47.345  1.00  0.00     0.041 C 
ATOM     23  O   UNL     1      67.076  29.333  47.251  1.00  0.00    -0.550 OA
ATOM     24  O   UNL     1      66.317  27.244  46.693  1.00  0.00    -0.550 OA
ENDBRANCH  21  22
ENDBRANCH  20  21
ENDBRANCH  19  20
ENDBRANCH  18  19
ENDBRANCH  17  18
ENDBRANCH  16  17
ENDBRANCH  15  16
ENDBRANCH  14  15
ENDBRANCH  13  14
ENDBRANCH   1  13
TORSDOF 20
ENDMDL
MODEL 4
REMARK VINA RESULT:    -3.130      4.947      7.445
REMARK INTER + INTRA:         -10.221
REMARK INTER:                  -6.594
REMARK INTRA:                  -3.626
REMARK UNBOUND:                -3.430
REMARK SMILES CCCCCCCCCCCCCCCCCCCCCC(=O)[O-]
REMARK SMILES IDX 12 1 11 2 10 3 9 4 8 5 7 6 6 7 5 8 4 9 3 10 2 11 1 12 13 13
REMARK SMILES IDX 14 14 15 15 16 16 17 17 18 18 19 19 20 20 21 21 22 22 23 23
REMARK SMILES IDX 24 24
REMARK H PARENT
REMARK Flexibility Score: inf
ROOT
ATOM      1  C   UNL     1      62.228  27.897  60.611  1.00  0.00     0.000 C 
ENDROOT
BRANCH   1   2
ATOM      2  C   UNL     1      62.306  28.901  61.771  1.00  0.00     0.000 C 
BRANCH   2   3
ATOM      3  C   UNL     1      61.346  30.078  61.545  1.00  0.00     0.000 C 
BRANCH   3   4
ATOM      4  C   UNL     1      61.018  30.302  60.057  1.00  0.00    -0.000 C 
BRANCH   4   5
ATOM      5  C   UNL     1      61.185  31.763  59.593  1.00  0.00    -0.000 C 
BRANCH   5   6
ATOM      6  C   UNL     1      61.996  32.632  60.583  1.00  0.00    -0.000 C 
BRANCH   6   7
ATOM      7  C   UNL     1      63.091  33.478  59.906  1.00  0.00    -0.000 C 
BRANCH   7   8
ATOM      8  C   UNL     1      64.524  32.973  60.146  1.00  0.00    -0.000 C 
BRANCH   8   9
ATOM      9  C   UNL     1      64.571  31.731  61.053  1.00  0.00    -0.000 C 
BRANCH   9  10
ATOM     10  C   UNL     1      65.256  30.534  60.376  1.00  0.00    -0.000 C 
BRANCH  10  11
ATOM     11  C   UNL     1      65.309  30.675  58.848  1.00  0.00    -0.003 C 
ATOM     12  C   UNL     1      64.234  29.822  58.181  1.00  0.00     0.004 C 
ENDBRANCH  10  11
ENDBRANCH   9  10
ENDBRANCH   8   9
ENDBRANCH   7   8
ENDBRANCH   6   7
ENDBRANCH   5   6
ENDBRANCH   4   5
ENDBRANCH   3   4
ENDBRANCH   2   3
ENDBRANCH   1   2
BRANCH   1  13
ATOM     13  C   UNL     1      63.133  26.670  60.820  1.00  0.00     0.000 C 
BRANCH  13  14
ATOM     14  C   UNL     1      64.645  26.970  60.849  1.00  0.00     0.000 C 
BRANCH  14  15
ATOM     15  C   UNL     1      65.424  26.541  59.591  1.00  0.00     0.000 C 
BRANCH  15  16
ATOM     16  C   UNL     1      66.920  26.890  59.671  1.00  0.00     0.000 C 
BRANCH  16  17
ATOM     17  C   UNL     1      67.307  27.543  61.008  1.00  0.00     0.000 C 
BRANCH  17  18
ATOM     18  C   UNL     1      68.492  28.516  60.871  1.00  0.00     0.000 C 
BRANCH  18  19
ATOM     19  C   UNL     1      68.746  28.932  59.412  1.00  0.00     0.000 C 
BRANCH  19  20
ATOM     20  C   UNL     1      70.245  29.040  59.083  1.00  0.00     0.006 C 
BRANCH  20  21
ATOM     21  C   UNL     1      71.005  29.886  60.114  1.00  0.00     0.053 C 
BRANCH  21  22
ATOM     22  C   UNL     1      72.137  29.126  60.736  1.00  0.00     0.041 C 
ATOM     23  O   UNL     1      72.436  29.311  61.945  1.00  0.00    -0.550 OA
ATOM     24  O   UNL     1      72.878  28.234  59.972  1.00  0.00    -0.550 OA
ENDBRANCH  21  22
ENDBRANCH  20  21
ENDBRANCH  19  20
ENDBRANCH  18  19
ENDBRANCH  17  18
ENDBRANCH  16  17
ENDBRANCH  15  16
ENDBRANCH  14  15
ENDBRANCH  13  14
ENDBRANCH   1  13
TORSDOF 20
ENDMDL
MODEL 5
REMARK VINA RESULT:    -3.120      9.055     11.530
REMARK INTER + INTRA:         -10.199
REMARK INTER:                  -6.515
REMARK INTRA:                  -3.684
REMARK UNBOUND:                -3.430
REMARK SMILES CCCCCCCCCCCCCCCCCCCCCC(=O)[O-]
REMARK SMILES IDX 12 1 11 2 10 3 9 4 8 5 7 6 6 7 5 8 4 9 3 10 2 11 1 12 13 13
REMARK SMILES IDX 14 14 15 15 16 16 17 17 18 18 19 19 20 20 21 21 22 22 23 23
REMARK SMILES IDX 24 24
REMARK H PARENT
REMARK Flexibility Score: inf
ROOT
ATOM      1  C   UNL     1      57.170  25.269  51.529  1.00  0.00     0.000 C 
ENDROOT
BRANCH   1   2
ATOM      2  C   UNL     1      56.461  25.690  52.825  1.00  0.00     0.000 C 
BRANCH   2   3
ATOM      3  C   UNL     1      57.221  26.827  53.524  1.00  0.00     0.000 C 
BRANCH   3   4
ATOM      4  C   UNL     1      58.740  26.772  53.270  1.00  0.00    -0.000 C 
BRANCH   4   5
ATOM      5  C   UNL     1      59.344  28.110  52.800  1.00  0.00    -0.000 C 
BRANCH   5   6
ATOM      6  C   UNL     1      58.393  28.929  51.896  1.00  0.00    -0.000 C 
BRANCH   6   7
ATOM      7  C   UNL     1      58.594  28.667  50.392  1.00  0.00    -0.000 C 
BRANCH   7   8
ATOM      8  C   UNL     1      60.003  28.179  50.014  1.00  0.00    -0.000 C 
BRANCH   8   9
ATOM      9  C   UNL     1      60.015  26.718  49.532  1.00  0.00    -0.000 C 
BRANCH   9  10
ATOM     10  C   UNL     1      61.014  25.850  50.312  1.00  0.00    -0.000 C 
BRANCH  10  11
ATOM     11  C   UNL     1      60.580  24.378  50.385  1.00  0.00    -0.003 C 
ATOM     12  C   UNL     1      60.628  23.862  51.820  1.00  0.00     0.004 C 
ENDBRANCH  10  11
ENDBRANCH   9  10
ENDBRANCH   8   9
ENDBRANCH   7   8
ENDBRANCH   6   7
ENDBRANCH   5   6
ENDBRANCH   4   5
ENDBRANCH   3   4
ENDBRANCH   2   3
ENDBRANCH   1   2
BRANCH   1  13
ATOM     13  C   UNL     1      56.364  25.619  50.266  1.00  0.00     0.000 C 
BRANCH  13  14
ATOM     14  C   UNL     1      55.563  26.934  50.345  1.00  0.00     0.000 C 
BRANCH  14  15
ATOM     15  C   UNL     1      54.068  26.815  49.996  1.00  0.00     0.000 C 
BRANCH  15  16
ATOM     16  C   UNL     1      53.276  28.093  50.326  1.00  0.00     0.000 C 
BRANCH  16  17
ATOM     17  C   UNL     1      54.146  29.175  50.987  1.00  0.00     0.000 C 
BRANCH  17  18
ATOM     18  C   UNL     1      53.325  30.144  51.857  1.00  0.00     0.000 C 
BRANCH  18  19
ATOM     19  C   UNL     1      54.196  30.904  52.872  1.00  0.00     0.000 C 
BRANCH  19  20
ATOM     20  C   UNL     1      55.358  30.049  53.408  1.00  0.00     0.006 C 
BRANCH  20  21
ATOM     21  C   UNL     1      55.105  29.562  54.843  1.00  0.00     0.053 C 
BRANCH  21  22
ATOM     22  C   UNL     1      56.295  29.782  55.726  1.00  0.00     0.041 C 
ATOM     23  O   UNL     1      57.439  29.935  55.223  1.00  0.00    -0.550 OA
ATOM     24  O   UNL     1      56.143  29.791  57.107  1.00  0.00    -0.550 OA
ENDBRANCH  21  22
ENDBRANCH  20  21
ENDBRANCH  19  20
ENDBRANCH  18  19
ENDBRANCH  17  18
ENDBRANCH  16  17
ENDBRANCH  15  16
ENDBRANCH  14  15
ENDBRANCH  13  14
ENDBRANCH   1  13
TORSDOF 20
ENDMDL
MODEL 6
REMARK VINA RESULT:    -3.119      9.063     11.234
REMARK INTER + INTRA:         -10.196
REMARK INTER:                  -6.436
REMARK INTRA:                  -3.760
REMARK UNBOUND:                -3.430
REMARK SMILES CCCCCCCCCCCCCCCCCCCCCC(=O)[O-]
REMARK SMILES IDX 12 1 11 2 10 3 9 4 8 5 7 6 6 7 5 8 4 9 3 10 2 11 1 12 13 13
REMARK SMILES IDX 14 14 15 15 16 16 17 17 18 18 19 19 20 20 21 21 22 22 23 23
REMARK SMILES IDX 24 24
REMARK H PARENT
REMARK Flexibility Score: inf
ROOT
ATOM      1  C   UNL     1      55.056  26.830  50.125  1.00  0.00     0.000 C 
ENDROOT
BRANCH   1   2
ATOM      2  C   UNL     1      53.960  27.694  50.767  1.00  0.00     0.000 C 
BRANCH   2   3
ATOM      3  C   UNL     1      54.399  29.164  50.854  1.00  0.00     0.000 C 
BRANCH   3   4
ATOM      4  C   UNL     1      54.422  29.693  52.301  1.00  0.00    -0.000 C 
BRANCH   4   5
ATOM      5  C   UNL     1      55.816  29.657  52.959  1.00  0.00    -0.000 C 
BRANCH   5   6
ATOM      6  C   UNL     1      55.763  29.605  54.504  1.00  0.00    -0.000 C 
BRANCH   6   7
ATOM      7  C   UNL     1      56.888  28.759  55.130  1.00  0.00    -0.000 C 
BRANCH   7   8
ATOM      8  C   UNL     1      57.544  27.758  54.164  1.00  0.00    -0.000 C 
BRANCH   8   9
ATOM      9  C   UNL     1      59.036  28.051  53.930  1.00  0.00    -0.000 C 
BRANCH   9  10
ATOM     10  C   UNL     1      59.433  29.469  54.369  1.00  0.00    -0.000 C 
BRANCH  10  11
ATOM     11  C   UNL     1      59.493  30.452  53.191  1.00  0.00    -0.003 C 
ATOM     12  C   UNL     1      58.825  31.777  53.547  1.00  0.00     0.004 C 
ENDBRANCH  10  11
ENDBRANCH   9  10
ENDBRANCH   8   9
ENDBRANCH   7   8
ENDBRANCH   6   7
ENDBRANCH   5   6
ENDBRANCH   4   5
ENDBRANCH   3   4
ENDBRANCH   2   3
ENDBRANCH   1   2
BRANCH   1  13
ATOM     13  C   UNL     1      56.230  26.548  51.078  1.00  0.00     0.000 C 
BRANCH  13  14
ATOM     14  C   UNL     1      57.629  26.841  50.497  1.00  0.00     0.000 C 
BRANCH  14  15
ATOM     15  C   UNL     1      58.027  28.328  50.461  1.00  0.00     0.000 C 
BRANCH  15  16
ATOM     16  C   UNL     1      59.219  28.601  49.527  1.00  0.00     0.000 C 
BRANCH  16  17
ATOM     17  C   UNL     1      60.564  28.619  50.272  1.00  0.00     0.000 C 
BRANCH  17  18
ATOM     18  C   UNL     1      61.323  27.285  50.155  1.00  0.00     0.000 C 
BRANCH  18  19
ATOM     19  C   UNL     1      61.549  26.615  51.521  1.00  0.00     0.000 C 
BRANCH  19  20
ATOM     20  C   UNL     1      60.734  25.320  51.685  1.00  0.00     0.006 C 
BRANCH  20  21
ATOM     21  C   UNL     1      60.580  24.561  50.358  1.00  0.00     0.053 C 
BRANCH  21  22
ATOM     22  C   UNL     1      61.439  23.335  50.312  1.00  0.00     0.041 C 
ATOM     23  O   UNL     1      62.635  23.384  50.703  1.00  0.00    -0.550 OA
ATOM     24  O   UNL     1      60.926  22.145  49.812  1.00  0.00    -0.550 OA
ENDBRANCH  21  22
ENDBRANCH  20  21
ENDBRANCH  19  20
ENDBRANCH  18  19
ENDBRANCH  17  18
ENDBRANCH  16  17
ENDBRANCH  15  16
ENDBRANCH  14  15
ENDBRANCH  13  14
ENDBRANCH   1  13
TORSDOF 20
ENDMDL
MODEL 7
REMARK VINA RESULT:    -3.091      9.463     11.915
REMARK INTER + INTRA:         -10.136
REMARK INTER:                  -6.322
REMARK INTRA:                  -3.814
REMARK UNBOUND:                -3.430
REMARK SMILES CCCCCCCCCCCCCCCCCCCCCC(=O)[O-]
REMARK SMILES IDX 12 1 11 2 10 3 9 4 8 5 7 6 6 7 5 8 4 9 3 10 2 11 1 12 13 13
REMARK SMILES IDX 14 14 15 15 16 16 17 17 18 18 19 19 20 20 21 21 22 22 23 23
REMARK SMILES IDX 24 24
REMARK H PARENT
REMARK Flexibility Score: inf
ROOT
ATOM      1  C   UNL     1      59.994  26.601  49.679  1.00  0.00     0.000 C 
ENDROOT
BRANCH   1   2
ATOM      2  C   UNL     1      59.395  27.703  50.566  1.00  0.00     0.000 C 
BRANCH   2   3
ATOM      3  C   UNL     1      60.376  28.110  51.676  1.00  0.00     0.000 C 
BRANCH   3   4
ATOM      4  C   UNL     1      59.712  28.167  53.065  1.00  0.00    -0.000 C 
BRANCH   4   5
ATOM      5  C   UNL     1      58.592  27.127  53.267  1.00  0.00    -0.000 C 
BRANCH   5   6
ATOM      6  C   UNL     1      57.286  27.734  53.831  1.00  0.00    -0.000 C 
BRANCH   6   7
ATOM      7  C   UNL     1      56.840  29.018  53.107  1.00  0.00    -0.000 C 
BRANCH   7   8
ATOM      8  C   UNL     1      55.531  28.877  52.311  1.00  0.00    -0.000 C 
BRANCH   8   9
ATOM      9  C   UNL     1      55.770  28.515  50.835  1.00  0.00    -0.000 C 
BRANCH   9  10
ATOM     10  C   UNL     1      55.024  27.239  50.414  1.00  0.00    -0.000 C 
BRANCH  10  11
ATOM     11  C   UNL     1      55.956  26.023  50.306  1.00  0.00    -0.003 C 
ATOM     12  C   UNL     1      55.885  25.163  51.564  1.00  0.00     0.004 C 
ENDBRANCH  10  11
ENDBRANCH   9  10
ENDBRANCH   8   9
ENDBRANCH   7   8
ENDBRANCH   6   7
ENDBRANCH   5   6
ENDBRANCH   4   5
ENDBRANCH   3   4
ENDBRANCH   2   3
ENDBRANCH   1   2
BRANCH   1  13
ATOM     13  C   UNL     1      59.393  25.213  49.963  1.00  0.00     0.000 C 
BRANCH  13  14
ATOM     14  C   UNL     1      60.052  24.440  51.123  1.00  0.00     0.000 C 
BRANCH  14  15
ATOM     15  C   UNL     1      61.093  23.386  50.703  1.00  0.00     0.000 C 
BRANCH  15  16
ATOM     16  C   UNL     1      62.535  23.922  50.751  1.00  0.00     0.000 C 
BRANCH  16  17
ATOM     17  C   UNL     1      62.753  24.935  51.887  1.00  0.00     0.000 C 
BRANCH  17  18
ATOM     18  C   UNL     1      63.505  26.195  51.420  1.00  0.00     0.000 C 
BRANCH  18  19
ATOM     19  C   UNL     1      63.944  26.106  49.948  1.00  0.00     0.000 C 
BRANCH  19  20
ATOM     20  C   UNL     1      63.492  27.324  49.123  1.00  0.00     0.006 C 
BRANCH  20  21
ATOM     21  C   UNL     1      63.669  28.641  49.891  1.00  0.00     0.053 C 
BRANCH  21  22
ATOM     22  C   UNL     1      64.579  29.590  49.173  1.00  0.00     0.041 C 
ATOM     23  O   UNL     1      64.689  30.782  49.563  1.00  0.00    -0.550 OA
ATOM     24  O   UNL     1      65.285  29.164  48.054  1.00  0.00    -0.550 OA
ENDBRANCH  21  22
ENDBRANCH  20  21
ENDBRANCH  19  20
ENDBRANCH  18  19
ENDBRANCH  17  18
ENDBRANCH  16  17
ENDBRANCH  15  16
ENDBRANCH  14  15
ENDBRANCH  13  14
ENDBRANCH   1  13
TORSDOF 20
ENDMDL
MODEL 8
REMARK VINA RESULT:    -3.080      9.544     12.295
REMARK INTER + INTRA:         -10.112
REMARK INTER:                  -6.641
REMARK INTRA:                  -3.471
REMARK UNBOUND:                -3.430
REMARK SMILES CCCCCCCCCCCCCCCCCCCCCC(=O)[O-]
REMARK SMILES IDX 12 1 11 2 10 3 9 4 8 5 7 6 6 7 5 8 4 9 3 10 2 11 1 12 13 13
REMARK SMILES IDX 14 14 15 15 16 16 17 17 18 18 19 19 20 20 21 21 22 22 23 23
REMARK SMILES IDX 24 24
REMARK H PARENT
REMARK Flexibility Score: inf
ROOT
ATOM      1  C   UNL     1      60.072  26.421  50.171  1.00  0.00     0.000 C 
ENDROOT
BRANCH   1   2
ATOM      2  C   UNL     1      58.939  25.400  49.984  1.00  0.00     0.000 C 
BRANCH   2   3
ATOM      3  C   UNL     1      58.368  24.958  51.339  1.00  0.00     0.000 C 
BRANCH   3   4
ATOM      4  C   UNL     1      56.848  25.188  51.448  1.00  0.00    -0.000 C 
BRANCH   4   5
ATOM      5  C   UNL     1      56.215  25.798  50.181  1.00  0.00    -0.000 C 
BRANCH   5   6
ATOM      6  C   UNL     1      54.669  25.788  50.203  1.00  0.00    -0.000 C 
BRANCH   6   7
ATOM      7  C   UNL     1      54.041  27.182  50.009  1.00  0.00    -0.000 C 
BRANCH   7   8
ATOM      8  C   UNL     1      54.787  28.320  50.727  1.00  0.00    -0.000 C 
BRANCH   8   9
ATOM      9  C   UNL     1      54.231  28.598  52.134  1.00  0.00    -0.000 C 
BRANCH   9  10
ATOM     10  C   UNL     1      55.341  28.839  53.168  1.00  0.00    -0.000 C 
BRANCH  10  11
ATOM     11  C   UNL     1      55.650  27.586  54.001  1.00  0.00    -0.003 C 
ATOM     12  C   UNL     1      54.462  26.628  54.013  1.00  0.00     0.004 C 
ENDBRANCH  10  11
ENDBRANCH   9  10
ENDBRANCH   8   9
ENDBRANCH   7   8
ENDBRANCH   6   7
ENDBRANCH   5   6
ENDBRANCH   4   5
ENDBRANCH   3   4
ENDBRANCH   2   3
ENDBRANCH   1   2
BRANCH   1  13
ATOM     13  C   UNL     1      59.714  27.816  49.629  1.00  0.00     0.000 C 
BRANCH  13  14
ATOM     14  C   UNL     1      58.595  28.549  50.396  1.00  0.00     0.000 C 
BRANCH  14  15
ATOM     15  C   UNL     1      58.671  28.442  51.930  1.00  0.00     0.000 C 
BRANCH  15  16
ATOM     16  C   UNL     1      58.992  29.786  52.605  1.00  0.00     0.000 C 
BRANCH  16  17
ATOM     17  C   UNL     1      60.470  30.185  52.461  1.00  0.00     0.000 C 
BRANCH  17  18
ATOM     18  C   UNL     1      61.431  29.051  52.860  1.00  0.00     0.000 C 
BRANCH  18  19
ATOM     19  C   UNL     1      62.485  28.764  51.777  1.00  0.00     0.000 C 
BRANCH  19  20
ATOM     20  C   UNL     1      62.613  29.912  50.760  1.00  0.00     0.006 C 
BRANCH  20  21
ATOM     21  C   UNL     1      63.993  30.582  50.814  1.00  0.00     0.053 C 
BRANCH  21  22
ATOM     22  C   UNL     1      64.233  31.465  49.628  1.00  0.00     0.041 C 
ATOM     23  O   UNL     1      63.290  32.140  49.139  1.00  0.00    -0.550 OA
ATOM     24  O   UNL     1      65.494  31.520  49.047  1.00  0.00    -0.550 OA
ENDBRANCH  21  22
ENDBRANCH  20  21
ENDBRANCH  19  20
ENDBRANCH  18  19
ENDBRANCH  17  18
ENDBRANCH  16  17
ENDBRANCH  15  16
ENDBRANCH  14  15
ENDBRANCH  13  14
ENDBRANCH   1  13
TORSDOF 20
ENDMDL
MODEL 9
REMARK VINA RESULT:    -3.023      9.710     12.192
REMARK INTER + INTRA:          -9.989
REMARK INTER:                  -7.010
REMARK INTRA:                  -2.979
REMARK UNBOUND:                -3.430
REMARK SMILES CCCCCCCCCCCCCCCCCCCCCC(=O)[O-]
REMARK SMILES IDX 12 1 11 2 10 3 9 4 8 5 7 6 6 7 5 8 4 9 3 10 2 11 1 12 13 13
REMARK SMILES IDX 14 14 15 15 16 16 17 17 18 18 19 19 20 20 21 21 22 22 23 23
REMARK SMILES IDX 24 24
REMARK H PARENT
REMARK Flexibility Score: inf
ROOT
ATOM      1  C   UNL     1      55.809  25.602  49.880  1.00  0.00     0.000 C 
ENDROOT
BRANCH   1   2
ATOM      2  C   UNL     1      56.283  25.447  51.334  1.00  0.00     0.000 C 
BRANCH   2   3
ATOM      3  C   UNL     1      56.711  26.801  51.920  1.00  0.00     0.000 C 
BRANCH   3   4
ATOM      4  C   UNL     1      56.878  27.890  50.843  1.00  0.00    -0.000 C 
BRANCH   4   5
ATOM      5  C   UNL     1      58.198  28.679  50.950  1.00  0.00    -0.000 C 
BRANCH   5   6
ATOM      6  C   UNL     1      59.176  28.398  49.785  1.00  0.00    -0.000 C 
BRANCH   6   7
ATOM      7  C   UNL     1      60.172  27.260  50.078  1.00  0.00    -0.000 C 
BRANCH   7   8
ATOM      8  C   UNL     1      59.670  25.859  49.688  1.00  0.00    -0.000 C 
BRANCH   8   9
ATOM      9  C   UNL     1      59.980  24.799  50.760  1.00  0.00    -0.000 C 
BRANCH   9  10
ATOM     10  C   UNL     1      61.296  24.056  50.489  1.00  0.00    -0.000 C 
BRANCH  10  11
ATOM     11  C   UNL     1      62.448  24.561  51.370  1.00  0.00    -0.003 C 
ATOM     12  C   UNL     1      63.609  25.067  50.519  1.00  0.00     0.004 C 
ENDBRANCH  10  11
ENDBRANCH   9  10
ENDBRANCH   8   9
ENDBRANCH   7   8
ENDBRANCH   6   7
ENDBRANCH   5   6
ENDBRANCH   4   5
ENDBRANCH   3   4
ENDBRANCH   2   3
ENDBRANCH   1   2
BRANCH   1  13
ATOM     13  C   UNL     1      54.430  24.967  49.631  1.00  0.00     0.000 C 
BRANCH  13  14
ATOM     14  C   UNL     1      53.230  25.787  50.146  1.00  0.00     0.000 C 
BRANCH  14  15
ATOM     15  C   UNL     1      53.312  27.304  49.890  1.00  0.00     0.000 C 
BRANCH  15  16
ATOM     16  C   UNL     1      53.105  28.134  51.168  1.00  0.00     0.000 C 
BRANCH  16  17
ATOM     17  C   UNL     1      53.682  29.555  51.053  1.00  0.00     0.000 C 
BRANCH  17  18
ATOM     18  C   UNL     1      54.324  30.041  52.365  1.00  0.00     0.000 C 
BRANCH  18  19
ATOM     19  C   UNL     1      54.173  29.022  53.507  1.00  0.00     0.000 C 
BRANCH  19  20
ATOM     20  C   UNL     1      53.504  29.628  54.754  1.00  0.00     0.006 C 
BRANCH  20  21
ATOM     21  C   UNL     1      53.747  31.140  54.864  1.00  0.00     0.053 C 
BRANCH  21  22
ATOM     22  C   UNL     1      54.925  31.454  55.734  1.00  0.00     0.041 C 
ATOM     23  O   UNL     1      56.068  31.602  55.226  1.00  0.00    -0.550 OA
ATOM     24  O   UNL     1      54.765  31.556  57.111  1.00  0.00    -0.550 OA
ENDBRANCH  21  22
ENDBRANCH  20  21
ENDBRANCH  19  20
ENDBRANCH  18  19
ENDBRANCH  17  18
ENDBRANCH  16  17
ENDBRANCH  15  16
ENDBRANCH  14  15
ENDBRANCH  13  14
ENDBRANCH   1  13
TORSDOF 20
ENDMDL
