MODEL 1
REMARK VINA RESULT:    -4.991      0.000      0.000
REMARK INTER + INTRA:         -16.609
REMARK INTER:                 -12.576
REMARK INTRA:                  -4.033
REMARK UNBOUND:                -4.033
REMARK SMILES CCCCCCCCCCCCCCCCCCCCCCCCCCCC(=O)[O-]
REMARK SMILES IDX 15 1 16 2 17 3 18 4 19 5 20 6 21 7 22 8 23 9 24 10 25 11
REMARK SMILES IDX 26 12 27 13 28 14 29 15 30 16 14 17 13 18 12 19 11 20 10 21
REMARK SMILES IDX 9 22 8 23 7 24 6 25 5 26 4 27 3 28 2 29 1 30
REMARK H PARENT
REMARK Flexibility Score: inf
ROOT
ATOM      1  C   UNL     1      -9.395   8.121 -11.411  1.00  0.00     0.000 C 
ENDROOT
BRANCH   1   2
ATOM      2  C   UNL     1     -10.553   7.236 -10.904  1.00  0.00     0.000 C 
BRANCH   2   3
ATOM      3  C   UNL     1     -11.582   6.896 -11.997  1.00  0.00     0.000 C 
BRANCH   3   4
ATOM      4  C   UNL     1     -12.886   6.321 -11.419  1.00  0.00     0.000 C 
BRANCH   4   5
ATOM      5  C   UNL     1     -12.681   5.643 -10.052  1.00  0.00     0.000 C 
BRANCH   5   6
ATOM      6  C   UNL     1     -13.027   4.145 -10.073  1.00  0.00     0.000 C 
BRANCH   6   7
ATOM      7  C   UNL     1     -12.411   3.315  -8.930  1.00  0.00     0.000 C 
BRANCH   7   8
ATOM      8  C   UNL     1     -11.252   4.017  -8.191  1.00  0.00     0.000 C 
BRANCH   8   9
ATOM      9  C   UNL     1      -9.889   3.355  -8.462  1.00  0.00     0.000 C 
BRANCH   9  10
ATOM     10  C   UNL     1      -8.862   4.327  -9.069  1.00  0.00     0.000 C 
BRANCH  10  11
ATOM     11  C   UNL     1      -8.724   4.253 -10.603  1.00  0.00     0.000 C 
BRANCH  11  12
ATOM     12  C   UNL     1      -9.314   2.989 -11.252  1.00  0.00     0.006 C 
BRANCH  12  13
ATOM     13  C   UNL     1     -10.285   3.307 -12.398  1.00  0.00     0.053 C 
BRANCH  13  14
ATOM     14  C   UNL     1      -9.751   2.788 -13.696  1.00  0.00     0.041 C 
ATOM     15  O   UNL     1      -9.387   1.588 -13.797  1.00  0.00    -0.550 OA
ATOM     16  O   UNL     1      -9.701   3.618 -14.807  1.00  0.00    -0.550 OA
ENDBRANCH  13  14
ENDBRANCH  12  13
ENDBRANCH  11  12
ENDBRANCH  10  11
ENDBRANCH   9  10
ENDBRANCH   8   9
ENDBRANCH   7   8
ENDBRANCH   6   7
ENDBRANCH   5   6
ENDBRANCH   4   5
ENDBRANCH   3   4
ENDBRANCH   2   3
ENDBRANCH   1   2
BRANCH   1  17
ATOM     17  C   UNL     1      -8.463   8.647 -10.304  1.00  0.00     0.000 C 
BRANCH  17  18
ATOM     18  C   UNL     1      -8.606   7.885  -8.978  1.00  0.00     0.000 C 
BRANCH  18  19
ATOM     19  C   UNL     1      -7.241   7.706  -8.300  1.00  0.00     0.000 C 
BRANCH  19  20
ATOM     20  C   UNL     1      -6.094   7.898  -9.304  1.00  0.00     0.000 C 
BRANCH  20  21
ATOM     21  C   UNL     1      -5.619   6.575  -9.923  1.00  0.00     0.000 C 
BRANCH  21  22
ATOM     22  C   UNL     1      -5.665   6.586 -11.458  1.00  0.00    -0.000 C 
BRANCH  22  23
ATOM     23  C   UNL     1      -4.570   7.498 -12.031  1.00  0.00    -0.000 C 
BRANCH  23  24
ATOM     24  C   UNL     1      -3.154   7.060 -11.622  1.00  0.00    -0.000 C 
BRANCH  24  25
ATOM     25  C   UNL     1      -2.043   7.440 -12.620  1.00  0.00    -0.000 C 
BRANCH  25  26
ATOM     26  C   UNL     1      -1.807   8.961 -12.740  1.00  0.00    -0.000 C 
BRANCH  26  27
ATOM     27  C   UNL     1      -2.175   9.501 -14.131  1.00  0.00    -0.000 C 
BRANCH  27  28
ATOM     28  C   UNL     1      -2.587   8.364 -15.073  1.00  0.00    -0.000 C 
BRANCH  28  29
ATOM     29  C   UNL     1      -3.239   8.915 -16.346  1.00  0.00    -0.003 C 
ATOM     30  C   UNL     1      -3.015   7.978 -17.529  1.00  0.00     0.004 C 
ENDBRANCH  28  29
ENDBRANCH  27  28
ENDBRANCH  26  27
ENDBRANCH  25  26
ENDBRANCH  24  25
ENDBRANCH  23  24
ENDBRANCH  22  23
ENDBRANCH  21  22
ENDBRANCH  20  21
ENDBRANCH  19  20
ENDBRANCH  18  19
ENDBRANCH  17  18
ENDBRANCH   1  17
TORSDOF 26
ENDMDL
MODEL 2
REMARK VINA RESULT:    -4.929      1.499      2.230
REMARK INTER + INTRA:         -16.455
REMARK INTER:                 -11.957
REMARK INTRA:                  -4.498
REMARK UNBOUND:                -4.033
REMARK SMILES CCCCCCCCCCCCCCCCCCCCCCCCCCCC(=O)[O-]
REMARK SMILES IDX 15 1 16 2 17 3 18 4 19 5 20 6 21 7 22 8 23 9 24 10 25 11
REMARK SMILES IDX 26 12 27 13 28 14 29 15 30 16 14 17 13 18 12 19 11 20 10 21
REMARK SMILES IDX 9 22 8 23 7 24 6 25 5 26 4 27 3 28 2 29 1 30
REMARK H PARENT
REMARK Flexibility Score: inf
ROOT
ATOM      1  C   UNL     1     -10.631   7.168 -10.949  1.00  0.00     0.000 C 
ENDROOT
BRANCH   1   2
ATOM      2  C   UNL     1     -11.618   6.759 -12.062  1.00  0.00     0.000 C 
BRANCH   2   3
ATOM      3  C   UNL     1     -13.017   6.396 -11.532  1.00  0.00     0.000 C 
BRANCH   3   4
ATOM      4  C   UNL     1     -12.972   5.805 -10.114  1.00  0.00     0.000 C 
BRANCH   4   5
ATOM      5  C   UNL     1     -12.763   4.279 -10.112  1.00  0.00     0.000 C 
BRANCH   5   6
ATOM      6  C   UNL     1     -12.192   3.758  -8.784  1.00  0.00     0.000 C 
BRANCH   6   7
ATOM      7  C   UNL     1     -10.740   3.246  -8.851  1.00  0.00     0.000 C 
BRANCH   7   8
ATOM      8  C   UNL     1      -9.672   4.349  -8.688  1.00  0.00     0.000 C 
BRANCH   8   9
ATOM      9  C   UNL     1      -8.586   4.288  -9.777  1.00  0.00     0.000 C 
BRANCH   9  10
ATOM     10  C   UNL     1      -8.912   3.280 -10.893  1.00  0.00     0.000 C 
BRANCH  10  11
ATOM     11  C   UNL     1      -9.359   3.907 -12.228  1.00  0.00     0.000 C 
BRANCH  11  12
ATOM     12  C   UNL     1      -8.218   4.273 -13.193  1.00  0.00     0.006 C 
BRANCH  12  13
ATOM     13  C   UNL     1      -7.837   5.759 -13.127  1.00  0.00     0.053 C 
BRANCH  13  14
ATOM     14  C   UNL     1      -8.069   6.419 -14.449  1.00  0.00     0.041 C 
ATOM     15  O   UNL     1      -7.253   6.252 -15.392  1.00  0.00    -0.550 OA
ATOM     16  O   UNL     1      -9.213   7.179 -14.655  1.00  0.00    -0.550 OA
ENDBRANCH  13  14
ENDBRANCH  12  13
ENDBRANCH  11  12
ENDBRANCH  10  11
ENDBRANCH   9  10
ENDBRANCH   8   9
ENDBRANCH   7   8
ENDBRANCH   6   7
ENDBRANCH   5   6
ENDBRANCH   4   5
ENDBRANCH   3   4
ENDBRANCH   2   3
ENDBRANCH   1   2
BRANCH   1  17
ATOM     17  C   UNL     1      -9.634   8.270 -11.354  1.00  0.00     0.000 C 
BRANCH  17  18
ATOM     18  C   UNL     1      -8.950   8.940 -10.154  1.00  0.00     0.000 C 
BRANCH  18  19
ATOM     19  C   UNL     1      -8.600   7.906  -9.075  1.00  0.00     0.000 C 
BRANCH  19  20
ATOM     20  C   UNL     1      -7.093   7.611  -9.060  1.00  0.00     0.000 C 
BRANCH  20  21
ATOM     21  C   UNL     1      -6.284   8.610  -9.902  1.00  0.00     0.000 C 
BRANCH  21  22
ATOM     22  C   UNL     1      -5.487   7.931 -11.025  1.00  0.00    -0.000 C 
BRANCH  22  23
ATOM     23  C   UNL     1      -5.210   6.459 -10.686  1.00  0.00    -0.000 C 
BRANCH  23  24
ATOM     24  C   UNL     1      -3.774   6.027 -11.025  1.00  0.00    -0.000 C 
BRANCH  24  25
ATOM     25  C   UNL     1      -3.118   6.806 -12.182  1.00  0.00    -0.000 C 
BRANCH  25  26
ATOM     26  C   UNL     1      -1.773   7.464 -11.806  1.00  0.00    -0.000 C 
BRANCH  26  27
ATOM     27  C   UNL     1      -1.583   8.830 -12.483  1.00  0.00    -0.000 C 
BRANCH  27  28
ATOM     28  C   UNL     1      -2.810   9.207 -13.321  1.00  0.00    -0.000 C 
BRANCH  28  29
ATOM     29  C   UNL     1      -2.410   9.539 -14.763  1.00  0.00    -0.003 C 
ATOM     30  C   UNL     1      -2.786   8.408 -15.715  1.00  0.00     0.004 C 
ENDBRANCH  28  29
ENDBRANCH  27  28
ENDBRANCH  26  27
ENDBRANCH  25  26
ENDBRANCH  24  25
ENDBRANCH  23  24
ENDBRANCH  22  23
ENDBRANCH  21  22
ENDBRANCH  20  21
ENDBRANCH  19  20
ENDBRANCH  18  19
ENDBRANCH  17  18
ENDBRANCH   1  17
TORSDOF 26
ENDMDL
MODEL 3
REMARK VINA RESULT:    -4.900      1.828      4.318
REMARK INTER + INTRA:         -16.381
REMARK INTER:                 -13.200
REMARK INTRA:                  -3.181
REMARK UNBOUND:                -4.033
REMARK SMILES CCCCCCCCCCCCCCCCCCCCCCCCCCCC(=O)[O-]
REMARK SMILES IDX 15 1 16 2 17 3 18 4 19 5 20 6 21 7 22 8 23 9 24 10 25 11
REMARK SMILES IDX 26 12 27 13 28 14 29 15 30 16 14 17 13 18 12 19 11 20 10 21
REMARK SMILES IDX 9 22 8 23 7 24 6 25 5 26 4 27 3 28 2 29 1 30
REMARK H PARENT
REMARK Flexibility Score: inf
ROOT
ATOM      1  C   UNL     1     -12.634   5.611  -9.830  1.00  0.00     0.000 C 
ENDROOT
BRANCH   1   2
ATOM      2  C   UNL     1     -12.783   4.077  -9.749  1.00  0.00     0.000 C 
BRANCH   2   3
ATOM      3  C   UNL     1     -11.628   3.392  -8.997  1.00  0.00     0.000 C 
BRANCH   3   4
ATOM      4  C   UNL     1     -10.639   4.403  -8.393  1.00  0.00     0.000 C 
BRANCH   4   5
ATOM      5  C   UNL     1      -9.200   4.203  -8.903  1.00  0.00     0.000 C 
BRANCH   5   6
ATOM      6  C   UNL     1      -9.097   3.116  -9.985  1.00  0.00     0.000 C 
BRANCH   6   7
ATOM      7  C   UNL     1      -8.769   3.630 -11.401  1.00  0.00     0.000 C 
BRANCH   7   8
ATOM      8  C   UNL     1     -10.008   3.876 -12.287  1.00  0.00     0.000 C 
BRANCH   8   9
ATOM      9  C   UNL     1     -10.466   2.608 -13.030  1.00  0.00     0.000 C 
BRANCH   9  10
ATOM     10  C   UNL     1      -9.631   2.316 -14.289  1.00  0.00     0.000 C 
BRANCH  10  11
ATOM     11  C   UNL     1      -9.307   0.828 -14.525  1.00  0.00     0.000 C 
BRANCH  11  12
ATOM     12  C   UNL     1      -9.877   0.233 -15.825  1.00  0.00     0.006 C 
BRANCH  12  13
ATOM     13  C   UNL     1      -9.100   0.676 -17.072  1.00  0.00     0.053 C 
BRANCH  13  14
ATOM     14  C   UNL     1      -9.982   1.470 -17.983  1.00  0.00     0.041 C 
ATOM     15  O   UNL     1      -9.989   2.727 -17.922  1.00  0.00    -0.550 OA
ATOM     16  O   UNL     1     -10.762   0.823 -18.933  1.00  0.00    -0.550 OA
ENDBRANCH  13  14
ENDBRANCH  12  13
ENDBRANCH  11  12
ENDBRANCH  10  11
ENDBRANCH   9  10
ENDBRANCH   8   9
ENDBRANCH   7   8
ENDBRANCH   6   7
ENDBRANCH   5   6
ENDBRANCH   4   5
ENDBRANCH   3   4
ENDBRANCH   2   3
ENDBRANCH   1   2
BRANCH   1  17
ATOM     17  C   UNL     1     -12.938   6.209 -11.216  1.00  0.00     0.000 C 
BRANCH  17  18
ATOM     18  C   UNL     1     -11.703   6.809 -11.903  1.00  0.00     0.000 C 
BRANCH  18  19
ATOM     19  C   UNL     1     -10.603   7.118 -10.879  1.00  0.00     0.000 C 
BRANCH  19  20
ATOM     20  C   UNL     1      -9.681   8.241 -11.378  1.00  0.00     0.000 C 
BRANCH  20  21
ATOM     21  C   UNL     1      -8.905   8.922 -10.241  1.00  0.00     0.000 C 
BRANCH  21  22
ATOM     22  C   UNL     1      -8.504   7.945  -9.126  1.00  0.00    -0.000 C 
BRANCH  22  23
ATOM     23  C   UNL     1      -6.990   7.690  -9.142  1.00  0.00    -0.000 C 
BRANCH  23  24
ATOM     24  C   UNL     1      -6.274   8.412 -10.295  1.00  0.00    -0.000 C 
BRANCH  24  25
ATOM     25  C   UNL     1      -5.678   7.485 -11.372  1.00  0.00    -0.000 C 
BRANCH  25  26
ATOM     26  C   UNL     1      -4.135   7.485 -11.409  1.00  0.00    -0.000 C 
BRANCH  26  27
ATOM     27  C   UNL     1      -3.582   6.923 -12.727  1.00  0.00    -0.000 C 
BRANCH  27  28
ATOM     28  C   UNL     1      -2.105   7.291 -12.908  1.00  0.00    -0.000 C 
BRANCH  28  29
ATOM     29  C   UNL     1      -1.905   8.809 -12.845  1.00  0.00    -0.003 C 
ATOM     30  C   UNL     1      -2.282   9.470 -14.168  1.00  0.00     0.004 C 
ENDBRANCH  28  29
ENDBRANCH  27  28
ENDBRANCH  26  27
ENDBRANCH  25  26
ENDBRANCH  24  25
ENDBRANCH  23  24
ENDBRANCH  22  23
ENDBRANCH  21  22
ENDBRANCH  20  21
ENDBRANCH  19  20
ENDBRANCH  18  19
ENDBRANCH  17  18
ENDBRANCH   1  17
TORSDOF 26
ENDMDL
MODEL 4
REMARK VINA RESULT:    -4.812      1.731      3.277
REMARK INTER + INTRA:         -16.159
REMARK INTER:                 -11.947
REMARK INTRA:                  -4.212
REMARK UNBOUND:                -4.033
REMARK SMILES CCCCCCCCCCCCCCCCCCCCCCCCCCCC(=O)[O-]
REMARK SMILES IDX 15 1 16 2 17 3 18 4 19 5 20 6 21 7 22 8 23 9 24 10 25 11
REMARK SMILES IDX 26 12 27 13 28 14 29 15 30 16 14 17 13 18 12 19 11 20 10 21
REMARK SMILES IDX 9 22 8 23 7 24 6 25 5 26 4 27 3 28 2 29 1 30
REMARK H PARENT
REMARK Flexibility Score: inf
ROOT
ATOM      1  C   UNL     1      -8.360   7.796  -9.223  1.00  0.00     0.000 C 
ENDROOT
BRANCH   1   2
ATOM      2  C   UNL     1      -8.906   8.872 -10.185  1.00  0.00     0.000 C 
BRANCH   2   3
ATOM      3  C   UNL     1      -9.613   8.282 -11.419  1.00  0.00     0.000 C 
BRANCH   3   4
ATOM      4  C   UNL     1     -10.709   7.272 -11.041  1.00  0.00     0.000 C 
BRANCH   4   5
ATOM      5  C   UNL     1     -11.562   6.842 -12.248  1.00  0.00     0.000 C 
BRANCH   5   6
ATOM      6  C   UNL     1     -12.656   5.829 -11.873  1.00  0.00     0.000 C 
BRANCH   6   7
ATOM      7  C   UNL     1     -12.968   5.730 -10.367  1.00  0.00     0.000 C 
BRANCH   7   8
ATOM      8  C   UNL     1     -12.797   4.314  -9.777  1.00  0.00     0.000 C 
BRANCH   8   9
ATOM      9  C   UNL     1     -11.748   4.263  -8.652  1.00  0.00     0.000 C 
BRANCH   9  10
ATOM     10  C   UNL     1     -10.317   4.056  -9.177  1.00  0.00     0.000 C 
BRANCH  10  11
ATOM     11  C   UNL     1     -10.211   3.213 -10.463  1.00  0.00     0.000 C 
BRANCH  11  12
ATOM     12  C   UNL     1      -9.343   3.827 -11.577  1.00  0.00     0.006 C 
BRANCH  12  13
ATOM     13  C   UNL     1      -8.158   4.635 -11.030  1.00  0.00     0.053 C 
BRANCH  13  14
ATOM     14  C   UNL     1      -7.197   4.964 -12.129  1.00  0.00     0.041 C 
ATOM     15  O   UNL     1      -6.166   4.264 -12.299  1.00  0.00    -0.550 OA
ATOM     16  O   UNL     1      -7.467   6.015 -12.995  1.00  0.00    -0.550 OA
ENDBRANCH  13  14
ENDBRANCH  12  13
ENDBRANCH  11  12
ENDBRANCH  10  11
ENDBRANCH   9  10
ENDBRANCH   8   9
ENDBRANCH   7   8
ENDBRANCH   6   7
ENDBRANCH   5   6
ENDBRANCH   4   5
ENDBRANCH   3   4
ENDBRANCH   2   3
ENDBRANCH   1   2
BRANCH   1  17
ATOM     17  C   UNL     1      -6.830   7.811  -9.051  1.00  0.00     0.000 C 
BRANCH  17  18
ATOM     18  C   UNL     1      -6.083   8.291 -10.303  1.00  0.00     0.000 C 
BRANCH  18  19
ATOM     19  C   UNL     1      -4.920   7.350 -10.642  1.00  0.00     0.000 C 
BRANCH  19  20
ATOM     20  C   UNL     1      -4.217   7.783 -11.938  1.00  0.00     0.000 C 
BRANCH  20  21
ATOM     21  C   UNL     1      -2.723   7.426 -11.950  1.00  0.00     0.000 C 
BRANCH  21  22
ATOM     22  C   UNL     1      -1.863   8.492 -12.645  1.00  0.00    -0.000 C 
BRANCH  22  23
ATOM     23  C   UNL     1      -2.736   9.439 -13.482  1.00  0.00    -0.000 C 
BRANCH  23  24
ATOM     24  C   UNL     1      -2.328   9.476 -14.963  1.00  0.00    -0.000 C 
BRANCH  24  25
ATOM     25  C   UNL     1      -3.396   8.957 -15.945  1.00  0.00    -0.000 C 
BRANCH  25  26
ATOM     26  C   UNL     1      -3.717   7.456 -15.778  1.00  0.00    -0.000 C 
BRANCH  26  27
ATOM     27  C   UNL     1      -2.475   6.570 -15.957  1.00  0.00    -0.000 C 
BRANCH  27  28
ATOM     28  C   UNL     1      -2.738   5.144 -15.458  1.00  0.00    -0.000 C 
BRANCH  28  29
ATOM     29  C   UNL     1      -1.670   4.709 -14.449  1.00  0.00    -0.003 C 
ATOM     30  C   UNL     1      -2.306   4.120 -13.193  1.00  0.00     0.004 C 
ENDBRANCH  28  29
ENDBRANCH  27  28
ENDBRANCH  26  27
ENDBRANCH  25  26
ENDBRANCH  24  25
ENDBRANCH  23  24
ENDBRANCH  22  23
ENDBRANCH  21  22
ENDBRANCH  20  21
ENDBRANCH  19  20
ENDBRANCH  18  19
ENDBRANCH  17  18
ENDBRANCH   1  17
TORSDOF 26
ENDMDL
MODEL 5
REMARK VINA RESULT:    -4.746      2.715      7.123
REMARK INTER + INTRA:         -15.993
REMARK INTER:                 -11.097
REMARK INTRA:                  -4.896
REMARK UNBOUND:                -4.033
REMARK SMILES CCCCCCCCCCCCCCCCCCCCCCCCCCCC(=O)[O-]
REMARK SMILES IDX 15 1 16 2 17 3 18 4 19 5 20 6 21 7 22 8 23 9 24 10 25 11
REMARK SMILES IDX 26 12 27 13 28 14 29 15 30 16 14 17 13 18 12 19 11 20 10 21
REMARK SMILES IDX 9 22 8 23 7 24 6 25 5 26 4 27 3 28 2 29 1 30
REMARK H PARENT
REMARK Flexibility Score: inf
ROOT
ATOM      1  C   UNL     1     -10.720   7.102 -10.889  1.00  0.00     0.000 C 
ENDROOT
BRANCH   1   2
ATOM      2  C   UNL     1      -9.686   8.171 -11.299  1.00  0.00     0.000 C 
BRANCH   2   3
ATOM      3  C   UNL     1      -9.016   8.863 -10.098  1.00  0.00     0.000 C 
BRANCH   3   4
ATOM      4  C   UNL     1      -8.509   7.858  -9.050  1.00  0.00     0.000 C 
BRANCH   4   5
ATOM      5  C   UNL     1      -6.972   7.793  -8.985  1.00  0.00     0.000 C 
BRANCH   5   6
ATOM      6  C   UNL     1      -6.293   8.730  -9.997  1.00  0.00     0.000 C 
BRANCH   6   7
ATOM      7  C   UNL     1      -5.597   8.024 -11.177  1.00  0.00     0.000 C 
BRANCH   7   8
ATOM      8  C   UNL     1      -4.836   6.739 -10.786  1.00  0.00     0.000 C 
BRANCH   8   9
ATOM      9  C   UNL     1      -3.607   6.483 -11.677  1.00  0.00     0.000 C 
BRANCH   9  10
ATOM     10  C   UNL     1      -2.606   7.651 -11.665  1.00  0.00     0.000 C 
BRANCH  10  11
ATOM     11  C   UNL     1      -1.913   7.928 -13.013  1.00  0.00     0.000 C 
BRANCH  11  12
ATOM     12  C   UNL     1      -2.744   8.744 -14.020  1.00  0.00     0.006 C 
BRANCH  12  13
ATOM     13  C   UNL     1      -2.699   8.159 -15.439  1.00  0.00     0.053 C 
BRANCH  13  14
ATOM     14  C   UNL     1      -3.057   9.204 -16.447  1.00  0.00     0.041 C 
ATOM     15  O   UNL     1      -4.251   9.580 -16.574  1.00  0.00    -0.550 OA
ATOM     16  O   UNL     1      -2.064   9.797 -17.215  1.00  0.00    -0.550 OA
ENDBRANCH  13  14
ENDBRANCH  12  13
ENDBRANCH  11  12
ENDBRANCH  10  11
ENDBRANCH   9  10
ENDBRANCH   8   9
ENDBRANCH   7   8
ENDBRANCH   6   7
ENDBRANCH   5   6
ENDBRANCH   4   5
ENDBRANCH   3   4
ENDBRANCH   2   3
ENDBRANCH   1   2
BRANCH   1  17
ATOM     17  C   UNL     1     -11.440   6.426 -12.070  1.00  0.00     0.000 C 
BRANCH  17  18
ATOM     18  C   UNL     1     -12.361   5.275 -11.640  1.00  0.00     0.000 C 
BRANCH  18  19
ATOM     19  C   UNL     1     -12.798   5.439 -10.179  1.00  0.00     0.000 C 
BRANCH  19  20
ATOM     20  C   UNL     1     -12.970   4.074  -9.495  1.00  0.00     0.000 C 
BRANCH  20  21
ATOM     21  C   UNL     1     -11.628   3.400  -9.170  1.00  0.00     0.000 C 
BRANCH  21  22
ATOM     22  C   UNL     1     -10.883   4.085  -8.015  1.00  0.00    -0.000 C 
BRANCH  22  23
ATOM     23  C   UNL     1      -9.454   4.462  -8.435  1.00  0.00    -0.000 C 
BRANCH  23  24
ATOM     24  C   UNL     1      -9.062   3.887  -9.805  1.00  0.00    -0.000 C 
BRANCH  24  25
ATOM     25  C   UNL     1      -7.977   4.682 -10.556  1.00  0.00    -0.000 C 
BRANCH  25  26
ATOM     26  C   UNL     1      -7.045   3.804 -11.418  1.00  0.00    -0.000 C 
BRANCH  26  27
ATOM     27  C   UNL     1      -7.234   4.053 -12.922  1.00  0.00    -0.000 C 
BRANCH  27  28
ATOM     28  C   UNL     1      -8.216   5.204 -13.172  1.00  0.00    -0.000 C 
BRANCH  28  29
ATOM     29  C   UNL     1      -7.499   6.416 -13.778  1.00  0.00    -0.003 C 
ATOM     30  C   UNL     1      -6.150   6.021 -14.368  1.00  0.00     0.004 C 
ENDBRANCH  28  29
ENDBRANCH  27  28
ENDBRANCH  26  27
ENDBRANCH  25  26
ENDBRANCH  24  25
ENDBRANCH  23  24
ENDBRANCH  22  23
ENDBRANCH  21  22
ENDBRANCH  20  21
ENDBRANCH  19  20
ENDBRANCH  18  19
ENDBRANCH  17  18
ENDBRANCH   1  17
TORSDOF 26
ENDMDL
MODEL 6
REMARK VINA RESULT:    -4.702      1.199      2.001
REMARK INTER + INTRA:         -15.882
REMARK INTER:                 -11.582
REMARK INTRA:                  -4.300
REMARK UNBOUND:                -4.033
REMARK SMILES CCCCCCCCCCCCCCCCCCCCCCCCCCCC(=O)[O-]
REMARK SMILES IDX 15 1 16 2 17 3 18 4 19 5 20 6 21 7 22 8 23 9 24 10 25 11
REMARK SMILES IDX 26 12 27 13 28 14 29 15 30 16 14 17 13 18 12 19 11 20 10 21
REMARK SMILES IDX 9 22 8 23 7 24 6 25 5 26 4 27 3 28 2 29 1 30
REMARK H PARENT
REMARK Flexibility Score: inf
ROOT
ATOM      1  C   UNL     1      -9.237   8.312 -12.023  1.00  0.00     0.000 C 
ENDROOT
BRANCH   1   2
ATOM      2  C   UNL     1     -10.431   7.354 -12.219  1.00  0.00     0.000 C 
BRANCH   2   3
ATOM      3  C   UNL     1     -11.078   6.909 -10.895  1.00  0.00     0.000 C 
BRANCH   3   4
ATOM      4  C   UNL     1     -12.468   6.285 -11.101  1.00  0.00     0.000 C 
BRANCH   4   5
ATOM      5  C   UNL     1     -12.972   5.533  -9.856  1.00  0.00     0.000 C 
BRANCH   5   6
ATOM      6  C   UNL     1     -13.023   4.010 -10.060  1.00  0.00     0.000 C 
BRANCH   6   7
ATOM      7  C   UNL     1     -12.395   3.176  -8.925  1.00  0.00     0.000 C 
BRANCH   7   8
ATOM      8  C   UNL     1     -11.300   3.916  -8.128  1.00  0.00     0.000 C 
BRANCH   8   9
ATOM      9  C   UNL     1      -9.972   3.139  -8.083  1.00  0.00     0.000 C 
BRANCH   9  10
ATOM     10  C   UNL     1      -9.824   2.139  -9.243  1.00  0.00     0.000 C 
BRANCH  10  11
ATOM     11  C   UNL     1      -8.839   2.565 -10.349  1.00  0.00     0.000 C 
BRANCH  11  12
ATOM     12  C   UNL     1      -9.351   3.672 -11.289  1.00  0.00     0.006 C 
BRANCH  12  13
ATOM     13  C   UNL     1     -10.387   3.162 -12.300  1.00  0.00     0.053 C 
BRANCH  13  14
ATOM     14  C   UNL     1      -9.887   3.341 -13.698  1.00  0.00     0.041 C 
ATOM     15  O   UNL     1      -9.185   2.447 -14.240  1.00  0.00    -0.550 OA
ATOM     16  O   UNL     1     -10.236   4.474 -14.421  1.00  0.00    -0.550 OA
ENDBRANCH  13  14
ENDBRANCH  12  13
ENDBRANCH  11  12
ENDBRANCH  10  11
ENDBRANCH   9  10
ENDBRANCH   8   9
ENDBRANCH   7   8
ENDBRANCH   6   7
ENDBRANCH   5   6
ENDBRANCH   4   5
ENDBRANCH   3   4
ENDBRANCH   2   3
ENDBRANCH   1   2
BRANCH   1  17
ATOM     17  C   UNL     1      -8.974   8.712 -10.560  1.00  0.00     0.000 C 
BRANCH  17  18
ATOM     18  C   UNL     1      -7.542   8.409 -10.097  1.00  0.00     0.000 C 
BRANCH  18  19
ATOM     19  C   UNL     1      -7.541   7.761  -8.706  1.00  0.00     0.000 C 
BRANCH  19  20
ATOM     20  C   UNL     1      -8.167   6.358  -8.749  1.00  0.00     0.000 C 
BRANCH  20  21
ATOM     21  C   UNL     1      -7.202   5.263  -8.269  1.00  0.00     0.000 C 
BRANCH  21  22
ATOM     22  C   UNL     1      -5.837   5.326  -8.970  1.00  0.00    -0.000 C 
BRANCH  22  23
ATOM     23  C   UNL     1      -5.935   4.793 -10.407  1.00  0.00    -0.000 C 
BRANCH  23  24
ATOM     24  C   UNL     1      -4.624   4.949 -11.194  1.00  0.00    -0.000 C 
BRANCH  24  25
ATOM     25  C   UNL     1      -4.110   6.397 -11.317  1.00  0.00    -0.000 C 
BRANCH  25  26
ATOM     26  C   UNL     1      -2.746   6.633 -10.633  1.00  0.00    -0.000 C 
BRANCH  26  27
ATOM     27  C   UNL     1      -1.646   7.007 -11.638  1.00  0.00    -0.000 C 
BRANCH  27  28
ATOM     28  C   UNL     1      -2.249   7.543 -12.942  1.00  0.00    -0.000 C 
BRANCH  28  29
ATOM     29  C   UNL     1      -1.896   9.021 -13.144  1.00  0.00    -0.003 C 
ATOM     30  C   UNL     1      -2.570   9.584 -14.391  1.00  0.00     0.004 C 
ENDBRANCH  28  29
ENDBRANCH  27  28
ENDBRANCH  26  27
ENDBRANCH  25  26
ENDBRANCH  24  25
ENDBRANCH  23  24
ENDBRANCH  22  23
ENDBRANCH  21  22
ENDBRANCH  20  21
ENDBRANCH  19  20
ENDBRANCH  18  19
ENDBRANCH  17  18
ENDBRANCH   1  17
TORSDOF 26
ENDMDL
MODEL 7
REMARK VINA RESULT:    -4.682      1.545      2.550
REMARK INTER + INTRA:         -15.832
REMARK INTER:                 -11.739
REMARK INTRA:                  -4.094
REMARK UNBOUND:                -4.033
REMARK SMILES CCCCCCCCCCCCCCCCCCCCCCCCCCCC(=O)[O-]
REMARK SMILES IDX 15 1 16 2 17 3 18 4 19 5 20 6 21 7 22 8 23 9 24 10 25 11
REMARK SMILES IDX 26 12 27 13 28 14 29 15 30 16 14 17 13 18 12 19 11 20 10 21
REMARK SMILES IDX 9 22 8 23 7 24 6 25 5 26 4 27 3 28 2 29 1 30
REMARK H PARENT
REMARK Flexibility Score: inf
ROOT
ATOM      1  C   UNL     1      -9.435   6.426 -14.425  1.00  0.00     0.000 C 
ENDROOT
BRANCH   1   2
ATOM      2  C   UNL     1     -10.382   5.227 -14.208  1.00  0.00     0.000 C 
BRANCH   2   3
ATOM      3  C   UNL     1     -11.737   5.624 -13.596  1.00  0.00     0.000 C 
BRANCH   3   4
ATOM      4  C   UNL     1     -12.012   4.909 -12.263  1.00  0.00     0.000 C 
BRANCH   4   5
ATOM      5  C   UNL     1     -11.856   3.381 -12.365  1.00  0.00     0.000 C 
BRANCH   5   6
ATOM      6  C   UNL     1     -12.692   2.626 -11.319  1.00  0.00     0.000 C 
BRANCH   6   7
ATOM      7  C   UNL     1     -12.896   3.368  -9.984  1.00  0.00     0.000 C 
BRANCH   7   8
ATOM      8  C   UNL     1     -12.055   2.811  -8.815  1.00  0.00     0.000 C 
BRANCH   8   9
ATOM      9  C   UNL     1     -11.295   3.912  -8.054  1.00  0.00     0.000 C 
BRANCH   9  10
ATOM     10  C   UNL     1     -10.440   4.798  -8.977  1.00  0.00     0.000 C 
BRANCH  10  11
ATOM     11  C   UNL     1      -8.971   4.966  -8.541  1.00  0.00     0.000 C 
BRANCH  11  12
ATOM     12  C   UNL     1      -7.926   4.508  -9.574  1.00  0.00     0.006 C 
BRANCH  12  13
ATOM     13  C   UNL     1      -8.555   4.096 -10.912  1.00  0.00     0.053 C 
BRANCH  13  14
ATOM     14  C   UNL     1      -8.394   2.625 -11.135  1.00  0.00     0.041 C 
ATOM     15  O   UNL     1      -8.503   2.144 -12.293  1.00  0.00    -0.550 OA
ATOM     16  O   UNL     1      -8.076   1.792 -10.071  1.00  0.00    -0.550 OA
ENDBRANCH  13  14
ENDBRANCH  12  13
ENDBRANCH  11  12
ENDBRANCH  10  11
ENDBRANCH   9  10
ENDBRANCH   8   9
ENDBRANCH   7   8
ENDBRANCH   6   7
ENDBRANCH   5   6
ENDBRANCH   4   5
ENDBRANCH   3   4
ENDBRANCH   2   3
ENDBRANCH   1   2
BRANCH   1  17
ATOM     17  C   UNL     1      -8.722   6.913 -13.151  1.00  0.00     0.000 C 
BRANCH  17  18
ATOM     18  C   UNL     1      -9.354   8.174 -12.546  1.00  0.00     0.000 C 
BRANCH  18  19
ATOM     19  C   UNL     1      -9.734   7.946 -11.076  1.00  0.00     0.000 C 
BRANCH  19  20
ATOM     20  C   UNL     1      -8.934   8.871 -10.147  1.00  0.00     0.000 C 
BRANCH  20  21
ATOM     21  C   UNL     1      -7.758   8.156  -9.465  1.00  0.00     0.000 C 
BRANCH  21  22
ATOM     22  C   UNL     1      -6.397   8.554 -10.055  1.00  0.00    -0.000 C 
BRANCH  22  23
ATOM     23  C   UNL     1      -5.649   7.320 -10.583  1.00  0.00    -0.000 C 
BRANCH  23  24
ATOM     24  C   UNL     1      -5.014   7.552 -11.963  1.00  0.00    -0.000 C 
BRANCH  24  25
ATOM     25  C   UNL     1      -3.481   7.716 -11.953  1.00  0.00    -0.000 C 
BRANCH  25  26
ATOM     26  C   UNL     1      -2.838   7.643 -13.354  1.00  0.00    -0.000 C 
BRANCH  26  27
ATOM     27  C   UNL     1      -2.199   8.975 -13.774  1.00  0.00    -0.000 C 
BRANCH  27  28
ATOM     28  C   UNL     1      -2.966   9.612 -14.940  1.00  0.00    -0.000 C 
BRANCH  28  29
ATOM     29  C   UNL     1      -2.244   9.368 -16.270  1.00  0.00    -0.003 C 
ATOM     30  C   UNL     1      -2.855   8.191 -17.022  1.00  0.00     0.004 C 
ENDBRANCH  28  29
ENDBRANCH  27  28
ENDBRANCH  26  27
ENDBRANCH  25  26
ENDBRANCH  24  25
ENDBRANCH  23  24
ENDBRANCH  22  23
ENDBRANCH  21  22
ENDBRANCH  20  21
ENDBRANCH  19  20
ENDBRANCH  18  19
ENDBRANCH  17  18
ENDBRANCH   1  17
TORSDOF 26
ENDMDL
MODEL 8
REMARK VINA RESULT:    -4.678      2.050      2.887
REMARK INTER + INTRA:         -15.821
REMARK INTER:                 -11.548
REMARK INTRA:                  -4.273
REMARK UNBOUND:                -4.033
REMARK SMILES CCCCCCCCCCCCCCCCCCCCCCCCCCCC(=O)[O-]
REMARK SMILES IDX 15 1 16 2 17 3 18 4 19 5 20 6 21 7 22 8 23 9 24 10 25 11
REMARK SMILES IDX 26 12 27 13 28 14 29 15 30 16 14 17 13 18 12 19 11 20 10 21
REMARK SMILES IDX 9 22 8 23 7 24 6 25 5 26 4 27 3 28 2 29 1 30
REMARK H PARENT
REMARK Flexibility Score: inf
ROOT
ATOM      1  C   UNL     1     -10.281   7.494 -12.025  1.00  0.00     0.000 C 
ENDROOT
BRANCH   1   2
ATOM      2  C   UNL     1     -11.565   6.767 -12.475  1.00  0.00     0.000 C 
BRANCH   2   3
ATOM      3  C   UNL     1     -12.274   6.019 -11.332  1.00  0.00     0.000 C 
BRANCH   3   4
ATOM      4  C   UNL     1     -12.292   4.497 -11.548  1.00  0.00     0.000 C 
BRANCH   4   5
ATOM      5  C   UNL     1     -12.486   3.713 -10.237  1.00  0.00     0.000 C 
BRANCH   5   6
ATOM      6  C   UNL     1     -12.094   4.527  -8.993  1.00  0.00     0.000 C 
BRANCH   6   7
ATOM      7  C   UNL     1     -10.945   3.931  -8.156  1.00  0.00     0.000 C 
BRANCH   7   8
ATOM      8  C   UNL     1      -9.644   4.761  -8.187  1.00  0.00     0.000 C 
BRANCH   8   9
ATOM      9  C   UNL     1      -8.522   4.073  -8.986  1.00  0.00     0.000 C 
BRANCH   9  10
ATOM     10  C   UNL     1      -8.475   4.518 -10.458  1.00  0.00     0.000 C 
BRANCH  10  11
ATOM     11  C   UNL     1      -8.407   3.369 -11.483  1.00  0.00     0.000 C 
BRANCH  11  12
ATOM     12  C   UNL     1      -8.286   1.959 -10.878  1.00  0.00     0.006 C 
BRANCH  12  13
ATOM     13  C   UNL     1      -6.836   1.459 -10.821  1.00  0.00     0.053 C 
BRANCH  13  14
ATOM     14  C   UNL     1      -6.633   0.575  -9.631  1.00  0.00     0.041 C 
ATOM     15  O   UNL     1      -7.624   0.113  -9.008  1.00  0.00    -0.550 OA
ATOM     16  O   UNL     1      -5.348   0.222  -9.239  1.00  0.00    -0.550 OA
ENDBRANCH  13  14
ENDBRANCH  12  13
ENDBRANCH  11  12
ENDBRANCH  10  11
ENDBRANCH   9  10
ENDBRANCH   8   9
ENDBRANCH   7   8
ENDBRANCH   6   7
ENDBRANCH   5   6
ENDBRANCH   4   5
ENDBRANCH   3   4
ENDBRANCH   2   3
ENDBRANCH   1   2
BRANCH   1  17
ATOM     17  C   UNL     1     -10.142   7.658 -10.500  1.00  0.00     0.000 C 
BRANCH  17  18
ATOM     18  C   UNL     1      -8.946   8.527 -10.089  1.00  0.00     0.000 C 
BRANCH  18  19
ATOM     19  C   UNL     1      -8.209   7.915  -8.891  1.00  0.00     0.000 C 
BRANCH  19  20
ATOM     20  C   UNL     1      -6.693   7.869  -9.137  1.00  0.00     0.000 C 
BRANCH  20  21
ATOM     21  C   UNL     1      -6.286   8.535 -10.461  1.00  0.00     0.000 C 
BRANCH  21  22
ATOM     22  C   UNL     1      -5.668   7.545 -11.458  1.00  0.00    -0.000 C 
BRANCH  22  23
ATOM     23  C   UNL     1      -4.344   6.983 -10.920  1.00  0.00    -0.000 C 
BRANCH  23  24
ATOM     24  C   UNL     1      -3.702   5.956 -11.867  1.00  0.00    -0.000 C 
BRANCH  24  25
ATOM     25  C   UNL     1      -4.540   5.608 -13.112  1.00  0.00    -0.000 C 
BRANCH  25  26
ATOM     26  C   UNL     1      -3.911   6.084 -14.439  1.00  0.00    -0.000 C 
BRANCH  26  27
ATOM     27  C   UNL     1      -2.626   6.895 -14.217  1.00  0.00    -0.000 C 
BRANCH  27  28
ATOM     28  C   UNL     1      -2.671   8.223 -14.983  1.00  0.00    -0.000 C 
BRANCH  28  29
ATOM     29  C   UNL     1      -2.512   9.413 -14.031  1.00  0.00    -0.003 C 
ATOM     30  C   UNL     1      -1.790   9.002 -12.751  1.00  0.00     0.004 C 
ENDBRANCH  28  29
ENDBRANCH  27  28
ENDBRANCH  26  27
ENDBRANCH  25  26
ENDBRANCH  24  25
ENDBRANCH  23  24
ENDBRANCH  22  23
ENDBRANCH  21  22
ENDBRANCH  20  21
ENDBRANCH  19  20
ENDBRANCH  18  19
ENDBRANCH  17  18
ENDBRANCH   1  17
TORSDOF 26
ENDMDL
MODEL 9
REMARK VINA RESULT:    -4.634      5.506      9.438
REMARK INTER + INTRA:         -15.711
REMARK INTER:                 -12.657
REMARK INTRA:                  -3.053
REMARK UNBOUND:                -4.033
REMARK SMILES CCCCCCCCCCCCCCCCCCCCCCCCCCCC(=O)[O-]
REMARK SMILES IDX 15 1 16 2 17 3 18 4 19 5 20 6 21 7 22 8 23 9 24 10 25 11
REMARK SMILES IDX 26 12 27 13 28 14 29 15 30 16 14 17 13 18 12 19 11 20 10 21
REMARK SMILES IDX 9 22 8 23 7 24 6 25 5 26 4 27 3 28 2 29 1 30
REMARK H PARENT
REMARK Flexibility Score: inf
ROOT
ATOM      1  C   UNL     1     -10.268   3.052 -12.940  1.00  0.00     0.000 C 
ENDROOT
BRANCH   1   2
ATOM      2  C   UNL     1      -9.184   2.108 -13.502  1.00  0.00     0.000 C 
BRANCH   2   3
ATOM      3  C   UNL     1      -9.728   1.102 -14.532  1.00  0.00     0.000 C 
BRANCH   3   4
ATOM      4  C   UNL     1      -8.925   1.112 -15.843  1.00  0.00     0.000 C 
BRANCH   4   5
ATOM      5  C   UNL     1      -9.332  -0.025 -16.798  1.00  0.00     0.000 C 
BRANCH   5   6
ATOM      6  C   UNL     1     -10.583   0.311 -17.624  1.00  0.00     0.000 C 
BRANCH   6   7
ATOM      7  C   UNL     1     -10.525   1.651 -18.384  1.00  0.00     0.000 C 
BRANCH   7   8
ATOM      8  C   UNL     1     -11.487   1.737 -19.589  1.00  0.00     0.000 C 
BRANCH   8   9
ATOM      9  C   UNL     1     -12.688   0.783 -19.458  1.00  0.00     0.000 C 
BRANCH   9  10
ATOM     10  C   UNL     1     -12.849  -0.146 -20.675  1.00  0.00     0.000 C 
BRANCH  10  11
ATOM     11  C   UNL     1     -11.637  -1.052 -20.967  1.00  0.00     0.000 C 
BRANCH  11  12
ATOM     12  C   UNL     1     -11.503  -1.512 -22.430  1.00  0.00     0.006 C 
BRANCH  12  13
ATOM     13  C   UNL     1     -12.731  -1.155 -23.280  1.00  0.00     0.053 C 
BRANCH  13  14
ATOM     14  C   UNL     1     -12.360  -0.179 -24.351  1.00  0.00     0.041 C 
ATOM     15  O   UNL     1     -13.125   0.782 -24.625  1.00  0.00    -0.550 OA
ATOM     16  O   UNL     1     -11.147  -0.304 -25.014  1.00  0.00    -0.550 OA
ENDBRANCH  13  14
ENDBRANCH  12  13
ENDBRANCH  11  12
ENDBRANCH  10  11
ENDBRANCH   9  10
ENDBRANCH   8   9
ENDBRANCH   7   8
ENDBRANCH   6   7
ENDBRANCH   5   6
ENDBRANCH   4   5
ENDBRANCH   3   4
ENDBRANCH   2   3
ENDBRANCH   1   2
BRANCH   1  17
ATOM     17  C   UNL     1     -11.605   2.364 -12.610  1.00  0.00     0.000 C 
BRANCH  17  18
ATOM     18  C   UNL     1     -12.439   3.125 -11.570  1.00  0.00     0.000 C 
BRANCH  18  19
ATOM     19  C   UNL     1     -13.082   2.156 -10.568  1.00  0.00     0.000 C 
BRANCH  19  20
ATOM     20  C   UNL     1     -13.004   2.708  -9.136  1.00  0.00     0.000 C 
BRANCH  20  21
ATOM     21  C   UNL     1     -12.422   4.128  -9.078  1.00  0.00     0.000 C 
BRANCH  21  22
ATOM     22  C   UNL     1     -11.199   4.233  -8.154  1.00  0.00    -0.000 C 
BRANCH  22  23
ATOM     23  C   UNL     1      -9.935   3.724  -8.862  1.00  0.00    -0.000 C 
BRANCH  23  24
ATOM     24  C   UNL     1      -9.410   4.702  -9.925  1.00  0.00    -0.000 C 
BRANCH  24  25
ATOM     25  C   UNL     1      -9.314   6.170  -9.465  1.00  0.00    -0.000 C 
BRANCH  25  26
ATOM     26  C   UNL     1      -9.784   7.187 -10.527  1.00  0.00    -0.000 C 
BRANCH  26  27
ATOM     27  C   UNL     1     -11.222   6.919 -10.996  1.00  0.00    -0.000 C 
BRANCH  27  28
ATOM     28  C   UNL     1     -11.278   6.704 -12.513  1.00  0.00    -0.000 C 
BRANCH  28  29
ATOM     29  C   UNL     1     -12.721   6.494 -12.986  1.00  0.00    -0.003 C 
ATOM     30  C   UNL     1     -12.866   6.812 -14.470  1.00  0.00     0.004 C 
ENDBRANCH  28  29
ENDBRANCH  27  28
ENDBRANCH  26  27
ENDBRANCH  25  26
ENDBRANCH  24  25
ENDBRANCH  23  24
ENDBRANCH  22  23
ENDBRANCH  21  22
ENDBRANCH  20  21
ENDBRANCH  19  20
ENDBRANCH  18  19
ENDBRANCH  17  18
ENDBRANCH   1  17
TORSDOF 26
ENDMDL
