MODEL 1
REMARK VINA RESULT:    -4.603      0.000      0.000
REMARK INTER + INTRA:         -10.509
REMARK INTER:                  -8.371
REMARK INTRA:                  -2.138
REMARK UNBOUND:                -2.138
REMARK SMILES CCCCCC=CCC=CCCCCCCCC(=O)[O-]
REMARK SMILES IDX 11 1 12 2 13 3 14 4 15 5 16 6 17 7 18 8 19 9 20 10 10 11
REMARK SMILES IDX 9 12 8 13 7 14 6 15 5 16 4 17 3 18 2 19 1 20
REMARK H PARENT
REMARK Flexibility Score: inf
ROOT
ATOM      1  C   UNL     1      70.152 -33.057   6.634  1.00  0.00     0.027 C 
ENDROOT
BRANCH   1   2
ATOM      2  C   UNL     1      70.747 -33.411   5.265  1.00  0.00     0.004 C 
BRANCH   2   3
ATOM      3  C   UNL     1      72.240 -33.053   5.173  1.00  0.00     0.000 C 
BRANCH   3   4
ATOM      4  C   UNL     1      73.149 -34.153   5.741  1.00  0.00     0.000 C 
BRANCH   4   5
ATOM      5  C   UNL     1      72.960 -35.504   5.027  1.00  0.00     0.000 C 
BRANCH   5   6
ATOM      6  C   UNL     1      73.038 -36.697   5.992  1.00  0.00     0.006 C 
BRANCH   6   7
ATOM      7  C   UNL     1      73.676 -36.326   7.338  1.00  0.00     0.053 C 
BRANCH   7   8
ATOM      8  C   UNL     1      75.038 -36.933   7.454  1.00  0.00     0.041 C 
ATOM      9  O   UNL     1      75.369 -37.893   6.710  1.00  0.00    -0.550 OA
ATOM     10  O   UNL     1      75.921 -36.476   8.424  1.00  0.00    -0.550 OA
ENDBRANCH   7   8
ENDBRANCH   6   7
ENDBRANCH   5   6
ENDBRANCH   4   5
ENDBRANCH   3   4
ENDBRANCH   2   3
ENDBRANCH   1   2
BRANCH   1  11
ATOM     11  C   UNL     1      69.672 -34.283   7.364  1.00  0.00    -0.031 C 
ATOM     12  C   UNL     1      69.636 -35.487   6.771  1.00  0.00    -0.027 C 
BRANCH  12  13
ATOM     13  C   UNL     1      69.119 -36.700   7.491  1.00  0.00     0.054 C 
BRANCH  13  14
ATOM     14  C   UNL     1      70.091 -37.128   8.554  1.00  0.00    -0.027 C 
ATOM     15  C   UNL     1      69.678 -37.502   9.775  1.00  0.00    -0.031 C 
BRANCH  15  16
ATOM     16  C   UNL     1      70.657 -37.886  10.850  1.00  0.00     0.027 C 
BRANCH  16  17
ATOM     17  C   UNL     1      72.093 -37.528  10.439  1.00  0.00     0.004 C 
BRANCH  17  18
ATOM     18  C   UNL     1      73.143 -38.002  11.460  1.00  0.00     0.000 C 
BRANCH  18  19
ATOM     19  C   UNL     1      74.438 -37.171  11.490  1.00  0.00    -0.003 C 
ATOM     20  C   UNL     1      75.680 -38.006  11.804  1.00  0.00     0.004 C 
ENDBRANCH  18  19
ENDBRANCH  17  18
ENDBRANCH  16  17
ENDBRANCH  15  16
ENDBRANCH  13  14
ENDBRANCH  12  13
ENDBRANCH   1  11
TORSDOF 14
ENDMDL
MODEL 2
REMARK VINA RESULT:    -4.409      2.649      6.671
REMARK INTER + INTRA:         -10.157
REMARK INTER:                  -8.087
REMARK INTRA:                  -2.069
REMARK UNBOUND:                -2.138
REMARK SMILES CCCCCC=CCC=CCCCCCCCC(=O)[O-]
REMARK SMILES IDX 11 1 12 2 13 3 14 4 15 5 16 6 17 7 18 8 19 9 20 10 10 11
REMARK SMILES IDX 9 12 8 13 7 14 6 15 5 16 4 17 3 18 2 19 1 20
REMARK H PARENT
REMARK Flexibility Score: inf
ROOT
ATOM      1  C   UNL     1      72.729 -38.177  11.998  1.00  0.00     0.027 C 
ENDROOT
BRANCH   1   2
ATOM      2  C   UNL     1      71.206 -38.267  11.833  1.00  0.00     0.004 C 
BRANCH   2   3
ATOM      3  C   UNL     1      70.785 -39.479  10.985  1.00  0.00     0.000 C 
BRANCH   3   4
ATOM      4  C   UNL     1      70.002 -39.077   9.726  1.00  0.00     0.000 C 
BRANCH   4   5
ATOM      5  C   UNL     1      69.715 -37.566   9.664  1.00  0.00     0.000 C 
BRANCH   5   6
ATOM      6  C   UNL     1      70.440 -36.876   8.498  1.00  0.00     0.006 C 
BRANCH   6   7
ATOM      7  C   UNL     1      69.841 -37.239   7.133  1.00  0.00     0.053 C 
BRANCH   7   8
ATOM      8  C   UNL     1      68.582 -36.468   6.895  1.00  0.00     0.041 C 
ATOM      9  O   UNL     1      68.461 -35.297   7.343  1.00  0.00    -0.550 OA
ATOM     10  O   UNL     1      67.519 -37.061   6.225  1.00  0.00    -0.550 OA
ENDBRANCH   7   8
ENDBRANCH   6   7
ENDBRANCH   5   6
ENDBRANCH   4   5
ENDBRANCH   3   4
ENDBRANCH   2   3
ENDBRANCH   1   2
BRANCH   1  11
ATOM     11  C   UNL     1      73.373 -37.478  10.830  1.00  0.00    -0.031 C 
ATOM     12  C   UNL     1      74.703 -37.491  10.648  1.00  0.00    -0.027 C 
BRANCH  12  13
ATOM     13  C   UNL     1      75.345 -36.758   9.504  1.00  0.00     0.054 C 
BRANCH  13  14
ATOM     14  C   UNL     1      74.394 -36.669   8.344  1.00  0.00    -0.027 C 
ATOM     15  C   UNL     1      74.815 -36.803   7.077  1.00  0.00    -0.031 C 
BRANCH  15  16
ATOM     16  C   UNL     1      73.868 -36.668   5.917  1.00  0.00     0.027 C 
BRANCH  16  17
ATOM     17  C   UNL     1      73.602 -35.189   5.595  1.00  0.00     0.004 C 
BRANCH  17  18
ATOM     18  C   UNL     1      72.197 -34.728   6.022  1.00  0.00     0.000 C 
BRANCH  18  19
ATOM     19  C   UNL     1      72.176 -33.575   7.040  1.00  0.00    -0.003 C 
ATOM     20  C   UNL     1      70.886 -32.755   6.992  1.00  0.00     0.004 C 
ENDBRANCH  18  19
ENDBRANCH  17  18
ENDBRANCH  16  17
ENDBRANCH  15  16
ENDBRANCH  13  14
ENDBRANCH  12  13
ENDBRANCH   1  11
TORSDOF 14
ENDMDL
MODEL 3
REMARK VINA RESULT:    -4.383      1.208      2.274
REMARK INTER + INTRA:         -10.108
REMARK INTER:                  -8.577
REMARK INTRA:                  -1.532
REMARK UNBOUND:                -2.138
REMARK SMILES CCCCCC=CCC=CCCCCCCCC(=O)[O-]
REMARK SMILES IDX 11 1 12 2 13 3 14 4 15 5 16 6 17 7 18 8 19 9 20 10 10 11
REMARK SMILES IDX 9 12 8 13 7 14 6 15 5 16 4 17 3 18 2 19 1 20
REMARK H PARENT
REMARK Flexibility Score: inf
ROOT
ATOM      1  C   UNL     1      69.432 -35.621   7.035  1.00  0.00     0.027 C 
ENDROOT
BRANCH   1   2
ATOM      2  C   UNL     1      69.114 -34.159   7.375  1.00  0.00     0.004 C 
BRANCH   2   3
ATOM      3  C   UNL     1      69.928 -33.174   6.520  1.00  0.00     0.000 C 
BRANCH   3   4
ATOM      4  C   UNL     1      71.393 -33.068   6.972  1.00  0.00     0.000 C 
BRANCH   4   5
ATOM      5  C   UNL     1      72.375 -33.002   5.788  1.00  0.00     0.000 C 
BRANCH   5   6
ATOM      6  C   UNL     1      72.662 -34.384   5.183  1.00  0.00     0.006 C 
BRANCH   6   7
ATOM      7  C   UNL     1      74.043 -34.925   5.576  1.00  0.00     0.053 C 
BRANCH   7   8
ATOM      8  C   UNL     1      73.904 -36.205   6.337  1.00  0.00     0.041 C 
ATOM      9  O   UNL     1      74.926 -36.874   6.645  1.00  0.00    -0.550 OA
ATOM     10  O   UNL     1      72.642 -36.690   6.657  1.00  0.00    -0.550 OA
ENDBRANCH   7   8
ENDBRANCH   6   7
ENDBRANCH   5   6
ENDBRANCH   4   5
ENDBRANCH   3   4
ENDBRANCH   2   3
ENDBRANCH   1   2
BRANCH   1  11
ATOM     11  C   UNL     1      69.461 -36.484   8.268  1.00  0.00    -0.031 C 
ATOM     12  C   UNL     1      68.391 -37.198   8.653  1.00  0.00    -0.027 C 
BRANCH  12  13
ATOM     13  C   UNL     1      68.411 -38.026   9.906  1.00  0.00     0.054 C 
BRANCH  13  14
ATOM     14  C   UNL     1      69.692 -37.801  10.659  1.00  0.00    -0.027 C 
ATOM     15  C   UNL     1      70.569 -38.795  10.868  1.00  0.00    -0.031 C 
BRANCH  15  16
ATOM     16  C   UNL     1      71.827 -38.575  11.661  1.00  0.00     0.027 C 
BRANCH  16  17
ATOM     17  C   UNL     1      72.460 -37.217  11.323  1.00  0.00     0.004 C 
BRANCH  17  18
ATOM     18  C   UNL     1      73.274 -37.246  10.016  1.00  0.00     0.000 C 
BRANCH  18  19
ATOM     19  C   UNL     1      74.800 -37.177  10.202  1.00  0.00    -0.003 C 
ATOM     20  C   UNL     1      75.267 -37.742  11.544  1.00  0.00     0.004 C 
ENDBRANCH  18  19
ENDBRANCH  17  18
ENDBRANCH  16  17
ENDBRANCH  15  16
ENDBRANCH  13  14
ENDBRANCH  12  13
ENDBRANCH   1  11
TORSDOF 14
ENDMDL
MODEL 4
REMARK VINA RESULT:    -4.322      2.586      5.121
REMARK INTER + INTRA:          -9.997
REMARK INTER:                  -7.735
REMARK INTRA:                  -2.262
REMARK UNBOUND:                -2.138
REMARK SMILES CCCCCC=CCC=CCCCCCCCC(=O)[O-]
REMARK SMILES IDX 11 1 12 2 13 3 14 4 15 5 16 6 17 7 18 8 19 9 20 10 10 11
REMARK SMILES IDX 9 12 8 13 7 14 6 15 5 16 4 17 3 18 2 19 1 20
REMARK H PARENT
REMARK Flexibility Score: inf
ROOT
ATOM      1  C   UNL     1      72.668 -36.010   8.320  1.00  0.00     0.027 C 
ENDROOT
BRANCH   1   2
ATOM      2  C   UNL     1      72.248 -36.436   6.907  1.00  0.00     0.004 C 
BRANCH   2   3
ATOM      3  C   UNL     1      70.868 -37.114   6.892  1.00  0.00     0.000 C 
BRANCH   3   4
ATOM      4  C   UNL     1      69.785 -36.237   6.245  1.00  0.00     0.000 C 
BRANCH   4   5
ATOM      5  C   UNL     1      69.009 -35.396   7.276  1.00  0.00     0.000 C 
BRANCH   5   6
ATOM      6  C   UNL     1      69.393 -33.909   7.232  1.00  0.00     0.006 C 
BRANCH   6   7
ATOM      7  C   UNL     1      70.154 -33.534   5.953  1.00  0.00     0.053 C 
BRANCH   7   8
ATOM      8  C   UNL     1      71.497 -32.971   6.293  1.00  0.00     0.041 C 
ATOM      9  O   UNL     1      71.781 -32.684   7.485  1.00  0.00    -0.550 OA
ATOM     10  O   UNL     1      72.417 -32.712   5.284  1.00  0.00    -0.550 OA
ENDBRANCH   7   8
ENDBRANCH   6   7
ENDBRANCH   5   6
ENDBRANCH   4   5
ENDBRANCH   3   4
ENDBRANCH   2   3
ENDBRANCH   1   2
BRANCH   1  11
ATOM     11  C   UNL     1      71.897 -36.755   9.376  1.00  0.00    -0.031 C 
ATOM     12  C   UNL     1      72.478 -37.165  10.515  1.00  0.00    -0.027 C 
BRANCH  12  13
ATOM     13  C   UNL     1      71.715 -37.944  11.548  1.00  0.00     0.054 C 
BRANCH  13  14
ATOM     14  C   UNL     1      70.728 -38.862  10.885  1.00  0.00    -0.027 C 
ATOM     15  C   UNL     1      70.647 -40.161  11.210  1.00  0.00    -0.031 C 
BRANCH  15  16
ATOM     16  C   UNL     1      69.689 -41.087  10.512  1.00  0.00     0.027 C 
BRANCH  16  17
ATOM     17  C   UNL     1      68.336 -40.399  10.273  1.00  0.00     0.004 C 
BRANCH  17  18
ATOM     18  C   UNL     1      68.053 -40.139   8.782  1.00  0.00     0.000 C 
BRANCH  18  19
ATOM     19  C   UNL     1      67.672 -38.688   8.439  1.00  0.00    -0.003 C 
ATOM     20  C   UNL     1      67.537 -37.795   9.672  1.00  0.00     0.004 C 
ENDBRANCH  18  19
ENDBRANCH  17  18
ENDBRANCH  16  17
ENDBRANCH  15  16
ENDBRANCH  13  14
ENDBRANCH  12  13
ENDBRANCH   1  11
TORSDOF 14
ENDMDL
MODEL 5
REMARK VINA RESULT:    -4.281      2.132      5.381
REMARK INTER + INTRA:          -9.923
REMARK INTER:                  -7.920
REMARK INTRA:                  -2.003
REMARK UNBOUND:                -2.138
REMARK SMILES CCCCCC=CCC=CCCCCCCCC(=O)[O-]
REMARK SMILES IDX 11 1 12 2 13 3 14 4 15 5 16 6 17 7 18 8 19 9 20 10 10 11
REMARK SMILES IDX 9 12 8 13 7 14 6 15 5 16 4 17 3 18 2 19 1 20
REMARK H PARENT
REMARK Flexibility Score: inf
ROOT
ATOM      1  C   UNL     1      69.179 -38.844  10.102  1.00  0.00     0.027 C 
ENDROOT
BRANCH   1   2
ATOM      2  C   UNL     1      68.460 -37.895   9.134  1.00  0.00     0.004 C 
BRANCH   2   3
ATOM      3  C   UNL     1      69.273 -37.648   7.852  1.00  0.00     0.000 C 
BRANCH   3   4
ATOM      4  C   UNL     1      69.854 -36.227   7.785  1.00  0.00     0.000 C 
BRANCH   4   5
ATOM      5  C   UNL     1      68.772 -35.154   7.566  1.00  0.00     0.000 C 
BRANCH   5   6
ATOM      6  C   UNL     1      69.360 -33.805   7.126  1.00  0.00     0.006 C 
BRANCH   6   7
ATOM      7  C   UNL     1      70.346 -33.943   5.959  1.00  0.00     0.053 C 
BRANCH   7   8
ATOM      8  C   UNL     1      71.612 -33.203   6.255  1.00  0.00     0.041 C 
ATOM      9  O   UNL     1      72.341 -32.793   5.314  1.00  0.00    -0.550 OA
ATOM     10  O   UNL     1      72.016 -33.016   7.571  1.00  0.00    -0.550 OA
ENDBRANCH   7   8
ENDBRANCH   6   7
ENDBRANCH   5   6
ENDBRANCH   4   5
ENDBRANCH   3   4
ENDBRANCH   2   3
ENDBRANCH   1   2
BRANCH   1  11
ATOM     11  C   UNL     1      70.614 -38.439  10.312  1.00  0.00    -0.031 C 
ATOM     12  C   UNL     1      71.126 -38.274  11.541  1.00  0.00    -0.027 C 
BRANCH  12  13
ATOM     13  C   UNL     1      72.547 -37.831  11.746  1.00  0.00     0.054 C 
BRANCH  13  14
ATOM     14  C   UNL     1      73.065 -37.154  10.508  1.00  0.00    -0.027 C 
ATOM     15  C   UNL     1      74.275 -37.439  10.003  1.00  0.00    -0.031 C 
BRANCH  15  16
ATOM     16  C   UNL     1      74.807 -36.727   8.791  1.00  0.00     0.027 C 
BRANCH  16  17
ATOM     17  C   UNL     1      73.662 -36.294   7.861  1.00  0.00     0.004 C 
BRANCH  17  18
ATOM     18  C   UNL     1      74.147 -35.929   6.447  1.00  0.00     0.000 C 
BRANCH  18  19
ATOM     19  C   UNL     1      73.199 -36.349   5.309  1.00  0.00    -0.003 C 
ATOM     20  C   UNL     1      72.440 -37.642   5.607  1.00  0.00     0.004 C 
ENDBRANCH  18  19
ENDBRANCH  17  18
ENDBRANCH  16  17
ENDBRANCH  15  16
ENDBRANCH  13  14
ENDBRANCH  12  13
ENDBRANCH   1  11
TORSDOF 14
ENDMDL
MODEL 6
REMARK VINA RESULT:    -4.226      1.579      3.316
REMARK INTER + INTRA:          -9.823
REMARK INTER:                  -8.360
REMARK INTRA:                  -1.463
REMARK UNBOUND:                -2.138
REMARK SMILES CCCCCC=CCC=CCCCCCCCC(=O)[O-]
REMARK SMILES IDX 11 1 12 2 13 3 14 4 15 5 16 6 17 7 18 8 19 9 20 10 10 11
REMARK SMILES IDX 9 12 8 13 7 14 6 15 5 16 4 17 3 18 2 19 1 20
REMARK H PARENT
REMARK Flexibility Score: inf
ROOT
ATOM      1  C   UNL     1      72.398 -33.212   5.189  1.00  0.00     0.027 C 
ENDROOT
BRANCH   1   2
ATOM      2  C   UNL     1      73.418 -34.277   5.614  1.00  0.00     0.004 C 
BRANCH   2   3
ATOM      3  C   UNL     1      72.876 -35.705   5.432  1.00  0.00     0.000 C 
BRANCH   3   4
ATOM      4  C   UNL     1      73.461 -36.695   6.450  1.00  0.00     0.000 C 
BRANCH   4   5
ATOM      5  C   UNL     1      73.783 -36.033   7.802  1.00  0.00     0.000 C 
BRANCH   5   6
ATOM      6  C   UNL     1      74.677 -36.912   8.691  1.00  0.00     0.006 C 
BRANCH   6   7
ATOM      7  C   UNL     1      74.077 -37.147  10.083  1.00  0.00     0.053 C 
BRANCH   7   8
ATOM      8  C   UNL     1      75.162 -37.303  11.100  1.00  0.00     0.041 C 
ATOM      9  O   UNL     1      75.097 -38.219  11.961  1.00  0.00    -0.550 OA
ATOM     10  O   UNL     1      76.219 -36.402  11.132  1.00  0.00    -0.550 OA
ENDBRANCH   7   8
ENDBRANCH   6   7
ENDBRANCH   5   6
ENDBRANCH   4   5
ENDBRANCH   3   4
ENDBRANCH   2   3
ENDBRANCH   1   2
BRANCH   1  11
ATOM     11  C   UNL     1      70.995 -33.607   5.564  1.00  0.00    -0.031 C 
ATOM     12  C   UNL     1      70.570 -33.573   6.837  1.00  0.00    -0.027 C 
BRANCH  12  13
ATOM     13  C   UNL     1      69.181 -34.006   7.211  1.00  0.00     0.054 C 
BRANCH  13  14
ATOM     14  C   UNL     1      69.104 -35.505   7.281  1.00  0.00    -0.027 C 
ATOM     15  C   UNL     1      68.238 -36.128   8.095  1.00  0.00    -0.031 C 
BRANCH  15  16
ATOM     16  C   UNL     1      68.196 -37.628   8.194  1.00  0.00     0.027 C 
BRANCH  16  17
ATOM     17  C   UNL     1      68.087 -38.078   9.660  1.00  0.00     0.004 C 
BRANCH  17  18
ATOM     18  C   UNL     1      69.313 -37.680  10.500  1.00  0.00     0.000 C 
BRANCH  18  19
ATOM     19  C   UNL     1      70.575 -38.522  10.242  1.00  0.00    -0.003 C 
ATOM     20  C   UNL     1      71.224 -39.040  11.526  1.00  0.00     0.004 C 
ENDBRANCH  18  19
ENDBRANCH  17  18
ENDBRANCH  16  17
ENDBRANCH  15  16
ENDBRANCH  13  14
ENDBRANCH  12  13
ENDBRANCH   1  11
TORSDOF 14
ENDMDL
MODEL 7
REMARK VINA RESULT:    -4.113      9.869     12.300
REMARK INTER + INTRA:          -9.617
REMARK INTER:                  -7.933
REMARK INTRA:                  -1.685
REMARK UNBOUND:                -2.138
REMARK SMILES CCCCCC=CCC=CCCCCCCCC(=O)[O-]
REMARK SMILES IDX 11 1 12 2 13 3 14 4 15 5 16 6 17 7 18 8 19 9 20 10 10 11
REMARK SMILES IDX 9 12 8 13 7 14 6 15 5 16 4 17 3 18 2 19 1 20
REMARK H PARENT
REMARK Flexibility Score: inf
ROOT
ATOM      1  C   UNL     1      63.551 -35.322  14.142  1.00  0.00     0.027 C 
ENDROOT
BRANCH   1   2
ATOM      2  C   UNL     1      64.983 -35.058  14.625  1.00  0.00     0.004 C 
BRANCH   2   3
ATOM      3  C   UNL     1      66.035 -35.625  13.656  1.00  0.00     0.000 C 
BRANCH   3   4
ATOM      4  C   UNL     1      65.813 -35.165  12.207  1.00  0.00     0.000 C 
BRANCH   4   5
ATOM      5  C   UNL     1      65.671 -36.345  11.227  1.00  0.00     0.000 C 
BRANCH   5   6
ATOM      6  C   UNL     1      64.931 -35.954   9.938  1.00  0.00     0.006 C 
BRANCH   6   7
ATOM      7  C   UNL     1      63.555 -35.334  10.214  1.00  0.00     0.053 C 
BRANCH   7   8
ATOM      8  C   UNL     1      62.524 -36.405  10.377  1.00  0.00     0.041 C 
ATOM      9  O   UNL     1      61.720 -36.369  11.346  1.00  0.00    -0.550 OA
ATOM     10  O   UNL     1      62.485 -37.475   9.491  1.00  0.00    -0.550 OA
ENDBRANCH   7   8
ENDBRANCH   6   7
ENDBRANCH   5   6
ENDBRANCH   4   5
ENDBRANCH   3   4
ENDBRANCH   2   3
ENDBRANCH   1   2
BRANCH   1  11
ATOM     11  C   UNL     1      62.742 -34.053  14.086  1.00  0.00    -0.031 C 
ATOM     12  C   UNL     1      62.769 -33.248  13.012  1.00  0.00    -0.027 C 
BRANCH  12  13
ATOM     13  C   UNL     1      61.991 -31.963  12.976  1.00  0.00     0.054 C 
BRANCH  13  14
ATOM     14  C   UNL     1      62.711 -30.897  13.752  1.00  0.00    -0.027 C 
ATOM     15  C   UNL     1      62.212 -30.399  14.894  1.00  0.00    -0.031 C 
BRANCH  15  16
ATOM     16  C   UNL     1      62.913 -29.300  15.644  1.00  0.00     0.027 C 
BRANCH  16  17
ATOM     17  C   UNL     1      61.906 -28.268  16.173  1.00  0.00     0.004 C 
BRANCH  17  18
ATOM     18  C   UNL     1      61.633 -27.131  15.172  1.00  0.00     0.000 C 
BRANCH  18  19
ATOM     19  C   UNL     1      62.799 -26.814  14.219  1.00  0.00    -0.003 C 
ATOM     20  C   UNL     1      62.369 -26.724  12.755  1.00  0.00     0.004 C 
ENDBRANCH  18  19
ENDBRANCH  17  18
ENDBRANCH  16  17
ENDBRANCH  15  16
ENDBRANCH  13  14
ENDBRANCH  12  13
ENDBRANCH   1  11
TORSDOF 14
ENDMDL
MODEL 8
REMARK VINA RESULT:    -4.081      2.925      4.560
REMARK INTER + INTRA:          -9.559
REMARK INTER:                  -8.330
REMARK INTRA:                  -1.229
REMARK UNBOUND:                -2.138
REMARK SMILES CCCCCC=CCC=CCCCCCCCC(=O)[O-]
REMARK SMILES IDX 11 1 12 2 13 3 14 4 15 5 16 6 17 7 18 8 19 9 20 10 10 11
REMARK SMILES IDX 9 12 8 13 7 14 6 15 5 16 4 17 3 18 2 19 1 20
REMARK H PARENT
REMARK Flexibility Score: inf
ROOT
ATOM      1  C   UNL     1      69.541 -35.196   6.708  1.00  0.00     0.027 C 
ENDROOT
BRANCH   1   2
ATOM      2  C   UNL     1      69.538 -33.720   7.129  1.00  0.00     0.004 C 
BRANCH   2   3
ATOM      3  C   UNL     1      70.815 -32.988   6.684  1.00  0.00     0.000 C 
BRANCH   3   4
ATOM      4  C   UNL     1      72.096 -33.685   7.168  1.00  0.00     0.000 C 
BRANCH   4   5
ATOM      5  C   UNL     1      72.978 -34.177   6.006  1.00  0.00     0.000 C 
BRANCH   5   6
ATOM      6  C   UNL     1      73.438 -35.631   6.190  1.00  0.00     0.006 C 
BRANCH   6   7
ATOM      7  C   UNL     1      73.447 -36.065   7.661  1.00  0.00     0.053 C 
BRANCH   7   8
ATOM      8  C   UNL     1      74.750 -36.713   8.006  1.00  0.00     0.041 C 
ATOM      9  O   UNL     1      75.517 -37.119   7.093  1.00  0.00    -0.550 OA
ATOM     10  O   UNL     1      75.093 -36.919   9.336  1.00  0.00    -0.550 OA
ENDBRANCH   7   8
ENDBRANCH   6   7
ENDBRANCH   5   6
ENDBRANCH   4   5
ENDBRANCH   3   4
ENDBRANCH   2   3
ENDBRANCH   1   2
BRANCH   1  11
ATOM     11  C   UNL     1      69.241 -36.105   7.870  1.00  0.00    -0.031 C 
ATOM     12  C   UNL     1      70.202 -36.830   8.463  1.00  0.00    -0.027 C 
BRANCH  12  13
ATOM     13  C   UNL     1      69.892 -37.767   9.596  1.00  0.00     0.054 C 
BRANCH  13  14
ATOM     14  C   UNL     1      68.423 -38.082   9.623  1.00  0.00    -0.027 C 
ATOM     15  C   UNL     1      67.611 -37.576  10.564  1.00  0.00    -0.031 C 
BRANCH  15  16
ATOM     16  C   UNL     1      66.151 -37.930  10.614  1.00  0.00     0.027 C 
BRANCH  16  17
ATOM     17  C   UNL     1      65.311 -36.731  11.081  1.00  0.00     0.004 C 
BRANCH  17  18
ATOM     18  C   UNL     1      65.700 -36.240  12.487  1.00  0.00     0.000 C 
BRANCH  18  19
ATOM     19  C   UNL     1      64.610 -36.413  13.559  1.00  0.00    -0.003 C 
ATOM     20  C   UNL     1      64.601 -35.289  14.595  1.00  0.00     0.004 C 
ENDBRANCH  18  19
ENDBRANCH  17  18
ENDBRANCH  16  17
ENDBRANCH  15  16
ENDBRANCH  13  14
ENDBRANCH  12  13
ENDBRANCH   1  11
TORSDOF 14
ENDMDL
MODEL 9
REMARK VINA RESULT:    -4.081      4.082      7.373
REMARK INTER + INTRA:          -9.558
REMARK INTER:                  -7.542
REMARK INTRA:                  -2.017
REMARK UNBOUND:                -2.138
REMARK SMILES CCCCCC=CCC=CCCCCCCCC(=O)[O-]
REMARK SMILES IDX 11 1 12 2 13 3 14 4 15 5 16 6 17 7 18 8 19 9 20 10 10 11
REMARK SMILES IDX 9 12 8 13 7 14 6 15 5 16 4 17 3 18 2 19 1 20
REMARK H PARENT
REMARK Flexibility Score: inf
ROOT
ATOM      1  C   UNL     1      69.462 -40.624  10.570  1.00  0.00     0.027 C 
ENDROOT
BRANCH   1   2
ATOM      2  C   UNL     1      69.384 -40.478   9.045  1.00  0.00     0.004 C 
BRANCH   2   3
ATOM      3  C   UNL     1      68.186 -39.619   8.605  1.00  0.00     0.000 C 
BRANCH   3   4
ATOM      4  C   UNL     1      68.569 -38.152   8.355  1.00  0.00     0.000 C 
BRANCH   4   5
ATOM      5  C   UNL     1      67.664 -37.165   9.115  1.00  0.00     0.000 C 
BRANCH   5   6
ATOM      6  C   UNL     1      67.411 -37.596  10.568  1.00  0.00     0.006 C 
BRANCH   6   7
ATOM      7  C   UNL     1      65.951 -37.400  10.996  1.00  0.00     0.053 C 
BRANCH   7   8
ATOM      8  C   UNL     1      65.793 -36.109  11.734  1.00  0.00     0.041 C 
ATOM      9  O   UNL     1      65.953 -36.069  12.982  1.00  0.00    -0.550 OA
ATOM     10  O   UNL     1      65.415 -34.960  11.051  1.00  0.00    -0.550 OA
ENDBRANCH   7   8
ENDBRANCH   6   7
ENDBRANCH   5   6
ENDBRANCH   4   5
ENDBRANCH   3   4
ENDBRANCH   2   3
ENDBRANCH   1   2
BRANCH   1  11
ATOM     11  C   UNL     1      70.692 -39.960  11.129  1.00  0.00    -0.031 C 
ATOM     12  C   UNL     1      70.792 -38.624  11.218  1.00  0.00    -0.027 C 
BRANCH  12  13
ATOM     13  C   UNL     1      72.038 -37.964  11.739  1.00  0.00     0.054 C 
BRANCH  13  14
ATOM     14  C   UNL     1      72.722 -37.202  10.639  1.00  0.00    -0.027 C 
ATOM     15  C   UNL     1      72.065 -36.824   9.532  1.00  0.00    -0.031 C 
BRANCH  15  16
ATOM     16  C   UNL     1      72.765 -36.101   8.414  1.00  0.00     0.027 C 
BRANCH  16  17
ATOM     17  C   UNL     1      71.860 -35.999   7.175  1.00  0.00     0.004 C 
BRANCH  17  18
ATOM     18  C   UNL     1      70.532 -35.276   7.463  1.00  0.00     0.000 C 
BRANCH  18  19
ATOM     19  C   UNL     1      70.272 -34.031   6.597  1.00  0.00    -0.003 C 
ATOM     20  C   UNL     1      71.205 -32.866   6.925  1.00  0.00     0.004 C 
ENDBRANCH  18  19
ENDBRANCH  17  18
ENDBRANCH  16  17
ENDBRANCH  15  16
ENDBRANCH  13  14
ENDBRANCH  12  13
ENDBRANCH   1  11
TORSDOF 14
ENDMDL
