MODEL 1
REMARK VINA RESULT:     5.795      0.000      0.000
REMARK INTER + INTRA:           8.743
REMARK INTER:                   8.166
REMARK INTRA:                   0.578
REMARK UNBOUND:                 0.578
REMARK SMILES C=C(CC[C@H](C(=O)[O-])[C@H]1[C@@H](O)C[C@]2(C)C3=C(CC[C@@]12C)[C@]1(C)CC[C@H](O)C(C)(C)[C@H]1CC3)C(C)C
REMARK SMILES IDX 4 1 5 2 6 3 7 4 8 5 9 6 10 7 19 8 12 9 13 10 18 11 20 12
REMARK SMILES IDX 14 13 15 14 17 15 16 16 32 17 21 18 31 19 30 20 23 21 22 22
REMARK SMILES IDX 27 23 24 24 25 25 28 26 29 27 11 28 26 30 3 32 2 33 1 34
REMARK SMILES IDX 33 35 34 36 35 37
REMARK H PARENT 11 29 26 31
REMARK Flexibility Score: inf
ROOT
ATOM      1  C   UNL     1      27.630  33.207  23.158  1.00  0.00     0.014 C 
ENDROOT
BRANCH   1   2
ATOM      2  C   UNL     1      27.908  34.736  23.201  1.00  0.00     0.042 C 
BRANCH   2   3
ATOM      3  C   UNL     1      27.109  35.393  24.309  1.00  0.00     0.045 C 
ATOM      4  O   UNL     1      27.613  35.537  25.454  1.00  0.00    -0.550 OA
ATOM      5  O   UNL     1      25.780  35.758  24.117  1.00  0.00    -0.550 OA
ENDBRANCH   2   3
BRANCH   2   6
ATOM      6  C   UNL     1      27.767  35.359  21.757  1.00  0.00     0.033 C 
ATOM      7  C   UNL     1      26.436  35.159  20.962  1.00  0.00     0.119 C 
ATOM      8  C   UNL     1      28.155  36.861  21.511  1.00  0.00    -0.017 C 
ATOM      9  C   UNL     1      26.063  36.536  20.363  1.00  0.00     0.043 C 
ATOM     10  C   UNL     1      26.800  37.573  21.228  1.00  0.00    -0.003 C 
ATOM     11  C   UNL     1      28.892  37.645  22.613  1.00  0.00     0.012 C 
ATOM     12  C   UNL     1      29.103  36.865  20.249  1.00  0.00     0.013 C 
ATOM     13  C   UNL     1      25.902  37.859  22.470  1.00  0.00     0.017 C 
ATOM     14  C   UNL     1      27.074  38.943  20.621  1.00  0.00    -0.064 C 
ATOM     15  C   UNL     1      29.014  39.158  22.254  1.00  0.00     0.032 C 
ATOM     16  C   UNL     1      28.074  39.717  21.154  1.00  0.00    -0.064 C 
ATOM     17  C   UNL     1      26.224  39.432  19.461  1.00  0.00     0.032 C 
ATOM     18  C   UNL     1      28.300  41.140  20.593  1.00  0.00    -0.008 C 
ATOM     19  C   UNL     1      26.004  40.957  19.407  1.00  0.00     0.009 C 
ATOM     20  C   UNL     1      26.871  41.775  20.400  1.00  0.00     0.007 C 
ATOM     21  C   UNL     1      29.119  42.011  21.596  1.00  0.00     0.014 C 
ATOM     22  C   UNL     1      29.118  40.985  19.277  1.00  0.00     0.016 C 
ATOM     23  C   UNL     1      26.802  43.341  20.170  1.00  0.00    -0.006 C 
ATOM     24  C   UNL     1      29.121  43.507  21.252  1.00  0.00     0.033 C 
ATOM     25  C   UNL     1      27.697  44.072  21.222  1.00  0.00     0.120 C 
ATOM     26  C   UNL     1      27.219  43.778  18.738  1.00  0.00     0.014 C 
ATOM     27  C   UNL     1      25.341  43.833  20.365  1.00  0.00     0.014 C 
BRANCH   7  28
ATOM     28  O   UNL     1      25.395  34.684  21.770  1.00  0.00    -0.393 OA
ATOM     29  H   UNL     1      25.244  33.736  21.523  1.00  0.00     0.210 HD
ENDBRANCH   7  28
BRANCH  25  30
ATOM     30  O   UNL     1      27.129  43.968  22.506  1.00  0.00    -0.393 OA
ATOM     31  H   UNL     1      26.152  44.120  22.404  1.00  0.00     0.210 HD
ENDBRANCH  25  30
ENDBRANCH   2   6
ENDBRANCH   1   2
BRANCH   1  32
ATOM     32  C   UNL     1      28.909  32.348  23.123  1.00  0.00     0.031 C 
BRANCH  32  33
ATOM     33  C   UNL     1      28.612  30.903  23.476  1.00  0.00    -0.075 C 
ATOM     34  C   UNL     1      28.886  29.933  22.580  1.00  0.00     0.008 C 
BRANCH  33  35
ATOM     35  C   UNL     1      28.017  30.568  24.836  1.00  0.00     0.008 C 
ATOM     36  C   UNL     1      27.017  29.409  24.729  1.00  0.00     0.012 C 
ATOM     37  C   UNL     1      29.105  30.265  25.870  1.00  0.00     0.012 C 
ENDBRANCH  33  35
ENDBRANCH  32  33
ENDBRANCH   1  32
TORSDOF 8
ENDMDL
