MODEL 1
REMARK VINA RESULT:    -7.270      0.000      0.000
REMARK INTER + INTRA:         -11.641
REMARK INTER:                 -10.032
REMARK INTRA:                  -1.609
REMARK UNBOUND:                -1.609
REMARK SMILES C=C(CC[C@@H](C(=O)[O-])[C@H]1CC[C@]2(C)C3=C(CC[C@]12C)[C@@]1(C)CC[C@@H](O)C(C)(C)[C@H]1CC3)C(C)C
REMARK SMILES IDX 4 1 5 2 6 3 7 4 8 5 9 6 10 7 18 8 11 9 12 10 17 11 19 12
REMARK SMILES IDX 13 13 14 14 16 15 15 16 31 17 20 18 30 19 29 20 22 21 21 22
REMARK SMILES IDX 26 23 23 24 24 25 27 26 28 27 25 28 3 30 2 31 1 32 32 33
REMARK SMILES IDX 33 34 34 35
REMARK H PARENT 25 29
REMARK Flexibility Score: inf
ROOT
ATOM      1  C   UNL     1      20.123   0.463 -25.711  1.00  0.00     0.014 C 
ENDROOT
BRANCH   1   2
ATOM      2  C   UNL     1      19.606  -0.512 -24.618  1.00  0.00     0.039 C 
BRANCH   2   3
ATOM      3  C   UNL     1      19.884  -1.927 -25.061  1.00  0.00     0.045 C 
ATOM      4  O   UNL     1      21.048  -2.293 -25.349  1.00  0.00    -0.550 OA
ATOM      5  O   UNL     1      18.831  -2.821 -25.222  1.00  0.00    -0.550 OA
ENDBRANCH   2   3
BRANCH   2   6
ATOM      6  C   UNL     1      20.256  -0.209 -23.217  1.00  0.00     0.004 C 
ATOM      7  C   UNL     1      21.624   0.455 -23.357  1.00  0.00     0.006 C 
ATOM      8  C   UNL     1      19.461   0.677 -22.169  1.00  0.00    -0.020 C 
ATOM      9  C   UNL     1      21.906   1.131 -22.039  1.00  0.00     0.012 C 
ATOM     10  C   UNL     1      20.554   1.668 -21.536  1.00  0.00    -0.006 C 
ATOM     11  C   UNL     1      18.828  -0.253 -21.088  1.00  0.00     0.012 C 
ATOM     12  C   UNL     1      18.255   1.437 -22.809  1.00  0.00     0.012 C 
ATOM     13  C   UNL     1      20.404   3.124 -22.094  1.00  0.00     0.017 C 
ATOM     14  C   UNL     1      20.603   1.678 -19.979  1.00  0.00    -0.064 C 
ATOM     15  C   UNL     1      19.821  -0.647 -20.014  1.00  0.00     0.032 C 
ATOM     16  C   UNL     1      20.248   0.584 -19.245  1.00  0.00    -0.064 C 
ATOM     17  C   UNL     1      21.209   2.875 -19.276  1.00  0.00     0.032 C 
ATOM     18  C   UNL     1      20.305   0.520 -17.679  1.00  0.00    -0.008 C 
ATOM     19  C   UNL     1      21.928   2.494 -17.999  1.00  0.00     0.009 C 
ATOM     20  C   UNL     1      20.934   1.832 -17.015  1.00  0.00     0.007 C 
ATOM     21  C   UNL     1      21.157  -0.739 -17.316  1.00  0.00     0.014 C 
ATOM     22  C   UNL     1      18.837   0.321 -17.180  1.00  0.00     0.016 C 
ATOM     23  C   UNL     1      21.532   1.665 -15.544  1.00  0.00    -0.006 C 
ATOM     24  C   UNL     1      21.555  -0.858 -15.845  1.00  0.00     0.033 C 
ATOM     25  C   UNL     1      22.368   0.352 -15.399  1.00  0.00     0.120 C 
ATOM     26  C   UNL     1      20.382   1.656 -14.491  1.00  0.00     0.014 C 
ATOM     27  C   UNL     1      22.429   2.869 -15.127  1.00  0.00     0.014 C 
BRANCH  25  28
ATOM     28  O   UNL     1      23.558   0.388 -16.157  1.00  0.00    -0.393 OA
ATOM     29  H   UNL     1      24.218  -0.223 -15.735  1.00  0.00     0.210 HD
ENDBRANCH  25  28
ENDBRANCH   2   6
ENDBRANCH   1   2
BRANCH   1  30
ATOM     30  C   UNL     1      19.037   1.398 -26.280  1.00  0.00     0.031 C 
BRANCH  30  31
ATOM     31  C   UNL     1      17.875   0.629 -26.870  1.00  0.00    -0.075 C 
ATOM     32  C   UNL     1      18.090  -0.253 -27.868  1.00  0.00     0.008 C 
BRANCH  31  33
ATOM     33  C   UNL     1      16.464   0.885 -26.341  1.00  0.00     0.008 C 
ATOM     34  C   UNL     1      16.345   2.320 -25.798  1.00  0.00     0.012 C 
ATOM     35  C   UNL     1      16.040  -0.152 -25.283  1.00  0.00     0.012 C 
ENDBRANCH  31  33
ENDBRANCH  30  31
ENDBRANCH   1  30
TORSDOF 7
ENDMDL
MODEL 2
REMARK VINA RESULT:    -6.826      1.546      2.520
REMARK INTER + INTRA:         -11.028
REMARK INTER:                  -9.284
REMARK INTRA:                  -1.744
REMARK UNBOUND:                -1.609
REMARK SMILES C=C(CC[C@@H](C(=O)[O-])[C@H]1CC[C@]2(C)C3=C(CC[C@]12C)[C@@]1(C)CC[C@@H](O)C(C)(C)[C@H]1CC3)C(C)C
REMARK SMILES IDX 4 1 5 2 6 3 7 4 8 5 9 6 10 7 18 8 11 9 12 10 17 11 19 12
REMARK SMILES IDX 13 13 14 14 16 15 15 16 31 17 20 18 30 19 29 20 22 21 21 22
REMARK SMILES IDX 26 23 23 24 24 25 27 26 28 27 25 28 3 30 2 31 1 32 32 33
REMARK SMILES IDX 33 34 34 35
REMARK H PARENT 25 29
REMARK Flexibility Score: inf
ROOT
ATOM      1  C   UNL     1      20.731  -0.516 -26.230  1.00  0.00     0.014 C 
ENDROOT
BRANCH   1   2
ATOM      2  C   UNL     1      19.618  -0.426 -25.151  1.00  0.00     0.039 C 
BRANCH   2   3
ATOM      3  C   UNL     1      18.799  -1.693 -25.194  1.00  0.00     0.045 C 
ATOM      4  O   UNL     1      19.215  -2.706 -25.804  1.00  0.00    -0.550 OA
ATOM      5  O   UNL     1      17.537  -1.721 -24.612  1.00  0.00    -0.550 OA
ENDBRANCH   2   3
BRANCH   2   6
ATOM      6  C   UNL     1      20.218  -0.177 -23.718  1.00  0.00     0.004 C 
ATOM      7  C   UNL     1      21.692   0.220 -23.780  1.00  0.00     0.006 C 
ATOM      8  C   UNL     1      19.532   0.889 -22.764  1.00  0.00    -0.020 C 
ATOM      9  C   UNL     1      22.005   0.898 -22.470  1.00  0.00     0.012 C 
ATOM     10  C   UNL     1      20.745   1.695 -22.089  1.00  0.00    -0.006 C 
ATOM     11  C   UNL     1      18.669   0.143 -21.700  1.00  0.00     0.012 C 
ATOM     12  C   UNL     1      18.532   1.823 -23.519  1.00  0.00     0.012 C 
ATOM     13  C   UNL     1      20.903   3.125 -22.709  1.00  0.00     0.017 C 
ATOM     14  C   UNL     1      20.692   1.773 -20.533  1.00  0.00    -0.064 C 
ATOM     15  C   UNL     1      19.499  -0.371 -20.542  1.00  0.00     0.032 C 
ATOM     16  C   UNL     1      20.093   0.799 -19.788  1.00  0.00    -0.064 C 
ATOM     17  C   UNL     1      21.460   2.874 -19.832  1.00  0.00     0.032 C 
ATOM     18  C   UNL     1      20.034   0.803 -18.221  1.00  0.00    -0.008 C 
ATOM     19  C   UNL     1      22.011   2.432 -18.492  1.00  0.00     0.009 C 
ATOM     20  C   UNL     1      20.849   2.011 -17.561  1.00  0.00     0.007 C 
ATOM     21  C   UNL     1      20.614  -0.570 -17.751  1.00  0.00     0.014 C 
ATOM     22  C   UNL     1      18.525   0.898 -17.826  1.00  0.00     0.016 C 
ATOM     23  C   UNL     1      21.307   1.810 -16.044  1.00  0.00    -0.006 C 
ATOM     24  C   UNL     1      20.885  -0.687 -16.251  1.00  0.00     0.033 C 
ATOM     25  C   UNL     1      21.876   0.377 -15.790  1.00  0.00     0.120 C 
ATOM     26  C   UNL     1      20.108   2.062 -15.080  1.00  0.00     0.014 C 
ATOM     27  C   UNL     1      22.381   2.851 -15.606  1.00  0.00     0.014 C 
BRANCH  25  28
ATOM     28  O   UNL     1      23.099   0.159 -16.459  1.00  0.00    -0.393 OA
ATOM     29  H   UNL     1      23.839   0.457 -15.866  1.00  0.00     0.210 HD
ENDBRANCH  25  28
ENDBRANCH   2   6
ENDBRANCH   1   2
BRANCH   1  30
ATOM     30  C   UNL     1      20.724   0.653 -27.235  1.00  0.00     0.031 C 
BRANCH  30  31
ATOM     31  C   UNL     1      22.110   0.969 -27.752  1.00  0.00    -0.075 C 
ATOM     32  C   UNL     1      22.611   0.280 -28.797  1.00  0.00     0.008 C 
BRANCH  31  33
ATOM     33  C   UNL     1      22.936   2.053 -27.060  1.00  0.00     0.008 C 
ATOM     34  C   UNL     1      24.053   1.419 -26.211  1.00  0.00     0.012 C 
ATOM     35  C   UNL     1      22.063   3.004 -26.218  1.00  0.00     0.012 C 
ENDBRANCH  31  33
ENDBRANCH  30  31
ENDBRANCH   1  30
TORSDOF 7
ENDMDL
MODEL 3
REMARK VINA RESULT:    -6.314      1.685      2.800
REMARK INTER + INTRA:         -10.322
REMARK INTER:                 -10.204
REMARK INTRA:                  -0.118
REMARK UNBOUND:                -1.609
REMARK SMILES C=C(CC[C@@H](C(=O)[O-])[C@H]1CC[C@]2(C)C3=C(CC[C@]12C)[C@@]1(C)CC[C@@H](O)C(C)(C)[C@H]1CC3)C(C)C
REMARK SMILES IDX 4 1 5 2 6 3 7 4 8 5 9 6 10 7 18 8 11 9 12 10 17 11 19 12
REMARK SMILES IDX 13 13 14 14 16 15 15 16 31 17 20 18 30 19 29 20 22 21 21 22
REMARK SMILES IDX 26 23 23 24 24 25 27 26 28 27 25 28 3 30 2 31 1 32 32 33
REMARK SMILES IDX 33 34 34 35
REMARK H PARENT 25 29
REMARK Flexibility Score: inf
ROOT
ATOM      1  C   UNL     1      20.060  -1.353 -26.315  1.00  0.00     0.014 C 
ENDROOT
BRANCH   1   2
ATOM      2  C   UNL     1      19.435  -0.154 -25.550  1.00  0.00     0.039 C 
BRANCH   2   3
ATOM      3  C   UNL     1      17.935  -0.323 -25.530  1.00  0.00     0.045 C 
ATOM      4  O   UNL     1      17.392  -1.160 -24.771  1.00  0.00    -0.550 OA
ATOM      5  O   UNL     1      17.146   0.407 -26.412  1.00  0.00    -0.550 OA
ENDBRANCH   2   3
BRANCH   2   6
ATOM      6  C   UNL     1      20.019  -0.029 -24.094  1.00  0.00     0.004 C 
ATOM      7  C   UNL     1      21.533   0.175 -24.105  1.00  0.00     0.006 C 
ATOM      8  C   UNL     1      19.448   1.089 -23.124  1.00  0.00    -0.020 C 
ATOM      9  C   UNL     1      21.891   0.767 -22.765  1.00  0.00     0.012 C 
ATOM     10  C   UNL     1      20.734   1.710 -22.390  1.00  0.00    -0.006 C 
ATOM     11  C   UNL     1      18.464   0.431 -22.108  1.00  0.00     0.012 C 
ATOM     12  C   UNL     1      18.600   2.167 -23.873  1.00  0.00     0.012 C 
ATOM     13  C   UNL     1      21.094   3.125 -22.958  1.00  0.00     0.017 C 
ATOM     14  C   UNL     1      20.644   1.749 -20.835  1.00  0.00    -0.064 C 
ATOM     15  C   UNL     1      19.185  -0.221 -20.946  1.00  0.00     0.032 C 
ATOM     16  C   UNL     1      19.903   0.838 -20.139  1.00  0.00    -0.064 C 
ATOM     17  C   UNL     1      21.527   2.718 -20.078  1.00  0.00     0.032 C 
ATOM     18  C   UNL     1      19.798   0.804 -18.575  1.00  0.00    -0.008 C 
ATOM     19  C   UNL     1      21.975   2.169 -18.739  1.00  0.00     0.009 C 
ATOM     20  C   UNL     1      20.741   1.875 -17.854  1.00  0.00     0.007 C 
ATOM     21  C   UNL     1      20.180  -0.646 -18.135  1.00  0.00     0.014 C 
ATOM     22  C   UNL     1      18.302   1.083 -18.216  1.00  0.00     0.016 C 
ATOM     23  C   UNL     1      21.124   1.572 -16.333  1.00  0.00    -0.006 C 
ATOM     24  C   UNL     1      20.389  -0.842 -16.633  1.00  0.00     0.033 C 
ATOM     25  C   UNL     1      21.494   0.070 -16.112  1.00  0.00     0.120 C 
ATOM     26  C   UNL     1      19.939   1.949 -15.392  1.00  0.00     0.014 C 
ATOM     27  C   UNL     1      22.310   2.451 -15.833  1.00  0.00     0.014 C 
BRANCH  25  28
ATOM     28  O   UNL     1      22.699  -0.285 -16.755  1.00  0.00    -0.393 OA
ATOM     29  H   UNL     1      23.459   0.040 -16.203  1.00  0.00     0.210 HD
ENDBRANCH  25  28
ENDBRANCH   2   6
ENDBRANCH   1   2
BRANCH   1  30
ATOM     30  C   UNL     1      20.487  -2.521 -25.405  1.00  0.00     0.031 C 
BRANCH  30  31
ATOM     31  C   UNL     1      19.902  -3.841 -25.858  1.00  0.00    -0.075 C 
ATOM     32  C   UNL     1      19.959  -4.190 -27.160  1.00  0.00     0.008 C 
BRANCH  31  33
ATOM     33  C   UNL     1      19.226  -4.750 -24.832  1.00  0.00     0.008 C 
ATOM     34  C   UNL     1      18.586  -5.965 -25.528  1.00  0.00     0.012 C 
ATOM     35  C   UNL     1      18.199  -3.993 -23.968  1.00  0.00     0.012 C 
ENDBRANCH  31  33
ENDBRANCH  30  31
ENDBRANCH   1  30
TORSDOF 7
ENDMDL
MODEL 4
REMARK VINA RESULT:    -6.212     14.043     15.900
REMARK INTER + INTRA:         -10.182
REMARK INTER:                  -8.784
REMARK INTRA:                  -1.398
REMARK UNBOUND:                -1.609
REMARK SMILES C=C(CC[C@@H](C(=O)[O-])[C@H]1CC[C@]2(C)C3=C(CC[C@]12C)[C@@]1(C)CC[C@@H](O)C(C)(C)[C@H]1CC3)C(C)C
REMARK SMILES IDX 4 1 5 2 6 3 7 4 8 5 9 6 10 7 18 8 11 9 12 10 17 11 19 12
REMARK SMILES IDX 13 13 14 14 16 15 15 16 31 17 20 18 30 19 29 20 22 21 21 22
REMARK SMILES IDX 26 23 23 24 24 25 27 26 28 27 25 28 3 30 2 31 1 32 32 33
REMARK SMILES IDX 33 34 34 35
REMARK H PARENT 25 29
REMARK Flexibility Score: inf
ROOT
ATOM      1  C   UNL     1      15.529 -13.356 -26.131  1.00  0.00     0.014 C 
ENDROOT
BRANCH   1   2
ATOM      2  C   UNL     1      16.610 -13.947 -27.077  1.00  0.00     0.039 C 
BRANCH   2   3
ATOM      3  C   UNL     1      16.209 -13.666 -28.505  1.00  0.00     0.045 C 
ATOM      4  O   UNL     1      16.683 -12.684 -29.124  1.00  0.00    -0.550 OA
ATOM      5  O   UNL     1      15.249 -14.461 -29.123  1.00  0.00    -0.550 OA
ENDBRANCH   2   3
BRANCH   2   6
ATOM      6  C   UNL     1      18.038 -13.371 -26.757  1.00  0.00     0.004 C 
ATOM      7  C   UNL     1      17.995 -12.336 -25.634  1.00  0.00     0.006 C 
ATOM      8  C   UNL     1      19.207 -14.370 -26.366  1.00  0.00    -0.020 C 
ATOM      9  C   UNL     1      19.397 -12.240 -25.089  1.00  0.00     0.012 C 
ATOM     10  C   UNL     1      19.977 -13.665 -25.146  1.00  0.00    -0.006 C 
ATOM     11  C   UNL     1      20.141 -14.572 -27.599  1.00  0.00     0.012 C 
ATOM     12  C   UNL     1      18.688 -15.800 -26.008  1.00  0.00     0.012 C 
ATOM     13  C   UNL     1      19.639 -14.351 -23.779  1.00  0.00     0.017 C 
ATOM     14  C   UNL     1      21.519 -13.538 -25.332  1.00  0.00    -0.064 C 
ATOM     15  C   UNL     1      21.143 -13.448 -27.755  1.00  0.00     0.032 C 
ATOM     16  C   UNL     1      22.084 -13.442 -26.570  1.00  0.00    -0.064 C 
ATOM     17  C   UNL     1      22.388 -13.357 -24.105  1.00  0.00     0.032 C 
ATOM     18  C   UNL     1      23.624 -13.281 -26.822  1.00  0.00    -0.008 C 
ATOM     19  C   UNL     1      23.594 -12.481 -24.374  1.00  0.00     0.009 C 
ATOM     20  C   UNL     1      24.472 -13.122 -25.476  1.00  0.00     0.007 C 
ATOM     21  C   UNL     1      23.795 -12.020 -27.730  1.00  0.00     0.014 C 
ATOM     22  C   UNL     1      24.090 -14.554 -27.600  1.00  0.00     0.016 C 
ATOM     23  C   UNL     1      25.901 -12.424 -25.617  1.00  0.00    -0.006 C 
ATOM     24  C   UNL     1      25.232 -11.526 -27.899  1.00  0.00     0.033 C 
ATOM     25  C   UNL     1      25.849 -11.171 -26.550  1.00  0.00     0.120 C 
ATOM     26  C   UNL     1      26.943 -13.437 -26.182  1.00  0.00     0.014 C 
ATOM     27  C   UNL     1      26.489 -11.990 -24.241  1.00  0.00     0.014 C 
BRANCH  25  28
ATOM     28  O   UNL     1      25.103 -10.114 -25.988  1.00  0.00    -0.393 OA
ATOM     29  H   UNL     1      24.863  -9.477 -26.712  1.00  0.00     0.210 HD
ENDBRANCH  25  28
ENDBRANCH   2   6
ENDBRANCH   1   2
BRANCH   1  30
ATOM     30  C   UNL     1      14.457 -14.374 -25.693  1.00  0.00     0.031 C 
BRANCH  30  31
ATOM     31  C   UNL     1      14.484 -14.623 -24.201  1.00  0.00    -0.075 C 
ATOM     32  C   UNL     1      15.625 -15.027 -23.607  1.00  0.00     0.008 C 
BRANCH  31  33
ATOM     33  C   UNL     1      13.202 -14.438 -23.390  1.00  0.00     0.008 C 
ATOM     34  C   UNL     1      12.769 -12.961 -23.397  1.00  0.00     0.012 C 
ATOM     35  C   UNL     1      13.338 -14.976 -21.952  1.00  0.00     0.012 C 
ENDBRANCH  31  33
ENDBRANCH  30  31
ENDBRANCH   1  30
TORSDOF 7
ENDMDL
MODEL 5
REMARK VINA RESULT:    -6.070      1.977      8.913
REMARK INTER + INTRA:          -9.986
REMARK INTER:                  -8.285
REMARK INTRA:                  -1.701
REMARK UNBOUND:                -1.609
REMARK SMILES C=C(CC[C@@H](C(=O)[O-])[C@H]1CC[C@]2(C)C3=C(CC[C@]12C)[C@@]1(C)CC[C@@H](O)C(C)(C)[C@H]1CC3)C(C)C
REMARK SMILES IDX 4 1 5 2 6 3 7 4 8 5 9 6 10 7 18 8 11 9 12 10 17 11 19 12
REMARK SMILES IDX 13 13 14 14 16 15 15 16 31 17 20 18 30 19 29 20 22 21 21 22
REMARK SMILES IDX 26 23 23 24 24 25 27 26 28 27 25 28 3 30 2 31 1 32 32 33
REMARK SMILES IDX 33 34 34 35
REMARK H PARENT 25 29
REMARK Flexibility Score: inf
ROOT
ATOM      1  C   UNL     1      21.372   2.915 -17.343  1.00  0.00     0.014 C 
ENDROOT
BRANCH   1   2
ATOM      2  C   UNL     1      20.286   1.882 -17.754  1.00  0.00     0.039 C 
BRANCH   2   3
ATOM      3  C   UNL     1      19.004   2.215 -17.030  1.00  0.00     0.045 C 
ATOM      4  O   UNL     1      17.890   1.981 -17.555  1.00  0.00    -0.550 OA
ATOM      5  O   UNL     1      19.053   2.852 -15.795  1.00  0.00    -0.550 OA
ENDBRANCH   2   3
BRANCH   2   6
ATOM      6  C   UNL     1      20.075   1.853 -19.313  1.00  0.00     0.004 C 
ATOM      7  C   UNL     1      20.636   3.104 -19.986  1.00  0.00     0.006 C 
ATOM      8  C   UNL     1      20.644   0.631 -20.149  1.00  0.00    -0.020 C 
ATOM      9  C   UNL     1      20.834   2.753 -21.439  1.00  0.00     0.012 C 
ATOM     10  C   UNL     1      21.291   1.284 -21.466  1.00  0.00    -0.006 C 
ATOM     11  C   UNL     1      19.474  -0.339 -20.500  1.00  0.00     0.012 C 
ATOM     12  C   UNL     1      21.663  -0.235 -19.341  1.00  0.00     0.012 C 
ATOM     13  C   UNL     1      22.856   1.290 -21.396  1.00  0.00     0.017 C 
ATOM     14  C   UNL     1      20.803   0.664 -22.810  1.00  0.00    -0.064 C 
ATOM     15  C   UNL     1      18.680   0.126 -21.703  1.00  0.00     0.032 C 
ATOM     16  C   UNL     1      19.565   0.103 -22.931  1.00  0.00    -0.064 C 
ATOM     17  C   UNL     1      21.662   0.834 -24.045  1.00  0.00     0.032 C 
ATOM     18  C   UNL     1      19.004  -0.507 -24.262  1.00  0.00    -0.008 C 
ATOM     19  C   UNL     1      20.839   0.964 -25.309  1.00  0.00     0.009 C 
ATOM     20  C   UNL     1      19.982  -0.308 -25.511  1.00  0.00     0.007 C 
ATOM     21  C   UNL     1      17.630   0.189 -24.526  1.00  0.00     0.014 C 
ATOM     22  C   UNL     1      18.776  -2.032 -23.999  1.00  0.00     0.016 C 
ATOM     23  C   UNL     1      19.309  -0.384 -26.957  1.00  0.00    -0.006 C 
ATOM     24  C   UNL     1      17.019  -0.070 -25.903  1.00  0.00     0.033 C 
ATOM     25  C   UNL     1      17.955   0.395 -27.012  1.00  0.00     0.120 C 
ATOM     26  C   UNL     1      19.060  -1.869 -27.360  1.00  0.00     0.014 C 
ATOM     27  C   UNL     1      20.242   0.170 -28.076  1.00  0.00     0.014 C 
BRANCH  25  28
ATOM     28  O   UNL     1      18.133   1.789 -26.885  1.00  0.00    -0.393 OA
ATOM     29  H   UNL     1      17.850   2.061 -25.972  1.00  0.00     0.210 HD
ENDBRANCH  25  28
ENDBRANCH   2   6
ENDBRANCH   1   2
BRANCH   1  30
ATOM     30  C   UNL     1      22.703   2.277 -16.898  1.00  0.00     0.031 C 
BRANCH  30  31
ATOM     31  C   UNL     1      22.537   1.411 -15.669  1.00  0.00    -0.075 C 
ATOM     32  C   UNL     1      22.213   1.974 -14.487  1.00  0.00     0.008 C 
BRANCH  31  33
ATOM     33  C   UNL     1      22.767  -0.096 -15.781  1.00  0.00     0.008 C 
ATOM     34  C   UNL     1      21.459  -0.862 -15.511  1.00  0.00     0.012 C 
ATOM     35  C   UNL     1      23.902  -0.584 -14.860  1.00  0.00     0.012 C 
ENDBRANCH  31  33
ENDBRANCH  30  31
ENDBRANCH   1  30
TORSDOF 7
ENDMDL
MODEL 6
REMARK VINA RESULT:    -5.868     14.224     17.105
REMARK INTER + INTRA:          -9.706
REMARK INTER:                  -8.443
REMARK INTRA:                  -1.263
REMARK UNBOUND:                -1.609
REMARK SMILES C=C(CC[C@@H](C(=O)[O-])[C@H]1CC[C@]2(C)C3=C(CC[C@]12C)[C@@]1(C)CC[C@@H](O)C(C)(C)[C@H]1CC3)C(C)C
REMARK SMILES IDX 4 1 5 2 6 3 7 4 8 5 9 6 10 7 18 8 11 9 12 10 17 11 19 12
REMARK SMILES IDX 13 13 14 14 16 15 15 16 31 17 20 18 30 19 29 20 22 21 21 22
REMARK SMILES IDX 26 23 23 24 24 25 27 26 28 27 25 28 3 30 2 31 1 32 32 33
REMARK SMILES IDX 33 34 34 35
REMARK H PARENT 25 29
REMARK Flexibility Score: inf
ROOT
ATOM      1  C   UNL     1      22.909 -12.829 -26.425  1.00  0.00     0.014 C 
ENDROOT
BRANCH   1   2
ATOM      2  C   UNL     1      22.268 -13.463 -25.160  1.00  0.00     0.039 C 
BRANCH   2   3
ATOM      3  C   UNL     1      22.738 -12.700 -23.946  1.00  0.00     0.045 C 
ATOM      4  O   UNL     1      22.067 -11.747 -23.487  1.00  0.00    -0.550 OA
ATOM      5  O   UNL     1      23.965 -13.009 -23.368  1.00  0.00    -0.550 OA
ENDBRANCH   2   3
BRANCH   2   6
ATOM      6  C   UNL     1      20.697 -13.483 -25.255  1.00  0.00     0.004 C 
ATOM      7  C   UNL     1      20.185 -12.587 -26.382  1.00  0.00     0.006 C 
ATOM      8  C   UNL     1      19.950 -14.869 -25.443  1.00  0.00    -0.020 C 
ATOM      9  C   UNL     1      18.787 -13.058 -26.696  1.00  0.00     0.012 C 
ATOM     10  C   UNL     1      18.804 -14.588 -26.532  1.00  0.00    -0.006 C 
ATOM     11  C   UNL     1      19.350 -15.317 -24.074  1.00  0.00     0.012 C 
ATOM     12  C   UNL     1      20.913 -16.025 -25.864  1.00  0.00     0.012 C 
ATOM     13  C   UNL     1      19.175 -15.194 -27.928  1.00  0.00     0.017 C 
ATOM     14  C   UNL     1      17.373 -15.030 -26.104  1.00  0.00    -0.064 C 
ATOM     15  C   UNL     1      18.031 -14.636 -23.773  1.00  0.00     0.032 C 
ATOM     16  C   UNL     1      16.997 -15.064 -24.792  1.00  0.00    -0.064 C 
ATOM     17  C   UNL     1      16.332 -15.272 -27.177  1.00  0.00     0.032 C 
ATOM     18  C   UNL     1      15.565 -15.469 -24.299  1.00  0.00    -0.008 C 
ATOM     19  C   UNL     1      14.938 -14.890 -26.729  1.00  0.00     0.009 C 
ATOM     20  C   UNL     1      14.535 -15.731 -25.494  1.00  0.00     0.007 C 
ATOM     21  C   UNL     1      15.062 -14.302 -23.389  1.00  0.00     0.014 C 
ATOM     22  C   UNL     1      15.731 -16.766 -23.443  1.00  0.00     0.016 C 
ATOM     23  C   UNL     1      12.984 -15.606 -25.134  1.00  0.00    -0.006 C 
ATOM     24  C   UNL     1      13.585 -14.366 -22.999  1.00  0.00     0.033 C 
ATOM     25  C   UNL     1      12.692 -14.361 -24.235  1.00  0.00     0.120 C 
ATOM     26  C   UNL     1      12.495 -16.892 -24.399  1.00  0.00     0.014 C 
ATOM     27  C   UNL     1      12.085 -15.519 -26.403  1.00  0.00     0.014 C 
BRANCH  25  28
ATOM     28  O   UNL     1      12.895 -13.145 -24.921  1.00  0.00    -0.393 OA
ATOM     29  H   UNL     1      13.125 -13.351 -25.865  1.00  0.00     0.210 HD
ENDBRANCH  25  28
ENDBRANCH   2   6
ENDBRANCH   1   2
BRANCH   1  30
ATOM     30  C   UNL     1      24.035 -13.679 -27.048  1.00  0.00     0.031 C 
BRANCH  30  31
ATOM     31  C   UNL     1      25.405 -13.246 -26.572  1.00  0.00    -0.075 C 
ATOM     32  C   UNL     1      26.182 -14.108 -25.885  1.00  0.00     0.008 C 
BRANCH  31  33
ATOM     33  C   UNL     1      25.879 -11.821 -26.857  1.00  0.00     0.008 C 
ATOM     34  C   UNL     1      27.038 -11.831 -27.869  1.00  0.00     0.012 C 
ATOM     35  C   UNL     1      26.263 -11.066 -25.570  1.00  0.00     0.012 C 
ENDBRANCH  31  33
ENDBRANCH  30  31
ENDBRANCH   1  30
TORSDOF 7
ENDMDL
MODEL 7
REMARK VINA RESULT:    -5.739      1.691      8.596
REMARK INTER + INTRA:          -9.529
REMARK INTER:                  -8.090
REMARK INTRA:                  -1.439
REMARK UNBOUND:                -1.609
REMARK SMILES C=C(CC[C@@H](C(=O)[O-])[C@H]1CC[C@]2(C)C3=C(CC[C@]12C)[C@@]1(C)CC[C@@H](O)C(C)(C)[C@H]1CC3)C(C)C
REMARK SMILES IDX 4 1 5 2 6 3 7 4 8 5 9 6 10 7 18 8 11 9 12 10 17 11 19 12
REMARK SMILES IDX 13 13 14 14 16 15 15 16 31 17 20 18 30 19 29 20 22 21 21 22
REMARK SMILES IDX 26 23 23 24 24 25 27 26 28 27 25 28 3 30 2 31 1 32 32 33
REMARK SMILES IDX 33 34 34 35
REMARK H PARENT 25 29
REMARK Flexibility Score: inf
ROOT
ATOM      1  C   UNL     1      22.488   0.779 -15.589  1.00  0.00     0.014 C 
ENDROOT
BRANCH   1   2
ATOM      2  C   UNL     1      22.401   1.838 -16.722  1.00  0.00     0.039 C 
BRANCH   2   3
ATOM      3  C   UNL     1      23.702   2.602 -16.771  1.00  0.00     0.045 C 
ATOM      4  O   UNL     1      24.189   2.970 -17.866  1.00  0.00    -0.550 OA
ATOM      5  O   UNL     1      24.408   2.841 -15.597  1.00  0.00    -0.550 OA
ENDBRANCH   2   3
BRANCH   2   6
ATOM      6  C   UNL     1      22.070   1.175 -18.110  1.00  0.00     0.004 C 
ATOM      7  C   UNL     1      21.452  -0.212 -17.944  1.00  0.00     0.006 C 
ATOM      8  C   UNL     1      21.126   1.940 -19.129  1.00  0.00    -0.020 C 
ATOM      9  C   UNL     1      20.741  -0.518 -19.238  1.00  0.00     0.012 C 
ATOM     10  C   UNL     1      20.147   0.815 -19.726  1.00  0.00    -0.006 C 
ATOM     11  C   UNL     1      21.999   2.596 -20.243  1.00  0.00     0.012 C 
ATOM     12  C   UNL     1      20.352   3.125 -18.467  1.00  0.00     0.012 C 
ATOM     13  C   UNL     1      18.707   0.924 -19.119  1.00  0.00     0.017 C 
ATOM     14  C   UNL     1      20.085   0.762 -21.282  1.00  0.00    -0.064 C 
ATOM     15  C   UNL     1      22.386   1.612 -21.327  1.00  0.00     0.032 C 
ATOM     16  C   UNL     1      21.143   1.146 -22.053  1.00  0.00    -0.064 C 
ATOM     17  C   UNL     1      18.883   0.118 -21.942  1.00  0.00     0.032 C 
ATOM     18  C   UNL     1      21.155   1.086 -23.620  1.00  0.00    -0.008 C 
ATOM     19  C   UNL     1      19.242  -0.594 -23.229  1.00  0.00     0.009 C 
ATOM     20  C   UNL     1      19.840   0.416 -24.237  1.00  0.00     0.007 C 
ATOM     21  C   UNL     1      22.425   0.271 -24.024  1.00  0.00     0.014 C 
ATOM     22  C   UNL     1      21.293   2.558 -24.128  1.00  0.00     0.016 C 
ATOM     23  C   UNL     1      19.975  -0.182 -25.712  1.00  0.00    -0.006 C 
ATOM     24  C   UNL     1      22.506  -0.129 -25.498  1.00  0.00     0.033 C 
ATOM     25  C   UNL     1      21.306  -0.979 -25.900  1.00  0.00     0.120 C 
ATOM     26  C   UNL     1      19.914   0.965 -26.767  1.00  0.00     0.014 C 
ATOM     27  C   UNL     1      18.784  -1.115 -26.085  1.00  0.00     0.014 C 
BRANCH  25  28
ATOM     28  O   UNL     1      21.331  -2.166 -25.139  1.00  0.00    -0.393 OA
ATOM     29  H   UNL     1      20.395  -2.458 -24.979  1.00  0.00     0.210 HD
ENDBRANCH  25  28
ENDBRANCH   2   6
ENDBRANCH   1   2
BRANCH   1  30
ATOM     30  C   UNL     1      21.192   0.637 -14.766  1.00  0.00     0.031 C 
BRANCH  30  31
ATOM     31  C   UNL     1      20.324   1.872 -14.852  1.00  0.00    -0.075 C 
ATOM     32  C   UNL     1      20.634   2.965 -14.125  1.00  0.00     0.008 C 
BRANCH  31  33
ATOM     33  C   UNL     1      19.084   1.853 -15.747  1.00  0.00     0.008 C 
ATOM     34  C   UNL     1      18.241   3.122 -15.526  1.00  0.00     0.012 C 
ATOM     35  C   UNL     1      18.242   0.578 -15.550  1.00  0.00     0.012 C 
ENDBRANCH  31  33
ENDBRANCH  30  31
ENDBRANCH   1  30
TORSDOF 7
ENDMDL
MODEL 8
REMARK VINA RESULT:    -5.027     14.127     16.893
REMARK INTER + INTRA:          -8.546
REMARK INTER:                  -7.136
REMARK INTRA:                  -1.410
REMARK UNBOUND:                -1.609
REMARK SMILES C=C(CC[C@@H](C(=O)[O-])[C@H]1CC[C@]2(C)C3=C(CC[C@]12C)[C@@]1(C)CC[C@@H](O)C(C)(C)[C@H]1CC3)C(C)C
REMARK SMILES IDX 4 1 5 2 6 3 7 4 8 5 9 6 10 7 18 8 11 9 12 10 17 11 19 12
REMARK SMILES IDX 13 13 14 14 16 15 15 16 31 17 20 18 30 19 29 20 22 21 21 22
REMARK SMILES IDX 26 23 23 24 24 25 27 26 28 27 25 28 3 30 2 31 1 32 32 33
REMARK SMILES IDX 33 34 34 35
REMARK H PARENT 25 29
REMARK Flexibility Score: inf
ROOT
ATOM      1  C   UNL     1      23.074 -13.722 -27.263  1.00  0.00     0.014 C 
ENDROOT
BRANCH   1   2
ATOM      2  C   UNL     1      21.888 -12.729 -27.122  1.00  0.00     0.039 C 
BRANCH   2   3
ATOM      3  C   UNL     1      21.823 -11.874 -28.363  1.00  0.00     0.045 C 
ATOM      4  O   UNL     1      22.863 -11.378 -28.856  1.00  0.00    -0.550 OA
ATOM      5  O   UNL     1      20.590 -11.572 -28.931  1.00  0.00    -0.550 OA
ENDBRANCH   2   3
BRANCH   2   6
ATOM      6  C   UNL     1      20.529 -13.482 -26.870  1.00  0.00     0.004 C 
ATOM      7  C   UNL     1      20.684 -14.995 -27.010  1.00  0.00     0.006 C 
ATOM      8  C   UNL     1      19.763 -13.260 -25.499  1.00  0.00    -0.020 C 
ATOM      9  C   UNL     1      19.515 -15.611 -26.282  1.00  0.00     0.012 C 
ATOM     10  C   UNL     1      19.257 -14.718 -25.056  1.00  0.00    -0.006 C 
ATOM     11  C   UNL     1      18.572 -12.280 -25.731  1.00  0.00     0.012 C 
ATOM     12  C   UNL     1      20.651 -12.573 -24.412  1.00  0.00     0.012 C 
ATOM     13  C   UNL     1      20.117 -15.294 -23.880  1.00  0.00     0.017 C 
ATOM     14  C   UNL     1      17.738 -14.808 -24.721  1.00  0.00    -0.064 C 
ATOM     15  C   UNL     1      17.357 -12.975 -26.307  1.00  0.00     0.032 C 
ATOM     16  C   UNL     1      16.826 -13.977 -25.305  1.00  0.00    -0.064 C 
ATOM     17  C   UNL     1      17.249 -15.948 -23.851  1.00  0.00     0.032 C 
ATOM     18  C   UNL     1      15.282 -14.039 -25.035  1.00  0.00    -0.008 C 
ATOM     19  C   UNL     1      15.862 -16.417 -24.237  1.00  0.00     0.009 C 
ATOM     20  C   UNL     1      14.854 -15.254 -24.087  1.00  0.00     0.007 C 
ATOM     21  C   UNL     1      14.591 -14.163 -26.431  1.00  0.00     0.014 C 
ATOM     22  C   UNL     1      14.885 -12.679 -24.374  1.00  0.00     0.016 C 
ATOM     23  C   UNL     1      13.333 -15.730 -24.191  1.00  0.00    -0.006 C 
ATOM     24  C   UNL     1      13.099 -14.490 -26.396  1.00  0.00     0.033 C 
ATOM     25  C   UNL     1      12.845 -15.808 -25.673  1.00  0.00     0.120 C 
ATOM     26  C   UNL     1      12.407 -14.756 -23.399  1.00  0.00     0.014 C 
ATOM     27  C   UNL     1      13.099 -17.117 -23.520  1.00  0.00     0.014 C 
BRANCH  25  28
ATOM     28  O   UNL     1      13.485 -16.838 -26.395  1.00  0.00    -0.393 OA
ATOM     29  H   UNL     1      14.427 -16.567 -26.562  1.00  0.00     0.210 HD
ENDBRANCH  25  28
ENDBRANCH   2   6
ENDBRANCH   1   2
BRANCH   1  30
ATOM     30  C   UNL     1      23.703 -14.141 -25.919  1.00  0.00     0.031 C 
BRANCH  30  31
ATOM     31  C   UNL     1      24.532 -13.033 -25.308  1.00  0.00    -0.075 C 
ATOM     32  C   UNL     1      24.265 -12.604 -24.058  1.00  0.00     0.008 C 
BRANCH  31  33
ATOM     33  C   UNL     1      25.650 -12.395 -26.133  1.00  0.00     0.008 C 
ATOM     34  C   UNL     1      26.875 -13.325 -26.191  1.00  0.00     0.012 C 
ATOM     35  C   UNL     1      26.032 -10.995 -25.615  1.00  0.00     0.012 C 
ENDBRANCH  31  33
ENDBRANCH  30  31
ENDBRANCH   1  30
TORSDOF 7
ENDMDL
