MODEL 1
REMARK VINA RESULT:    -6.338      0.000      0.000
REMARK INTER + INTRA:          -9.894
REMARK INTER:                  -8.746
REMARK INTRA:                  -1.148
REMARK UNBOUND:                -1.148
REMARK SMILES O=C([O-])[C@H]1O[C@H](Oc2cc3oc(-c4ccccc4)cc(=O)c3c(O)c2O)[C@@H](O)[C@H](O)[C@H]1O
REMARK SMILES IDX 7 1 6 2 4 3 31 4 5 5 29 6 27 7 2 8 1 9 3 10 32 11 30 13
REMARK SMILES IDX 28 15 8 17 25 18 9 19 23 20 10 21 22 22 11 23 20 24 12 25
REMARK SMILES IDX 19 26 21 27 26 28 24 30 13 32 14 33 18 34 15 35 17 36 16 37
REMARK H PARENT 32 12 30 14 28 16 26 29 24 31
REMARK Flexibility Score: inf
ROOT
ATOM      1  O   UNL     1      23.831  19.044   5.884  1.00  0.00    -0.458 OA
ENDROOT
BRANCH   1   2
ATOM      2  C   UNL     1      23.868  17.713   5.347  1.00  0.00     0.339 C 
ATOM      3  C   UNL     1      21.887  18.034   4.133  1.00  0.00     0.199 C 
ATOM      4  C   UNL     1      22.572  17.908   2.752  1.00  0.00     0.180 C 
ATOM      5  O   UNL     1      22.553  17.242   5.102  1.00  0.00    -0.328 OA
ATOM      6  C   UNL     1      24.069  18.279   2.850  1.00  0.00     0.181 C 
ATOM      7  C   UNL     1      24.745  17.612   4.073  1.00  0.00     0.214 C 
BRANCH   3   8
ATOM      8  C   UNL     1      20.454  17.591   4.055  1.00  0.00     0.073 C 
ATOM      9  O   UNL     1      20.174  16.364   3.973  1.00  0.00    -0.547 OA
ATOM     10  O   UNL     1      19.427  18.530   4.070  1.00  0.00    -0.547 OA
ENDBRANCH   3   8
BRANCH   4  11
ATOM     11  O   UNL     1      22.443  16.588   2.278  1.00  0.00    -0.387 OA
ATOM     12  H   UNL     1      23.251  16.400   1.728  1.00  0.00     0.211 HD
ENDBRANCH   4  11
BRANCH   6  13
ATOM     13  O   UNL     1      24.262  19.674   2.848  1.00  0.00    -0.387 OA
ATOM     14  H   UNL     1      23.460  20.102   2.458  1.00  0.00     0.211 HD
ENDBRANCH   6  13
BRANCH   7  15
ATOM     15  O   UNL     1      24.971  16.251   3.800  1.00  0.00    -0.384 OA
ATOM     16  H   UNL     1      25.912  16.056   4.057  1.00  0.00     0.211 HD
ENDBRANCH   7  15
ENDBRANCH   1   2
BRANCH   1  17
ATOM     17  C   UNL     1      23.780  19.414   7.240  1.00  0.00     0.172 A 
ATOM     18  C   UNL     1      24.884  19.928   7.960  1.00  0.00     0.201 A 
ATOM     19  C   UNL     1      22.558  19.230   7.891  1.00  0.00     0.098 A 
ATOM     20  C   UNL     1      24.722  20.314   9.317  1.00  0.00     0.176 A 
ATOM     21  C   UNL     1      22.391  19.594   9.224  1.00  0.00     0.146 A 
ATOM     22  C   UNL     1      23.469  20.138   9.954  1.00  0.00     0.111 A 
ATOM     23  O   UNL     1      21.199  19.430   9.789  1.00  0.00    -0.456 OA
ATOM     24  C   UNL     1      23.228  20.492  11.300  1.00  0.00     0.197 A 
ATOM     25  C   UNL     1      20.944  19.747  11.055  1.00  0.00     0.138 A 
ATOM     26  C   UNL     1      21.961  20.290  11.852  1.00  0.00     0.100 A 
ATOM     27  O   UNL     1      24.131  20.995  12.021  1.00  0.00    -0.289 OA
BRANCH  18  28
ATOM     28  O   UNL     1      26.125  20.015   7.324  1.00  0.00    -0.502 OA
ATOM     29  H   UNL     1      27.020  19.969   7.793  1.00  0.00     0.293 HD
ENDBRANCH  18  28
BRANCH  20  30
ATOM     30  O   UNL     1      25.775  20.881  10.043  1.00  0.00    -0.504 OA
ATOM     31  H   UNL     1      25.664  21.573  10.771  1.00  0.00     0.293 HD
ENDBRANCH  20  30
BRANCH  25  32
ATOM     32  C   UNL     1      19.575  19.536  11.583  1.00  0.00     0.017 A 
ATOM     33  C   UNL     1      18.487  19.474  10.694  1.00  0.00     0.012 A 
ATOM     34  C   UNL     1      19.337  19.374  12.961  1.00  0.00     0.012 A 
ATOM     35  C   UNL     1      17.188  19.273  11.173  1.00  0.00     0.001 A 
ATOM     36  C   UNL     1      18.036  19.169  13.434  1.00  0.00     0.001 A 
ATOM     37  C   UNL     1      16.962  19.122  12.542  1.00  0.00     0.000 A 
ENDBRANCH  25  32
ENDBRANCH   1  17
TORSDOF 9
ENDMDL
MODEL 2
REMARK VINA RESULT:    -5.168      2.205      7.999
REMARK INTER + INTRA:          -8.279
REMARK INTER:                  -7.355
REMARK INTRA:                  -0.925
REMARK UNBOUND:                -1.148
REMARK SMILES O=C([O-])[C@H]1O[C@H](Oc2cc3oc(-c4ccccc4)cc(=O)c3c(O)c2O)[C@@H](O)[C@H](O)[C@H]1O
REMARK SMILES IDX 7 1 6 2 4 3 31 4 5 5 29 6 27 7 2 8 1 9 3 10 32 11 30 13
REMARK SMILES IDX 28 15 8 17 25 18 9 19 23 20 10 21 22 22 11 23 20 24 12 25
REMARK SMILES IDX 19 26 21 27 26 28 24 30 13 32 14 33 18 34 15 35 17 36 16 37
REMARK H PARENT 32 12 30 14 28 16 26 29 24 31
REMARK Flexibility Score: inf
ROOT
ATOM      1  O   UNL     1      23.010  19.770   8.787  1.00  0.00    -0.458 OA
ENDROOT
BRANCH   1   2
ATOM      2  C   UNL     1      23.112  18.906   9.929  1.00  0.00     0.339 C 
ATOM      3  C   UNL     1      23.030  20.707  11.430  1.00  0.00     0.199 C 
ATOM      4  C   UNL     1      21.677  20.284  12.049  1.00  0.00     0.180 C 
ATOM      5  O   UNL     1      23.764  19.574  10.997  1.00  0.00    -0.328 OA
ATOM      6  C   UNL     1      20.862  19.433  11.048  1.00  0.00     0.181 C 
ATOM      7  C   UNL     1      21.737  18.348  10.374  1.00  0.00     0.214 C 
BRANCH   3   8
ATOM      8  C   UNL     1      23.857  21.460  12.431  1.00  0.00     0.073 C 
ATOM      9  O   UNL     1      23.365  21.782  13.547  1.00  0.00    -0.547 OA
ATOM     10  O   UNL     1      25.171  21.810  12.134  1.00  0.00    -0.547 OA
ENDBRANCH   3   8
BRANCH   4  11
ATOM     11  O   UNL     1      21.904  19.541  13.223  1.00  0.00    -0.387 OA
ATOM     12  H   UNL     1      22.887  19.543  13.379  1.00  0.00     0.211 HD
ENDBRANCH   4  11
BRANCH   6  13
ATOM     13  O   UNL     1      20.205  20.235  10.095  1.00  0.00    -0.387 OA
ATOM     14  H   UNL     1      20.340  19.833   9.200  1.00  0.00     0.211 HD
ENDBRANCH   6  13
BRANCH   7  15
ATOM     15  O   UNL     1      21.961  17.296  11.280  1.00  0.00    -0.384 OA
ATOM     16  H   UNL     1      22.664  17.601  11.913  1.00  0.00     0.211 HD
ENDBRANCH   7  15
ENDBRANCH   1   2
BRANCH   1  17
ATOM     17  C   UNL     1      23.142  19.410   7.433  1.00  0.00     0.172 A 
ATOM     18  C   UNL     1      23.971  20.094   6.512  1.00  0.00     0.201 A 
ATOM     19  C   UNL     1      22.380  18.324   6.999  1.00  0.00     0.098 A 
ATOM     20  C   UNL     1      24.070  19.627   5.174  1.00  0.00     0.176 A 
ATOM     21  C   UNL     1      22.460  17.865   5.688  1.00  0.00     0.146 A 
ATOM     22  C   UNL     1      23.303  18.511   4.758  1.00  0.00     0.111 A 
ATOM     23  O   UNL     1      21.739  16.806   5.333  1.00  0.00    -0.456 OA
ATOM     24  C   UNL     1      23.342  17.990   3.447  1.00  0.00     0.197 A 
ATOM     25  C   UNL     1      21.750  16.298   4.105  1.00  0.00     0.138 A 
ATOM     26  C   UNL     1      22.558  16.882   3.120  1.00  0.00     0.100 A 
ATOM     27  O   UNL     1      24.077  18.498   2.557  1.00  0.00    -0.289 OA
BRANCH  18  28
ATOM     28  O   UNL     1      24.652  21.238   6.935  1.00  0.00    -0.502 OA
ATOM     29  H   UNL     1      25.500  21.236   7.487  1.00  0.00     0.293 HD
ENDBRANCH  18  28
BRANCH  20  30
ATOM     30  O   UNL     1      24.924  20.241   4.251  1.00  0.00    -0.504 OA
ATOM     31  H   UNL     1      25.925  20.109   4.218  1.00  0.00     0.293 HD
ENDBRANCH  20  30
BRANCH  25  32
ATOM     32  C   UNL     1      20.917  15.105   3.818  1.00  0.00     0.017 A 
ATOM     33  C   UNL     1      21.370  14.145   2.895  1.00  0.00     0.012 A 
ATOM     34  C   UNL     1      19.685  14.897   4.466  1.00  0.00     0.012 A 
ATOM     35  C   UNL     1      20.600  13.012   2.613  1.00  0.00     0.001 A 
ATOM     36  C   UNL     1      18.921  13.759   4.183  1.00  0.00     0.001 A 
ATOM     37  C   UNL     1      19.375  12.819   3.255  1.00  0.00     0.000 A 
ENDBRANCH  25  32
ENDBRANCH   1  17
TORSDOF 9
ENDMDL
MODEL 3
REMARK VINA RESULT:    -4.618      0.938      2.466
REMARK INTER + INTRA:          -7.520
REMARK INTER:                  -6.678
REMARK INTRA:                  -0.842
REMARK UNBOUND:                -1.148
REMARK SMILES O=C([O-])[C@H]1O[C@H](Oc2cc3oc(-c4ccccc4)cc(=O)c3c(O)c2O)[C@@H](O)[C@H](O)[C@H]1O
REMARK SMILES IDX 7 1 6 2 4 3 31 4 5 5 29 6 27 7 2 8 1 9 3 10 32 11 30 13
REMARK SMILES IDX 28 15 8 17 25 18 9 19 23 20 10 21 22 22 11 23 20 24 12 25
REMARK SMILES IDX 19 26 21 27 26 28 24 30 13 32 14 33 18 34 15 35 17 36 16 37
REMARK H PARENT 32 12 30 14 28 16 26 29 24 31
REMARK Flexibility Score: inf
ROOT
ATOM      1  O   UNL     1      23.944  18.744   6.177  1.00  0.00    -0.458 OA
ENDROOT
BRANCH   1   2
ATOM      2  C   UNL     1      23.045  18.954   5.078  1.00  0.00     0.339 C 
ATOM      3  C   UNL     1      24.231  17.480   3.691  1.00  0.00     0.199 C 
ATOM      4  C   UNL     1      23.076  16.456   3.589  1.00  0.00     0.180 C 
ATOM      5  O   UNL     1      23.729  18.796   3.845  1.00  0.00    -0.328 OA
ATOM      6  C   UNL     1      22.144  16.563   4.817  1.00  0.00     0.181 C 
ATOM      7  C   UNL     1      21.799  18.036   5.147  1.00  0.00     0.214 C 
BRANCH   3   8
ATOM      8  C   UNL     1      25.088  17.435   2.458  1.00  0.00     0.073 C 
ATOM      9  O   UNL     1      25.418  18.504   1.876  1.00  0.00    -0.547 OA
ATOM     10  O   UNL     1      25.520  16.215   1.947  1.00  0.00    -0.547 OA
ENDBRANCH   3   8
BRANCH   4  11
ATOM     11  O   UNL     1      22.337  16.691   2.414  1.00  0.00    -0.387 OA
ATOM     12  H   UNL     1      22.549  17.617   2.122  1.00  0.00     0.211 HD
ENDBRANCH   4  11
BRANCH   6  13
ATOM     13  O   UNL     1      22.675  15.893   5.936  1.00  0.00    -0.387 OA
ATOM     14  H   UNL     1      23.655  15.814   5.820  1.00  0.00     0.211 HD
ENDBRANCH   6  13
BRANCH   7  15
ATOM     15  O   UNL     1      20.848  18.513   4.227  1.00  0.00    -0.384 OA
ATOM     16  H   UNL     1      20.952  19.501   4.187  1.00  0.00     0.211 HD
ENDBRANCH   7  15
ENDBRANCH   1   2
BRANCH   1  17
ATOM     17  C   UNL     1      23.818  19.243   7.487  1.00  0.00     0.172 A 
ATOM     18  C   UNL     1      24.864  19.884   8.191  1.00  0.00     0.201 A 
ATOM     19  C   UNL     1      22.581  19.059   8.108  1.00  0.00     0.098 A 
ATOM     20  C   UNL     1      24.626  20.393   9.495  1.00  0.00     0.176 A 
ATOM     21  C   UNL     1      22.340  19.544   9.389  1.00  0.00     0.146 A 
ATOM     22  C   UNL     1      23.358  20.215  10.101  1.00  0.00     0.111 A 
ATOM     23  O   UNL     1      21.134  19.373   9.924  1.00  0.00    -0.456 OA
ATOM     24  C   UNL     1      23.043  20.686  11.394  1.00  0.00     0.197 A 
ATOM     25  C   UNL     1      20.811  19.800  11.141  1.00  0.00     0.138 A 
ATOM     26  C   UNL     1      21.766  20.472  11.916  1.00  0.00     0.100 A 
ATOM     27  O   UNL     1      23.890  21.306  12.093  1.00  0.00    -0.289 OA
BRANCH  18  28
ATOM     28  O   UNL     1      26.125  19.973   7.595  1.00  0.00    -0.502 OA
ATOM     29  H   UNL     1      26.822  20.672   7.819  1.00  0.00     0.293 HD
ENDBRANCH  18  28
BRANCH  20  30
ATOM     30  O   UNL     1      25.619  21.084  10.199  1.00  0.00    -0.504 OA
ATOM     31  H   UNL     1      26.249  20.662  10.867  1.00  0.00     0.293 HD
ENDBRANCH  20  30
BRANCH  25  32
ATOM     32  C   UNL     1      19.434  19.569  11.637  1.00  0.00     0.017 A 
ATOM     33  C   UNL     1      18.368  19.490  10.723  1.00  0.00     0.012 A 
ATOM     34  C   UNL     1      19.166  19.405  13.010  1.00  0.00     0.012 A 
ATOM     35  C   UNL     1      17.061  19.271  11.171  1.00  0.00     0.001 A 
ATOM     36  C   UNL     1      17.857  19.181  13.452  1.00  0.00     0.001 A 
ATOM     37  C   UNL     1      16.805  19.118  12.535  1.00  0.00     0.000 A 
ENDBRANCH  25  32
ENDBRANCH   1  17
TORSDOF 9
ENDMDL
MODEL 4
REMARK VINA RESULT:    -3.907      2.680      8.371
REMARK INTER + INTRA:          -6.540
REMARK INTER:                  -6.094
REMARK INTRA:                  -0.445
REMARK UNBOUND:                -1.148
REMARK SMILES O=C([O-])[C@H]1O[C@H](Oc2cc3oc(-c4ccccc4)cc(=O)c3c(O)c2O)[C@@H](O)[C@H](O)[C@H]1O
REMARK SMILES IDX 7 1 6 2 4 3 31 4 5 5 29 6 27 7 2 8 1 9 3 10 32 11 30 13
REMARK SMILES IDX 28 15 8 17 25 18 9 19 23 20 10 21 22 22 11 23 20 24 12 25
REMARK SMILES IDX 19 26 21 27 26 28 24 30 13 32 14 33 18 34 15 35 17 36 16 37
REMARK H PARENT 32 12 30 14 28 16 26 29 24 31
REMARK Flexibility Score: inf
ROOT
ATOM      1  O   UNL     1      22.302  18.778   8.654  1.00  0.00    -0.458 OA
ENDROOT
BRANCH   1   2
ATOM      2  C   UNL     1      22.438  19.884   9.559  1.00  0.00     0.339 C 
ATOM      3  C   UNL     1      20.664  19.139  10.901  1.00  0.00     0.199 C 
ATOM      4  C   UNL     1      21.556  18.865  12.135  1.00  0.00     0.180 C 
ATOM      5  O   UNL     1      21.182  20.211  10.131  1.00  0.00    -0.328 OA
ATOM      6  C   UNL     1      23.015  18.595  11.703  1.00  0.00     0.181 C 
ATOM      7  C   UNL     1      23.502  19.625  10.655  1.00  0.00     0.214 C 
BRANCH   3   8
ATOM      8  C   UNL     1      19.266  19.486  11.326  1.00  0.00     0.073 C 
ATOM      9  O   UNL     1      18.462  19.997  10.500  1.00  0.00    -0.547 OA
ATOM     10  O   UNL     1      18.850  19.250  12.633  1.00  0.00    -0.547 OA
ENDBRANCH   3   8
BRANCH   4  11
ATOM     11  O   UNL     1      21.518  19.973  13.003  1.00  0.00    -0.387 OA
ATOM     12  H   UNL     1      20.776  19.811  13.645  1.00  0.00     0.211 HD
ENDBRANCH   4  11
BRANCH   6  13
ATOM     13  O   UNL     1      23.190  17.273  11.250  1.00  0.00    -0.387 OA
ATOM     14  H   UNL     1      23.262  16.677  12.038  1.00  0.00     0.211 HD
ENDBRANCH   6  13
BRANCH   7  15
ATOM     15  O   UNL     1      23.784  20.846  11.292  1.00  0.00    -0.384 OA
ATOM     16  H   UNL     1      24.765  20.992  11.219  1.00  0.00     0.211 HD
ENDBRANCH   7  15
ENDBRANCH   1   2
BRANCH   1  17
ATOM     17  C   UNL     1      22.750  18.707   7.322  1.00  0.00     0.172 A 
ATOM     18  C   UNL     1      23.240  19.818   6.595  1.00  0.00     0.201 A 
ATOM     19  C   UNL     1      22.674  17.458   6.703  1.00  0.00     0.098 A 
ATOM     20  C   UNL     1      23.712  19.637   5.267  1.00  0.00     0.176 A 
ATOM     21  C   UNL     1      23.122  17.272   5.399  1.00  0.00     0.146 A 
ATOM     22  C   UNL     1      23.644  18.357   4.664  1.00  0.00     0.111 A 
ATOM     23  O   UNL     1      23.059  16.055   4.866  1.00  0.00    -0.456 OA
ATOM     24  C   UNL     1      24.087  18.097   3.348  1.00  0.00     0.197 A 
ATOM     25  C   UNL     1      23.462  15.781   3.630  1.00  0.00     0.138 A 
ATOM     26  C   UNL     1      23.989  16.804   2.830  1.00  0.00     0.100 A 
ATOM     27  O   UNL     1      24.577  19.006   2.626  1.00  0.00    -0.289 OA
BRANCH  18  28
ATOM     28  O   UNL     1      23.219  21.081   7.192  1.00  0.00    -0.502 OA
ATOM     29  H   UNL     1      23.615  21.299   8.098  1.00  0.00     0.293 HD
ENDBRANCH  18  28
BRANCH  20  30
ATOM     30  O   UNL     1      24.257  20.700   4.538  1.00  0.00    -0.504 OA
ATOM     31  H   UNL     1      24.681  21.520   4.948  1.00  0.00     0.293 HD
ENDBRANCH  20  30
BRANCH  25  32
ATOM     32  C   UNL     1      23.360  14.387   3.137  1.00  0.00     0.017 A 
ATOM     33  C   UNL     1      22.114  13.884   2.720  1.00  0.00     0.012 A 
ATOM     34  C   UNL     1      24.491  13.553   3.056  1.00  0.00     0.012 A 
ATOM     35  C   UNL     1      21.998  12.572   2.250  1.00  0.00     0.001 A 
ATOM     36  C   UNL     1      24.370  12.242   2.581  1.00  0.00     0.001 A 
ATOM     37  C   UNL     1      23.125  11.750   2.182  1.00  0.00     0.000 A 
ENDBRANCH  25  32
ENDBRANCH   1  17
TORSDOF 9
ENDMDL
