MODEL 1
REMARK VINA RESULT:    -7.555      0.000      0.000
REMARK INTER + INTRA:          -7.775
REMARK INTER:                  -7.775
REMARK INTRA:                   0.000
REMARK UNBOUND:                 0.000
REMARK SMILES CC1(C)CC[C@]2(C)CC[C@]3(C)C(=CC[C@@H]4[C@@]5(C)CC[C@H](O)C(C)(C)[C@H]5CC[C@]43C)[C@@H]2C1
REMARK SMILES IDX 1 1 2 2 4 3 5 4 6 5 8 6 9 7 10 8 12 9 13 10 14 11 15 12
REMARK SMILES IDX 28 13 27 14 26 15 25 16 16 17 18 18 19 19 20 20 22 21 23 22
REMARK SMILES IDX 24 23 17 24 29 25 30 26 31 27 11 28 7 29 3 30 21 31
REMARK H PARENT 21 32
REMARK Flexibility Score: inf
ROOT
ATOM      1  C   UNL     1      47.507  40.565  46.260  1.00  0.00     0.011 C 
ATOM      2  C   UNL     1      48.882  39.945  45.929  1.00  0.00    -0.035 C 
ATOM      3  C   UNL     1      49.628  39.656  47.251  1.00  0.00     0.007 C 
ATOM      4  C   UNL     1      51.078  39.198  47.034  1.00  0.00     0.008 C 
ATOM      5  C   UNL     1      51.930  40.143  46.131  1.00  0.00    -0.026 C 
ATOM      6  C   UNL     1      52.326  41.418  46.920  1.00  0.00     0.008 C 
ATOM      7  C   UNL     1      53.192  42.387  46.094  1.00  0.00     0.012 C 
ATOM      8  C   UNL     1      52.561  42.826  44.725  1.00  0.00    -0.006 C 
ATOM      9  C   UNL     1      51.879  41.618  44.034  1.00  0.00    -0.064 C 
ATOM     10  C   UNL     1      51.675  41.616  42.693  1.00  0.00    -0.027 C 
ATOM     11  C   UNL     1      52.392  42.519  41.727  1.00  0.00     0.032 C 
ATOM     12  C   UNL     1      52.962  43.806  42.374  1.00  0.00     0.006 C 
ATOM     13  C   UNL     1      53.672  43.463  43.745  1.00  0.00    -0.020 C 
ATOM     14  C   UNL     1      54.327  44.738  44.393  1.00  0.00     0.008 C 
ATOM     15  C   UNL     1      54.287  45.990  43.519  1.00  0.00     0.005 C 
ATOM     16  C   UNL     1      54.805  45.679  42.089  1.00  0.00     0.003 C 
ATOM     17  C   UNL     1      53.726  44.783  41.346  1.00  0.00    -0.025 C 
ATOM     18  C   UNL     1      52.634  45.699  40.699  1.00  0.00     0.010 C 
ATOM     19  C   UNL     1      53.183  46.838  39.847  1.00  0.00     0.033 C 
ATOM     20  C   UNL     1      54.104  47.747  40.670  1.00  0.00     0.120 C 
ATOM     21  C   UNL     1      55.307  46.974  41.289  1.00  0.00    -0.006 C 
ATOM     22  C   UNL     1      56.058  47.967  42.226  1.00  0.00     0.014 C 
ATOM     23  C   UNL     1      56.342  46.583  40.178  1.00  0.00     0.014 C 
ATOM     24  C   UNL     1      54.400  43.961  40.202  1.00  0.00     0.012 C 
ATOM     25  C   UNL     1      54.827  42.441  43.475  1.00  0.00     0.012 C 
ATOM     26  C   UNL     1      51.156  40.534  44.839  1.00  0.00     0.022 C 
ATOM     27  C   UNL     1      49.694  40.971  45.106  1.00  0.00     0.015 C 
ATOM     28  C   UNL     1      51.424  43.868  45.036  1.00  0.00     0.017 C 
ATOM     29  C   UNL     1      53.207  39.347  45.749  1.00  0.00     0.012 C 
ATOM     30  C   UNL     1      48.632  38.649  45.121  1.00  0.00     0.011 C 
ENDROOT
BRANCH  20  31
ATOM     31  O   UNL     1      54.570  48.788  39.850  1.00  0.00    -0.393 OA
ATOM     32  H   UNL     1      55.053  49.426  40.435  1.00  0.00     0.210 HD
ENDBRANCH  20  31
TORSDOF 1
ENDMDL
MODEL 2
REMARK VINA RESULT:    -7.391      3.728      9.109
REMARK INTER + INTRA:          -7.608
REMARK INTER:                  -7.608
REMARK INTRA:                   0.000
REMARK UNBOUND:                 0.000
REMARK SMILES CC1(C)CC[C@]2(C)CC[C@]3(C)C(=CC[C@@H]4[C@@]5(C)CC[C@H](O)C(C)(C)[C@H]5CC[C@]43C)[C@@H]2C1
REMARK SMILES IDX 1 1 2 2 4 3 5 4 6 5 8 6 9 7 10 8 12 9 13 10 14 11 15 12
REMARK SMILES IDX 28 13 27 14 26 15 25 16 16 17 18 18 19 19 20 20 22 21 23 22
REMARK SMILES IDX 24 23 17 24 29 25 30 26 31 27 11 28 7 29 3 30 21 31
REMARK H PARENT 21 32
REMARK Flexibility Score: inf
ROOT
ATOM      1  C   UNL     1      51.133  51.578  35.960  1.00  0.00     0.011 C 
ATOM      2  C   UNL     1      51.218  50.136  35.413  1.00  0.00    -0.035 C 
ATOM      3  C   UNL     1      49.784  49.597  35.209  1.00  0.00     0.007 C 
ATOM      4  C   UNL     1      49.751  48.108  34.832  1.00  0.00     0.008 C 
ATOM      5  C   UNL     1      50.545  47.175  35.798  1.00  0.00    -0.026 C 
ATOM      6  C   UNL     1      49.753  46.980  37.118  1.00  0.00     0.008 C 
ATOM      7  C   UNL     1      50.470  46.046  38.111  1.00  0.00     0.012 C 
ATOM      8  C   UNL     1      51.937  46.473  38.470  1.00  0.00    -0.006 C 
ATOM      9  C   UNL     1      52.679  46.969  37.204  1.00  0.00    -0.064 C 
ATOM     10  C   UNL     1      54.034  46.955  37.149  1.00  0.00    -0.027 C 
ATOM     11  C   UNL     1      54.909  46.142  38.064  1.00  0.00     0.032 C 
ATOM     12  C   UNL     1      54.231  45.754  39.401  1.00  0.00     0.006 C 
ATOM     13  C   UNL     1      52.753  45.255  39.143  1.00  0.00    -0.020 C 
ATOM     14  C   UNL     1      52.060  44.782  40.473  1.00  0.00     0.008 C 
ATOM     15  C   UNL     1      52.978  44.749  41.694  1.00  0.00     0.005 C 
ATOM     16  C   UNL     1      54.295  43.993  41.371  1.00  0.00     0.003 C 
ATOM     17  C   UNL     1      55.163  44.889  40.391  1.00  0.00    -0.025 C 
ATOM     18  C   UNL     1      56.010  45.911  41.220  1.00  0.00     0.010 C 
ATOM     19  C   UNL     1      56.808  45.294  42.364  1.00  0.00     0.033 C 
ATOM     20  C   UNL     1      55.886  44.568  43.349  1.00  0.00     0.120 C 
ATOM     21  C   UNL     1      55.055  43.440  42.669  1.00  0.00    -0.006 C 
ATOM     22  C   UNL     1      54.051  42.903  43.732  1.00  0.00     0.014 C 
ATOM     23  C   UNL     1      55.973  42.220  42.307  1.00  0.00     0.014 C 
ATOM     24  C   UNL     1      56.153  43.997  39.576  1.00  0.00     0.012 C 
ATOM     25  C   UNL     1      52.797  44.019  38.184  1.00  0.00     0.012 C 
ATOM     26  C   UNL     1      51.956  47.752  36.103  1.00  0.00     0.022 C 
ATOM     27  C   UNL     1      51.942  49.259  36.460  1.00  0.00     0.015 C 
ATOM     28  C   UNL     1      51.850  47.699  39.452  1.00  0.00     0.017 C 
ATOM     29  C   UNL     1      50.688  45.812  35.069  1.00  0.00     0.012 C 
ATOM     30  C   UNL     1      52.004  50.183  34.080  1.00  0.00     0.011 C 
ENDROOT
BRANCH  20  31
ATOM     31  O   UNL     1      56.663  44.034  44.392  1.00  0.00    -0.393 OA
ATOM     32  H   UNL     1      57.337  44.719  44.634  1.00  0.00     0.210 HD
ENDBRANCH  20  31
TORSDOF 1
ENDMDL
MODEL 3
REMARK VINA RESULT:    -7.309      5.554      8.674
REMARK INTER + INTRA:          -7.523
REMARK INTER:                  -7.523
REMARK INTRA:                   0.000
REMARK UNBOUND:                 0.000
REMARK SMILES CC1(C)CC[C@]2(C)CC[C@]3(C)C(=CC[C@@H]4[C@@]5(C)CC[C@H](O)C(C)(C)[C@H]5CC[C@]43C)[C@@H]2C1
REMARK SMILES IDX 1 1 2 2 4 3 5 4 6 5 8 6 9 7 10 8 12 9 13 10 14 11 15 12
REMARK SMILES IDX 28 13 27 14 26 15 25 16 16 17 18 18 19 19 20 20 22 21 23 22
REMARK SMILES IDX 24 23 17 24 29 25 30 26 31 27 11 28 7 29 3 30 21 31
REMARK H PARENT 21 32
REMARK Flexibility Score: inf
ROOT
ATOM      1  C   UNL     1      49.060  43.725  33.203  1.00  0.00     0.011 C 
ATOM      2  C   UNL     1      48.661  44.585  34.422  1.00  0.00    -0.035 C 
ATOM      3  C   UNL     1      48.200  45.972  33.921  1.00  0.00     0.007 C 
ATOM      4  C   UNL     1      47.944  46.968  35.063  1.00  0.00     0.008 C 
ATOM      5  C   UNL     1      49.128  47.124  36.067  1.00  0.00    -0.026 C 
ATOM      6  C   UNL     1      50.259  47.969  35.426  1.00  0.00     0.008 C 
ATOM      7  C   UNL     1      51.454  48.185  36.374  1.00  0.00     0.012 C 
ATOM      8  C   UNL     1      52.083  46.865  36.947  1.00  0.00    -0.006 C 
ATOM      9  C   UNL     1      50.969  45.858  37.326  1.00  0.00    -0.064 C 
ATOM     10  C   UNL     1      51.205  44.876  38.231  1.00  0.00    -0.027 C 
ATOM     11  C   UNL     1      52.347  44.886  39.210  1.00  0.00     0.032 C 
ATOM     12  C   UNL     1      53.536  45.782  38.781  1.00  0.00     0.006 C 
ATOM     13  C   UNL     1      53.008  47.168  38.233  1.00  0.00    -0.020 C 
ATOM     14  C   UNL     1      54.194  48.131  37.856  1.00  0.00     0.008 C 
ATOM     15  C   UNL     1      55.581  47.613  38.232  1.00  0.00     0.005 C 
ATOM     16  C   UNL     1      55.608  47.135  39.709  1.00  0.00     0.003 C 
ATOM     17  C   UNL     1      54.767  45.794  39.820  1.00  0.00    -0.025 C 
ATOM     18  C   UNL     1      55.673  44.570  39.459  1.00  0.00     0.010 C 
ATOM     19  C   UNL     1      57.006  44.527  40.198  1.00  0.00     0.033 C 
ATOM     20  C   UNL     1      57.827  45.792  39.927  1.00  0.00     0.120 C 
ATOM     21  C   UNL     1      57.077  47.092  40.346  1.00  0.00    -0.006 C 
ATOM     22  C   UNL     1      57.941  48.297  39.867  1.00  0.00     0.014 C 
ATOM     23  C   UNL     1      57.018  47.215  41.909  1.00  0.00     0.014 C 
ATOM     24  C   UNL     1      54.256  45.595  41.282  1.00  0.00     0.012 C 
ATOM     25  C   UNL     1      52.182  47.876  39.358  1.00  0.00     0.012 C 
ATOM     26  C   UNL     1      49.680  45.738  36.505  1.00  0.00     0.022 C 
ATOM     27  C   UNL     1      49.905  44.762  35.323  1.00  0.00     0.015 C 
ATOM     28  C   UNL     1      52.922  46.198  35.796  1.00  0.00     0.017 C 
ATOM     29  C   UNL     1      48.557  47.869  37.304  1.00  0.00     0.012 C 
ATOM     30  C   UNL     1      47.527  43.843  35.170  1.00  0.00     0.011 C 
ENDROOT
BRANCH  20  31
ATOM     31  O   UNL     1      59.051  45.699  40.613  1.00  0.00    -0.393 OA
ATOM     32  H   UNL     1      59.590  45.006  40.153  1.00  0.00     0.210 HD
ENDBRANCH  20  31
TORSDOF 1
ENDMDL
MODEL 4
REMARK VINA RESULT:    -7.235      4.534      7.869
REMARK INTER + INTRA:          -7.446
REMARK INTER:                  -7.446
REMARK INTRA:                   0.000
REMARK UNBOUND:                 0.000
REMARK SMILES CC1(C)CC[C@]2(C)CC[C@]3(C)C(=CC[C@@H]4[C@@]5(C)CC[C@H](O)C(C)(C)[C@H]5CC[C@]43C)[C@@H]2C1
REMARK SMILES IDX 1 1 2 2 4 3 5 4 6 5 8 6 9 7 10 8 12 9 13 10 14 11 15 12
REMARK SMILES IDX 28 13 27 14 26 15 25 16 16 17 18 18 19 19 20 20 22 21 23 22
REMARK SMILES IDX 24 23 17 24 29 25 30 26 31 27 11 28 7 29 3 30 21 31
REMARK H PARENT 21 32
REMARK Flexibility Score: inf
ROOT
ATOM      1  C   UNL     1      59.125  47.608  41.955  1.00  0.00     0.011 C 
ATOM      2  C   UNL     1      57.953  46.791  42.541  1.00  0.00    -0.035 C 
ATOM      3  C   UNL     1      58.370  45.305  42.615  1.00  0.00     0.007 C 
ATOM      4  C   UNL     1      57.216  44.377  43.023  1.00  0.00     0.008 C 
ATOM      5  C   UNL     1      55.924  44.530  42.162  1.00  0.00    -0.026 C 
ATOM      6  C   UNL     1      56.127  43.864  40.776  1.00  0.00     0.008 C 
ATOM      7  C   UNL     1      54.878  43.957  39.880  1.00  0.00     0.012 C 
ATOM      8  C   UNL     1      54.337  45.415  39.657  1.00  0.00    -0.006 C 
ATOM      9  C   UNL     1      54.402  46.221  40.978  1.00  0.00    -0.064 C 
ATOM     10  C   UNL     1      53.604  47.301  41.166  1.00  0.00    -0.027 C 
ATOM     11  C   UNL     1      52.365  47.587  40.362  1.00  0.00     0.032 C 
ATOM     12  C   UNL     1      52.344  46.900  38.974  1.00  0.00     0.006 C 
ATOM     13  C   UNL     1      52.825  45.399  39.097  1.00  0.00    -0.020 C 
ATOM     14  C   UNL     1      52.745  44.649  37.716  1.00  0.00     0.008 C 
ATOM     15  C   UNL     1      52.088  45.449  36.593  1.00  0.00     0.005 C 
ATOM     16  C   UNL     1      50.733  46.043  37.062  1.00  0.00     0.003 C 
ATOM     17  C   UNL     1      51.024  47.207  38.102  1.00  0.00    -0.025 C 
ATOM     18  C   UNL     1      51.292  48.545  37.336  1.00  0.00     0.010 C 
ATOM     19  C   UNL     1      50.239  48.900  36.291  1.00  0.00     0.033 C 
ATOM     20  C   UNL     1      50.115  47.795  35.237  1.00  0.00     0.120 C 
ATOM     21  C   UNL     1      49.742  46.416  35.859  1.00  0.00    -0.006 C 
ATOM     22  C   UNL     1      49.813  45.361  34.715  1.00  0.00     0.014 C 
ATOM     23  C   UNL     1      48.248  46.413  36.337  1.00  0.00     0.014 C 
ATOM     24  C   UNL     1      49.789  47.425  39.030  1.00  0.00     0.012 C 
ATOM     25  C   UNL     1      51.875  44.643  40.085  1.00  0.00     0.012 C 
ATOM     26  C   UNL     1      55.542  46.027  41.984  1.00  0.00     0.022 C 
ATOM     27  C   UNL     1      56.740  46.927  41.591  1.00  0.00     0.015 C 
ATOM     28  C   UNL     1      55.303  46.131  38.643  1.00  0.00     0.017 C 
ATOM     29  C   UNL     1      54.795  43.796  42.934  1.00  0.00     0.012 C 
ATOM     30  C   UNL     1      57.634  47.364  43.943  1.00  0.00     0.011 C 
ENDROOT
BRANCH  20  31
ATOM     31  O   UNL     1      49.149  48.174  34.289  1.00  0.00    -0.393 OA
ATOM     32  H   UNL     1      49.583  48.817  33.672  1.00  0.00     0.210 HD
ENDBRANCH  20  31
TORSDOF 1
ENDMDL
MODEL 5
REMARK VINA RESULT:    -7.193      1.832      2.991
REMARK INTER + INTRA:          -7.403
REMARK INTER:                  -7.403
REMARK INTRA:                   0.000
REMARK UNBOUND:                 0.000
REMARK SMILES CC1(C)CC[C@]2(C)CC[C@]3(C)C(=CC[C@@H]4[C@@]5(C)CC[C@H](O)C(C)(C)[C@H]5CC[C@]43C)[C@@H]2C1
REMARK SMILES IDX 1 1 2 2 4 3 5 4 6 5 8 6 9 7 10 8 12 9 13 10 14 11 15 12
REMARK SMILES IDX 28 13 27 14 26 15 25 16 16 17 18 18 19 19 20 20 22 21 23 22
REMARK SMILES IDX 24 23 17 24 29 25 30 26 31 27 11 28 7 29 3 30 21 31
REMARK H PARENT 21 32
REMARK Flexibility Score: inf
ROOT
ATOM      1  C   UNL     1      50.447  42.881  47.879  1.00  0.00     0.011 C 
ATOM      2  C   UNL     1      51.503  42.118  47.050  1.00  0.00    -0.035 C 
ATOM      3  C   UNL     1      52.852  42.165  47.801  1.00  0.00     0.007 C 
ATOM      4  C   UNL     1      54.016  41.585  46.983  1.00  0.00     0.008 C 
ATOM      5  C   UNL     1      54.173  42.195  45.555  1.00  0.00    -0.026 C 
ATOM      6  C   UNL     1      54.791  43.614  45.649  1.00  0.00     0.008 C 
ATOM      7  C   UNL     1      54.998  44.268  44.269  1.00  0.00     0.012 C 
ATOM      8  C   UNL     1      53.706  44.346  43.380  1.00  0.00    -0.006 C 
ATOM      9  C   UNL     1      52.891  43.034  43.499  1.00  0.00    -0.064 C 
ATOM     10  C   UNL     1      52.021  42.673  42.523  1.00  0.00    -0.027 C 
ATOM     11  C   UNL     1      52.035  43.232  41.127  1.00  0.00     0.032 C 
ATOM     12  C   UNL     1      52.726  44.614  41.011  1.00  0.00     0.006 C 
ATOM     13  C   UNL     1      54.075  44.624  41.835  1.00  0.00    -0.020 C 
ATOM     14  C   UNL     1      54.840  45.990  41.678  1.00  0.00     0.008 C 
ATOM     15  C   UNL     1      54.225  46.952  40.663  1.00  0.00     0.005 C 
ATOM     16  C   UNL     1      53.952  46.230  39.316  1.00  0.00     0.003 C 
ATOM     17  C   UNL     1      52.741  45.225  39.520  1.00  0.00    -0.025 C 
ATOM     18  C   UNL     1      51.386  45.985  39.331  1.00  0.00     0.010 C 
ATOM     19  C   UNL     1      51.294  46.812  38.054  1.00  0.00     0.033 C 
ATOM     20  C   UNL     1      52.411  47.860  37.995  1.00  0.00     0.120 C 
ATOM     21  C   UNL     1      53.831  47.223  38.065  1.00  0.00    -0.006 C 
ATOM     22  C   UNL     1      54.855  48.393  38.165  1.00  0.00     0.014 C 
ATOM     23  C   UNL     1      54.171  46.484  36.724  1.00  0.00     0.014 C 
ATOM     24  C   UNL     1      52.800  44.083  38.457  1.00  0.00     0.012 C 
ATOM     25  C   UNL     1      55.017  43.505  41.278  1.00  0.00     0.012 C 
ATOM     26  C   UNL     1      52.806  42.256  44.816  1.00  0.00     0.022 C 
ATOM     27  C   UNL     1      51.660  42.830  45.687  1.00  0.00     0.015 C 
ATOM     28  C   UNL     1      52.800  45.494  43.956  1.00  0.00     0.017 C 
ATOM     29  C   UNL     1      55.138  41.255  44.783  1.00  0.00     0.012 C 
ATOM     30  C   UNL     1      51.001  40.665  46.870  1.00  0.00     0.011 C 
ENDROOT
BRANCH  20  31
ATOM     31  O   UNL     1      52.275  48.607  36.812  1.00  0.00    -0.393 OA
ATOM     32  H   UNL     1      53.165  48.627  36.376  1.00  0.00     0.210 HD
ENDBRANCH  20  31
TORSDOF 1
ENDMDL
MODEL 6
REMARK VINA RESULT:    -7.123      4.208      6.554
REMARK INTER + INTRA:          -7.331
REMARK INTER:                  -7.331
REMARK INTRA:                   0.000
REMARK UNBOUND:                 0.000
REMARK SMILES CC1(C)CC[C@]2(C)CC[C@]3(C)C(=CC[C@@H]4[C@@]5(C)CC[C@H](O)C(C)(C)[C@H]5CC[C@]43C)[C@@H]2C1
REMARK SMILES IDX 1 1 2 2 4 3 5 4 6 5 8 6 9 7 10 8 12 9 13 10 14 11 15 12
REMARK SMILES IDX 28 13 27 14 26 15 25 16 16 17 18 18 19 19 20 20 22 21 23 22
REMARK SMILES IDX 24 23 17 24 29 25 30 26 31 27 11 28 7 29 3 30 21 31
REMARK H PARENT 21 32
REMARK Flexibility Score: inf
ROOT
ATOM      1  C   UNL     1      55.824  40.235  42.799  1.00  0.00     0.011 C 
ATOM      2  C   UNL     1      56.249  41.719  42.760  1.00  0.00    -0.035 C 
ATOM      3  C   UNL     1      55.957  42.355  44.138  1.00  0.00     0.007 C 
ATOM      4  C   UNL     1      56.181  43.875  44.156  1.00  0.00     0.008 C 
ATOM      5  C   UNL     1      55.430  44.656  43.033  1.00  0.00    -0.026 C 
ATOM      6  C   UNL     1      53.920  44.755  43.374  1.00  0.00     0.008 C 
ATOM      7  C   UNL     1      53.120  45.538  42.316  1.00  0.00     0.012 C 
ATOM      8  C   UNL     1      53.265  44.995  40.849  1.00  0.00    -0.006 C 
ATOM      9  C   UNL     1      54.735  44.595  40.566  1.00  0.00    -0.064 C 
ATOM     10  C   UNL     1      55.200  44.539  39.294  1.00  0.00    -0.027 C 
ATOM     11  C   UNL     1      54.534  45.202  38.119  1.00  0.00     0.032 C 
ATOM     12  C   UNL     1      53.026  45.485  38.330  1.00  0.00     0.006 C 
ATOM     13  C   UNL     1      52.776  46.089  39.769  1.00  0.00    -0.020 C 
ATOM     14  C   UNL     1      51.263  46.457  39.989  1.00  0.00     0.008 C 
ATOM     15  C   UNL     1      50.384  46.311  38.749  1.00  0.00     0.005 C 
ATOM     16  C   UNL     1      51.030  47.023  37.530  1.00  0.00     0.003 C 
ATOM     17  C   UNL     1      52.301  46.188  37.074  1.00  0.00    -0.025 C 
ATOM     18  C   UNL     1      51.860  45.039  36.107  1.00  0.00     0.010 C 
ATOM     19  C   UNL     1      50.969  45.487  34.954  1.00  0.00     0.033 C 
ATOM     20  C   UNL     1      49.691  46.155  35.473  1.00  0.00     0.120 C 
ATOM     21  C   UNL     1      49.987  47.393  36.371  1.00  0.00    -0.006 C 
ATOM     22  C   UNL     1      48.626  47.870  36.961  1.00  0.00     0.014 C 
ATOM     23  C   UNL     1      50.510  48.591  35.504  1.00  0.00     0.014 C 
ATOM     24  C   UNL     1      53.302  47.104  36.302  1.00  0.00     0.012 C 
ATOM     25  C   UNL     1      53.596  47.415  39.911  1.00  0.00     0.012 C 
ATOM     26  C   UNL     1      55.622  43.973  41.650  1.00  0.00     0.022 C 
ATOM     27  C   UNL     1      55.404  42.440  41.684  1.00  0.00     0.015 C 
ATOM     28  C   UNL     1      52.410  43.679  40.742  1.00  0.00     0.017 C 
ATOM     29  C   UNL     1      56.053  46.078  43.000  1.00  0.00     0.012 C 
ATOM     30  C   UNL     1      57.757  41.769  42.417  1.00  0.00     0.011 C 
ENDROOT
BRANCH  20  31
ATOM     31  O   UNL     1      48.895  46.533  34.377  1.00  0.00    -0.393 OA
ATOM     32  H   UNL     1      48.480  45.707  34.019  1.00  0.00     0.210 HD
ENDBRANCH  20  31
TORSDOF 1
ENDMDL
MODEL 7
REMARK VINA RESULT:    -6.704      4.290      8.140
REMARK INTER + INTRA:          -6.900
REMARK INTER:                  -6.900
REMARK INTRA:                   0.000
REMARK UNBOUND:                 0.000
REMARK SMILES CC1(C)CC[C@]2(C)CC[C@]3(C)C(=CC[C@@H]4[C@@]5(C)CC[C@H](O)C(C)(C)[C@H]5CC[C@]43C)[C@@H]2C1
REMARK SMILES IDX 1 1 2 2 4 3 5 4 6 5 8 6 9 7 10 8 12 9 13 10 14 11 15 12
REMARK SMILES IDX 28 13 27 14 26 15 25 16 16 17 18 18 19 19 20 20 22 21 23 22
REMARK SMILES IDX 24 23 17 24 29 25 30 26 31 27 11 28 7 29 3 30 21 31
REMARK H PARENT 21 32
REMARK Flexibility Score: inf
ROOT
ATOM      1  C   UNL     1      49.672  45.176  34.115  1.00  0.00     0.011 C 
ATOM      2  C   UNL     1      49.468  45.947  35.437  1.00  0.00    -0.035 C 
ATOM      3  C   UNL     1      49.654  47.456  35.165  1.00  0.00     0.007 C 
ATOM      4  C   UNL     1      49.645  48.303  36.447  1.00  0.00     0.008 C 
ATOM      5  C   UNL     1      50.643  47.827  37.548  1.00  0.00    -0.026 C 
ATOM      6  C   UNL     1      52.092  48.222  37.157  1.00  0.00     0.008 C 
ATOM      7  C   UNL     1      53.130  47.803  38.215  1.00  0.00     0.012 C 
ATOM      8  C   UNL     1      53.113  46.276  38.582  1.00  0.00    -0.006 C 
ATOM      9  C   UNL     1      51.655  45.764  38.687  1.00  0.00    -0.064 C 
ATOM     10  C   UNL     1      51.364  44.656  39.413  1.00  0.00    -0.027 C 
ATOM     11  C   UNL     1      52.270  44.068  40.460  1.00  0.00     0.032 C 
ATOM     12  C   UNL     1      53.760  44.456  40.290  1.00  0.00     0.006 C 
ATOM     13  C   UNL     1      53.892  45.999  39.967  1.00  0.00    -0.020 C 
ATOM     14  C   UNL     1      55.398  46.442  39.861  1.00  0.00     0.008 C 
ATOM     15  C   UNL     1      56.409  45.361  40.238  1.00  0.00     0.005 C 
ATOM     16  C   UNL     1      56.041  44.714  41.600  1.00  0.00     0.003 C 
ATOM     17  C   UNL     1      54.741  43.826  41.403  1.00  0.00    -0.025 C 
ATOM     18  C   UNL     1      55.145  42.403  40.892  1.00  0.00     0.010 C 
ATOM     19  C   UNL     1      56.240  41.723  41.707  1.00  0.00     0.033 C 
ATOM     20  C   UNL     1      57.515  42.572  41.733  1.00  0.00     0.120 C 
ATOM     21  C   UNL     1      57.275  43.993  42.326  1.00  0.00    -0.006 C 
ATOM     22  C   UNL     1      58.595  44.798  42.141  1.00  0.00     0.014 C 
ATOM     23  C   UNL     1      57.048  43.913  43.876  1.00  0.00     0.014 C 
ATOM     24  C   UNL     1      53.992  43.652  42.762  1.00  0.00     0.012 C 
ATOM     25  C   UNL     1      53.255  46.818  41.138  1.00  0.00     0.012 C 
ATOM     26  C   UNL     1      50.549  46.290  37.765  1.00  0.00     0.022 C 
ATOM     27  C   UNL     1      50.544  45.480  36.445  1.00  0.00     0.015 C 
ATOM     28  C   UNL     1      53.782  45.492  37.394  1.00  0.00     0.017 C 
ATOM     29  C   UNL     1      50.236  48.561  38.854  1.00  0.00     0.012 C 
ATOM     30  C   UNL     1      48.043  45.632  35.951  1.00  0.00     0.011 C 
ENDROOT
BRANCH  20  31
ATOM     31  O   UNL     1      58.498  41.898  42.480  1.00  0.00    -0.393 OA
ATOM     32  H   UNL     1      58.126  41.010  42.716  1.00  0.00     0.210 HD
ENDBRANCH  20  31
TORSDOF 1
ENDMDL
MODEL 8
REMARK VINA RESULT:    -6.597      3.837      8.389
REMARK INTER + INTRA:          -6.789
REMARK INTER:                  -6.789
REMARK INTRA:                   0.000
REMARK UNBOUND:                 0.000
REMARK SMILES CC1(C)CC[C@]2(C)CC[C@]3(C)C(=CC[C@@H]4[C@@]5(C)CC[C@H](O)C(C)(C)[C@H]5CC[C@]43C)[C@@H]2C1
REMARK SMILES IDX 1 1 2 2 4 3 5 4 6 5 8 6 9 7 10 8 12 9 13 10 14 11 15 12
REMARK SMILES IDX 28 13 27 14 26 15 25 16 16 17 18 18 19 19 20 20 22 21 23 22
REMARK SMILES IDX 24 23 17 24 29 25 30 26 31 27 11 28 7 29 3 30 21 31
REMARK H PARENT 21 32
REMARK Flexibility Score: inf
ROOT
ATOM      1  C   UNL     1      48.229  45.657  35.544  1.00  0.00     0.011 C 
ATOM      2  C   UNL     1      49.181  46.662  36.228  1.00  0.00    -0.035 C 
ATOM      3  C   UNL     1      50.065  47.324  35.147  1.00  0.00     0.007 C 
ATOM      4  C   UNL     1      51.169  48.214  35.736  1.00  0.00     0.008 C 
ATOM      5  C   UNL     1      52.063  47.517  36.809  1.00  0.00    -0.026 C 
ATOM      6  C   UNL     1      53.053  46.540  36.121  1.00  0.00     0.008 C 
ATOM      7  C   UNL     1      53.986  45.833  37.122  1.00  0.00     0.012 C 
ATOM      8  C   UNL     1      53.248  45.063  38.275  1.00  0.00    -0.006 C 
ATOM      9  C   UNL     1      52.046  45.892  38.793  1.00  0.00    -0.064 C 
ATOM     10  C   UNL     1      51.548  45.682  40.036  1.00  0.00    -0.027 C 
ATOM     11  C   UNL     1      52.290  44.972  41.136  1.00  0.00     0.032 C 
ATOM     12  C   UNL     1      53.409  44.027  40.630  1.00  0.00     0.006 C 
ATOM     13  C   UNL     1      54.252  44.733  39.494  1.00  0.00    -0.020 C 
ATOM     14  C   UNL     1      55.444  43.828  39.009  1.00  0.00     0.008 C 
ATOM     15  C   UNL     1      55.644  42.548  39.819  1.00  0.00     0.005 C 
ATOM     16  C   UNL     1      55.671  42.858  41.340  1.00  0.00     0.003 C 
ATOM     17  C   UNL     1      54.205  43.257  41.800  1.00  0.00    -0.025 C 
ATOM     18  C   UNL     1      53.385  41.965  42.128  1.00  0.00     0.010 C 
ATOM     19  C   UNL     1      54.085  40.990  43.069  1.00  0.00     0.033 C 
ATOM     20  C   UNL     1      55.429  40.535  42.490  1.00  0.00     0.120 C 
ATOM     21  C   UNL     1      56.394  41.727  42.215  1.00  0.00    -0.006 C 
ATOM     22  C   UNL     1      57.641  41.150  41.482  1.00  0.00     0.014 C 
ATOM     23  C   UNL     1      56.938  42.319  43.562  1.00  0.00     0.014 C 
ATOM     24  C   UNL     1      54.263  44.128  43.094  1.00  0.00     0.012 C 
ATOM     25  C   UNL     1      54.878  46.046  40.070  1.00  0.00     0.012 C 
ATOM     26  C   UNL     1      51.197  46.753  37.851  1.00  0.00     0.022 C 
ATOM     27  C   UNL     1      50.087  45.884  37.211  1.00  0.00     0.015 C 
ATOM     28  C   UNL     1      52.655  43.742  37.663  1.00  0.00     0.017 C 
ATOM     29  C   UNL     1      52.854  48.647  37.520  1.00  0.00     0.012 C 
ATOM     30  C   UNL     1      48.312  47.705  36.971  1.00  0.00     0.011 C 
ENDROOT
BRANCH  20  31
ATOM     31  O   UNL     1      56.027  39.627  43.382  1.00  0.00    -0.393 OA
ATOM     32  H   UNL     1      56.951  39.470  43.061  1.00  0.00     0.210 HD
ENDBRANCH  20  31
TORSDOF 1
ENDMDL
MODEL 9
REMARK VINA RESULT:    -6.523      2.370      4.423
REMARK INTER + INTRA:          -6.714
REMARK INTER:                  -6.714
REMARK INTRA:                   0.000
REMARK UNBOUND:                 0.000
REMARK SMILES CC1(C)CC[C@]2(C)CC[C@]3(C)C(=CC[C@@H]4[C@@]5(C)CC[C@H](O)C(C)(C)[C@H]5CC[C@]43C)[C@@H]2C1
REMARK SMILES IDX 1 1 2 2 4 3 5 4 6 5 8 6 9 7 10 8 12 9 13 10 14 11 15 12
REMARK SMILES IDX 28 13 27 14 26 15 25 16 16 17 18 18 19 19 20 20 22 21 23 22
REMARK SMILES IDX 24 23 17 24 29 25 30 26 31 27 11 28 7 29 3 30 21 31
REMARK H PARENT 21 32
REMARK Flexibility Score: inf
ROOT
ATOM      1  C   UNL     1      50.966  44.003  46.202  1.00  0.00     0.011 C 
ATOM      2  C   UNL     1      51.824  43.141  45.250  1.00  0.00    -0.035 C 
ATOM      3  C   UNL     1      53.191  42.874  45.919  1.00  0.00     0.007 C 
ATOM      4  C   UNL     1      54.189  42.171  44.986  1.00  0.00     0.008 C 
ATOM      5  C   UNL     1      54.393  42.871  43.606  1.00  0.00    -0.026 C 
ATOM      6  C   UNL     1      55.267  44.141  43.779  1.00  0.00     0.008 C 
ATOM      7  C   UNL     1      55.530  44.870  42.448  1.00  0.00     0.012 C 
ATOM      8  C   UNL     1      54.236  45.262  41.648  1.00  0.00    -0.006 C 
ATOM      9  C   UNL     1      53.197  44.114  41.708  1.00  0.00    -0.064 C 
ATOM     10  C   UNL     1      52.233  44.008  40.761  1.00  0.00    -0.027 C 
ATOM     11  C   UNL     1      52.288  44.682  39.417  1.00  0.00     0.032 C 
ATOM     12  C   UNL     1      53.217  45.921  39.374  1.00  0.00     0.006 C 
ATOM     13  C   UNL     1      54.581  45.610  40.112  1.00  0.00    -0.020 C 
ATOM     14  C   UNL     1      55.577  46.825  40.022  1.00  0.00     0.008 C 
ATOM     15  C   UNL     1      55.108  47.971  39.129  1.00  0.00     0.005 C 
ATOM     16  C   UNL     1      54.645  47.437  37.746  1.00  0.00     0.003 C 
ATOM     17  C   UNL     1      53.278  46.653  37.940  1.00  0.00    -0.025 C 
ATOM     18  C   UNL     1      52.081  47.660  37.898  1.00  0.00     0.010 C 
ATOM     19  C   UNL     1      52.087  48.605  36.701  1.00  0.00     0.033 C 
ATOM     20  C   UNL     1      53.375  49.434  36.660  1.00  0.00     0.120 C 
ATOM     21  C   UNL     1      54.654  48.547  36.590  1.00  0.00    -0.006 C 
ATOM     22  C   UNL     1      55.881  49.498  36.724  1.00  0.00     0.014 C 
ATOM     23  C   UNL     1      54.790  47.885  35.175  1.00  0.00     0.014 C 
ATOM     24  C   UNL     1      53.077  45.622  36.785  1.00  0.00     0.012 C 
ATOM     25  C   UNL     1      55.273  44.396  39.408  1.00  0.00     0.012 C 
ATOM     26  C   UNL     1      53.029  43.247  42.960  1.00  0.00     0.022 C 
ATOM     27  C   UNL     1      52.050  43.936  43.943  1.00  0.00     0.015 C 
ATOM     28  C   UNL     1      53.585  46.498  42.372  1.00  0.00     0.017 C 
ATOM     29  C   UNL     1      55.131  41.847  42.702  1.00  0.00     0.012 C 
ATOM     30  C   UNL     1      51.054  41.826  44.982  1.00  0.00     0.011 C 
ENDROOT
BRANCH  20  31
ATOM     31  O   UNL     1      53.327  50.299  35.553  1.00  0.00    -0.393 OA
ATOM     32  H   UNL     1      52.612  50.962  35.732  1.00  0.00     0.210 HD
ENDBRANCH  20  31
TORSDOF 1
ENDMDL
