MODEL 1
REMARK VINA RESULT:    -1.925      0.000      0.000
REMARK INTER + INTRA:          -2.885
REMARK INTER:                  -2.938
REMARK INTRA:                   0.053
REMARK UNBOUND:                 0.053
REMARK SMILES CC1=CCC[C@H](C)C(=O)C[C@@H](C(C)C)C(=O)C1
REMARK SMILES IDX 8 1 9 2 6 3 7 4 5 5 4 6 3 7 2 8 1 9 10 11 11 12 15 13 16 14
REMARK SMILES IDX 17 15 12 17 13 18 14 19
REMARK H PARENT
REMARK Flexibility Score: 70.00
ROOT
ATOM      1  C   UNL     1      13.775  15.138  11.025  1.00  0.00     0.136 C 
ATOM      2  O   UNL     1      14.711  14.372  10.844  1.00  0.00    -0.299 OA
ENDROOT
BRANCH   1   3
ATOM      3  C   UNL     1      12.806  15.413   9.889  1.00  0.00     0.053 C 
ATOM      4  C   UNL     1      11.685  14.365   9.875  1.00  0.00     0.016 C 
BRANCH   3   5
ATOM      5  C   UNL     1      12.225  16.841  10.007  1.00  0.00     0.015 C 
BRANCH   5   6
ATOM      6  C   UNL     1      10.689  16.843   9.876  1.00  0.00     0.028 C 
BRANCH   6   7
ATOM      7  C   UNL     1       9.996  17.558  11.009  1.00  0.00    -0.028 C 
ATOM      8  C   UNL     1       9.874  17.090  12.275  1.00  0.00    -0.070 CG0
ATOM      9  C   UNL     1       9.230  17.996  13.296  1.00  0.00     0.039 C 
ATOM     10  G   UNL     1      10.305  15.694  12.705  1.00  0.00     0.000 G0
ENDBRANCH   6   7
ENDBRANCH   5   6
ENDBRANCH   3   5
ENDBRANCH   1   3
BRANCH   1  11
ATOM     11  C   UNL     1      13.619  15.802  12.374  1.00  0.00     0.087 C 
BRANCH  11  12
ATOM     12  C   UNL     1      12.755  14.957  13.349  1.00  0.00     0.066 C 
BRANCH  12  13
ATOM     13  C   UNL     1      11.461  15.679  13.703  1.00  0.00     0.140 C 
ATOM     14  O   UNL     1      11.328  16.210  14.796  1.00  0.00    -0.299 OA
BRANCH  13  15
ATOM     15  C   UNL     1      10.311  15.688  12.726  1.00  0.00     0.106 CG0
ATOM     16  G   UNL     1       9.881  17.083  12.290  1.00  0.00     0.000 G0
ENDBRANCH  13  15
ENDBRANCH  12  13
BRANCH  12  17
ATOM     17  C   UNL     1      13.530  14.491  14.624  1.00  0.00    -0.006 C 
ATOM     18  C   UNL     1      15.037  14.277  14.393  1.00  0.00     0.008 C 
ATOM     19  C   UNL     1      12.911  13.219  15.226  1.00  0.00     0.008 C 
ENDBRANCH  12  17
ENDBRANCH  11  12
ENDBRANCH   1  11
TORSDOF 1
ENDMDL
MODEL 2
REMARK VINA RESULT:    -1.834      1.855      4.624
REMARK INTER + INTRA:          -2.746
REMARK INTER:                  -3.578
REMARK INTRA:                   0.832
REMARK UNBOUND:                 0.053
REMARK SMILES CC1=CCC[C@H](C)C(=O)C[C@@H](C(C)C)C(=O)C1
REMARK SMILES IDX 8 1 9 2 6 3 7 4 5 5 4 6 3 7 2 8 1 9 10 11 11 12 15 13 16 14
REMARK SMILES IDX 17 15 12 17 13 18 14 19
REMARK H PARENT
REMARK Flexibility Score: 70.00
ROOT
ATOM      1  C   UNL     1      11.615  15.209  14.857  1.00  0.00     0.136 C 
ATOM      2  O   UNL     1      10.668  14.767  15.492  1.00  0.00    -0.299 OA
ENDROOT
BRANCH   1   3
ATOM      3  C   UNL     1      13.023  14.768  15.213  1.00  0.00     0.053 C 
ATOM      4  C   UNL     1      13.115  13.236  15.235  1.00  0.00     0.016 C 
BRANCH   3   5
ATOM      5  C   UNL     1      14.045  15.368  14.220  1.00  0.00     0.015 C 
BRANCH   5   6
ATOM      6  C   UNL     1      14.079  14.583  12.895  1.00  0.00     0.028 C 
BRANCH   6   7
ATOM      7  C   UNL     1      13.809  15.443  11.685  1.00  0.00    -0.028 C 
ATOM      8  C   UNL     1      12.634  15.507  11.013  1.00  0.00    -0.070 CG0
ATOM      9  C   UNL     1      12.528  16.504   9.885  1.00  0.00     0.039 C 
ATOM     10  G   UNL     1      11.444  14.601  11.304  1.00  0.00     0.000 G0
ENDBRANCH   6   7
ENDBRANCH   5   6
ENDBRANCH   3   5
ENDBRANCH   1   3
BRANCH   1  11
ATOM     11  C   UNL     1      11.354  16.198  13.744  1.00  0.00     0.087 C 
BRANCH  11  12
ATOM     12  C   UNL     1       9.987  15.956  13.050  1.00  0.00     0.066 C 
BRANCH  12  13
ATOM     13  C   UNL     1      10.171  15.370  11.657  1.00  0.00     0.140 C 
ATOM     14  O   UNL     1       9.284  15.468  10.822  1.00  0.00    -0.299 OA
BRANCH  13  15
ATOM     15  C   UNL     1      11.431  14.612  11.319  1.00  0.00     0.106 CG0
ATOM     16  G   UNL     1      12.626  15.504  11.007  1.00  0.00     0.000 G0
ENDBRANCH  13  15
ENDBRANCH  12  13
BRANCH  12  17
ATOM     17  C   UNL     1       9.065  17.219  13.034  1.00  0.00    -0.006 C 
ATOM     18  C   UNL     1       9.500  18.294  12.021  1.00  0.00     0.008 C 
ATOM     19  C   UNL     1       8.942  17.845  14.433  1.00  0.00     0.008 C 
ENDBRANCH  12  17
ENDBRANCH  11  12
ENDBRANCH   1  11
TORSDOF 1
ENDMDL
MODEL 3
REMARK VINA RESULT:    -1.524      1.799      4.306
REMARK INTER + INTRA:          -2.273
REMARK INTER:                  -2.347
REMARK INTRA:                   0.074
REMARK UNBOUND:                 0.053
REMARK SMILES CC1=CCC[C@H](C)C(=O)C[C@@H](C(C)C)C(=O)C1
REMARK SMILES IDX 8 1 9 2 6 3 7 4 5 5 4 6 3 7 2 8 1 9 10 11 11 12 15 13 16 14
REMARK SMILES IDX 17 15 12 17 13 18 14 19
REMARK H PARENT
REMARK Flexibility Score: 70.00
ROOT
ATOM      1  C   UNL     1      11.382  16.555  10.428  1.00  0.00     0.136 C 
ATOM      2  O   UNL     1      11.190  17.635   9.888  1.00  0.00    -0.299 OA
ENDROOT
BRANCH   1   3
ATOM      3  C   UNL     1      12.624  15.756  10.080  1.00  0.00     0.053 C 
ATOM      4  C   UNL     1      13.847  16.679   9.986  1.00  0.00     0.016 C 
BRANCH   3   5
ATOM      5  C   UNL     1      12.857  14.635  11.120  1.00  0.00     0.015 C 
BRANCH   5   6
ATOM      6  C   UNL     1      13.887  15.055  12.187  1.00  0.00     0.028 C 
BRANCH   6   7
ATOM      7  C   UNL     1      13.673  14.378  13.518  1.00  0.00    -0.028 C 
ATOM      8  C   UNL     1      12.854  14.821  14.502  1.00  0.00    -0.070 CG0
ATOM      9  C   UNL     1      12.699  13.952  15.726  1.00  0.00     0.039 C 
ATOM     10  G   UNL     1      12.127  16.159  14.458  1.00  0.00     0.000 G0
ENDBRANCH   6   7
ENDBRANCH   5   6
ENDBRANCH   3   5
ENDBRANCH   1   3
BRANCH   1  11
ATOM     11  C   UNL     1      10.364  16.039  11.420  1.00  0.00     0.087 C 
BRANCH  11  12
ATOM     12  C   UNL     1      10.317  16.895  12.714  1.00  0.00     0.066 C 
BRANCH  12  13
ATOM     13  C   UNL     1      10.716  16.074  13.933  1.00  0.00     0.140 C 
ATOM     14  O   UNL     1       9.887  15.392  14.518  1.00  0.00    -0.299 OA
BRANCH  13  15
ATOM     15  C   UNL     1      12.127  16.146  14.461  1.00  0.00     0.106 CG0
ATOM     16  G   UNL     1      12.848  14.804  14.488  1.00  0.00     0.000 G0
ENDBRANCH  13  15
ENDBRANCH  12  13
BRANCH  12  17
ATOM     17  C   UNL     1       8.951  17.627  12.927  1.00  0.00    -0.006 C 
ATOM     18  C   UNL     1       8.574  18.587  11.783  1.00  0.00     0.008 C 
ATOM     19  C   UNL     1       8.918  18.380  14.267  1.00  0.00     0.008 C 
ENDBRANCH  12  17
ENDBRANCH  11  12
ENDBRANCH   1  11
TORSDOF 1
ENDMDL
MODEL 4
REMARK VINA RESULT:    -1.393      1.743      3.782
REMARK INTER + INTRA:          -2.073
REMARK INTER:                  -2.746
REMARK INTRA:                   0.673
REMARK UNBOUND:                 0.053
REMARK SMILES CC1=CCC[C@H](C)C(=O)C[C@@H](C(C)C)C(=O)C1
REMARK SMILES IDX 8 1 9 2 6 3 7 4 5 5 4 6 3 7 2 8 1 9 10 11 11 12 15 13 16 14
REMARK SMILES IDX 17 15 12 17 13 18 14 19
REMARK H PARENT
REMARK Flexibility Score: 70.00
ROOT
ATOM      1  C   UNL     1      10.667  16.178  13.377  1.00  0.00     0.136 C 
ATOM      2  O   UNL     1      10.769  17.133  14.134  1.00  0.00    -0.299 OA
ENDROOT
BRANCH   1   3
ATOM      3  C   UNL     1       9.686  16.244  12.220  1.00  0.00     0.053 C 
ATOM      4  C   UNL     1       9.289  17.698  11.937  1.00  0.00     0.016 C 
BRANCH   3   5
ATOM      5  C   UNL     1      10.290  15.581  10.960  1.00  0.00     0.015 C 
BRANCH   5   6
ATOM      6  C   UNL     1      11.482  16.388  10.409  1.00  0.00     0.028 C 
BRANCH   6   7
ATOM      7  C   UNL     1      12.621  15.519   9.935  1.00  0.00    -0.028 C 
ATOM      8  C   UNL     1      13.751  15.255  10.634  1.00  0.00    -0.070 CG0
ATOM      9  C   UNL     1      14.734  14.281  10.032  1.00  0.00     0.039 C 
ATOM     10  G   UNL     1      14.100  15.920  11.960  1.00  0.00     0.000 G0
ENDBRANCH   6   7
ENDBRANCH   5   6
ENDBRANCH   3   5
ENDBRANCH   1   3
BRANCH   1  11
ATOM     11  C   UNL     1      11.513  14.950  13.626  1.00  0.00     0.087 C 
BRANCH  11  12
ATOM     12  C   UNL     1      12.908  15.305  14.207  1.00  0.00     0.066 C 
BRANCH  12  13
ATOM     13  C   UNL     1      14.009  15.059  13.184  1.00  0.00     0.140 C 
ATOM     14  O   UNL     1      14.843  14.185  13.370  1.00  0.00    -0.299 OA
BRANCH  13  15
ATOM     15  C   UNL     1      14.111  15.937  11.960  1.00  0.00     0.106 CG0
ATOM     16  G   UNL     1      13.763  15.226  10.658  1.00  0.00     0.000 G0
ENDBRANCH  13  15
ENDBRANCH  12  13
BRANCH  12  17
ATOM     17  C   UNL     1      13.213  14.601  15.570  1.00  0.00    -0.006 C 
ATOM     18  C   UNL     1      14.620  14.894  16.121  1.00  0.00     0.008 C 
ATOM     19  C   UNL     1      12.997  13.081  15.480  1.00  0.00     0.008 C 
ENDBRANCH  12  17
ENDBRANCH  11  12
ENDBRANCH   1  11
TORSDOF 1
ENDMDL
MODEL 5
REMARK VINA RESULT:    -0.724      1.722      3.825
REMARK INTER + INTRA:          -1.051
REMARK INTER:                  -2.215
REMARK INTRA:                   1.164
REMARK UNBOUND:                 0.053
REMARK SMILES CC1=CCC[C@H](C)C(=O)C[C@@H](C(C)C)C(=O)C1
REMARK SMILES IDX 8 1 9 2 6 3 7 4 5 5 4 6 3 7 2 8 1 9 10 11 11 12 15 13 16 14
REMARK SMILES IDX 17 15 12 17 13 18 14 19
REMARK H PARENT
REMARK Flexibility Score: 70.00
ROOT
ATOM      1  C   UNL     1      14.027  14.552  13.876  1.00  0.00     0.136 C 
ATOM      2  O   UNL     1      14.914  15.335  14.188  1.00  0.00    -0.299 OA
ENDROOT
BRANCH   1   3
ATOM      3  C   UNL     1      13.151  13.947  14.959  1.00  0.00     0.053 C 
ATOM      4  C   UNL     1      13.966  13.707  16.236  1.00  0.00     0.016 C 
BRANCH   3   5
ATOM      5  C   UNL     1      11.935  14.859  15.243  1.00  0.00     0.015 C 
BRANCH   5   6
ATOM      6  C   UNL     1      11.974  16.142  14.391  1.00  0.00     0.028 C 
BRANCH   6   7
ATOM      7  C   UNL     1      10.604  16.675  14.053  1.00  0.00    -0.028 C 
ATOM      8  C   UNL     1      10.108  16.831  12.802  1.00  0.00    -0.070 CG0
ATOM      9  C   UNL     1       8.676  17.287  12.670  1.00  0.00     0.039 C 
ATOM     10  G   UNL     1      10.928  16.617  11.536  1.00  0.00     0.000 G0
ENDBRANCH   6   7
ENDBRANCH   5   6
ENDBRANCH   3   5
ENDBRANCH   1   3
BRANCH   1  11
ATOM     11  C   UNL     1      13.839  14.199  12.419  1.00  0.00     0.087 C 
BRANCH  11  12
ATOM     12  C   UNL     1      13.262  15.382  11.596  1.00  0.00     0.066 C 
BRANCH  12  13
ATOM     13  C   UNL     1      11.741  15.332  11.550  1.00  0.00     0.140 C 
ATOM     14  O   UNL     1      11.159  14.260  11.471  1.00  0.00    -0.299 OA
BRANCH  13  15
ATOM     15  C   UNL     1      10.945  16.614  11.540  1.00  0.00     0.106 CG0
ATOM     16  G   UNL     1      10.104  16.829  12.792  1.00  0.00     0.000 G0
ENDBRANCH  13  15
ENDBRANCH  12  13
BRANCH  12  17
ATOM     17  C   UNL     1      13.884  15.507  10.166  1.00  0.00    -0.006 C 
ATOM     18  C   UNL     1      14.990  14.476   9.875  1.00  0.00     0.008 C 
ATOM     19  C   UNL     1      14.418  16.926   9.907  1.00  0.00     0.008 C 
ENDBRANCH  12  17
ENDBRANCH  11  12
ENDBRANCH   1  11
TORSDOF 1
ENDMDL
MODEL 6
REMARK VINA RESULT:    -0.682      1.943      3.941
REMARK INTER + INTRA:          -0.988
REMARK INTER:                  -2.490
REMARK INTRA:                   1.502
REMARK UNBOUND:                 0.053
REMARK SMILES CC1=CCC[C@H](C)C(=O)C[C@@H](C(C)C)C(=O)C1
REMARK SMILES IDX 8 1 9 2 6 3 7 4 5 5 4 6 3 7 2 8 1 9 10 11 11 12 15 13 16 14
REMARK SMILES IDX 17 15 12 17 13 18 14 19
REMARK H PARENT
REMARK Flexibility Score: 70.00
ROOT
ATOM      1  C   UNL     1       9.580  17.498  13.383  1.00  0.00     0.136 C 
ATOM      2  O   UNL     1       9.407  18.447  14.135  1.00  0.00    -0.299 OA
ENDROOT
BRANCH   1   3
ATOM      3  C   UNL     1       9.196  17.625  11.920  1.00  0.00     0.053 C 
ATOM      4  C   UNL     1       7.949  18.507  11.768  1.00  0.00     0.016 C 
BRANCH   3   5
ATOM      5  C   UNL     1      10.376  18.192  11.098  1.00  0.00     0.015 C 
BRANCH   5   6
ATOM      6  C   UNL     1      10.759  17.257   9.934  1.00  0.00     0.028 C 
BRANCH   6   7
ATOM      7  C   UNL     1      12.231  16.929   9.893  1.00  0.00    -0.028 C 
ATOM      8  C   UNL     1      12.781  15.739  10.235  1.00  0.00    -0.070 CG0
ATOM      9  C   UNL     1      14.267  15.572  10.033  1.00  0.00     0.039 C 
ATOM     10  G   UNL     1      11.993  14.590  10.850  1.00  0.00     0.000 G0
ENDBRANCH   6   7
ENDBRANCH   5   6
ENDBRANCH   3   5
ENDBRANCH   1   3
BRANCH   1  11
ATOM     11  C   UNL     1      10.160  16.217  13.939  1.00  0.00     0.087 C 
BRANCH  11  12
ATOM     12  C   UNL     1      11.395  15.732  13.133  1.00  0.00     0.066 C 
BRANCH  12  13
ATOM     13  C   UNL     1      10.973  14.973  11.883  1.00  0.00     0.140 C 
ATOM     14  O   UNL     1       9.808  14.637  11.726  1.00  0.00    -0.299 OA
BRANCH  13  15
ATOM     15  C   UNL     1      12.007  14.576  10.858  1.00  0.00     0.106 CG0
ATOM     16  G   UNL     1      12.767  15.752  10.258  1.00  0.00     0.000 G0
ENDBRANCH  13  15
ENDBRANCH  12  13
BRANCH  12  17
ATOM     17  C   UNL     1      12.418  14.919  13.992  1.00  0.00    -0.006 C 
ATOM     18  C   UNL     1      12.111  14.927  15.501  1.00  0.00     0.008 C 
ATOM     19  C   UNL     1      13.860  15.397  13.753  1.00  0.00     0.008 C 
ENDBRANCH  12  17
ENDBRANCH  11  12
ENDBRANCH   1  11
TORSDOF 1
ENDMDL
MODEL 7
REMARK VINA RESULT:     0.024      2.475      5.593
REMARK INTER + INTRA:           0.090
REMARK INTER:                  -1.725
REMARK INTRA:                   1.815
REMARK UNBOUND:                 0.053
REMARK SMILES CC1=CCC[C@H](C)C(=O)C[C@@H](C(C)C)C(=O)C1
REMARK SMILES IDX 8 1 9 2 6 3 7 4 5 5 4 6 3 7 2 8 1 9 10 11 11 12 15 13 16 14
REMARK SMILES IDX 17 15 12 17 13 18 14 19
REMARK H PARENT
REMARK Flexibility Score: 70.00
ROOT
ATOM      1  C   UNL     1      15.184  14.523  14.419  1.00  0.00     0.136 C 
ATOM      2  O   UNL     1      15.731  15.542  14.815  1.00  0.00    -0.299 OA
ENDROOT
BRANCH   1   3
ATOM      3  C   UNL     1      15.561  13.186  15.033  1.00  0.00     0.053 C 
ATOM      4  C   UNL     1      16.807  12.613  14.344  1.00  0.00     0.016 C 
BRANCH   3   5
ATOM      5  C   UNL     1      15.791  13.335  16.554  1.00  0.00     0.015 C 
BRANCH   5   6
ATOM      6  C   UNL     1      14.553  13.917  17.263  1.00  0.00     0.028 C 
BRANCH   6   7
ATOM      7  C   UNL     1      13.467  12.896  17.499  1.00  0.00    -0.028 C 
ATOM      8  C   UNL     1      12.627  12.409  16.554  1.00  0.00    -0.070 CG0
ATOM      9  C   UNL     1      11.670  11.318  16.966  1.00  0.00     0.039 C 
ATOM     10  G   UNL     1      12.568  12.935  15.125  1.00  0.00     0.000 G0
ENDBRANCH   6   7
ENDBRANCH   5   6
ENDBRANCH   3   5
ENDBRANCH   1   3
BRANCH   1  11
ATOM     11  C   UNL     1      14.155  14.623  13.316  1.00  0.00     0.087 C 
BRANCH  11  12
ATOM     12  C   UNL     1      12.810  15.215  13.817  1.00  0.00     0.066 C 
BRANCH  12  13
ATOM     13  C   UNL     1      12.265  14.422  14.997  1.00  0.00     0.140 C 
ATOM     14  O   UNL     1      11.626  14.982  15.877  1.00  0.00    -0.299 OA
BRANCH  13  15
ATOM     15  C   UNL     1      12.562  12.947  15.116  1.00  0.00     0.106 CG0
ATOM     16  G   UNL     1      12.599  12.438  16.552  1.00  0.00     0.000 G0
ENDBRANCH  13  15
ENDBRANCH  12  13
BRANCH  12  17
ATOM     17  C   UNL     1      11.744  15.384  12.686  1.00  0.00    -0.006 C 
ATOM     18  C   UNL     1      12.349  15.649  11.295  1.00  0.00     0.008 C 
ATOM     19  C   UNL     1      10.729  16.487  13.028  1.00  0.00     0.008 C 
ENDBRANCH  12  17
ENDBRANCH  11  12
ENDBRANCH   1  11
TORSDOF 1
ENDMDL
MODEL 8
REMARK VINA RESULT:     0.430      2.256      3.943
REMARK INTER + INTRA:           0.709
REMARK INTER:                  -0.761
REMARK INTRA:                   1.470
REMARK UNBOUND:                 0.053
REMARK SMILES CC1=CCC[C@H](C)C(=O)C[C@@H](C(C)C)C(=O)C1
REMARK SMILES IDX 8 1 9 2 6 3 7 4 5 5 4 6 3 7 2 8 1 9 10 11 11 12 15 13 16 14
REMARK SMILES IDX 17 15 12 17 13 18 14 19
REMARK H PARENT
REMARK Flexibility Score: 70.00
ROOT
ATOM      1  C   UNL     1      15.411  15.101  15.736  1.00  0.00     0.136 C 
ATOM      2  O   UNL     1      16.371  15.695  16.206  1.00  0.00    -0.299 OA
ENDROOT
BRANCH   1   3
ATOM      3  C   UNL     1      15.636  14.047  14.666  1.00  0.00     0.053 C 
ATOM      4  C   UNL     1      16.043  12.713  15.305  1.00  0.00     0.016 C 
BRANCH   3   5
ATOM      5  C   UNL     1      14.368  13.879  13.797  1.00  0.00     0.015 C 
BRANCH   5   6
ATOM      6  C   UNL     1      14.215  15.031  12.786  1.00  0.00     0.028 C 
BRANCH   6   7
ATOM      7  C   UNL     1      12.821  15.142  12.216  1.00  0.00    -0.028 C 
ATOM      8  C   UNL     1      11.749  15.665  12.859  1.00  0.00    -0.070 CG0
ATOM      9  C   UNL     1      10.459  15.779  12.086  1.00  0.00     0.039 C 
ATOM     10  G   UNL     1      11.768  16.095  14.320  1.00  0.00     0.000 G0
ENDBRANCH   6   7
ENDBRANCH   5   6
ENDBRANCH   3   5
ENDBRANCH   1   3
BRANCH   1  11
ATOM     11  C   UNL     1      14.023  15.445  16.225  1.00  0.00     0.087 C 
BRANCH  11  12
ATOM     12  C   UNL     1      12.981  14.354  15.857  1.00  0.00     0.066 C 
BRANCH  12  13
ATOM     13  C   UNL     1      11.696  14.976  15.327  1.00  0.00     0.140 C 
ATOM     14  O   UNL     1      10.609  14.530  15.663  1.00  0.00    -0.299 OA
BRANCH  13  15
ATOM     15  C   UNL     1      11.762  16.109  14.333  1.00  0.00     0.106 CG0
ATOM     16  G   UNL     1      11.744  15.658  12.878  1.00  0.00     0.000 G0
ENDBRANCH  13  15
ENDBRANCH  12  13
BRANCH  12  17
ATOM     17  C   UNL     1      12.704  13.342  17.016  1.00  0.00    -0.006 C 
ATOM     18  C   UNL     1      13.750  13.385  18.145  1.00  0.00     0.008 C 
ATOM     19  C   UNL     1      12.570  11.904  16.488  1.00  0.00     0.008 C 
ENDBRANCH  12  17
ENDBRANCH  11  12
ENDBRANCH   1  11
TORSDOF 1
ENDMDL
MODEL 9
REMARK VINA RESULT:     0.655      3.243      5.231
REMARK INTER + INTRA:           1.053
REMARK INTER:                  -1.399
REMARK INTRA:                   2.452
REMARK UNBOUND:                 0.053
REMARK SMILES CC1=CCC[C@H](C)C(=O)C[C@@H](C(C)C)C(=O)C1
REMARK SMILES IDX 8 1 9 2 6 3 7 4 5 5 4 6 3 7 2 8 1 9 10 11 11 12 15 13 16 14
REMARK SMILES IDX 17 15 12 17 13 18 14 19
REMARK H PARENT
REMARK Flexibility Score: 70.00
ROOT
ATOM      1  C   UNL     1      14.757  15.096  13.969  1.00  0.00     0.136 C 
ATOM      2  O   UNL     1      15.123  15.731  14.949  1.00  0.00    -0.299 OA
ENDROOT
BRANCH   1   3
ATOM      3  C   UNL     1      13.626  15.635  13.111  1.00  0.00     0.053 C 
ATOM      4  C   UNL     1      13.662  14.997  11.716  1.00  0.00     0.016 C 
BRANCH   3   5
ATOM      5  C   UNL     1      12.263  15.389  13.796  1.00  0.00     0.015 C 
BRANCH   5   6
ATOM      6  C   UNL     1      12.419  15.173  15.314  1.00  0.00     0.028 C 
BRANCH   6   7
ATOM      7  C   UNL     1      12.206  13.740  15.737  1.00  0.00    -0.028 C 
ATOM      8  C   UNL     1      13.009  13.040  16.575  1.00  0.00    -0.070 CG0
ATOM      9  C   UNL     1      12.575  11.647  16.957  1.00  0.00     0.039 C 
ATOM     10  G   UNL     1      14.336  13.566  17.107  1.00  0.00     0.000 G0
ENDBRANCH   6   7
ENDBRANCH   5   6
ENDBRANCH   3   5
ENDBRANCH   1   3
BRANCH   1  11
ATOM     11  C   UNL     1      15.434  13.783  13.650  1.00  0.00     0.087 C 
BRANCH  11  12
ATOM     12  C   UNL     1      15.278  12.747  14.796  1.00  0.00     0.066 C 
BRANCH  12  13
ATOM     13  C   UNL     1      15.493  13.394  16.157  1.00  0.00     0.140 C 
ATOM     14  O   UNL     1      16.614  13.728  16.514  1.00  0.00    -0.299 OA
BRANCH  13  15
ATOM     15  C   UNL     1      14.328  13.570  17.101  1.00  0.00     0.106 CG0
ATOM     16  G   UNL     1      13.011  13.023  16.566  1.00  0.00     0.000 G0
ENDBRANCH  13  15
ENDBRANCH  12  13
BRANCH  12  17
ATOM     17  C   UNL     1      16.166  11.474  14.609  1.00  0.00    -0.006 C 
ATOM     18  C   UNL     1      16.370  10.661  15.901  1.00  0.00     0.008 C 
ATOM     19  C   UNL     1      17.532  11.825  13.997  1.00  0.00     0.008 C 
ENDBRANCH  12  17
ENDBRANCH  11  12
ENDBRANCH   1  11
TORSDOF 1
ENDMDL
