MODEL 1
REMARK VINA RESULT:     3.701      0.000      0.000
REMARK INTER + INTRA:           8.393
REMARK INTER:                   9.651
REMARK INTRA:                  -1.258
REMARK UNBOUND:                -1.258
REMARK SMILES CCCCCCCCCCCCCCCCCCCCCCCCCCCCCO
REMARK SMILES IDX 16 1 15 2 14 3 13 4 12 5 11 6 10 7 9 8 8 9 7 10 6 11 5 12
REMARK SMILES IDX 4 13 3 14 2 15 1 16 17 17 18 18 19 19 20 20 21 21 22 22
REMARK SMILES IDX 23 23 24 24 25 25 26 26 27 27 28 28 29 29 30 30
REMARK H PARENT 30 31
REMARK Flexibility Score: inf
ROOT
ATOM      1  C   UNL     1     -28.094 -20.607  21.185  1.00  0.00     0.000 C 
ENDROOT
BRANCH   1   2
ATOM      2  C   UNL     1     -29.614 -20.475  20.971  1.00  0.00     0.000 C 
BRANCH   2   3
ATOM      3  C   UNL     1     -30.375 -20.160  22.270  1.00  0.00     0.000 C 
BRANCH   3   4
ATOM      4  C   UNL     1     -30.461 -21.366  23.225  1.00  0.00     0.000 C 
BRANCH   4   5
ATOM      5  C   UNL     1     -31.601 -21.326  24.266  1.00  0.00     0.000 C 
BRANCH   5   6
ATOM      6  C   UNL     1     -31.723 -22.563  25.182  1.00  0.00     0.000 C 
BRANCH   6   7
ATOM      7  C   UNL     1     -33.095 -22.724  25.865  1.00  0.00     0.000 C 
BRANCH   7   8
ATOM      8  C   UNL     1     -32.998 -22.974  27.379  1.00  0.00    -0.000 C 
BRANCH   8   9
ATOM      9  C   UNL     1     -31.567 -22.827  27.919  1.00  0.00    -0.000 C 
BRANCH   9  10
ATOM     10  C   UNL     1     -31.425 -21.638  28.882  1.00  0.00    -0.000 C 
BRANCH  10  11
ATOM     11  C   UNL     1     -32.732 -20.841  29.055  1.00  0.00    -0.000 C 
BRANCH  11  12
ATOM     12  C   UNL     1     -32.593 -19.501  29.803  1.00  0.00    -0.000 C 
BRANCH  12  13
ATOM     13  C   UNL     1     -31.342 -18.704  29.389  1.00  0.00    -0.000 C 
BRANCH  13  14
ATOM     14  C   UNL     1     -31.652 -17.643  28.313  1.00  0.00    -0.000 C 
BRANCH  14  15
ATOM     15  C   UNL     1     -33.138 -17.570  27.923  1.00  0.00    -0.003 C 
ATOM     16  C   UNL     1     -33.483 -18.425  26.706  1.00  0.00     0.004 C 
ENDBRANCH  14  15
ENDBRANCH  13  14
ENDBRANCH  12  13
ENDBRANCH  11  12
ENDBRANCH  10  11
ENDBRANCH   9  10
ENDBRANCH   8   9
ENDBRANCH   7   8
ENDBRANCH   6   7
ENDBRANCH   5   6
ENDBRANCH   4   5
ENDBRANCH   3   4
ENDBRANCH   2   3
ENDBRANCH   1   2
BRANCH   1  17
ATOM     17  C   UNL     1     -27.213 -20.091  20.027  1.00  0.00     0.000 C 
BRANCH  17  18
ATOM     18  C   UNL     1     -25.762 -19.744  20.408  1.00  0.00     0.000 C 
BRANCH  18  19
ATOM     19  C   UNL     1     -24.756 -20.815  19.960  1.00  0.00     0.000 C 
BRANCH  19  20
ATOM     20  C   UNL     1     -23.310 -20.464  20.352  1.00  0.00     0.000 C 
BRANCH  20  21
ATOM     21  C   UNL     1     -22.675 -21.512  21.282  1.00  0.00     0.000 C 
BRANCH  21  22
ATOM     22  C   UNL     1     -23.321 -21.539  22.677  1.00  0.00     0.000 C 
BRANCH  22  23
ATOM     23  C   UNL     1     -22.494 -22.344  23.695  1.00  0.00     0.000 C 
BRANCH  23  24
ATOM     24  C   UNL     1     -23.070 -23.747  23.961  1.00  0.00     0.000 C 
BRANCH  24  25
ATOM     25  C   UNL     1     -22.546 -24.444  25.232  1.00  0.00     0.000 C 
BRANCH  25  26
ATOM     26  C   UNL     1     -23.450 -25.598  25.700  1.00  0.00     0.000 C 
BRANCH  26  27
ATOM     27  C   UNL     1     -22.797 -26.451  26.798  1.00  0.00     0.002 C 
BRANCH  27  28
ATOM     28  C   UNL     1     -22.382 -27.845  26.296  1.00  0.00     0.028 C 
BRANCH  28  29
ATOM     29  C   UNL     1     -23.272 -28.946  26.884  1.00  0.00     0.156 C 
BRANCH  29  30
ATOM     30  O   UNL     1     -23.355 -28.832  28.279  1.00  0.00    -0.396 OA
ATOM     31  H   UNL     1     -23.944 -29.568  28.590  1.00  0.00     0.210 HD
ENDBRANCH  29  30
ENDBRANCH  28  29
ENDBRANCH  27  28
ENDBRANCH  26  27
ENDBRANCH  25  26
ENDBRANCH  24  25
ENDBRANCH  23  24
ENDBRANCH  22  23
ENDBRANCH  21  22
ENDBRANCH  20  21
ENDBRANCH  19  20
ENDBRANCH  18  19
ENDBRANCH  17  18
ENDBRANCH   1  17
TORSDOF 28
ENDMDL
MODEL 2
REMARK VINA RESULT:     3.788      1.028      2.317
REMARK INTER + INTRA:           8.621
REMARK INTER:                   9.866
REMARK INTRA:                  -1.245
REMARK UNBOUND:                -1.258
REMARK SMILES CCCCCCCCCCCCCCCCCCCCCCCCCCCCCO
REMARK SMILES IDX 16 1 15 2 14 3 13 4 12 5 11 6 10 7 9 8 8 9 7 10 6 11 5 12
REMARK SMILES IDX 4 13 3 14 2 15 1 16 17 17 18 18 19 19 20 20 21 21 22 22
REMARK SMILES IDX 23 23 24 24 25 25 26 26 27 27 28 28 29 29 30 30
REMARK H PARENT 30 31
REMARK Flexibility Score: inf
ROOT
ATOM      1  C   UNL     1     -25.985 -19.691  20.321  1.00  0.00     0.000 C 
ENDROOT
BRANCH   1   2
ATOM      2  C   UNL     1     -27.461 -19.995  20.007  1.00  0.00     0.000 C 
BRANCH   2   3
ATOM      3  C   UNL     1     -28.162 -20.778  21.130  1.00  0.00     0.000 C 
BRANCH   3   4
ATOM      4  C   UNL     1     -29.682 -20.534  21.177  1.00  0.00     0.000 C 
BRANCH   4   5
ATOM      5  C   UNL     1     -30.289 -20.305  22.579  1.00  0.00     0.000 C 
BRANCH   5   6
ATOM      6  C   UNL     1     -30.480 -21.569  23.447  1.00  0.00     0.000 C 
BRANCH   6   7
ATOM      7  C   UNL     1     -31.602 -21.462  24.497  1.00  0.00     0.000 C 
BRANCH   7   8
ATOM      8  C   UNL     1     -31.932 -22.801  25.177  1.00  0.00    -0.000 C 
BRANCH   8   9
ATOM      9  C   UNL     1     -33.310 -22.804  25.855  1.00  0.00    -0.000 C 
BRANCH   9  10
ATOM     10  C   UNL     1     -33.209 -22.704  27.386  1.00  0.00    -0.000 C 
BRANCH  10  11
ATOM     11  C   UNL     1     -33.559 -21.304  27.924  1.00  0.00    -0.000 C 
BRANCH  11  12
ATOM     12  C   UNL     1     -32.911 -20.935  29.272  1.00  0.00    -0.000 C 
BRANCH  12  13
ATOM     13  C   UNL     1     -31.416 -20.584  29.149  1.00  0.00    -0.000 C 
BRANCH  13  14
ATOM     14  C   UNL     1     -31.132 -19.103  29.474  1.00  0.00    -0.000 C 
BRANCH  14  15
ATOM     15  C   UNL     1     -32.370 -18.196  29.372  1.00  0.00    -0.003 C 
ATOM     16  C   UNL     1     -32.300 -17.213  28.206  1.00  0.00     0.004 C 
ENDBRANCH  14  15
ENDBRANCH  13  14
ENDBRANCH  12  13
ENDBRANCH  11  12
ENDBRANCH  10  11
ENDBRANCH   9  10
ENDBRANCH   8   9
ENDBRANCH   7   8
ENDBRANCH   6   7
ENDBRANCH   5   6
ENDBRANCH   4   5
ENDBRANCH   3   4
ENDBRANCH   2   3
ENDBRANCH   1   2
BRANCH   1  17
ATOM     17  C   UNL     1     -25.011 -20.877  20.151  1.00  0.00     0.000 C 
BRANCH  17  18
ATOM     18  C   UNL     1     -23.527 -20.495  20.009  1.00  0.00     0.000 C 
BRANCH  18  19
ATOM     19  C   UNL     1     -22.651 -21.081  21.128  1.00  0.00     0.000 C 
BRANCH  19  20
ATOM     20  C   UNL     1     -23.426 -21.272  22.443  1.00  0.00     0.000 C 
BRANCH  20  21
ATOM     21  C   UNL     1     -22.626 -22.055  23.497  1.00  0.00     0.000 C 
BRANCH  21  22
ATOM     22  C   UNL     1     -23.009 -23.543  23.551  1.00  0.00     0.000 C 
BRANCH  22  23
ATOM     23  C   UNL     1     -22.645 -24.198  24.895  1.00  0.00     0.000 C 
BRANCH  23  24
ATOM     24  C   UNL     1     -23.411 -25.509  25.151  1.00  0.00     0.000 C 
BRANCH  24  25
ATOM     25  C   UNL     1     -23.135 -26.179  26.511  1.00  0.00     0.000 C 
BRANCH  25  26
ATOM     26  C   UNL     1     -22.311 -27.472  26.388  1.00  0.00     0.000 C 
BRANCH  26  27
ATOM     27  C   UNL     1     -22.705 -28.525  27.435  1.00  0.00     0.002 C 
BRANCH  27  28
ATOM     28  C   UNL     1     -23.722 -29.545  26.894  1.00  0.00     0.028 C 
BRANCH  28  29
ATOM     29  C   UNL     1     -23.457 -29.884  25.423  1.00  0.00     0.156 C 
BRANCH  29  30
ATOM     30  O   UNL     1     -23.567 -31.264  25.200  1.00  0.00    -0.396 OA
ATOM     31  H   UNL     1     -22.929 -31.704  25.822  1.00  0.00     0.210 HD
ENDBRANCH  29  30
ENDBRANCH  28  29
ENDBRANCH  27  28
ENDBRANCH  26  27
ENDBRANCH  25  26
ENDBRANCH  24  25
ENDBRANCH  23  24
ENDBRANCH  22  23
ENDBRANCH  21  22
ENDBRANCH  20  21
ENDBRANCH  19  20
ENDBRANCH  18  19
ENDBRANCH  17  18
ENDBRANCH   1  17
TORSDOF 28
ENDMDL
MODEL 3
REMARK VINA RESULT:     4.055      2.654     10.650
REMARK INTER + INTRA:           9.317
REMARK INTER:                  10.650
REMARK INTRA:                  -1.332
REMARK UNBOUND:                -1.258
REMARK SMILES CCCCCCCCCCCCCCCCCCCCCCCCCCCCCO
REMARK SMILES IDX 16 1 15 2 14 3 13 4 12 5 11 6 10 7 9 8 8 9 7 10 6 11 5 12
REMARK SMILES IDX 4 13 3 14 2 15 1 16 17 17 18 18 19 19 20 20 21 21 22 22
REMARK SMILES IDX 23 23 24 24 25 25 26 26 27 27 28 28 29 29 30 30
REMARK H PARENT 30 31
REMARK Flexibility Score: inf
ROOT
ATOM      1  C   UNL     1     -29.416 -20.516  21.066  1.00  0.00     0.000 C 
ENDROOT
BRANCH   1   2
ATOM      2  C   UNL     1     -27.887 -20.591  21.236  1.00  0.00     0.000 C 
BRANCH   2   3
ATOM      3  C   UNL     1     -27.123 -20.104  19.993  1.00  0.00     0.000 C 
BRANCH   3   4
ATOM      4  C   UNL     1     -25.651 -19.760  20.288  1.00  0.00     0.000 C 
BRANCH   4   5
ATOM      5  C   UNL     1     -24.630 -20.897  20.058  1.00  0.00     0.000 C 
BRANCH   5   6
ATOM      6  C   UNL     1     -23.144 -20.518  20.242  1.00  0.00     0.000 C 
BRANCH   6   7
ATOM      7  C   UNL     1     -22.421 -21.281  21.368  1.00  0.00     0.000 C 
BRANCH   7   8
ATOM      8  C   UNL     1     -23.322 -21.585  22.576  1.00  0.00    -0.000 C 
BRANCH   8   9
ATOM      9  C   UNL     1     -22.610 -22.407  23.661  1.00  0.00    -0.000 C 
BRANCH   9  10
ATOM     10  C   UNL     1     -23.245 -23.793  23.856  1.00  0.00    -0.000 C 
BRANCH  10  11
ATOM     11  C   UNL     1     -22.585 -24.606  24.985  1.00  0.00    -0.000 C 
BRANCH  11  12
ATOM     12  C   UNL     1     -23.531 -25.546  25.759  1.00  0.00    -0.000 C 
BRANCH  12  13
ATOM     13  C   UNL     1     -22.865 -26.197  26.986  1.00  0.00    -0.000 C 
BRANCH  13  14
ATOM     14  C   UNL     1     -22.392 -27.638  26.702  1.00  0.00    -0.000 C 
BRANCH  14  15
ATOM     15  C   UNL     1     -23.387 -28.719  27.155  1.00  0.00    -0.003 C 
ATOM     16  C   UNL     1     -23.525 -29.866  26.157  1.00  0.00     0.004 C 
ENDBRANCH  14  15
ENDBRANCH  13  14
ENDBRANCH  12  13
ENDBRANCH  11  12
ENDBRANCH  10  11
ENDBRANCH   9  10
ENDBRANCH   8   9
ENDBRANCH   7   8
ENDBRANCH   6   7
ENDBRANCH   5   6
ENDBRANCH   4   5
ENDBRANCH   3   4
ENDBRANCH   2   3
ENDBRANCH   1   2
BRANCH   1  17
ATOM     17  C   UNL     1     -30.214 -20.233  22.356  1.00  0.00     0.000 C 
BRANCH  17  18
ATOM     18  C   UNL     1     -30.309 -21.410  23.344  1.00  0.00     0.000 C 
BRANCH  18  19
ATOM     19  C   UNL     1     -31.635 -21.434  24.119  1.00  0.00     0.000 C 
BRANCH  19  20
ATOM     20  C   UNL     1     -31.818 -22.727  24.933  1.00  0.00     0.000 C 
BRANCH  20  21
ATOM     21  C   UNL     1     -33.071 -22.697  25.823  1.00  0.00     0.000 C 
BRANCH  21  22
ATOM     22  C   UNL     1     -32.753 -22.945  27.307  1.00  0.00     0.000 C 
BRANCH  22  23
ATOM     23  C   UNL     1     -31.411 -22.327  27.735  1.00  0.00     0.000 C 
BRANCH  23  24
ATOM     24  C   UNL     1     -31.363 -21.969  29.232  1.00  0.00     0.000 C 
BRANCH  24  25
ATOM     25  C   UNL     1     -31.183 -20.472  29.546  1.00  0.00     0.000 C 
BRANCH  25  26
ATOM     26  C   UNL     1     -32.494 -19.674  29.440  1.00  0.00     0.000 C 
BRANCH  26  27
ATOM     27  C   UNL     1     -32.254 -18.172  29.219  1.00  0.00     0.002 C 
BRANCH  27  28
ATOM     28  C   UNL     1     -32.540 -17.734  27.772  1.00  0.00     0.028 C 
BRANCH  28  29
ATOM     29  C   UNL     1     -33.839 -18.349  27.240  1.00  0.00     0.156 C 
BRANCH  29  30
ATOM     30  O   UNL     1     -33.597 -19.114  26.090  1.00  0.00    -0.396 OA
ATOM     31  H   UNL     1     -34.263 -19.851  26.095  1.00  0.00     0.210 HD
ENDBRANCH  29  30
ENDBRANCH  28  29
ENDBRANCH  27  28
ENDBRANCH  26  27
ENDBRANCH  25  26
ENDBRANCH  24  25
ENDBRANCH  23  24
ENDBRANCH  22  23
ENDBRANCH  21  22
ENDBRANCH  20  21
ENDBRANCH  19  20
ENDBRANCH  18  19
ENDBRANCH  17  18
ENDBRANCH   1  17
TORSDOF 28
ENDMDL
MODEL 4
REMARK VINA RESULT:     4.142      2.876     10.806
REMARK INTER + INTRA:           9.542
REMARK INTER:                  10.618
REMARK INTRA:                  -1.075
REMARK UNBOUND:                -1.258
REMARK SMILES CCCCCCCCCCCCCCCCCCCCCCCCCCCCCO
REMARK SMILES IDX 16 1 15 2 14 3 13 4 12 5 11 6 10 7 9 8 8 9 7 10 6 11 5 12
REMARK SMILES IDX 4 13 3 14 2 15 1 16 17 17 18 18 19 19 20 20 21 21 22 22
REMARK SMILES IDX 23 23 24 24 25 25 26 26 27 27 28 28 29 29 30 30
REMARK H PARENT 30 31
REMARK Flexibility Score: inf
ROOT
ATOM      1  C   UNL     1     -27.255 -20.108  20.114  1.00  0.00     0.000 C 
ENDROOT
BRANCH   1   2
ATOM      2  C   UNL     1     -25.866 -19.682  20.622  1.00  0.00     0.000 C 
BRANCH   2   3
ATOM      3  C   UNL     1     -24.789 -20.754  20.389  1.00  0.00     0.000 C 
BRANCH   3   4
ATOM      4  C   UNL     1     -23.428 -20.385  21.008  1.00  0.00     0.000 C 
BRANCH   4   5
ATOM      5  C   UNL     1     -22.684 -21.524  21.740  1.00  0.00     0.000 C 
BRANCH   5   6
ATOM      6  C   UNL     1     -23.252 -21.926  23.119  1.00  0.00     0.000 C 
BRANCH   6   7
ATOM      7  C   UNL     1     -22.367 -22.902  23.918  1.00  0.00     0.000 C 
BRANCH   7   8
ATOM      8  C   UNL     1     -23.153 -24.064  24.547  1.00  0.00    -0.000 C 
BRANCH   8   9
ATOM      9  C   UNL     1     -22.365 -24.793  25.646  1.00  0.00    -0.000 C 
BRANCH   9  10
ATOM     10  C   UNL     1     -23.187 -25.906  26.315  1.00  0.00    -0.000 C 
BRANCH  10  11
ATOM     11  C   UNL     1     -22.402 -27.221  26.478  1.00  0.00    -0.000 C 
BRANCH  11  12
ATOM     12  C   UNL     1     -23.016 -28.237  27.462  1.00  0.00    -0.000 C 
BRANCH  12  13
ATOM     13  C   UNL     1     -23.661 -29.445  26.759  1.00  0.00    -0.000 C 
BRANCH  13  14
ATOM     14  C   UNL     1     -23.476 -29.401  25.227  1.00  0.00    -0.000 C 
BRANCH  14  15
ATOM     15  C   UNL     1     -22.810 -30.659  24.646  1.00  0.00    -0.003 C 
ATOM     16  C   UNL     1     -23.576 -31.943  24.955  1.00  0.00     0.004 C 
ENDBRANCH  14  15
ENDBRANCH  13  14
ENDBRANCH  12  13
ENDBRANCH  11  12
ENDBRANCH  10  11
ENDBRANCH   9  10
ENDBRANCH   8   9
ENDBRANCH   7   8
ENDBRANCH   6   7
ENDBRANCH   5   6
ENDBRANCH   4   5
ENDBRANCH   3   4
ENDBRANCH   2   3
ENDBRANCH   1   2
BRANCH   1  17
ATOM     17  C   UNL     1     -28.160 -20.800  21.156  1.00  0.00     0.000 C 
BRANCH  17  18
ATOM     18  C   UNL     1     -29.661 -20.475  21.044  1.00  0.00     0.000 C 
BRANCH  18  19
ATOM     19  C   UNL     1     -30.322 -20.234  22.411  1.00  0.00     0.000 C 
BRANCH  19  20
ATOM     20  C   UNL     1     -30.382 -21.509  23.268  1.00  0.00     0.000 C 
BRANCH  20  21
ATOM     21  C   UNL     1     -31.390 -21.402  24.425  1.00  0.00     0.000 C 
BRANCH  21  22
ATOM     22  C   UNL     1     -31.888 -22.774  24.909  1.00  0.00     0.000 C 
BRANCH  22  23
ATOM     23  C   UNL     1     -33.168 -22.671  25.758  1.00  0.00     0.000 C 
BRANCH  23  24
ATOM     24  C   UNL     1     -32.934 -23.013  27.242  1.00  0.00     0.000 C 
BRANCH  24  25
ATOM     25  C   UNL     1     -33.718 -22.149  28.248  1.00  0.00     0.000 C 
BRANCH  25  26
ATOM     26  C   UNL     1     -33.295 -20.670  28.229  1.00  0.00     0.000 C 
BRANCH  26  27
ATOM     27  C   UNL     1     -32.422 -20.290  29.436  1.00  0.00     0.002 C 
BRANCH  27  28
ATOM     28  C   UNL     1     -32.207 -18.772  29.556  1.00  0.00     0.028 C 
BRANCH  28  29
ATOM     29  C   UNL     1     -32.665 -18.034  28.293  1.00  0.00     0.156 C 
BRANCH  29  30
ATOM     30  O   UNL     1     -31.854 -16.917  28.044  1.00  0.00    -0.396 OA
ATOM     31  H   UNL     1     -32.460 -16.185  27.756  1.00  0.00     0.210 HD
ENDBRANCH  29  30
ENDBRANCH  28  29
ENDBRANCH  27  28
ENDBRANCH  26  27
ENDBRANCH  25  26
ENDBRANCH  24  25
ENDBRANCH  23  24
ENDBRANCH  22  23
ENDBRANCH  21  22
ENDBRANCH  20  21
ENDBRANCH  19  20
ENDBRANCH  18  19
ENDBRANCH  17  18
ENDBRANCH   1  17
TORSDOF 28
ENDMDL
MODEL 5
REMARK VINA RESULT:     4.633      2.785     10.923
REMARK INTER + INTRA:          10.823
REMARK INTER:                  11.574
REMARK INTRA:                  -0.750
REMARK UNBOUND:                -1.258
REMARK SMILES CCCCCCCCCCCCCCCCCCCCCCCCCCCCCO
REMARK SMILES IDX 16 1 15 2 14 3 13 4 12 5 11 6 10 7 9 8 8 9 7 10 6 11 5 12
REMARK SMILES IDX 4 13 3 14 2 15 1 16 17 17 18 18 19 19 20 20 21 21 22 22
REMARK SMILES IDX 23 23 24 24 25 25 26 26 27 27 28 28 29 29 30 30
REMARK H PARENT 30 31
REMARK Flexibility Score: inf
ROOT
ATOM      1  C   UNL     1     -30.156 -21.316  23.081  1.00  0.00     0.000 C 
ENDROOT
BRANCH   1   2
ATOM      2  C   UNL     1     -30.064 -20.151  22.077  1.00  0.00     0.000 C 
BRANCH   2   3
ATOM      3  C   UNL     1     -29.247 -20.506  20.823  1.00  0.00     0.000 C 
BRANCH   3   4
ATOM      4  C   UNL     1     -27.768 -20.802  21.132  1.00  0.00     0.000 C 
BRANCH   4   5
ATOM      5  C   UNL     1     -26.733 -19.902  20.421  1.00  0.00     0.000 C 
BRANCH   5   6
ATOM      6  C   UNL     1     -25.382 -20.567  20.077  1.00  0.00     0.000 C 
BRANCH   6   7
ATOM      7  C   UNL     1     -24.198 -20.105  20.947  1.00  0.00     0.000 C 
BRANCH   7   8
ATOM      8  C   UNL     1     -23.319 -21.263  21.448  1.00  0.00    -0.000 C 
BRANCH   8   9
ATOM      9  C   UNL     1     -23.406 -21.463  22.969  1.00  0.00    -0.000 C 
BRANCH   9  10
ATOM     10  C   UNL     1     -22.447 -22.556  23.470  1.00  0.00    -0.000 C 
BRANCH  10  11
ATOM     11  C   UNL     1     -23.178 -23.807  23.994  1.00  0.00    -0.000 C 
BRANCH  11  12
ATOM     12  C   UNL     1     -22.612 -24.402  25.297  1.00  0.00    -0.000 C 
BRANCH  12  13
ATOM     13  C   UNL     1     -23.333 -25.691  25.736  1.00  0.00    -0.000 C 
BRANCH  13  14
ATOM     14  C   UNL     1     -22.376 -26.899  25.819  1.00  0.00    -0.000 C 
BRANCH  14  15
ATOM     15  C   UNL     1     -22.649 -27.825  27.017  1.00  0.00    -0.003 C 
ATOM     16  C   UNL     1     -23.435 -29.079  26.641  1.00  0.00     0.004 C 
ENDBRANCH  14  15
ENDBRANCH  13  14
ENDBRANCH  12  13
ENDBRANCH  11  12
ENDBRANCH  10  11
ENDBRANCH   9  10
ENDBRANCH   8   9
ENDBRANCH   7   8
ENDBRANCH   6   7
ENDBRANCH   5   6
ENDBRANCH   4   5
ENDBRANCH   3   4
ENDBRANCH   2   3
ENDBRANCH   1   2
BRANCH   1  17
ATOM     17  C   UNL     1     -31.377 -21.284  24.024  1.00  0.00     0.000 C 
BRANCH  17  18
ATOM     18  C   UNL     1     -31.643 -22.586  24.801  1.00  0.00     0.000 C 
BRANCH  18  19
ATOM     19  C   UNL     1     -32.823 -22.468  25.778  1.00  0.00     0.000 C 
BRANCH  19  20
ATOM     20  C   UNL     1     -32.837 -23.597  26.822  1.00  0.00     0.000 C 
BRANCH  20  21
ATOM     21  C   UNL     1     -33.397 -23.144  28.181  1.00  0.00     0.000 C 
BRANCH  21  22
ATOM     22  C   UNL     1     -33.926 -21.701  28.156  1.00  0.00     0.000 C 
BRANCH  22  23
ATOM     23  C   UNL     1     -33.374 -20.849  29.313  1.00  0.00     0.000 C 
BRANCH  23  24
ATOM     24  C   UNL     1     -31.840 -20.921  29.433  1.00  0.00     0.000 C 
BRANCH  24  25
ATOM     25  C   UNL     1     -31.112 -19.563  29.393  1.00  0.00     0.000 C 
BRANCH  25  26
ATOM     26  C   UNL     1     -32.066 -18.366  29.543  1.00  0.00     0.000 C 
BRANCH  26  27
ATOM     27  C   UNL     1     -32.018 -17.418  28.335  1.00  0.00     0.002 C 
BRANCH  27  28
ATOM     28  C   UNL     1     -33.304 -17.466  27.492  1.00  0.00     0.028 C 
BRANCH  28  29
ATOM     29  C   UNL     1     -33.553 -18.867  26.921  1.00  0.00     0.156 C 
BRANCH  29  30
ATOM     30  O   UNL     1     -33.810 -18.807  25.543  1.00  0.00    -0.396 OA
ATOM     31  H   UNL     1     -34.626 -18.251  25.430  1.00  0.00     0.210 HD
ENDBRANCH  29  30
ENDBRANCH  28  29
ENDBRANCH  27  28
ENDBRANCH  26  27
ENDBRANCH  25  26
ENDBRANCH  24  25
ENDBRANCH  23  24
ENDBRANCH  22  23
ENDBRANCH  21  22
ENDBRANCH  20  21
ENDBRANCH  19  20
ENDBRANCH  18  19
ENDBRANCH  17  18
ENDBRANCH   1  17
TORSDOF 28
ENDMDL
MODEL 6
REMARK VINA RESULT:     5.152      4.740     11.563
REMARK INTER + INTRA:          12.176
REMARK INTER:                  13.964
REMARK INTRA:                  -1.788
REMARK UNBOUND:                -1.258
REMARK SMILES CCCCCCCCCCCCCCCCCCCCCCCCCCCCCO
REMARK SMILES IDX 16 1 15 2 14 3 13 4 12 5 11 6 10 7 9 8 8 9 7 10 6 11 5 12
REMARK SMILES IDX 4 13 3 14 2 15 1 16 17 17 18 18 19 19 20 20 21 21 22 22
REMARK SMILES IDX 23 23 24 24 25 25 26 26 27 27 28 28 29 29 30 30
REMARK H PARENT 30 31
REMARK Flexibility Score: inf
ROOT
ATOM      1  C   UNL     1     -31.317 -21.996  29.484  1.00  0.00     0.000 C 
ENDROOT
BRANCH   1   2
ATOM      2  C   UNL     1     -29.778 -21.967  29.498  1.00  0.00     0.000 C 
BRANCH   2   3
ATOM      3  C   UNL     1     -29.153 -22.855  28.409  1.00  0.00     0.000 C 
BRANCH   3   4
ATOM      4  C   UNL     1     -27.917 -23.631  28.901  1.00  0.00     0.000 C 
BRANCH   4   5
ATOM      5  C   UNL     1     -26.841 -23.937  27.836  1.00  0.00     0.000 C 
BRANCH   5   6
ATOM      6  C   UNL     1     -26.245 -25.362  27.866  1.00  0.00     0.000 C 
BRANCH   6   7
ATOM      7  C   UNL     1     -25.235 -25.660  26.742  1.00  0.00     0.000 C 
BRANCH   7   8
ATOM      8  C   UNL     1     -23.780 -25.351  27.130  1.00  0.00    -0.000 C 
BRANCH   8   9
ATOM      9  C   UNL     1     -22.767 -25.825  26.078  1.00  0.00    -0.000 C 
BRANCH   9  10
ATOM     10  C   UNL     1     -23.342 -25.783  24.652  1.00  0.00    -0.000 C 
BRANCH  10  11
ATOM     11  C   UNL     1     -23.195 -27.120  23.902  1.00  0.00    -0.000 C 
BRANCH  11  12
ATOM     12  C   UNL     1     -22.537 -28.258  24.707  1.00  0.00    -0.000 C 
BRANCH  12  13
ATOM     13  C   UNL     1     -23.318 -29.582  24.632  1.00  0.00    -0.000 C 
BRANCH  13  14
ATOM     14  C   UNL     1     -23.604 -30.176  26.027  1.00  0.00    -0.000 C 
BRANCH  14  15
ATOM     15  C   UNL     1     -23.876 -29.118  27.108  1.00  0.00    -0.003 C 
ATOM     16  C   UNL     1     -22.655 -28.816  27.976  1.00  0.00     0.004 C 
ENDBRANCH  14  15
ENDBRANCH  13  14
ENDBRANCH  12  13
ENDBRANCH  11  12
ENDBRANCH  10  11
ENDBRANCH   9  10
ENDBRANCH   8   9
ENDBRANCH   7   8
ENDBRANCH   6   7
ENDBRANCH   5   6
ENDBRANCH   4   5
ENDBRANCH   3   4
ENDBRANCH   2   3
ENDBRANCH   1   2
BRANCH   1  17
ATOM     17  C   UNL     1     -32.008 -20.621  29.612  1.00  0.00     0.000 C 
BRANCH  17  18
ATOM     18  C   UNL     1     -31.120 -19.405  29.294  1.00  0.00     0.000 C 
BRANCH  18  19
ATOM     19  C   UNL     1     -31.511 -18.154  30.097  1.00  0.00     0.000 C 
BRANCH  19  20
ATOM     20  C   UNL     1     -32.358 -17.169  29.273  1.00  0.00     0.000 C 
BRANCH  20  21
ATOM     21  C   UNL     1     -32.392 -17.519  27.776  1.00  0.00     0.000 C 
BRANCH  21  22
ATOM     22  C   UNL     1     -33.781 -17.981  27.304  1.00  0.00     0.000 C 
BRANCH  22  23
ATOM     23  C   UNL     1     -33.705 -19.106  26.257  1.00  0.00     0.000 C 
BRANCH  23  24
ATOM     24  C   UNL     1     -33.623 -20.509  26.887  1.00  0.00     0.000 C 
BRANCH  24  25
ATOM     25  C   UNL     1     -32.734 -21.518  26.135  1.00  0.00     0.000 C 
BRANCH  25  26
ATOM     26  C   UNL     1     -33.252 -22.963  26.231  1.00  0.00     0.000 C 
BRANCH  26  27
ATOM     27  C   UNL     1     -33.685 -23.341  27.656  1.00  0.00     0.002 C 
BRANCH  27  28
ATOM     28  C   UNL     1     -35.061 -22.763  28.030  1.00  0.00     0.028 C 
BRANCH  28  29
ATOM     29  C   UNL     1     -36.200 -23.529  27.348  1.00  0.00     0.156 C 
BRANCH  29  30
ATOM     30  O   UNL     1     -37.429 -22.881  27.548  1.00  0.00    -0.396 OA
ATOM     31  H   UNL     1     -37.727 -23.116  28.466  1.00  0.00     0.210 HD
ENDBRANCH  29  30
ENDBRANCH  28  29
ENDBRANCH  27  28
ENDBRANCH  26  27
ENDBRANCH  25  26
ENDBRANCH  24  25
ENDBRANCH  23  24
ENDBRANCH  22  23
ENDBRANCH  21  22
ENDBRANCH  20  21
ENDBRANCH  19  20
ENDBRANCH  18  19
ENDBRANCH  17  18
ENDBRANCH   1  17
TORSDOF 28
ENDMDL
MODEL 7
REMARK VINA RESULT:     5.188      3.087      6.397
REMARK INTER + INTRA:          12.272
REMARK INTER:                  14.262
REMARK INTRA:                  -1.990
REMARK UNBOUND:                -1.258
REMARK SMILES CCCCCCCCCCCCCCCCCCCCCCCCCCCCCO
REMARK SMILES IDX 16 1 15 2 14 3 13 4 12 5 11 6 10 7 9 8 8 9 7 10 6 11 5 12
REMARK SMILES IDX 4 13 3 14 2 15 1 16 17 17 18 18 19 19 20 20 21 21 22 22
REMARK SMILES IDX 23 23 24 24 25 25 26 26 27 27 28 28 29 29 30 30
REMARK H PARENT 30 31
REMARK Flexibility Score: inf
ROOT
ATOM      1  C   UNL     1     -32.986 -23.183  26.085  1.00  0.00     0.000 C 
ENDROOT
BRANCH   1   2
ATOM      2  C   UNL     1     -34.503 -22.946  25.958  1.00  0.00     0.000 C 
BRANCH   2   3
ATOM      3  C   UNL     1     -35.224 -22.943  27.316  1.00  0.00     0.000 C 
BRANCH   3   4
ATOM      4  C   UNL     1     -34.255 -22.891  28.512  1.00  0.00     0.000 C 
BRANCH   4   5
ATOM      5  C   UNL     1     -33.882 -21.481  29.021  1.00  0.00     0.000 C 
BRANCH   5   6
ATOM      6  C   UNL     1     -34.299 -20.302  28.113  1.00  0.00     0.000 C 
BRANCH   6   7
ATOM      7  C   UNL     1     -33.328 -20.010  26.954  1.00  0.00     0.000 C 
BRANCH   7   8
ATOM      8  C   UNL     1     -33.531 -18.623  26.322  1.00  0.00    -0.000 C 
BRANCH   8   9
ATOM      9  C   UNL     1     -33.655 -17.503  27.365  1.00  0.00    -0.000 C 
BRANCH   9  10
ATOM     10  C   UNL     1     -32.343 -17.267  28.130  1.00  0.00    -0.000 C 
BRANCH  10  11
ATOM     11  C   UNL     1     -32.455 -17.581  29.634  1.00  0.00    -0.000 C 
BRANCH  11  12
ATOM     12  C   UNL     1     -31.340 -18.479  30.204  1.00  0.00    -0.000 C 
BRANCH  12  13
ATOM     13  C   UNL     1     -30.770 -19.466  29.169  1.00  0.00    -0.000 C 
BRANCH  13  14
ATOM     14  C   UNL     1     -30.442 -20.841  29.788  1.00  0.00    -0.000 C 
BRANCH  14  15
ATOM     15  C   UNL     1     -30.942 -22.032  28.953  1.00  0.00    -0.003 C 
ATOM     16  C   UNL     1     -29.819 -22.774  28.231  1.00  0.00     0.004 C 
ENDBRANCH  14  15
ENDBRANCH  13  14
ENDBRANCH  12  13
ENDBRANCH  11  12
ENDBRANCH  10  11
ENDBRANCH   9  10
ENDBRANCH   8   9
ENDBRANCH   7   8
ENDBRANCH   6   7
ENDBRANCH   5   6
ENDBRANCH   4   5
ENDBRANCH   3   4
ENDBRANCH   2   3
ENDBRANCH   1   2
BRANCH   1  17
ATOM     17  C   UNL     1     -32.175 -23.010  24.784  1.00  0.00     0.000 C 
BRANCH  17  18
ATOM     18  C   UNL     1     -31.316 -21.735  24.708  1.00  0.00     0.000 C 
BRANCH  18  19
ATOM     19  C   UNL     1     -30.601 -21.576  23.357  1.00  0.00     0.000 C 
BRANCH  19  20
ATOM     20  C   UNL     1     -30.356 -20.102  22.991  1.00  0.00     0.000 C 
BRANCH  20  21
ATOM     21  C   UNL     1     -30.526 -19.826  21.488  1.00  0.00     0.000 C 
BRANCH  21  22
ATOM     22  C   UNL     1     -29.541 -20.629  20.621  1.00  0.00     0.000 C 
BRANCH  22  23
ATOM     23  C   UNL     1     -28.082 -20.466  21.080  1.00  0.00     0.000 C 
BRANCH  23  24
ATOM     24  C   UNL     1     -27.115 -20.171  19.918  1.00  0.00     0.000 C 
BRANCH  24  25
ATOM     25  C   UNL     1     -25.712 -19.689  20.334  1.00  0.00     0.000 C 
BRANCH  25  26
ATOM     26  C   UNL     1     -24.590 -20.632  19.866  1.00  0.00     0.000 C 
BRANCH  26  27
ATOM     27  C   UNL     1     -23.251 -20.348  20.563  1.00  0.00     0.002 C 
BRANCH  27  28
ATOM     28  C   UNL     1     -22.705 -21.572  21.318  1.00  0.00     0.028 C 
BRANCH  28  29
ATOM     29  C   UNL     1     -23.083 -21.536  22.803  1.00  0.00     0.156 C 
BRANCH  29  30
ATOM     30  O   UNL     1     -22.777 -22.755  23.427  1.00  0.00    -0.396 OA
ATOM     31  H   UNL     1     -23.412 -22.852  24.184  1.00  0.00     0.210 HD
ENDBRANCH  29  30
ENDBRANCH  28  29
ENDBRANCH  27  28
ENDBRANCH  26  27
ENDBRANCH  25  26
ENDBRANCH  24  25
ENDBRANCH  23  24
ENDBRANCH  22  23
ENDBRANCH  21  22
ENDBRANCH  20  21
ENDBRANCH  19  20
ENDBRANCH  18  19
ENDBRANCH  17  18
ENDBRANCH   1  17
TORSDOF 28
ENDMDL
MODEL 8
REMARK VINA RESULT:     5.295      3.883     10.657
REMARK INTER + INTRA:          12.550
REMARK INTER:                  13.593
REMARK INTRA:                  -1.043
REMARK UNBOUND:                -1.258
REMARK SMILES CCCCCCCCCCCCCCCCCCCCCCCCCCCCCO
REMARK SMILES IDX 16 1 15 2 14 3 13 4 12 5 11 6 10 7 9 8 8 9 7 10 6 11 5 12
REMARK SMILES IDX 4 13 3 14 2 15 1 16 17 17 18 18 19 19 20 20 21 21 22 22
REMARK SMILES IDX 23 23 24 24 25 25 26 26 27 27 28 28 29 29 30 30
REMARK H PARENT 30 31
REMARK Flexibility Score: inf
ROOT
ATOM      1  C   UNL     1     -31.380 -22.241  28.835  1.00  0.00     0.000 C 
ENDROOT
BRANCH   1   2
ATOM      2  C   UNL     1     -31.001 -23.035  27.571  1.00  0.00     0.000 C 
BRANCH   2   3
ATOM      3  C   UNL     1     -32.218 -23.662  26.871  1.00  0.00     0.000 C 
BRANCH   3   4
ATOM      4  C   UNL     1     -32.654 -22.886  25.614  1.00  0.00     0.000 C 
BRANCH   4   5
ATOM      5  C   UNL     1     -31.603 -22.774  24.487  1.00  0.00     0.000 C 
BRANCH   5   6
ATOM      6  C   UNL     1     -31.211 -21.340  24.069  1.00  0.00     0.000 C 
BRANCH   6   7
ATOM      7  C   UNL     1     -30.019 -21.258  23.095  1.00  0.00     0.000 C 
BRANCH   7   8
ATOM      8  C   UNL     1     -30.144 -20.119  22.071  1.00  0.00    -0.000 C 
BRANCH   8   9
ATOM      9  C   UNL     1     -29.570 -20.488  20.694  1.00  0.00    -0.000 C 
BRANCH   9  10
ATOM     10  C   UNL     1     -28.076 -20.845  20.761  1.00  0.00    -0.000 C 
BRANCH  10  11
ATOM     11  C   UNL     1     -27.188 -19.875  19.958  1.00  0.00    -0.000 C 
BRANCH  11  12
ATOM     12  C   UNL     1     -25.730 -19.761  20.446  1.00  0.00    -0.000 C 
BRANCH  12  13
ATOM     13  C   UNL     1     -24.825 -20.886  19.914  1.00  0.00    -0.000 C 
BRANCH  13  14
ATOM     14  C   UNL     1     -23.325 -20.545  20.044  1.00  0.00    -0.000 C 
BRANCH  14  15
ATOM     15  C   UNL     1     -22.831 -20.466  21.498  1.00  0.00    -0.003 C 
ATOM     16  C   UNL     1     -22.818 -21.821  22.203  1.00  0.00     0.004 C 
ENDBRANCH  14  15
ENDBRANCH  13  14
ENDBRANCH  12  13
ENDBRANCH  11  12
ENDBRANCH  10  11
ENDBRANCH   9  10
ENDBRANCH   8   9
ENDBRANCH   7   8
ENDBRANCH   6   7
ENDBRANCH   5   6
ENDBRANCH   4   5
ENDBRANCH   3   4
ENDBRANCH   2   3
ENDBRANCH   1   2
BRANCH   1  17
ATOM     17  C   UNL     1     -30.267 -21.343  29.414  1.00  0.00     0.000 C 
BRANCH  17  18
ATOM     18  C   UNL     1     -30.593 -19.839  29.466  1.00  0.00     0.000 C 
BRANCH  18  19
ATOM     19  C   UNL     1     -32.029 -19.556  29.937  1.00  0.00     0.000 C 
BRANCH  19  20
ATOM     20  C   UNL     1     -32.402 -18.068  29.821  1.00  0.00     0.000 C 
BRANCH  20  21
ATOM     21  C   UNL     1     -31.672 -17.359  28.668  1.00  0.00     0.000 C 
BRANCH  21  22
ATOM     22  C   UNL     1     -32.611 -16.980  27.512  1.00  0.00     0.000 C 
BRANCH  22  23
ATOM     23  C   UNL     1     -33.735 -18.011  27.302  1.00  0.00     0.000 C 
BRANCH  23  24
ATOM     24  C   UNL     1     -33.296 -19.213  26.445  1.00  0.00     0.000 C 
BRANCH  24  25
ATOM     25  C   UNL     1     -33.983 -20.549  26.783  1.00  0.00     0.000 C 
BRANCH  25  26
ATOM     26  C   UNL     1     -34.069 -20.814  28.296  1.00  0.00     0.000 C 
BRANCH  26  27
ATOM     27  C   UNL     1     -35.037 -21.956  28.642  1.00  0.00     0.002 C 
BRANCH  27  28
ATOM     28  C   UNL     1     -35.140 -23.004  27.520  1.00  0.00     0.028 C 
BRANCH  28  29
ATOM     29  C   UNL     1     -36.585 -23.179  27.040  1.00  0.00     0.156 C 
BRANCH  29  30
ATOM     30  O   UNL     1     -37.339 -23.906  27.974  1.00  0.00    -0.396 OA
ATOM     31  H   UNL     1     -37.388 -24.838  27.635  1.00  0.00     0.210 HD
ENDBRANCH  29  30
ENDBRANCH  28  29
ENDBRANCH  27  28
ENDBRANCH  26  27
ENDBRANCH  25  26
ENDBRANCH  24  25
ENDBRANCH  23  24
ENDBRANCH  22  23
ENDBRANCH  21  22
ENDBRANCH  20  21
ENDBRANCH  19  20
ENDBRANCH  18  19
ENDBRANCH  17  18
ENDBRANCH   1  17
TORSDOF 28
ENDMDL
MODEL 9
REMARK VINA RESULT:     5.381      4.671     11.478
REMARK INTER + INTRA:          12.775
REMARK INTER:                  13.543
REMARK INTRA:                  -0.768
REMARK UNBOUND:                -1.258
REMARK SMILES CCCCCCCCCCCCCCCCCCCCCCCCCCCCCO
REMARK SMILES IDX 16 1 15 2 14 3 13 4 12 5 11 6 10 7 9 8 8 9 7 10 6 11 5 12
REMARK SMILES IDX 4 13 3 14 2 15 1 16 17 17 18 18 19 19 20 20 21 21 22 22
REMARK SMILES IDX 23 23 24 24 25 25 26 26 27 27 28 28 29 29 30 30
REMARK H PARENT 30 31
REMARK Flexibility Score: inf
ROOT
ATOM      1  C   UNL     1     -30.112 -21.584  29.420  1.00  0.00     0.000 C 
ENDROOT
BRANCH   1   2
ATOM      2  C   UNL     1     -29.557 -22.781  28.625  1.00  0.00     0.000 C 
BRANCH   2   3
ATOM      3  C   UNL     1     -28.116 -23.144  29.020  1.00  0.00     0.000 C 
BRANCH   3   4
ATOM      4  C   UNL     1     -27.616 -24.437  28.349  1.00  0.00     0.000 C 
BRANCH   4   5
ATOM      5  C   UNL     1     -26.206 -24.372  27.720  1.00  0.00     0.000 C 
BRANCH   5   6
ATOM      6  C   UNL     1     -25.599 -25.724  27.282  1.00  0.00     0.000 C 
BRANCH   6   7
ATOM      7  C   UNL     1     -24.251 -25.613  26.545  1.00  0.00     0.000 C 
BRANCH   7   8
ATOM      8  C   UNL     1     -23.040 -25.945  27.432  1.00  0.00    -0.000 C 
BRANCH   8   9
ATOM      9  C   UNL     1     -22.321 -27.233  27.002  1.00  0.00    -0.000 C 
BRANCH   9  10
ATOM     10  C   UNL     1     -22.830 -28.468  27.763  1.00  0.00    -0.000 C 
BRANCH  10  11
ATOM     11  C   UNL     1     -23.993 -29.180  27.048  1.00  0.00    -0.000 C 
BRANCH  11  12
ATOM     12  C   UNL     1     -23.589 -30.371  26.157  1.00  0.00    -0.000 C 
BRANCH  12  13
ATOM     13  C   UNL     1     -23.350 -29.974  24.689  1.00  0.00    -0.000 C 
BRANCH  13  14
ATOM     14  C   UNL     1     -22.717 -28.574  24.554  1.00  0.00    -0.000 C 
BRANCH  14  15
ATOM     15  C   UNL     1     -23.212 -27.783  23.333  1.00  0.00    -0.003 C 
ATOM     16  C   UNL     1     -23.586 -26.339  23.662  1.00  0.00     0.004 C 
ENDBRANCH  14  15
ENDBRANCH  13  14
ENDBRANCH  12  13
ENDBRANCH  11  12
ENDBRANCH  10  11
ENDBRANCH   9  10
ENDBRANCH   8   9
ENDBRANCH   7   8
ENDBRANCH   6   7
ENDBRANCH   5   6
ENDBRANCH   4   5
ENDBRANCH   3   4
ENDBRANCH   2   3
ENDBRANCH   1   2
BRANCH   1  17
ATOM     17  C   UNL     1     -31.642 -21.390  29.347  1.00  0.00     0.000 C 
BRANCH  17  18
ATOM     18  C   UNL     1     -32.144 -19.976  29.689  1.00  0.00     0.000 C 
BRANCH  18  19
ATOM     19  C   UNL     1     -31.011 -18.938  29.748  1.00  0.00     0.000 C 
BRANCH  19  20
ATOM     20  C   UNL     1     -31.156 -17.848  28.673  1.00  0.00     0.000 C 
BRANCH  20  21
ATOM     21  C   UNL     1     -32.618 -17.425  28.448  1.00  0.00     0.000 C 
BRANCH  21  22
ATOM     22  C   UNL     1     -33.197 -17.966  27.130  1.00  0.00     0.000 C 
BRANCH  22  23
ATOM     23  C   UNL     1     -33.860 -19.344  27.297  1.00  0.00     0.000 C 
BRANCH  23  24
ATOM     24  C   UNL     1     -33.706 -20.240  26.054  1.00  0.00     0.000 C 
BRANCH  24  25
ATOM     25  C   UNL     1     -32.615 -21.324  26.154  1.00  0.00     0.000 C 
BRANCH  25  26
ATOM     26  C   UNL     1     -33.178 -22.752  26.057  1.00  0.00     0.000 C 
BRANCH  26  27
ATOM     27  C   UNL     1     -33.259 -23.448  27.425  1.00  0.00     0.002 C 
BRANCH  27  28
ATOM     28  C   UNL     1     -34.653 -23.332  28.066  1.00  0.00     0.028 C 
BRANCH  28  29
ATOM     29  C   UNL     1     -35.755 -23.217  27.007  1.00  0.00     0.156 C 
BRANCH  29  30
ATOM     30  O   UNL     1     -37.022 -23.173  27.606  1.00  0.00    -0.396 OA
ATOM     31  H   UNL     1     -37.033 -22.369  28.189  1.00  0.00     0.210 HD
ENDBRANCH  29  30
ENDBRANCH  28  29
ENDBRANCH  27  28
ENDBRANCH  26  27
ENDBRANCH  25  26
ENDBRANCH  24  25
ENDBRANCH  23  24
ENDBRANCH  22  23
ENDBRANCH  21  22
ENDBRANCH  20  21
ENDBRANCH  19  20
ENDBRANCH  18  19
ENDBRANCH  17  18
ENDBRANCH   1  17
TORSDOF 28
ENDMDL
