MODEL 1
REMARK VINA RESULT:    -7.045      0.000      0.000
REMARK INTER + INTRA:         -11.590
REMARK INTER:                  -9.722
REMARK INTRA:                  -1.868
REMARK UNBOUND:                -1.868
REMARK SMILES CC[C@@H](CC[C@@H](C)[C@@H]1CC[C@@H]2C3=CC[C@@H]4C[C@@H](O)CC[C@@]4(C)[C@H]3CC[C@@]21C)C(C)C
REMARK SMILES IDX 5 1 4 2 3 3 2 4 1 5 28 6 29 7 30 8 6 9 7 10 8 11 9 12 26 13
REMARK SMILES IDX 10 14 11 15 25 16 27 17 12 18 24 19 23 20 13 21 21 22 14 23
REMARK SMILES IDX 15 24 20 25 22 26 16 27 19 28 17 29 18 30
REMARK H PARENT 18 31
REMARK Flexibility Score: inf
ROOT
ATOM      1  C   UNL     1     147.495 138.618 147.281  1.00  0.00     0.004 C 
ENDROOT
BRANCH   1   2
ATOM      2  C   UNL     1     148.264 138.954 148.584  1.00  0.00     0.004 C 
BRANCH   2   3
ATOM      3  C   UNL     1     149.745 139.375 148.315  1.00  0.00    -0.009 C 
BRANCH   3   4
ATOM      4  C   UNL     1     149.994 139.483 146.785  1.00  0.00     0.000 C 
ATOM      5  C   UNL     1     151.224 138.717 146.299  1.00  0.00     0.004 C 
ENDBRANCH   3   4
BRANCH   3   6
ATOM      6  C   UNL     1     150.780 138.445 149.029  1.00  0.00    -0.014 C 
ATOM      7  C   UNL     1     150.178 137.141 149.572  1.00  0.00     0.007 C 
ATOM      8  C   UNL     1     151.543 139.175 150.147  1.00  0.00     0.007 C 
ENDBRANCH   3   6
ENDBRANCH   2   3
ENDBRANCH   1   2
BRANCH   1   9
ATOM      9  C   UNL     1     147.083 137.127 147.123  1.00  0.00    -0.011 C 
ATOM     10  C   UNL     1     148.111 136.390 146.226  1.00  0.00     0.008 C 
BRANCH   9  11
ATOM     11  C   UNL     1     146.857 136.354 148.473  1.00  0.00    -0.002 C 
ATOM     12  C   UNL     1     147.456 134.944 148.410  1.00  0.00     0.005 C 
ATOM     13  C   UNL     1     145.383 136.105 148.955  1.00  0.00    -0.023 C 
ATOM     14  C   UNL     1     146.861 134.190 149.578  1.00  0.00     0.009 C 
ATOM     15  C   UNL     1     145.505 134.845 149.886  1.00  0.00     0.021 C 
ATOM     16  C   UNL     1     144.432 135.825 147.761  1.00  0.00     0.008 C 
ATOM     17  C   UNL     1     144.865 137.311 149.785  1.00  0.00     0.012 C 
ATOM     18  C   UNL     1     144.354 133.828 149.847  1.00  0.00    -0.067 C 
ATOM     19  C   UNL     1     143.076 135.318 148.227  1.00  0.00     0.009 C 
ATOM     20  C   UNL     1     143.200 133.921 148.850  1.00  0.00     0.021 C 
ATOM     21  C   UNL     1     144.431 132.741 150.647  1.00  0.00    -0.027 C 
ATOM     22  C   UNL     1     141.810 133.302 149.336  1.00  0.00    -0.023 C 
ATOM     23  C   UNL     1     143.304 131.747 150.718  1.00  0.00     0.031 C 
ATOM     24  C   UNL     1     142.005 132.547 150.692  1.00  0.00     0.002 C 
ATOM     25  C   UNL     1     140.698 134.366 149.639  1.00  0.00     0.010 C 
ATOM     26  C   UNL     1     141.311 132.372 148.182  1.00  0.00     0.012 C 
ATOM     27  C   UNL     1     140.758 131.752 151.106  1.00  0.00     0.036 C 
ATOM     28  C   UNL     1     139.367 133.734 150.131  1.00  0.00     0.032 C 
ATOM     29  C   UNL     1     139.527 132.691 151.267  1.00  0.00     0.114 C 
BRANCH  29  30
ATOM     30  O   UNL     1     139.534 133.326 152.525  1.00  0.00    -0.393 OA
ATOM     31  H   UNL     1     138.594 133.428 152.809  1.00  0.00     0.210 HD
ENDBRANCH  29  30
ENDBRANCH   9  11
ENDBRANCH   1   9
TORSDOF 7
ENDMDL
MODEL 2
REMARK VINA RESULT:    -6.668      3.031      9.794
REMARK INTER + INTRA:         -11.070
REMARK INTER:                  -9.134
REMARK INTRA:                  -1.936
REMARK UNBOUND:                -1.868
REMARK SMILES CC[C@@H](CC[C@@H](C)[C@@H]1CC[C@@H]2C3=CC[C@@H]4C[C@@H](O)CC[C@@]4(C)[C@H]3CC[C@@]21C)C(C)C
REMARK SMILES IDX 5 1 4 2 3 3 2 4 1 5 28 6 29 7 30 8 6 9 7 10 8 11 9 12 26 13
REMARK SMILES IDX 10 14 11 15 25 16 27 17 12 18 24 19 23 20 13 21 21 22 14 23
REMARK SMILES IDX 15 24 20 25 22 26 16 27 19 28 17 29 18 30
REMARK H PARENT 18 31
REMARK Flexibility Score: inf
ROOT
ATOM      1  C   UNL     1     137.719 132.311 148.748  1.00  0.00     0.004 C 
ENDROOT
BRANCH   1   2
ATOM      2  C   UNL     1     138.114 130.857 148.387  1.00  0.00     0.004 C 
BRANCH   2   3
ATOM      3  C   UNL     1     137.408 129.800 149.296  1.00  0.00    -0.009 C 
BRANCH   3   4
ATOM      4  C   UNL     1     135.898 130.144 149.432  1.00  0.00     0.000 C 
ATOM      5  C   UNL     1     134.978 129.249 148.603  1.00  0.00     0.004 C 
ENDBRANCH   3   4
BRANCH   3   6
ATOM      6  C   UNL     1     138.111 129.622 150.681  1.00  0.00    -0.014 C 
ATOM      7  C   UNL     1     139.489 128.949 150.600  1.00  0.00     0.007 C 
ATOM      8  C   UNL     1     137.224 128.878 151.694  1.00  0.00     0.007 C 
ENDBRANCH   3   6
ENDBRANCH   2   3
ENDBRANCH   1   2
BRANCH   1   9
ATOM      9  C   UNL     1     138.783 133.102 149.563  1.00  0.00    -0.011 C 
ATOM     10  C   UNL     1     138.257 133.364 150.997  1.00  0.00     0.008 C 
BRANCH   9  11
ATOM     11  C   UNL     1     140.212 132.449 149.597  1.00  0.00    -0.002 C 
ATOM     12  C   UNL     1     140.792 132.460 151.016  1.00  0.00     0.005 C 
ATOM     13  C   UNL     1     141.351 133.095 148.731  1.00  0.00    -0.023 C 
ATOM     14  C   UNL     1     142.268 132.171 150.863  1.00  0.00     0.009 C 
ATOM     15  C   UNL     1     142.670 132.647 149.457  1.00  0.00     0.021 C 
ATOM     16  C   UNL     1     141.233 134.643 148.695  1.00  0.00     0.008 C 
ATOM     17  C   UNL     1     141.337 132.522 147.287  1.00  0.00     0.012 C 
ATOM     18  C   UNL     1     143.826 133.659 149.503  1.00  0.00    -0.067 C 
ATOM     19  C   UNL     1     142.471 135.290 148.095  1.00  0.00     0.009 C 
ATOM     20  C   UNL     1     143.686 135.099 149.013  1.00  0.00     0.021 C 
ATOM     21  C   UNL     1     144.975 133.293 150.114  1.00  0.00    -0.027 C 
ATOM     22  C   UNL     1     145.023 135.781 148.467  1.00  0.00    -0.023 C 
ATOM     23  C   UNL     1     146.173 134.203 150.125  1.00  0.00     0.031 C 
ATOM     24  C   UNL     1     146.250 134.851 148.747  1.00  0.00     0.002 C 
ATOM     25  C   UNL     1     145.050 136.004 146.915  1.00  0.00     0.010 C 
ATOM     26  C   UNL     1     145.133 137.170 149.175  1.00  0.00     0.012 C 
ATOM     27  C   UNL     1     147.589 135.538 148.438  1.00  0.00     0.036 C 
ATOM     28  C   UNL     1     146.372 136.648 146.413  1.00  0.00     0.032 C 
ATOM     29  C   UNL     1     147.662 135.972 146.946  1.00  0.00     0.114 C 
BRANCH  29  30
ATOM     30  O   UNL     1     148.032 134.892 146.120  1.00  0.00    -0.393 OA
ATOM     31  H   UNL     1     148.929 135.091 145.758  1.00  0.00     0.210 HD
ENDBRANCH  29  30
ENDBRANCH   9  11
ENDBRANCH   1   9
TORSDOF 7
ENDMDL
MODEL 3
REMARK VINA RESULT:    -6.565      3.300      8.938
REMARK INTER + INTRA:         -10.928
REMARK INTER:                  -9.488
REMARK INTRA:                  -1.440
REMARK UNBOUND:                -1.868
REMARK SMILES CC[C@@H](CC[C@@H](C)[C@@H]1CC[C@@H]2C3=CC[C@@H]4C[C@@H](O)CC[C@@]4(C)[C@H]3CC[C@@]21C)C(C)C
REMARK SMILES IDX 5 1 4 2 3 3 2 4 1 5 28 6 29 7 30 8 6 9 7 10 8 11 9 12 26 13
REMARK SMILES IDX 10 14 11 15 25 16 27 17 12 18 24 19 23 20 13 21 21 22 14 23
REMARK SMILES IDX 15 24 20 25 22 26 16 27 19 28 17 29 18 30
REMARK H PARENT 18 31
REMARK Flexibility Score: inf
ROOT
ATOM      1  C   UNL     1     138.478 132.514 148.264  1.00  0.00     0.004 C 
ENDROOT
BRANCH   1   2
ATOM      2  C   UNL     1     137.553 133.471 147.469  1.00  0.00     0.004 C 
BRANCH   2   3
ATOM      3  C   UNL     1     137.964 133.591 145.967  1.00  0.00    -0.009 C 
BRANCH   3   4
ATOM      4  C   UNL     1     139.281 134.408 145.841  1.00  0.00     0.000 C 
ATOM      5  C   UNL     1     140.126 134.043 144.621  1.00  0.00     0.004 C 
ENDBRANCH   3   4
BRANCH   3   6
ATOM      6  C   UNL     1     136.818 134.156 145.066  1.00  0.00    -0.014 C 
ATOM      7  C   UNL     1     136.755 133.526 143.666  1.00  0.00     0.007 C 
ATOM      8  C   UNL     1     136.872 135.689 144.948  1.00  0.00     0.007 C 
ENDBRANCH   3   6
ENDBRANCH   2   3
ENDBRANCH   1   2
BRANCH   1   9
ATOM      9  C   UNL     1     139.417 133.206 149.293  1.00  0.00    -0.011 C 
ATOM     10  C   UNL     1     138.713 133.293 150.671  1.00  0.00     0.008 C 
BRANCH   9  11
ATOM     11  C   UNL     1     140.844 132.559 149.429  1.00  0.00    -0.002 C 
ATOM     12  C   UNL     1     141.353 132.642 150.872  1.00  0.00     0.005 C 
ATOM     13  C   UNL     1     142.023 133.164 148.588  1.00  0.00    -0.023 C 
ATOM     14  C   UNL     1     142.836 132.349 150.805  1.00  0.00     0.009 C 
ATOM     15  C   UNL     1     143.305 132.756 149.398  1.00  0.00     0.021 C 
ATOM     16  C   UNL     1     141.907 134.708 148.470  1.00  0.00     0.008 C 
ATOM     17  C   UNL     1     142.080 132.520 147.176  1.00  0.00     0.012 C 
ATOM     18  C   UNL     1     144.458 133.771 149.450  1.00  0.00    -0.067 C 
ATOM     19  C   UNL     1     143.173 135.327 147.899  1.00  0.00     0.009 C 
ATOM     20  C   UNL     1     144.341 135.185 148.883  1.00  0.00     0.021 C 
ATOM     21  C   UNL     1     145.576 133.439 150.133  1.00  0.00    -0.027 C 
ATOM     22  C   UNL     1     145.704 135.842 148.370  1.00  0.00    -0.023 C 
ATOM     23  C   UNL     1     146.772 134.351 150.158  1.00  0.00     0.031 C 
ATOM     24  C   UNL     1     146.916 134.931 148.754  1.00  0.00     0.002 C 
ATOM     25  C   UNL     1     145.806 135.989 146.812  1.00  0.00     0.010 C 
ATOM     26  C   UNL     1     145.779 137.266 149.012  1.00  0.00     0.012 C 
ATOM     27  C   UNL     1     148.268 135.605 148.477  1.00  0.00     0.036 C 
ATOM     28  C   UNL     1     147.150 136.610 146.343  1.00  0.00     0.032 C 
ATOM     29  C   UNL     1     148.413 135.965 146.970  1.00  0.00     0.114 C 
BRANCH  29  30
ATOM     30  O   UNL     1     148.823 134.846 146.218  1.00  0.00    -0.393 OA
ATOM     31  H   UNL     1     149.287 134.230 146.835  1.00  0.00     0.210 HD
ENDBRANCH  29  30
ENDBRANCH   9  11
ENDBRANCH   1   9
TORSDOF 7
ENDMDL
MODEL 4
REMARK VINA RESULT:    -6.389      2.996      9.249
REMARK INTER + INTRA:         -10.685
REMARK INTER:                  -9.169
REMARK INTRA:                  -1.516
REMARK UNBOUND:                -1.868
REMARK SMILES CC[C@@H](CC[C@@H](C)[C@@H]1CC[C@@H]2C3=CC[C@@H]4C[C@@H](O)CC[C@@]4(C)[C@H]3CC[C@@]21C)C(C)C
REMARK SMILES IDX 5 1 4 2 3 3 2 4 1 5 28 6 29 7 30 8 6 9 7 10 8 11 9 12 26 13
REMARK SMILES IDX 10 14 11 15 25 16 27 17 12 18 24 19 23 20 13 21 21 22 14 23
REMARK SMILES IDX 15 24 20 25 22 26 16 27 19 28 17 29 18 30
REMARK H PARENT 18 31
REMARK Flexibility Score: inf
ROOT
ATOM      1  C   UNL     1     138.462 131.325 150.609  1.00  0.00     0.004 C 
ENDROOT
BRANCH   1   2
ATOM      2  C   UNL     1     137.427 131.377 149.456  1.00  0.00     0.004 C 
BRANCH   2   3
ATOM      3  C   UNL     1     138.047 131.893 148.118  1.00  0.00    -0.009 C 
BRANCH   3   4
ATOM      4  C   UNL     1     137.511 133.316 147.799  1.00  0.00     0.000 C 
ATOM      5  C   UNL     1     137.501 133.659 146.310  1.00  0.00     0.004 C 
ENDBRANCH   3   4
BRANCH   3   6
ATOM      6  C   UNL     1     137.845 130.895 146.930  1.00  0.00    -0.014 C 
ATOM      7  C   UNL     1     136.764 129.834 147.184  1.00  0.00     0.007 C 
ATOM      8  C   UNL     1     139.160 130.213 146.513  1.00  0.00     0.007 C 
ENDBRANCH   3   6
ENDBRANCH   2   3
ENDBRANCH   1   2
BRANCH   1   9
ATOM      9  C   UNL     1     139.549 132.438 150.572  1.00  0.00    -0.011 C 
ATOM     10  C   UNL     1     139.359 133.397 151.776  1.00  0.00     0.008 C 
BRANCH   9  11
ATOM     11  C   UNL     1     141.030 131.917 150.495  1.00  0.00    -0.002 C 
ATOM     12  C   UNL     1     141.747 132.089 151.839  1.00  0.00     0.005 C 
ATOM     13  C   UNL     1     142.008 132.592 149.469  1.00  0.00    -0.023 C 
ATOM     14  C   UNL     1     143.221 131.919 151.546  1.00  0.00     0.009 C 
ATOM     15  C   UNL     1     143.430 132.318 150.076  1.00  0.00     0.021 C 
ATOM     16  C   UNL     1     141.740 134.116 149.342  1.00  0.00     0.008 C 
ATOM     17  C   UNL     1     141.901 131.909 148.077  1.00  0.00     0.012 C 
ATOM     18  C   UNL     1     144.484 133.427 149.928  1.00  0.00    -0.067 C 
ATOM     19  C   UNL     1     142.844 134.820 148.568  1.00  0.00     0.009 C 
ATOM     20  C   UNL     1     144.158 134.808 149.359  1.00  0.00     0.021 C 
ATOM     21  C   UNL     1     145.719 133.211 150.433  1.00  0.00    -0.027 C 
ATOM     22  C   UNL     1     145.362 135.559 148.627  1.00  0.00    -0.023 C 
ATOM     23  C   UNL     1     146.820 134.220 150.253  1.00  0.00     0.031 C 
ATOM     24  C   UNL     1     146.694 134.765 148.834  1.00  0.00     0.002 C 
ATOM     25  C   UNL     1     145.209 135.664 147.069  1.00  0.00     0.010 C 
ATOM     26  C   UNL     1     145.411 137.004 149.223  1.00  0.00     0.012 C 
ATOM     27  C   UNL     1     147.923 135.540 148.336  1.00  0.00     0.036 C 
ATOM     28  C   UNL     1     146.406 136.380 146.384  1.00  0.00     0.032 C 
ATOM     29  C   UNL     1     147.802 135.863 146.818  1.00  0.00     0.114 C 
BRANCH  29  30
ATOM     30  O   UNL     1     148.186 134.758 146.032  1.00  0.00    -0.393 OA
ATOM     31  H   UNL     1     148.880 134.266 146.534  1.00  0.00     0.210 HD
ENDBRANCH  29  30
ENDBRANCH   9  11
ENDBRANCH   1   9
TORSDOF 7
ENDMDL
MODEL 5
REMARK VINA RESULT:    -6.346      2.720      9.374
REMARK INTER + INTRA:         -10.626
REMARK INTER:                  -8.607
REMARK INTRA:                  -2.019
REMARK UNBOUND:                -1.868
REMARK SMILES CC[C@@H](CC[C@@H](C)[C@@H]1CC[C@@H]2C3=CC[C@@H]4C[C@@H](O)CC[C@@]4(C)[C@H]3CC[C@@]21C)C(C)C
REMARK SMILES IDX 5 1 4 2 3 3 2 4 1 5 28 6 29 7 30 8 6 9 7 10 8 11 9 12 26 13
REMARK SMILES IDX 10 14 11 15 25 16 27 17 12 18 24 19 23 20 13 21 21 22 14 23
REMARK SMILES IDX 15 24 20 25 22 26 16 27 19 28 17 29 18 30
REMARK H PARENT 18 31
REMARK Flexibility Score: inf
ROOT
ATOM      1  C   UNL     1     139.617 131.030 147.928  1.00  0.00     0.004 C 
ENDROOT
BRANCH   1   2
ATOM      2  C   UNL     1     139.524 130.887 149.469  1.00  0.00     0.004 C 
BRANCH   2   3
ATOM      3  C   UNL     1     138.055 130.985 149.992  1.00  0.00    -0.009 C 
BRANCH   3   4
ATOM      4  C   UNL     1     137.063 130.591 148.862  1.00  0.00     0.000 C 
ATOM      5  C   UNL     1     135.947 129.649 149.313  1.00  0.00     0.004 C 
ENDBRANCH   3   4
BRANCH   3   6
ATOM      6  C   UNL     1     137.726 132.378 150.622  1.00  0.00    -0.014 C 
ATOM      7  C   UNL     1     137.198 133.410 149.614  1.00  0.00     0.007 C 
ATOM      8  C   UNL     1     138.919 132.964 151.395  1.00  0.00     0.007 C 
ENDBRANCH   3   6
ENDBRANCH   2   3
ENDBRANCH   1   2
BRANCH   1   9
ATOM      9  C   UNL     1     140.486 132.219 147.427  1.00  0.00    -0.011 C 
ATOM     10  C   UNL     1     139.642 133.131 146.500  1.00  0.00     0.008 C 
BRANCH   9  11
ATOM     11  C   UNL     1     141.181 133.057 148.560  1.00  0.00    -0.002 C 
ATOM     12  C   UNL     1     140.622 134.484 148.616  1.00  0.00     0.005 C 
ATOM     13  C   UNL     1     142.735 133.275 148.484  1.00  0.00    -0.023 C 
ATOM     14  C   UNL     1     141.600 135.279 149.452  1.00  0.00     0.009 C 
ATOM     15  C   UNL     1     142.966 134.589 149.314  1.00  0.00     0.021 C 
ATOM     16  C   UNL     1     143.215 133.450 147.018  1.00  0.00     0.008 C 
ATOM     17  C   UNL     1     143.489 132.098 149.160  1.00  0.00     0.012 C 
ATOM     18  C   UNL     1     144.049 135.557 148.810  1.00  0.00    -0.067 C 
ATOM     19  C   UNL     1     144.657 133.929 146.951  1.00  0.00     0.009 C 
ATOM     20  C   UNL     1     144.781 135.362 147.484  1.00  0.00     0.021 C 
ATOM     21  C   UNL     1     144.275 136.689 149.513  1.00  0.00    -0.027 C 
ATOM     22  C   UNL     1     146.264 135.952 147.415  1.00  0.00    -0.023 C 
ATOM     23  C   UNL     1     145.373 137.640 149.123  1.00  0.00     0.031 C 
ATOM     24  C   UNL     1     146.567 136.790 148.701  1.00  0.00     0.002 C 
ATOM     25  C   UNL     1     147.394 134.865 147.384  1.00  0.00     0.010 C 
ATOM     26  C   UNL     1     146.345 136.795 146.101  1.00  0.00     0.012 C 
ATOM     27  C   UNL     1     147.894 137.557 148.604  1.00  0.00     0.036 C 
ATOM     28  C   UNL     1     148.824 135.470 147.341  1.00  0.00     0.032 C 
ATOM     29  C   UNL     1     149.087 136.581 148.390  1.00  0.00     0.114 C 
BRANCH  29  30
ATOM     30  O   UNL     1     149.508 136.018 149.611  1.00  0.00    -0.393 OA
ATOM     31  H   UNL     1     149.501 135.037 149.502  1.00  0.00     0.210 HD
ENDBRANCH  29  30
ENDBRANCH   9  11
ENDBRANCH   1   9
TORSDOF 7
ENDMDL
MODEL 6
REMARK VINA RESULT:    -6.279      1.663      2.739
REMARK INTER + INTRA:         -10.533
REMARK INTER:                  -8.850
REMARK INTRA:                  -1.683
REMARK UNBOUND:                -1.868
REMARK SMILES CC[C@@H](CC[C@@H](C)[C@@H]1CC[C@@H]2C3=CC[C@@H]4C[C@@H](O)CC[C@@]4(C)[C@H]3CC[C@@]21C)C(C)C
REMARK SMILES IDX 5 1 4 2 3 3 2 4 1 5 28 6 29 7 30 8 6 9 7 10 8 11 9 12 26 13
REMARK SMILES IDX 10 14 11 15 25 16 27 17 12 18 24 19 23 20 13 21 21 22 14 23
REMARK SMILES IDX 15 24 20 25 22 26 16 27 19 28 17 29 18 30
REMARK H PARENT 18 31
REMARK Flexibility Score: inf
ROOT
ATOM      1  C   UNL     1     148.918 138.184 147.145  1.00  0.00     0.004 C 
ENDROOT
BRANCH   1   2
ATOM      2  C   UNL     1     148.230 139.323 146.349  1.00  0.00     0.004 C 
BRANCH   2   3
ATOM      3  C   UNL     1     147.781 138.870 144.923  1.00  0.00    -0.009 C 
BRANCH   3   4
ATOM      4  C   UNL     1     148.788 139.391 143.860  1.00  0.00     0.000 C 
ATOM      5  C   UNL     1     150.110 138.625 143.826  1.00  0.00     0.004 C 
ENDBRANCH   3   4
BRANCH   3   6
ATOM      6  C   UNL     1     146.304 139.265 144.596  1.00  0.00    -0.014 C 
ATOM      7  C   UNL     1     145.264 138.609 145.517  1.00  0.00     0.007 C 
ATOM      8  C   UNL     1     145.942 139.000 143.125  1.00  0.00     0.007 C 
ENDBRANCH   3   6
ENDBRANCH   2   3
ENDBRANCH   1   2
BRANCH   1   9
ATOM      9  C   UNL     1     148.203 136.805 147.077  1.00  0.00    -0.011 C 
ATOM     10  C   UNL     1     149.125 135.769 146.383  1.00  0.00     0.008 C 
BRANCH   9  11
ATOM     11  C   UNL     1     147.681 136.259 148.456  1.00  0.00    -0.002 C 
ATOM     12  C   UNL     1     148.266 134.875 148.760  1.00  0.00     0.005 C 
ATOM     13  C   UNL     1     146.136 136.053 148.643  1.00  0.00    -0.023 C 
ATOM     14  C   UNL     1     147.424 134.307 149.880  1.00  0.00     0.009 C 
ATOM     15  C   UNL     1     146.040 134.968 149.775  1.00  0.00     0.021 C 
ATOM     16  C   UNL     1     145.464 135.555 147.335  1.00  0.00     0.008 C 
ATOM     17  C   UNL     1     145.461 137.365 149.128  1.00  0.00     0.012 C 
ATOM     18  C   UNL     1     144.915 133.928 149.658  1.00  0.00    -0.067 C 
ATOM     19  C   UNL     1     144.034 135.096 147.575  1.00  0.00     0.009 C 
ATOM     20  C   UNL     1     144.007 133.824 148.433  1.00  0.00     0.021 C 
ATOM     21  C   UNL     1     144.805 132.990 150.625  1.00  0.00    -0.027 C 
ATOM     22  C   UNL     1     142.538 133.257 148.704  1.00  0.00    -0.023 C 
ATOM     23  C   UNL     1     143.680 131.991 150.615  1.00  0.00     0.031 C 
ATOM     24  C   UNL     1     142.426 132.741 150.176  1.00  0.00     0.002 C 
ATOM     25  C   UNL     1     141.397 134.326 148.578  1.00  0.00     0.010 C 
ATOM     26  C   UNL     1     142.293 132.137 147.641  1.00  0.00     0.012 C 
ATOM     27  C   UNL     1     141.110 131.993 150.437  1.00  0.00     0.036 C 
ATOM     28  C   UNL     1     139.984 133.749 148.868  1.00  0.00     0.032 C 
ATOM     29  C   UNL     1     139.883 132.912 150.169  1.00  0.00     0.114 C 
BRANCH  29  30
ATOM     30  O   UNL     1     139.623 133.746 151.275  1.00  0.00    -0.393 OA
ATOM     31  H   UNL     1     138.864 133.351 151.770  1.00  0.00     0.210 HD
ENDBRANCH  29  30
ENDBRANCH   9  11
ENDBRANCH   1   9
TORSDOF 7
ENDMDL
MODEL 7
REMARK VINA RESULT:    -6.184      2.765      8.931
REMARK INTER + INTRA:         -10.402
REMARK INTER:                  -8.664
REMARK INTRA:                  -1.739
REMARK UNBOUND:                -1.868
REMARK SMILES CC[C@@H](CC[C@@H](C)[C@@H]1CC[C@@H]2C3=CC[C@@H]4C[C@@H](O)CC[C@@]4(C)[C@H]3CC[C@@]21C)C(C)C
REMARK SMILES IDX 5 1 4 2 3 3 2 4 1 5 28 6 29 7 30 8 6 9 7 10 8 11 9 12 26 13
REMARK SMILES IDX 10 14 11 15 25 16 27 17 12 18 24 19 23 20 13 21 21 22 14 23
REMARK SMILES IDX 15 24 20 25 22 26 16 27 19 28 17 29 18 30
REMARK H PARENT 18 31
REMARK Flexibility Score: inf
ROOT
ATOM      1  C   UNL     1     139.984 131.023 149.478  1.00  0.00     0.004 C 
ENDROOT
BRANCH   1   2
ATOM      2  C   UNL     1     138.781 131.323 148.547  1.00  0.00     0.004 C 
BRANCH   2   3
ATOM      3  C   UNL     1     138.607 132.850 148.267  1.00  0.00    -0.009 C 
BRANCH   3   4
ATOM      4  C   UNL     1     137.249 133.343 148.839  1.00  0.00     0.000 C 
ATOM      5  C   UNL     1     137.012 132.958 150.299  1.00  0.00     0.004 C 
ENDBRANCH   3   4
BRANCH   3   6
ATOM      6  C   UNL     1     138.792 133.216 146.758  1.00  0.00    -0.014 C 
ATOM      7  C   UNL     1     139.953 134.185 146.488  1.00  0.00     0.007 C 
ATOM      8  C   UNL     1     137.498 133.761 146.129  1.00  0.00     0.007 C 
ENDBRANCH   3   6
ENDBRANCH   2   3
ENDBRANCH   1   2
BRANCH   1   9
ATOM      9  C   UNL     1     140.824 132.264 149.893  1.00  0.00    -0.011 C 
ATOM     10  C   UNL     1     140.486 132.662 151.353  1.00  0.00     0.008 C 
BRANCH   9  11
ATOM     11  C   UNL     1     142.376 132.112 149.696  1.00  0.00    -0.002 C 
ATOM     12  C   UNL     1     143.112 132.154 151.040  1.00  0.00     0.005 C 
ATOM     13  C   UNL     1     143.129 133.184 148.831  1.00  0.00    -0.023 C 
ATOM     14  C   UNL     1     144.569 132.379 150.707  1.00  0.00     0.009 C 
ATOM     15  C   UNL     1     144.608 133.112 149.356  1.00  0.00     0.021 C 
ATOM     16  C   UNL     1     142.534 134.603 149.037  1.00  0.00     0.008 C 
ATOM     17  C   UNL     1     143.096 132.800 147.327  1.00  0.00     0.012 C 
ATOM     18  C   UNL     1     145.390 134.432 149.442  1.00  0.00    -0.067 C 
ATOM     19  C   UNL     1     143.418 135.679 148.425  1.00  0.00     0.009 C 
ATOM     20  C   UNL     1     144.745 135.794 149.187  1.00  0.00     0.021 C 
ATOM     21  C   UNL     1     146.668 134.394 149.881  1.00  0.00    -0.027 C 
ATOM     22  C   UNL     1     145.718 136.929 148.624  1.00  0.00    -0.023 C 
ATOM     23  C   UNL     1     147.515 135.637 149.914  1.00  0.00     0.031 C 
ATOM     24  C   UNL     1     147.199 136.423 148.646  1.00  0.00     0.002 C 
ATOM     25  C   UNL     1     145.462 137.319 147.127  1.00  0.00     0.010 C 
ATOM     26  C   UNL     1     145.489 138.191 149.517  1.00  0.00     0.012 C 
ATOM     27  C   UNL     1     148.204 137.537 148.318  1.00  0.00     0.036 C 
ATOM     28  C   UNL     1     146.439 138.408 146.604  1.00  0.00     0.032 C 
ATOM     29  C   UNL     1     147.935 138.134 146.906  1.00  0.00     0.114 C 
BRANCH  29  30
ATOM     30  O   UNL     1     148.504 137.330 145.898  1.00  0.00    -0.393 OA
ATOM     31  H   UNL     1     148.735 136.462 146.309  1.00  0.00     0.210 HD
ENDBRANCH  29  30
ENDBRANCH   9  11
ENDBRANCH   1   9
TORSDOF 7
ENDMDL
MODEL 8
REMARK VINA RESULT:    -6.013      2.263      3.956
REMARK INTER + INTRA:         -10.166
REMARK INTER:                  -9.181
REMARK INTRA:                  -0.985
REMARK UNBOUND:                -1.868
REMARK SMILES CC[C@@H](CC[C@@H](C)[C@@H]1CC[C@@H]2C3=CC[C@@H]4C[C@@H](O)CC[C@@]4(C)[C@H]3CC[C@@]21C)C(C)C
REMARK SMILES IDX 5 1 4 2 3 3 2 4 1 5 28 6 29 7 30 8 6 9 7 10 8 11 9 12 26 13
REMARK SMILES IDX 10 14 11 15 25 16 27 17 12 18 24 19 23 20 13 21 21 22 14 23
REMARK SMILES IDX 15 24 20 25 22 26 16 27 19 28 17 29 18 30
REMARK H PARENT 18 31
REMARK Flexibility Score: inf
ROOT
ATOM      1  C   UNL     1     146.158 138.484 146.361  1.00  0.00     0.004 C 
ENDROOT
BRANCH   1   2
ATOM      2  C   UNL     1     145.697 138.680 144.894  1.00  0.00     0.004 C 
BRANCH   2   3
ATOM      3  C   UNL     1     144.159 138.925 144.778  1.00  0.00    -0.009 C 
BRANCH   3   4
ATOM      4  C   UNL     1     143.463 137.663 144.196  1.00  0.00     0.000 C 
ATOM      5  C   UNL     1     142.144 137.307 144.881  1.00  0.00     0.004 C 
ENDBRANCH   3   4
BRANCH   3   6
ATOM      6  C   UNL     1     143.809 140.225 143.981  1.00  0.00    -0.014 C 
ATOM      7  C   UNL     1     144.724 140.482 142.774  1.00  0.00     0.007 C 
ATOM      8  C   UNL     1     143.772 141.469 144.884  1.00  0.00     0.007 C 
ENDBRANCH   3   6
ENDBRANCH   2   3
ENDBRANCH   1   2
BRANCH   1   9
ATOM      9  C   UNL     1     147.116 137.282 146.598  1.00  0.00    -0.011 C 
ATOM     10  C   UNL     1     148.582 137.720 146.350  1.00  0.00     0.008 C 
BRANCH   9  11
ATOM     11  C   UNL     1     146.967 136.581 147.998  1.00  0.00    -0.002 C 
ATOM     12  C   UNL     1     147.616 135.192 147.992  1.00  0.00     0.005 C 
ATOM     13  C   UNL     1     145.522 136.308 148.549  1.00  0.00    -0.023 C 
ATOM     14  C   UNL     1     147.092 134.486 149.222  1.00  0.00     0.009 C 
ATOM     15  C   UNL     1     145.724 135.110 149.544  1.00  0.00     0.021 C 
ATOM     16  C   UNL     1     144.540 135.926 147.409  1.00  0.00     0.008 C 
ATOM     17  C   UNL     1     144.989 137.542 149.328  1.00  0.00     0.012 C 
ATOM     18  C   UNL     1     144.611 134.052 149.606  1.00  0.00    -0.067 C 
ATOM     19  C   UNL     1     143.221 135.400 147.954  1.00  0.00     0.009 C 
ATOM     20  C   UNL     1     143.420 134.047 148.650  1.00  0.00     0.021 C 
ATOM     21  C   UNL     1     144.757 133.017 150.463  1.00  0.00    -0.027 C 
ATOM     22  C   UNL     1     142.072 133.409 149.222  1.00  0.00    -0.023 C 
ATOM     23  C   UNL     1     143.671 131.990 150.633  1.00  0.00     0.031 C 
ATOM     24  C   UNL     1     142.343 132.741 150.610  1.00  0.00     0.002 C 
ATOM     25  C   UNL     1     140.932 134.449 149.507  1.00  0.00     0.010 C 
ATOM     26  C   UNL     1     141.567 132.397 148.143  1.00  0.00     0.012 C 
ATOM     27  C   UNL     1     141.141 131.929 151.116  1.00  0.00     0.036 C 
ATOM     28  C   UNL     1     139.644 133.801 150.083  1.00  0.00     0.032 C 
ATOM     29  C   UNL     1     139.883 132.832 151.270  1.00  0.00     0.114 C 
BRANCH  29  30
ATOM     30  O   UNL     1     139.911 133.539 152.488  1.00  0.00    -0.393 OA
ATOM     31  H   UNL     1     138.980 133.781 152.710  1.00  0.00     0.210 HD
ENDBRANCH  29  30
ENDBRANCH   9  11
ENDBRANCH   1   9
TORSDOF 7
ENDMDL
MODEL 9
REMARK VINA RESULT:    -5.964      2.860      9.314
REMARK INTER + INTRA:         -10.099
REMARK INTER:                  -8.755
REMARK INTRA:                  -1.344
REMARK UNBOUND:                -1.868
REMARK SMILES CC[C@@H](CC[C@@H](C)[C@@H]1CC[C@@H]2C3=CC[C@@H]4C[C@@H](O)CC[C@@]4(C)[C@H]3CC[C@@]21C)C(C)C
REMARK SMILES IDX 5 1 4 2 3 3 2 4 1 5 28 6 29 7 30 8 6 9 7 10 8 11 9 12 26 13
REMARK SMILES IDX 10 14 11 15 25 16 27 17 12 18 24 19 23 20 13 21 21 22 14 23
REMARK SMILES IDX 15 24 20 25 22 26 16 27 19 28 17 29 18 30
REMARK H PARENT 18 31
REMARK Flexibility Score: inf
ROOT
ATOM      1  C   UNL     1     141.224 132.671 148.438  1.00  0.00     0.004 C 
ENDROOT
BRANCH   1   2
ATOM      2  C   UNL     1     140.075 133.681 148.688  1.00  0.00     0.004 C 
BRANCH   2   3
ATOM      3  C   UNL     1     138.671 132.996 148.715  1.00  0.00    -0.009 C 
BRANCH   3   4
ATOM      4  C   UNL     1     137.863 133.395 147.448  1.00  0.00     0.000 C 
ATOM      5  C   UNL     1     137.744 132.280 146.409  1.00  0.00     0.004 C 
ENDBRANCH   3   4
BRANCH   3   6
ATOM      6  C   UNL     1     137.886 133.271 150.039  1.00  0.00    -0.014 C 
ATOM      7  C   UNL     1     138.764 133.257 151.299  1.00  0.00     0.007 C 
ATOM      8  C   UNL     1     136.696 132.313 150.220  1.00  0.00     0.007 C 
ENDBRANCH   3   6
ENDBRANCH   2   3
ENDBRANCH   1   2
BRANCH   1   9
ATOM      9  C   UNL     1     142.140 133.000 147.225  1.00  0.00    -0.011 C 
ATOM     10  C   UNL     1     141.557 132.361 145.938  1.00  0.00     0.008 C 
BRANCH   9  11
ATOM     11  C   UNL     1     142.435 134.529 147.011  1.00  0.00    -0.002 C 
ATOM     12  C   UNL     1     142.579 134.862 145.521  1.00  0.00     0.005 C 
ATOM     13  C   UNL     1     143.734 135.138 147.650  1.00  0.00    -0.023 C 
ATOM     14  C   UNL     1     143.219 136.230 145.463  1.00  0.00     0.009 C 
ATOM     15  C   UNL     1     144.032 136.396 146.758  1.00  0.00     0.021 C 
ATOM     16  C   UNL     1     144.915 134.132 147.607  1.00  0.00     0.008 C 
ATOM     17  C   UNL     1     143.467 135.592 149.111  1.00  0.00     0.012 C 
ATOM     18  C   UNL     1     145.506 136.722 146.472  1.00  0.00    -0.067 C 
ATOM     19  C   UNL     1     146.235 134.796 147.969  1.00  0.00     0.009 C 
ATOM     20  C   UNL     1     146.653 135.802 146.888  1.00  0.00     0.021 C 
ATOM     21  C   UNL     1     145.789 137.806 145.716  1.00  0.00    -0.027 C 
ATOM     22  C   UNL     1     148.050 136.521 147.178  1.00  0.00    -0.023 C 
ATOM     23  C   UNL     1     147.210 138.229 145.464  1.00  0.00     0.031 C 
ATOM     24  C   UNL     1     147.971 138.029 146.771  1.00  0.00     0.002 C 
ATOM     25  C   UNL     1     148.464 136.547 148.691  1.00  0.00     0.010 C 
ATOM     26  C   UNL     1     149.132 135.726 146.377  1.00  0.00     0.012 C 
ATOM     27  C   UNL     1     149.339 138.725 146.826  1.00  0.00     0.036 C 
ATOM     28  C   UNL     1     149.814 137.272 148.942  1.00  0.00     0.032 C 
ATOM     29  C   UNL     1     149.940 138.658 148.260  1.00  0.00     0.114 C 
BRANCH  29  30
ATOM     30  O   UNL     1     149.400 139.666 149.084  1.00  0.00    -0.393 OA
ATOM     31  H   UNL     1     149.071 140.385 148.493  1.00  0.00     0.210 HD
ENDBRANCH  29  30
ENDBRANCH   9  11
ENDBRANCH   1   9
TORSDOF 7
ENDMDL
