MODEL 1
REMARK VINA RESULT:    24.594      0.000      0.000
REMARK INTER + INTRA:          41.442
REMARK INTER:                  36.096
REMARK INTRA:                   5.346
REMARK UNBOUND:                 5.346
REMARK SMILES Cc1cc2c(C(C)C)c(O)c(O)c(C=O)c2c(O)c1-c1c(C)cc2c(C(C)C)c(O)c(O)c(C=O)c2c1O
REMARK SMILES IDX 1 1 2 2 3 3 4 4 16 5 13 6 11 7 9 8 5 9 17 10 19 11 20 12
REMARK SMILES IDX 37 13 21 14 36 15 23 16 22 17 24 18 33 19 25 20 31 21 29 22
REMARK SMILES IDX 38 23 34 25 35 26 26 27 27 28 28 29 32 30 30 32 18 34 6 36
REMARK SMILES IDX 7 37 8 38 14 39 15 40 10 41 12 43
REMARK H PARENT 38 24 32 31 30 33 18 35 10 42 12 44
REMARK Flexibility Score: inf
ROOT
ATOM      1  C   UNL     1      20.822  26.960  29.086  1.00  0.00     0.045 C 
ATOM      2  C   UNL     1      20.779  26.266  27.747  1.00  0.00    -0.039 A 
ATOM      3  C   UNL     1      19.546  25.919  27.192  1.00  0.00     0.013 A 
ATOM      4  C   UNL     1      19.452  25.263  25.943  1.00  0.00    -0.006 A 
ATOM      5  C   UNL     1      20.639  25.087  25.178  1.00  0.00     0.039 A 
ATOM      6  C   UNL     1      20.528  24.672  23.822  1.00  0.00     0.072 A 
ATOM      7  C   UNL     1      19.277  24.320  23.289  1.00  0.00     0.169 A 
ATOM      8  C   UNL     1      18.112  24.421  24.077  1.00  0.00     0.162 A 
ATOM      9  C   UNL     1      18.197  24.807  25.435  1.00  0.00     0.008 A 
ATOM     10  C   UNL     1      21.897  25.298  25.809  1.00  0.00     0.132 A 
ATOM     11  C   UNL     1      21.963  25.915  27.076  1.00  0.00     0.031 A 
ENDROOT
BRANCH  11  12
ATOM     12  C   UNL     1      23.282  26.196  27.701  1.00  0.00     0.031 A 
ATOM     13  C   UNL     1      23.536  27.457  28.284  1.00  0.00     0.132 A 
ATOM     14  C   UNL     1      24.290  25.219  27.670  1.00  0.00    -0.039 A 
ATOM     15  C   UNL     1      24.797  27.732  28.892  1.00  0.00     0.039 A 
ATOM     16  C   UNL     1      25.553  25.517  28.185  1.00  0.00     0.013 A 
ATOM     17  C   UNL     1      24.057  23.878  27.017  1.00  0.00     0.045 C 
ATOM     18  C   UNL     1      25.828  26.745  28.826  1.00  0.00    -0.006 A 
ATOM     19  C   UNL     1      25.078  28.978  29.525  1.00  0.00     0.072 A 
ATOM     20  C   UNL     1      27.124  27.025  29.363  1.00  0.00     0.008 A 
ATOM     21  C   UNL     1      26.395  29.295  29.900  1.00  0.00     0.169 A 
ATOM     22  C   UNL     1      27.426  28.353  29.737  1.00  0.00     0.162 A 
BRANCH  13  23
ATOM     23  O   UNL     1      22.552  28.450  28.219  1.00  0.00    -0.507 OA
ATOM     24  H   UNL     1      22.338  28.979  27.384  1.00  0.00     0.293 HD
ENDBRANCH  13  23
BRANCH  19  25
ATOM     25  C   UNL     1      24.006  29.939  29.885  1.00  0.00     0.264 C 
ATOM     26  O   UNL     1      23.495  30.700  29.019  1.00  0.00    -0.298 OA
ENDBRANCH  19  25
BRANCH  20  27
ATOM     27  C   UNL     1      28.202  25.933  29.490  1.00  0.00     0.017 C 
ATOM     28  C   UNL     1      28.005  25.119  30.774  1.00  0.00     0.012 C 
ATOM     29  C   UNL     1      28.310  25.016  28.257  1.00  0.00     0.012 C 
ENDBRANCH  20  27
BRANCH  21  30
ATOM     30  O   UNL     1      26.650  30.542  30.482  1.00  0.00    -0.504 OA
ATOM     31  H   UNL     1      26.763  30.692  31.475  1.00  0.00     0.293 HD
ENDBRANCH  21  30
BRANCH  22  32
ATOM     32  O   UNL     1      28.761  28.718  29.933  1.00  0.00    -0.504 OA
ATOM     33  H   UNL     1      29.287  29.301  29.298  1.00  0.00     0.293 HD
ENDBRANCH  22  32
ENDBRANCH  11  12
BRANCH  10  34
ATOM     34  O   UNL     1      23.074  24.848  25.197  1.00  0.00    -0.507 OA
ATOM     35  H   UNL     1      23.545  23.988  25.449  1.00  0.00     0.293 HD
ENDBRANCH  10  34
BRANCH   9  36
ATOM     36  C   UNL     1      16.946  24.742  26.331  1.00  0.00     0.017 C 
ATOM     37  C   UNL     1      16.501  26.147  26.750  1.00  0.00     0.012 C 
ATOM     38  C   UNL     1      15.779  23.944  25.717  1.00  0.00     0.012 C 
ENDBRANCH   9  36
BRANCH   6  39
ATOM     39  C   UNL     1      21.664  24.717  22.871  1.00  0.00     0.264 C 
ATOM     40  O   UNL     1      21.778  25.663  22.049  1.00  0.00    -0.298 OA
ENDBRANCH   6  39
BRANCH   8  41
ATOM     41  O   UNL     1      16.851  24.186  23.522  1.00  0.00    -0.504 OA
ATOM     42  H   UNL     1      16.172  24.902  23.309  1.00  0.00     0.293 HD
ENDBRANCH   8  41
BRANCH   7  43
ATOM     43  O   UNL     1      19.226  23.877  21.962  1.00  0.00    -0.504 OA
ATOM     44  H   UNL     1      19.184  24.483  21.154  1.00  0.00     0.293 HD
ENDBRANCH   7  43
TORSDOF 11
ENDMDL
