MODEL 1
REMARK VINA RESULT:    -7.498      0.000      0.000
REMARK INTER + INTRA:         -11.525
REMARK INTER:                 -10.786
REMARK INTRA:                  -0.739
REMARK UNBOUND:                -0.739
REMARK SMILES O=c1cc(-c2ccc(O)c(O)c2)oc2cc(O[C@@H]3O[C@@H](CO)[C@H](O)[C@H](O)[C@H]3O)cc(O)c12
REMARK SMILES IDX 17 1 16 2 4 3 3 4 13 5 2 6 14 7 1 8 32 9 15 10 30 11 29 12
REMARK SMILES IDX 5 13 6 14 7 15 8 16 12 17 10 18 9 19 11 21 31 23 18 25 27 26
REMARK SMILES IDX 19 27 25 28 20 29 23 30 28 31 26 33 21 35 22 36 24 38
REMARK H PARENT 9 20 11 22 31 24 28 32 26 34 22 37 24 39
REMARK Flexibility Score: inf
ROOT
ATOM      1  O   UNL     1      -5.600  -4.427  19.536  1.00  0.00    -0.462 OA
ENDROOT
BRANCH   1   2
ATOM      2  C   UNL     1      -5.418  -5.474  20.453  1.00  0.00     0.130 A 
ATOM      3  C   UNL     1      -3.825  -7.079  24.650  1.00  0.00     0.138 A 
ATOM      4  C   UNL     1      -4.280  -8.381  24.408  1.00  0.00     0.100 A 
ATOM      5  O   UNL     1      -4.011  -6.143  23.728  1.00  0.00    -0.456 OA
ATOM      6  C   UNL     1      -4.932  -8.673  23.209  1.00  0.00     0.197 A 
ATOM      7  C   UNL     1      -4.624  -6.365  22.570  1.00  0.00     0.146 A 
ATOM      8  O   UNL     1      -5.337  -9.851  23.033  1.00  0.00    -0.289 OA
ATOM      9  C   UNL     1      -5.122  -7.655  22.241  1.00  0.00     0.107 A 
ATOM     10  C   UNL     1      -4.769  -5.297  21.683  1.00  0.00     0.094 A 
ATOM     11  C   UNL     1      -5.769  -7.831  20.979  1.00  0.00     0.134 A 
ATOM     12  C   UNL     1      -5.906  -6.736  20.118  1.00  0.00     0.093 A 
BRANCH   3  13
ATOM     13  C   UNL     1      -3.125  -6.712  25.908  1.00  0.00     0.021 A 
ATOM     14  C   UNL     1      -2.001  -7.450  26.315  1.00  0.00     0.016 A 
ATOM     15  C   UNL     1      -1.321  -7.121  27.489  1.00  0.00     0.051 A 
ATOM     16  C   UNL     1      -1.743  -6.045  28.273  1.00  0.00     0.157 A 
ATOM     17  C   UNL     1      -3.540  -5.619  26.695  1.00  0.00     0.062 A 
ATOM     18  C   UNL     1      -2.855  -5.286  27.874  1.00  0.00     0.158 A 
BRANCH  16  19
ATOM     19  O   UNL     1      -1.044  -5.740  29.442  1.00  0.00    -0.504 OA
ATOM     20  H   UNL     1      -0.053  -5.532  29.437  1.00  0.00     0.293 HD
ENDBRANCH  16  19
BRANCH  18  21
ATOM     21  O   UNL     1      -3.274  -4.203  28.646  1.00  0.00    -0.504 OA
ATOM     22  H   UNL     1      -3.519  -3.314  28.225  1.00  0.00     0.293 HD
ENDBRANCH  18  21
ENDBRANCH   3  13
BRANCH  11  23
ATOM     23  O   UNL     1      -6.290  -9.044  20.514  1.00  0.00    -0.507 OA
ATOM     24  H   UNL     1      -7.244  -9.219  20.247  1.00  0.00     0.293 HD
ENDBRANCH  11  23
ENDBRANCH   1   2
BRANCH   1  25
ATOM     25  C   UNL     1      -6.708  -4.302  18.639  1.00  0.00     0.339 C 
ATOM     26  C   UNL     1      -8.040  -4.357  19.419  1.00  0.00     0.214 C 
ATOM     27  O   UNL     1      -6.609  -3.120  17.857  1.00  0.00    -0.332 OA
ATOM     28  C   UNL     1      -8.267  -3.073  20.242  1.00  0.00     0.180 C 
ATOM     29  C   UNL     1      -6.636  -1.953  18.664  1.00  0.00     0.179 C 
ATOM     30  C   UNL     1      -7.997  -1.818  19.386  1.00  0.00     0.177 C 
BRANCH  26  31
ATOM     31  O   UNL     1      -9.125  -4.597  18.554  1.00  0.00    -0.384 OA
ATOM     32  H   UNL     1      -9.623  -5.386  18.893  1.00  0.00     0.211 HD
ENDBRANCH  26  31
BRANCH  28  33
ATOM     33  O   UNL     1      -7.416  -3.090  21.362  1.00  0.00    -0.387 OA
ATOM     34  H   UNL     1      -6.591  -2.599  21.110  1.00  0.00     0.211 HD
ENDBRANCH  28  33
BRANCH  29  35
ATOM     35  C   UNL     1      -6.350  -0.736  17.770  1.00  0.00     0.191 C 
BRANCH  35  36
ATOM     36  O   UNL     1      -5.855   0.342  18.520  1.00  0.00    -0.394 OA
ATOM     37  H   UNL     1      -5.765   0.023  19.455  1.00  0.00     0.210 HD
ENDBRANCH  35  36
ENDBRANCH  29  35
BRANCH  30  38
ATOM     38  O   UNL     1      -7.996  -0.669  20.196  1.00  0.00    -0.387 OA
ATOM     39  H   UNL     1      -8.684  -0.814  20.897  1.00  0.00     0.211 HD
ENDBRANCH  30  38
ENDBRANCH   1  25
TORSDOF 11
ENDMDL
MODEL 2
REMARK VINA RESULT:    -6.678     11.442     13.483
REMARK INTER + INTRA:         -10.346
REMARK INTER:                  -9.455
REMARK INTRA:                  -0.891
REMARK UNBOUND:                -0.739
REMARK SMILES O=c1cc(-c2ccc(O)c(O)c2)oc2cc(O[C@@H]3O[C@@H](CO)[C@H](O)[C@H](O)[C@H]3O)cc(O)c12
REMARK SMILES IDX 17 1 16 2 4 3 3 4 13 5 2 6 14 7 1 8 32 9 15 10 30 11 29 12
REMARK SMILES IDX 5 13 6 14 7 15 8 16 12 17 10 18 9 19 11 21 31 23 18 25 27 26
REMARK SMILES IDX 19 27 25 28 20 29 23 30 28 31 26 33 21 35 22 36 24 38
REMARK H PARENT 9 20 11 22 31 24 28 32 26 34 22 37 24 39
REMARK Flexibility Score: inf
ROOT
ATOM      1  O   UNL     1      -5.252   5.861  13.906  1.00  0.00    -0.462 OA
ENDROOT
BRANCH   1   2
ATOM      2  C   UNL     1      -4.255   5.300  14.719  1.00  0.00     0.130 A 
ATOM      3  C   UNL     1      -0.665   5.798  17.817  1.00  0.00     0.138 A 
ATOM      4  C   UNL     1      -0.472   4.415  17.927  1.00  0.00     0.100 A 
ATOM      5  O   UNL     1      -1.613   6.260  17.009  1.00  0.00    -0.456 OA
ATOM      6  C   UNL     1      -1.283   3.544  17.199  1.00  0.00     0.197 A 
ATOM      7  C   UNL     1      -2.412   5.476  16.293  1.00  0.00     0.146 A 
ATOM      8  O   UNL     1      -1.087   2.309  17.332  1.00  0.00    -0.289 OA
ATOM      9  C   UNL     1      -2.290   4.061  16.346  1.00  0.00     0.107 A 
ATOM     10  C   UNL     1      -3.379   6.079  15.486  1.00  0.00     0.094 A 
ATOM     11  C   UNL     1      -3.177   3.274  15.549  1.00  0.00     0.134 A 
ATOM     12  C   UNL     1      -4.142   3.911  14.759  1.00  0.00     0.093 A 
BRANCH   3  13
ATOM     13  C   UNL     1       0.168   6.771  18.569  1.00  0.00     0.021 A 
ATOM     14  C   UNL     1       0.736   7.863  17.892  1.00  0.00     0.016 A 
ATOM     15  C   UNL     1       1.517   8.797  18.577  1.00  0.00     0.051 A 
ATOM     16  C   UNL     1       1.736   8.663  19.950  1.00  0.00     0.157 A 
ATOM     17  C   UNL     1       0.381   6.647  19.956  1.00  0.00     0.062 A 
ATOM     18  C   UNL     1       1.164   7.587  20.645  1.00  0.00     0.158 A 
BRANCH  16  19
ATOM     19  O   UNL     1       2.521   9.611  20.607  1.00  0.00    -0.504 OA
ATOM     20  H   UNL     1       2.210  10.564  20.747  1.00  0.00     0.293 HD
ENDBRANCH  16  19
BRANCH  18  21
ATOM     21  O   UNL     1       1.370   7.454  22.018  1.00  0.00    -0.504 OA
ATOM     22  H   UNL     1       1.090   6.618  22.519  1.00  0.00     0.293 HD
ENDBRANCH  18  21
ENDBRANCH   3  13
BRANCH  11  23
ATOM     23  O   UNL     1      -3.162   1.876  15.486  1.00  0.00    -0.507 OA
ATOM     24  H   UNL     1      -2.886   1.318  14.695  1.00  0.00     0.293 HD
ENDBRANCH  11  23
ENDBRANCH   1   2
BRANCH   1  25
ATOM     25  C   UNL     1      -6.168   5.118  13.095  1.00  0.00     0.339 C 
ATOM     26  C   UNL     1      -7.432   4.755  13.907  1.00  0.00     0.214 C 
ATOM     27  O   UNL     1      -6.497   5.823  11.906  1.00  0.00    -0.332 OA
ATOM     28  C   UNL     1      -8.310   5.994  14.168  1.00  0.00     0.180 C 
ATOM     29  C   UNL     1      -7.145   7.054  12.188  1.00  0.00     0.179 C 
ATOM     30  C   UNL     1      -8.509   6.810  12.873  1.00  0.00     0.177 C 
BRANCH  26  31
ATOM     31  O   UNL     1      -8.171   3.741  13.269  1.00  0.00    -0.384 OA
ATOM     32  H   UNL     1      -8.995   4.148  12.893  1.00  0.00     0.211 HD
ENDBRANCH  26  31
BRANCH  28  33
ATOM     33  O   UNL     1      -7.701   6.791  15.155  1.00  0.00    -0.387 OA
ATOM     34  H   UNL     1      -7.230   7.528  14.686  1.00  0.00     0.211 HD
ENDBRANCH  28  33
BRANCH  29  35
ATOM     35  C   UNL     1      -7.307   7.831  10.872  1.00  0.00     0.191 C 
BRANCH  35  36
ATOM     36  O   UNL     1      -8.608   7.705  10.362  1.00  0.00    -0.394 OA
ATOM     37  H   UNL     1      -8.969   8.625  10.267  1.00  0.00     0.210 HD
ENDBRANCH  35  36
ENDBRANCH  29  35
BRANCH  30  38
ATOM     38  O   UNL     1      -9.125   8.039  13.163  1.00  0.00    -0.387 OA
ATOM     39  H   UNL     1      -8.627   8.734  12.658  1.00  0.00     0.211 HD
ENDBRANCH  30  38
ENDBRANCH   1  25
TORSDOF 11
ENDMDL
MODEL 3
REMARK VINA RESULT:    -6.549      2.128      8.967
REMARK INTER + INTRA:         -10.160
REMARK INTER:                  -9.155
REMARK INTRA:                  -1.005
REMARK UNBOUND:                -0.739
REMARK SMILES O=c1cc(-c2ccc(O)c(O)c2)oc2cc(O[C@@H]3O[C@@H](CO)[C@H](O)[C@H](O)[C@H]3O)cc(O)c12
REMARK SMILES IDX 17 1 16 2 4 3 3 4 13 5 2 6 14 7 1 8 32 9 15 10 30 11 29 12
REMARK SMILES IDX 5 13 6 14 7 15 8 16 12 17 10 18 9 19 11 21 31 23 18 25 27 26
REMARK SMILES IDX 19 27 25 28 20 29 23 30 28 31 26 33 21 35 22 36 24 38
REMARK H PARENT 9 20 11 22 31 24 28 32 26 34 22 37 24 39
REMARK Flexibility Score: inf
ROOT
ATOM      1  O   UNL     1      -4.815  -6.962  25.857  1.00  0.00    -0.462 OA
ENDROOT
BRANCH   1   2
ATOM      2  C   UNL     1      -5.560  -7.073  24.672  1.00  0.00     0.130 A 
ATOM      3  C   UNL     1      -7.229  -5.170  20.632  1.00  0.00     0.138 A 
ATOM      4  C   UNL     1      -7.872  -6.356  20.253  1.00  0.00     0.100 A 
ATOM      5  O   UNL     1      -6.561  -5.130  21.778  1.00  0.00    -0.456 OA
ATOM      6  C   UNL     1      -7.791  -7.479  21.077  1.00  0.00     0.197 A 
ATOM      7  C   UNL     1      -6.453  -6.169  22.601  1.00  0.00     0.146 A 
ATOM      8  O   UNL     1      -8.371  -8.529  20.698  1.00  0.00    -0.289 OA
ATOM      9  C   UNL     1      -7.069  -7.412  22.295  1.00  0.00     0.107 A 
ATOM     10  C   UNL     1      -5.715  -6.007  23.775  1.00  0.00     0.094 A 
ATOM     11  C   UNL     1      -6.919  -8.489  23.222  1.00  0.00     0.134 A 
ATOM     12  C   UNL     1      -6.164  -8.296  24.385  1.00  0.00     0.093 A 
BRANCH   3  13
ATOM     13  C   UNL     1      -7.281  -3.945  19.793  1.00  0.00     0.021 A 
ATOM     14  C   UNL     1      -7.797  -2.756  20.336  1.00  0.00     0.016 A 
ATOM     15  C   UNL     1      -7.850  -1.589  19.572  1.00  0.00     0.051 A 
ATOM     16  C   UNL     1      -7.380  -1.583  18.257  1.00  0.00     0.157 A 
ATOM     17  C   UNL     1      -6.795  -3.932  18.470  1.00  0.00     0.062 A 
ATOM     18  C   UNL     1      -6.846  -2.758  17.703  1.00  0.00     0.158 A 
BRANCH  16  19
ATOM     19  O   UNL     1      -7.446  -0.402  17.517  1.00  0.00    -0.504 OA
ATOM     20  H   UNL     1      -6.811  -0.210  16.752  1.00  0.00     0.293 HD
ENDBRANCH  16  19
BRANCH  18  21
ATOM     21  O   UNL     1      -6.365  -2.756  16.394  1.00  0.00    -0.504 OA
ATOM     22  H   UNL     1      -5.414  -3.034  16.177  1.00  0.00     0.293 HD
ENDBRANCH  18  21
ENDBRANCH   3  13
BRANCH  11  23
ATOM     23  O   UNL     1      -7.482  -9.760  23.063  1.00  0.00    -0.507 OA
ATOM     24  H   UNL     1      -8.317  -9.982  22.547  1.00  0.00     0.293 HD
ENDBRANCH  11  23
ENDBRANCH   1   2
BRANCH   1  25
ATOM     25  C   UNL     1      -3.515  -6.374  25.960  1.00  0.00     0.339 C 
ATOM     26  C   UNL     1      -3.138  -6.158  27.442  1.00  0.00     0.214 C 
ATOM     27  O   UNL     1      -2.539  -7.152  25.282  1.00  0.00    -0.332 OA
ATOM     28  C   UNL     1      -2.841  -7.494  28.150  1.00  0.00     0.180 C 
ATOM     29  C   UNL     1      -2.418  -8.449  25.845  1.00  0.00     0.179 C 
ATOM     30  C   UNL     1      -1.896  -8.368  27.299  1.00  0.00     0.177 C 
BRANCH  26  31
ATOM     31  O   UNL     1      -2.052  -5.271  27.566  1.00  0.00    -0.384 OA
ATOM     32  H   UNL     1      -1.659  -5.387  28.470  1.00  0.00     0.211 HD
ENDBRANCH  26  31
BRANCH  28  33
ATOM     33  O   UNL     1      -4.053  -8.171  28.382  1.00  0.00    -0.387 OA
ATOM     34  H   UNL     1      -4.596  -7.598  28.984  1.00  0.00     0.211 HD
ENDBRANCH  28  33
BRANCH  29  35
ATOM     35  C   UNL     1      -1.482  -9.282  24.957  1.00  0.00     0.191 C 
BRANCH  35  36
ATOM     36  O   UNL     1      -0.144  -9.151  25.361  1.00  0.00    -0.394 OA
ATOM     37  H   UNL     1       0.388  -9.768  24.794  1.00  0.00     0.210 HD
ENDBRANCH  35  36
ENDBRANCH  29  35
BRANCH  30  38
ATOM     38  O   UNL     1      -1.805  -9.659  27.846  1.00  0.00    -0.387 OA
ATOM     39  H   UNL     1      -0.892  -9.993  27.641  1.00  0.00     0.211 HD
ENDBRANCH  30  38
ENDBRANCH   1  25
TORSDOF 11
ENDMDL
MODEL 4
REMARK VINA RESULT:    -6.514     11.635     13.474
REMARK INTER + INTRA:         -10.110
REMARK INTER:                  -9.782
REMARK INTRA:                  -0.328
REMARK UNBOUND:                -0.739
REMARK SMILES O=c1cc(-c2ccc(O)c(O)c2)oc2cc(O[C@@H]3O[C@@H](CO)[C@H](O)[C@H](O)[C@H]3O)cc(O)c12
REMARK SMILES IDX 17 1 16 2 4 3 3 4 13 5 2 6 14 7 1 8 32 9 15 10 30 11 29 12
REMARK SMILES IDX 5 13 6 14 7 15 8 16 12 17 10 18 9 19 11 21 31 23 18 25 27 26
REMARK SMILES IDX 19 27 25 28 20 29 23 30 28 31 26 33 21 35 22 36 24 38
REMARK H PARENT 9 20 11 22 31 24 28 32 26 34 22 37 24 39
REMARK Flexibility Score: inf
ROOT
ATOM      1  O   UNL     1      -5.433   6.094  14.036  1.00  0.00    -0.462 OA
ENDROOT
BRANCH   1   2
ATOM      2  C   UNL     1      -4.394   5.500  14.769  1.00  0.00     0.130 A 
ATOM      3  C   UNL     1      -0.700   5.862  17.762  1.00  0.00     0.138 A 
ATOM      4  C   UNL     1      -0.472   4.481  17.763  1.00  0.00     0.100 A 
ATOM      5  O   UNL     1      -1.688   6.358  17.026  1.00  0.00    -0.456 OA
ATOM      6  C   UNL     1      -1.291   3.644  17.003  1.00  0.00     0.197 A 
ATOM      7  C   UNL     1      -2.496   5.609  16.283  1.00  0.00     0.146 A 
ATOM      8  O   UNL     1      -1.062   2.408  17.039  1.00  0.00    -0.289 OA
ATOM      9  C   UNL     1      -2.340   4.197  16.228  1.00  0.00     0.107 A 
ATOM     10  C   UNL     1      -3.506   6.244  15.559  1.00  0.00     0.094 A 
ATOM     11  C   UNL     1      -3.240   3.448  15.408  1.00  0.00     0.134 A 
ATOM     12  C   UNL     1      -4.248   4.116  14.704  1.00  0.00     0.093 A 
BRANCH   3  13
ATOM     13  C   UNL     1       0.139   6.799  18.552  1.00  0.00     0.021 A 
ATOM     14  C   UNL     1       0.779   7.870  17.904  1.00  0.00     0.016 A 
ATOM     15  C   UNL     1       1.567   8.769  18.625  1.00  0.00     0.051 A 
ATOM     16  C   UNL     1       1.724   8.623  20.006  1.00  0.00     0.157 A 
ATOM     17  C   UNL     1       0.289   6.663  19.947  1.00  0.00     0.062 A 
ATOM     18  C   UNL     1       1.079   7.569  20.672  1.00  0.00     0.158 A 
BRANCH  16  19
ATOM     19  O   UNL     1       2.518   9.537  20.699  1.00  0.00    -0.504 OA
ATOM     20  H   UNL     1       3.249  10.068  20.244  1.00  0.00     0.293 HD
ENDBRANCH  16  19
BRANCH  18  21
ATOM     21  O   UNL     1       1.222   7.424  22.052  1.00  0.00    -0.504 OA
ATOM     22  H   UNL     1       0.423   7.452  22.674  1.00  0.00     0.293 HD
ENDBRANCH  18  21
ENDBRANCH   3  13
BRANCH  11  23
ATOM     23  O   UNL     1      -3.196   2.059  15.243  1.00  0.00    -0.507 OA
ATOM     24  H   UNL     1      -3.154   1.371  15.977  1.00  0.00     0.293 HD
ENDBRANCH  11  23
ENDBRANCH   1   2
BRANCH   1  25
ATOM     25  C   UNL     1      -5.910   7.431  14.219  1.00  0.00     0.339 C 
ATOM     26  C   UNL     1      -7.301   7.599  13.568  1.00  0.00     0.214 C 
ATOM     27  O   UNL     1      -5.930   7.791  15.592  1.00  0.00    -0.332 OA
ATOM     28  C   UNL     1      -8.392   6.857  14.366  1.00  0.00     0.180 C 
ATOM     29  C   UNL     1      -6.810   6.965  16.339  1.00  0.00     0.179 C 
ATOM     30  C   UNL     1      -8.272   7.163  15.874  1.00  0.00     0.177 C 
BRANCH  26  31
ATOM     31  O   UNL     1      -7.629   8.960  13.415  1.00  0.00    -0.384 OA
ATOM     32  H   UNL     1      -7.864   9.117  12.464  1.00  0.00     0.211 HD
ENDBRANCH  26  31
BRANCH  28  33
ATOM     33  O   UNL     1      -8.266   5.474  14.139  1.00  0.00    -0.387 OA
ATOM     34  H   UNL     1      -7.888   5.361  13.228  1.00  0.00     0.211 HD
ENDBRANCH  28  33
BRANCH  29  35
ATOM     35  C   UNL     1      -6.644   7.298  17.830  1.00  0.00     0.191 C 
BRANCH  35  36
ATOM     36  O   UNL     1      -6.718   6.142  18.622  1.00  0.00    -0.394 OA
ATOM     37  H   UNL     1      -5.792   5.937  18.915  1.00  0.00     0.210 HD
ENDBRANCH  35  36
ENDBRANCH  29  35
BRANCH  30  38
ATOM     38  O   UNL     1      -9.125   6.321  16.609  1.00  0.00    -0.387 OA
ATOM     39  H   UNL     1      -8.585   5.946  17.353  1.00  0.00     0.211 HD
ENDBRANCH  30  38
ENDBRANCH   1  25
TORSDOF 11
ENDMDL
MODEL 5
REMARK VINA RESULT:    -6.390      2.761      5.645
REMARK INTER + INTRA:          -9.931
REMARK INTER:                  -8.881
REMARK INTRA:                  -1.050
REMARK UNBOUND:                -0.739
REMARK SMILES O=c1cc(-c2ccc(O)c(O)c2)oc2cc(O[C@@H]3O[C@@H](CO)[C@H](O)[C@H](O)[C@H]3O)cc(O)c12
REMARK SMILES IDX 17 1 16 2 4 3 3 4 13 5 2 6 14 7 1 8 32 9 15 10 30 11 29 12
REMARK SMILES IDX 5 13 6 14 7 15 8 16 12 17 10 18 9 19 11 21 31 23 18 25 27 26
REMARK SMILES IDX 19 27 25 28 20 29 23 30 28 31 26 33 21 35 22 36 24 38
REMARK H PARENT 9 20 11 22 31 24 28 32 26 34 22 37 24 39
REMARK Flexibility Score: inf
ROOT
ATOM      1  O   UNL     1      -5.065  -7.020  23.361  1.00  0.00    -0.462 OA
ENDROOT
BRANCH   1   2
ATOM      2  C   UNL     1      -4.595  -7.295  24.654  1.00  0.00     0.130 A 
ATOM      3  C   UNL     1      -1.146  -7.102  27.940  1.00  0.00     0.138 A 
ATOM      4  C   UNL     1      -1.936  -7.729  28.912  1.00  0.00     0.100 A 
ATOM      5  O   UNL     1      -1.648  -6.894  26.728  1.00  0.00    -0.456 OA
ATOM      6  C   UNL     1      -3.240  -8.114  28.599  1.00  0.00     0.197 A 
ATOM      7  C   UNL     1      -2.882  -7.241  26.376  1.00  0.00     0.146 A 
ATOM      8  O   UNL     1      -3.922  -8.664  29.501  1.00  0.00    -0.289 OA
ATOM      9  C   UNL     1      -3.754  -7.878  27.299  1.00  0.00     0.107 A 
ATOM     10  C   UNL     1      -3.301  -6.961  25.074  1.00  0.00     0.094 A 
ATOM     11  C   UNL     1      -5.068  -8.229  26.858  1.00  0.00     0.134 A 
ATOM     12  C   UNL     1      -5.458  -7.925  25.549  1.00  0.00     0.093 A 
BRANCH   3  13
ATOM     13  C   UNL     1       0.248  -6.670  28.218  1.00  0.00     0.021 A 
ATOM     14  C   UNL     1       0.505  -5.825  29.312  1.00  0.00     0.016 A 
ATOM     15  C   UNL     1       1.807  -5.411  29.600  1.00  0.00     0.051 A 
ATOM     16  C   UNL     1       2.876  -5.838  28.809  1.00  0.00     0.157 A 
ATOM     17  C   UNL     1       1.331  -7.109  27.431  1.00  0.00     0.062 A 
ATOM     18  C   UNL     1       2.640  -6.694  27.722  1.00  0.00     0.158 A 
BRANCH  16  19
ATOM     19  O   UNL     1       4.166  -5.407  29.121  1.00  0.00    -0.504 OA
ATOM     20  H   UNL     1       4.933  -5.486  28.465  1.00  0.00     0.293 HD
ENDBRANCH  16  19
BRANCH  18  21
ATOM     21  O   UNL     1       3.705  -7.134  26.935  1.00  0.00    -0.504 OA
ATOM     22  H   UNL     1       3.579  -7.381  25.960  1.00  0.00     0.293 HD
ENDBRANCH  18  21
ENDBRANCH   3  13
BRANCH  11  23
ATOM     23  O   UNL     1      -6.025  -8.875  27.648  1.00  0.00    -0.507 OA
ATOM     24  H   UNL     1      -5.954  -9.069  28.633  1.00  0.00     0.293 HD
ENDBRANCH  11  23
ENDBRANCH   1   2
BRANCH   1  25
ATOM     25  C   UNL     1      -4.243  -6.887  22.197  1.00  0.00     0.339 C 
ATOM     26  C   UNL     1      -3.844  -8.279  21.658  1.00  0.00     0.214 C 
ATOM     27  O   UNL     1      -4.882  -6.104  21.198  1.00  0.00    -0.332 OA
ATOM     28  C   UNL     1      -5.043  -8.998  21.009  1.00  0.00     0.180 C 
ATOM     29  C   UNL     1      -6.086  -6.707  20.749  1.00  0.00     0.179 C 
ATOM     30  C   UNL     1      -5.795  -8.054  20.048  1.00  0.00     0.177 C 
BRANCH  26  31
ATOM     31  O   UNL     1      -2.767  -8.184  20.756  1.00  0.00    -0.384 OA
ATOM     32  H   UNL     1      -2.722  -9.030  20.238  1.00  0.00     0.211 HD
ENDBRANCH  26  31
BRANCH  28  33
ATOM     33  O   UNL     1      -5.909  -9.452  22.021  1.00  0.00    -0.387 OA
ATOM     34  H   UNL     1      -6.553  -8.719  22.205  1.00  0.00     0.211 HD
ENDBRANCH  28  33
BRANCH  29  35
ATOM     35  C   UNL     1      -6.802  -5.725  19.809  1.00  0.00     0.191 C 
BRANCH  35  36
ATOM     36  O   UNL     1      -6.517  -6.008  18.464  1.00  0.00    -0.394 OA
ATOM     37  H   UNL     1      -7.098  -6.768  18.202  1.00  0.00     0.210 HD
ENDBRANCH  35  36
ENDBRANCH  29  35
BRANCH  30  38
ATOM     38  O   UNL     1      -7.000  -8.645  19.631  1.00  0.00    -0.387 OA
ATOM     39  H   UNL     1      -6.776  -9.242  18.869  1.00  0.00     0.211 HD
ENDBRANCH  30  38
ENDBRANCH   1  25
TORSDOF 11
ENDMDL
MODEL 6
REMARK VINA RESULT:    -6.281      2.568      4.137
REMARK INTER + INTRA:          -9.775
REMARK INTER:                  -8.842
REMARK INTRA:                  -0.933
REMARK UNBOUND:                -0.739
REMARK SMILES O=c1cc(-c2ccc(O)c(O)c2)oc2cc(O[C@@H]3O[C@@H](CO)[C@H](O)[C@H](O)[C@H]3O)cc(O)c12
REMARK SMILES IDX 17 1 16 2 4 3 3 4 13 5 2 6 14 7 1 8 32 9 15 10 30 11 29 12
REMARK SMILES IDX 5 13 6 14 7 15 8 16 12 17 10 18 9 19 11 21 31 23 18 25 27 26
REMARK SMILES IDX 19 27 25 28 20 29 23 30 28 31 26 33 21 35 22 36 24 38
REMARK H PARENT 9 20 11 22 31 24 28 32 26 34 22 37 24 39
REMARK Flexibility Score: inf
ROOT
ATOM      1  O   UNL     1      -6.096  -5.346  22.588  1.00  0.00    -0.462 OA
ENDROOT
BRANCH   1   2
ATOM      2  C   UNL     1      -5.697  -6.110  23.695  1.00  0.00     0.130 A 
ATOM      3  C   UNL     1      -2.320  -7.563  26.731  1.00  0.00     0.138 A 
ATOM      4  C   UNL     1      -3.214  -8.356  27.460  1.00  0.00     0.100 A 
ATOM      5  O   UNL     1      -2.761  -6.884  25.679  1.00  0.00    -0.456 OA
ATOM      6  C   UNL     1      -4.556  -8.412  27.081  1.00  0.00     0.197 A 
ATOM      7  C   UNL     1      -4.027  -6.901  25.273  1.00  0.00     0.146 A 
ATOM      8  O   UNL     1      -5.331  -9.126  27.767  1.00  0.00    -0.289 OA
ATOM      9  C   UNL     1      -5.004  -7.675  25.956  1.00  0.00     0.107 A 
ATOM     10  C   UNL     1      -4.374  -6.137  24.158  1.00  0.00     0.094 A 
ATOM     11  C   UNL     1      -6.347  -7.655  25.469  1.00  0.00     0.134 A 
ATOM     12  C   UNL     1      -6.663  -6.869  24.354  1.00  0.00     0.093 A 
BRANCH   3  13
ATOM     13  C   UNL     1      -0.882  -7.465  27.090  1.00  0.00     0.021 A 
ATOM     14  C   UNL     1      -0.499  -6.717  28.217  1.00  0.00     0.016 A 
ATOM     15  C   UNL     1       0.845  -6.615  28.580  1.00  0.00     0.051 A 
ATOM     16  C   UNL     1       1.831  -7.265  27.834  1.00  0.00     0.157 A 
ATOM     17  C   UNL     1       0.115  -8.130  26.347  1.00  0.00     0.062 A 
ATOM     18  C   UNL     1       1.466  -8.030  26.715  1.00  0.00     0.158 A 
BRANCH  16  19
ATOM     19  O   UNL     1       3.166  -7.145  28.222  1.00  0.00    -0.504 OA
ATOM     20  H   UNL     1       3.876  -6.785  27.597  1.00  0.00     0.293 HD
ENDBRANCH  16  19
BRANCH  18  21
ATOM     21  O   UNL     1       2.444  -8.691  25.972  1.00  0.00    -0.504 OA
ATOM     22  H   UNL     1       3.305  -8.232  25.700  1.00  0.00     0.293 HD
ENDBRANCH  18  21
ENDBRANCH   3  13
BRANCH  11  23
ATOM     23  O   UNL     1      -7.407  -8.379  26.026  1.00  0.00    -0.507 OA
ATOM     24  H   UNL     1      -8.217  -7.994  26.484  1.00  0.00     0.293 HD
ENDBRANCH  11  23
ENDBRANCH   1   2
BRANCH   1  25
ATOM     25  C   UNL     1      -7.451  -5.099  22.203  1.00  0.00     0.339 C 
ATOM     26  C   UNL     1      -7.625  -3.629  21.760  1.00  0.00     0.214 C 
ATOM     27  O   UNL     1      -7.876  -6.002  21.192  1.00  0.00    -0.332 OA
ATOM     28  C   UNL     1      -6.950  -3.366  20.399  1.00  0.00     0.180 C 
ATOM     29  C   UNL     1      -7.109  -5.860  20.006  1.00  0.00     0.179 C 
ATOM     30  C   UNL     1      -7.323  -4.463  19.380  1.00  0.00     0.177 C 
BRANCH  26  31
ATOM     31  O   UNL     1      -8.986  -3.267  21.724  1.00  0.00    -0.384 OA
ATOM     32  H   UNL     1      -9.193  -2.759  22.551  1.00  0.00     0.211 HD
ENDBRANCH  26  31
BRANCH  28  33
ATOM     33  O   UNL     1      -5.556  -3.322  20.579  1.00  0.00    -0.387 OA
ATOM     34  H   UNL     1      -5.350  -3.850  21.395  1.00  0.00     0.211 HD
ENDBRANCH  28  33
BRANCH  29  35
ATOM     35  C   UNL     1      -7.506  -6.980  19.032  1.00  0.00     0.191 C 
BRANCH  35  36
ATOM     36  O   UNL     1      -6.502  -7.208  18.079  1.00  0.00    -0.394 OA
ATOM     37  H   UNL     1      -5.633  -7.093  18.546  1.00  0.00     0.210 HD
ENDBRANCH  35  36
ENDBRANCH  29  35
BRANCH  30  38
ATOM     38  O   UNL     1      -6.539  -4.334  18.220  1.00  0.00    -0.387 OA
ATOM     39  H   UNL     1      -7.122  -3.928  17.526  1.00  0.00     0.211 HD
ENDBRANCH  30  38
ENDBRANCH   1  25
TORSDOF 11
ENDMDL
MODEL 7
REMARK VINA RESULT:    -6.231      2.817      5.083
REMARK INTER + INTRA:          -9.703
REMARK INTER:                  -8.931
REMARK INTRA:                  -0.772
REMARK UNBOUND:                -0.739
REMARK SMILES O=c1cc(-c2ccc(O)c(O)c2)oc2cc(O[C@@H]3O[C@@H](CO)[C@H](O)[C@H](O)[C@H]3O)cc(O)c12
REMARK SMILES IDX 17 1 16 2 4 3 3 4 13 5 2 6 14 7 1 8 32 9 15 10 30 11 29 12
REMARK SMILES IDX 5 13 6 14 7 15 8 16 12 17 10 18 9 19 11 21 31 23 18 25 27 26
REMARK SMILES IDX 19 27 25 28 20 29 23 30 28 31 26 33 21 35 22 36 24 38
REMARK H PARENT 9 20 11 22 31 24 28 32 26 34 22 37 24 39
REMARK Flexibility Score: inf
ROOT
ATOM      1  O   UNL     1      -5.757  -7.199  22.903  1.00  0.00    -0.462 OA
ENDROOT
BRANCH   1   2
ATOM      2  C   UNL     1      -5.206  -7.489  24.161  1.00  0.00     0.130 A 
ATOM      3  C   UNL     1      -1.444  -7.755  27.079  1.00  0.00     0.138 A 
ATOM      4  C   UNL     1      -2.223  -8.181  28.162  1.00  0.00     0.100 A 
ATOM      5  O   UNL     1      -2.029  -7.521  25.910  1.00  0.00    -0.456 OA
ATOM      6  C   UNL     1      -3.600  -8.341  28.003  1.00  0.00     0.197 A 
ATOM      7  C   UNL     1      -3.335  -7.658  25.702  1.00  0.00     0.146 A 
ATOM      8  O   UNL     1      -4.267  -8.713  29.002  1.00  0.00    -0.289 OA
ATOM      9  C   UNL     1      -4.201  -8.082  26.746  1.00  0.00     0.107 A 
ATOM     10  C   UNL     1      -3.836  -7.373  24.431  1.00  0.00     0.094 A 
ATOM     11  C   UNL     1      -5.595  -8.213  26.459  1.00  0.00     0.134 A 
ATOM     12  C   UNL     1      -6.065  -7.909  25.175  1.00  0.00     0.093 A 
BRANCH   3  13
ATOM     13  C   UNL     1       0.025  -7.566  27.191  1.00  0.00     0.021 A 
ATOM     14  C   UNL     1       0.874  -8.182  26.256  1.00  0.00     0.016 A 
ATOM     15  C   UNL     1       2.258  -8.015  26.334  1.00  0.00     0.051 A 
ATOM     16  C   UNL     1       2.819  -7.224  27.340  1.00  0.00     0.157 A 
ATOM     17  C   UNL     1       0.594  -6.759  28.196  1.00  0.00     0.062 A 
ATOM     18  C   UNL     1       1.985  -6.589  28.274  1.00  0.00     0.158 A 
BRANCH  16  19
ATOM     19  O   UNL     1       4.206  -7.076  27.394  1.00  0.00    -0.504 OA
ATOM     20  H   UNL     1       4.805  -7.337  26.621  1.00  0.00     0.293 HD
ENDBRANCH  16  19
BRANCH  18  21
ATOM     21  O   UNL     1       2.538  -5.789  29.273  1.00  0.00    -0.504 OA
ATOM     22  H   UNL     1       1.958  -5.222  29.881  1.00  0.00     0.293 HD
ENDBRANCH  18  21
ENDBRANCH   3  13
BRANCH  11  23
ATOM     23  O   UNL     1      -6.560  -8.636  27.379  1.00  0.00    -0.507 OA
ATOM     24  H   UNL     1      -6.391  -9.149  28.228  1.00  0.00     0.293 HD
ENDBRANCH  11  23
ENDBRANCH   1   2
BRANCH   1  25
ATOM     25  C   UNL     1      -6.470  -6.003  22.573  1.00  0.00     0.339 C 
ATOM     26  C   UNL     1      -5.586  -5.069  21.717  1.00  0.00     0.214 C 
ATOM     27  O   UNL     1      -7.700  -6.296  21.925  1.00  0.00    -0.332 OA
ATOM     28  C   UNL     1      -5.395  -5.622  20.291  1.00  0.00     0.180 C 
ATOM     29  C   UNL     1      -7.496  -6.973  20.694  1.00  0.00     0.179 C 
ATOM     30  C   UNL     1      -6.744  -6.070  19.690  1.00  0.00     0.177 C 
BRANCH  26  31
ATOM     31  O   UNL     1      -6.112  -3.764  21.683  1.00  0.00    -0.384 OA
ATOM     32  H   UNL     1      -6.574  -3.593  22.545  1.00  0.00     0.211 HD
ENDBRANCH  26  31
BRANCH  28  33
ATOM     33  O   UNL     1      -4.499  -6.706  20.335  1.00  0.00    -0.387 OA
ATOM     34  H   UNL     1      -4.682  -7.203  21.175  1.00  0.00     0.211 HD
ENDBRANCH  28  33
BRANCH  29  35
ATOM     35  C   UNL     1      -8.863  -7.408  20.145  1.00  0.00     0.191 C 
BRANCH  35  36
ATOM     36  O   UNL     1      -8.947  -8.804  20.030  1.00  0.00    -0.394 OA
ATOM     37  H   UNL     1      -9.744  -8.998  19.472  1.00  0.00     0.210 HD
ENDBRANCH  35  36
ENDBRANCH  29  35
BRANCH  30  38
ATOM     38  O   UNL     1      -6.532  -6.764  18.487  1.00  0.00    -0.387 OA
ATOM     39  H   UNL     1      -6.393  -7.718  18.728  1.00  0.00     0.211 HD
ENDBRANCH  30  38
ENDBRANCH   1  25
TORSDOF 11
ENDMDL
MODEL 8
REMARK VINA RESULT:    -6.200      1.887      9.207
REMARK INTER + INTRA:          -9.658
REMARK INTER:                  -8.799
REMARK INTRA:                  -0.859
REMARK UNBOUND:                -0.739
REMARK SMILES O=c1cc(-c2ccc(O)c(O)c2)oc2cc(O[C@@H]3O[C@@H](CO)[C@H](O)[C@H](O)[C@H]3O)cc(O)c12
REMARK SMILES IDX 17 1 16 2 4 3 3 4 13 5 2 6 14 7 1 8 32 9 15 10 30 11 29 12
REMARK SMILES IDX 5 13 6 14 7 15 8 16 12 17 10 18 9 19 11 21 31 23 18 25 27 26
REMARK SMILES IDX 19 27 25 28 20 29 23 30 28 31 26 33 21 35 22 36 24 38
REMARK H PARENT 9 20 11 22 31 24 28 32 26 34 22 37 24 39
REMARK Flexibility Score: inf
ROOT
ATOM      1  O   UNL     1      -3.168  -6.950  25.607  1.00  0.00    -0.462 OA
ENDROOT
BRANCH   1   2
ATOM      2  C   UNL     1      -4.049  -7.146  24.531  1.00  0.00     0.130 A 
ATOM      3  C   UNL     1      -6.523  -5.435  20.832  1.00  0.00     0.138 A 
ATOM      4  C   UNL     1      -7.037  -6.694  20.500  1.00  0.00     0.100 A 
ATOM      5  O   UNL     1      -5.713  -5.318  21.878  1.00  0.00    -0.456 OA
ATOM      6  C   UNL     1      -6.682  -7.808  21.261  1.00  0.00     0.197 A 
ATOM      7  C   UNL     1      -5.344  -6.344  22.638  1.00  0.00     0.146 A 
ATOM      8  O   UNL     1      -7.155  -8.924  20.925  1.00  0.00    -0.289 OA
ATOM      9  C   UNL     1      -5.814  -7.659  22.371  1.00  0.00     0.107 A 
ATOM     10  C   UNL     1      -4.479  -6.099  23.706  1.00  0.00     0.094 A 
ATOM     11  C   UNL     1      -5.382  -8.719  23.227  1.00  0.00     0.134 A 
ATOM     12  C   UNL     1      -4.507  -8.439  24.282  1.00  0.00     0.093 A 
BRANCH   3  13
ATOM     13  C   UNL     1      -6.865  -4.215  20.056  1.00  0.00     0.021 A 
ATOM     14  C   UNL     1      -7.569  -3.172  20.683  1.00  0.00     0.016 A 
ATOM     15  C   UNL     1      -7.897  -2.012  19.978  1.00  0.00     0.051 A 
ATOM     16  C   UNL     1      -7.521  -1.866  18.641  1.00  0.00     0.157 A 
ATOM     17  C   UNL     1      -6.476  -4.059  18.711  1.00  0.00     0.062 A 
ATOM     18  C   UNL     1      -6.803  -2.891  18.004  1.00  0.00     0.158 A 
BRANCH  16  19
ATOM     19  O   UNL     1      -7.863  -0.696  17.963  1.00  0.00    -0.504 OA
ATOM     20  H   UNL     1      -8.096   0.160  18.450  1.00  0.00     0.293 HD
ENDBRANCH  16  19
BRANCH  18  21
ATOM     21  O   UNL     1      -6.414  -2.748  16.672  1.00  0.00    -0.504 OA
ATOM     22  H   UNL     1      -6.876  -2.092  16.052  1.00  0.00     0.293 HD
ENDBRANCH  18  21
ENDBRANCH   3  13
BRANCH  11  23
ATOM     23  O   UNL     1      -5.776 -10.056  23.098  1.00  0.00    -0.507 OA
ATOM     24  H   UNL     1      -6.556 -10.495  23.559  1.00  0.00     0.293 HD
ENDBRANCH  11  23
ENDBRANCH   1   2
BRANCH   1  25
ATOM     25  C   UNL     1      -2.172  -7.882  26.036  1.00  0.00     0.339 C 
ATOM     26  C   UNL     1      -0.941  -7.135  26.596  1.00  0.00     0.214 C 
ATOM     27  O   UNL     1      -2.698  -8.803  26.981  1.00  0.00    -0.332 OA
ATOM     28  C   UNL     1      -1.247  -6.484  27.959  1.00  0.00     0.180 C 
ATOM     29  C   UNL     1      -3.143  -8.149  28.160  1.00  0.00     0.179 C 
ATOM     30  C   UNL     1      -1.958  -7.483  28.897  1.00  0.00     0.177 C 
BRANCH  26  31
ATOM     31  O   UNL     1       0.174  -7.989  26.686  1.00  0.00    -0.384 OA
ATOM     32  H   UNL     1       0.600  -7.850  27.572  1.00  0.00     0.211 HD
ENDBRANCH  26  31
BRANCH  28  33
ATOM     33  O   UNL     1      -2.054  -5.349  27.756  1.00  0.00    -0.387 OA
ATOM     34  H   UNL     1      -2.997  -5.662  27.732  1.00  0.00     0.211 HD
ENDBRANCH  28  33
BRANCH  29  35
ATOM     35  C   UNL     1      -3.853  -9.179  29.051  1.00  0.00     0.191 C 
BRANCH  35  36
ATOM     36  O   UNL     1      -4.744  -8.558  29.939  1.00  0.00    -0.394 OA
ATOM     37  H   UNL     1      -4.611  -8.986  30.825  1.00  0.00     0.210 HD
ENDBRANCH  35  36
ENDBRANCH  29  35
BRANCH  30  38
ATOM     38  O   UNL     1      -2.422  -6.822  30.047  1.00  0.00    -0.387 OA
ATOM     39  H   UNL     1      -3.216  -6.293  29.772  1.00  0.00     0.211 HD
ENDBRANCH  30  38
ENDBRANCH   1  25
TORSDOF 11
ENDMDL
MODEL 9
REMARK VINA RESULT:    -6.137      2.005      8.894
REMARK INTER + INTRA:          -9.568
REMARK INTER:                  -8.630
REMARK INTRA:                  -0.938
REMARK UNBOUND:                -0.739
REMARK SMILES O=c1cc(-c2ccc(O)c(O)c2)oc2cc(O[C@@H]3O[C@@H](CO)[C@H](O)[C@H](O)[C@H]3O)cc(O)c12
REMARK SMILES IDX 17 1 16 2 4 3 3 4 13 5 2 6 14 7 1 8 32 9 15 10 30 11 29 12
REMARK SMILES IDX 5 13 6 14 7 15 8 16 12 17 10 18 9 19 11 21 31 23 18 25 27 26
REMARK SMILES IDX 19 27 25 28 20 29 23 30 28 31 26 33 21 35 22 36 24 38
REMARK H PARENT 9 20 11 22 31 24 28 32 26 34 22 37 24 39
REMARK Flexibility Score: inf
ROOT
ATOM      1  O   UNL     1      -3.971  -8.045  24.644  1.00  0.00    -0.462 OA
ENDROOT
BRANCH   1   2
ATOM      2  C   UNL     1      -4.971  -7.925  23.666  1.00  0.00     0.130 A 
ATOM      3  C   UNL     1      -7.166  -5.401  20.269  1.00  0.00     0.138 A 
ATOM      4  C   UNL     1      -8.065  -6.435  19.979  1.00  0.00     0.100 A 
ATOM      5  O   UNL     1      -6.260  -5.575  21.224  1.00  0.00    -0.456 OA
ATOM      6  C   UNL     1      -7.989  -7.635  20.688  1.00  0.00     0.197 A 
ATOM      7  C   UNL     1      -6.144  -6.696  21.929  1.00  0.00     0.146 A 
ATOM      8  O   UNL     1      -8.806  -8.545  20.392  1.00  0.00    -0.289 OA
ATOM      9  C   UNL     1      -7.011  -7.798  21.701  1.00  0.00     0.107 A 
ATOM     10  C   UNL     1      -5.145  -6.763  22.902  1.00  0.00     0.094 A 
ATOM     11  C   UNL     1      -6.837  -8.973  22.495  1.00  0.00     0.134 A 
ATOM     12  C   UNL     1      -5.818  -9.011  23.454  1.00  0.00     0.093 A 
BRANCH   3  13
ATOM     13  C   UNL     1      -7.201  -4.104  19.546  1.00  0.00     0.021 A 
ATOM     14  C   UNL     1      -7.576  -2.938  20.236  1.00  0.00     0.016 A 
ATOM     15  C   UNL     1      -7.609  -1.705  19.582  1.00  0.00     0.051 A 
ATOM     16  C   UNL     1      -7.259  -1.610  18.233  1.00  0.00     0.157 A 
ATOM     17  C   UNL     1      -6.836  -4.002  18.189  1.00  0.00     0.062 A 
ATOM     18  C   UNL     1      -6.867  -2.761  17.532  1.00  0.00     0.158 A 
BRANCH  16  19
ATOM     19  O   UNL     1      -7.303  -0.364  17.606  1.00  0.00    -0.504 OA
ATOM     20  H   UNL     1      -8.100   0.254  17.691  1.00  0.00     0.293 HD
ENDBRANCH  16  19
BRANCH  18  21
ATOM     21  O   UNL     1      -6.505  -2.671  16.188  1.00  0.00    -0.504 OA
ATOM     22  H   UNL     1      -5.971  -3.402  15.732  1.00  0.00     0.293 HD
ENDBRANCH  18  21
ENDBRANCH   3  13
BRANCH  11  23
ATOM     23  O   UNL     1      -7.625 -10.125  22.394  1.00  0.00    -0.507 OA
ATOM     24  H   UNL     1      -7.435 -11.017  22.819  1.00  0.00     0.293 HD
ENDBRANCH  11  23
ENDBRANCH   1   2
BRANCH   1  25
ATOM     25  C   UNL     1      -4.202  -8.329  26.027  1.00  0.00     0.339 C 
ATOM     26  C   UNL     1      -3.243  -9.437  26.516  1.00  0.00     0.214 C 
ATOM     27  O   UNL     1      -4.093  -7.157  26.822  1.00  0.00    -0.332 OA
ATOM     28  C   UNL     1      -1.795  -8.922  26.628  1.00  0.00     0.180 C 
ATOM     29  C   UNL     1      -2.790  -6.599  26.759  1.00  0.00     0.179 C 
ATOM     30  C   UNL     1      -1.749  -7.568  27.366  1.00  0.00     0.177 C 
BRANCH  26  31
ATOM     31  O   UNL     1      -3.678  -9.982  27.739  1.00  0.00    -0.384 OA
ATOM     32  H   UNL     1      -4.087 -10.868  27.556  1.00  0.00     0.211 HD
ENDBRANCH  26  31
BRANCH  28  33
ATOM     33  O   UNL     1      -1.253  -8.789  25.336  1.00  0.00    -0.387 OA
ATOM     34  H   UNL     1      -0.611  -9.537  25.210  1.00  0.00     0.211 HD
ENDBRANCH  28  33
BRANCH  29  35
ATOM     35  C   UNL     1      -2.800  -5.250  27.494  1.00  0.00     0.191 C 
BRANCH  35  36
ATOM     36  O   UNL     1      -2.365  -5.389  28.821  1.00  0.00    -0.394 OA
ATOM     37  H   UNL     1      -1.651  -4.715  28.961  1.00  0.00     0.210 HD
ENDBRANCH  35  36
ENDBRANCH  29  35
BRANCH  30  38
ATOM     38  O   UNL     1      -0.464  -7.008  27.274  1.00  0.00    -0.387 OA
ATOM     39  H   UNL     1      -0.366  -6.388  28.044  1.00  0.00     0.211 HD
ENDBRANCH  30  38
ENDBRANCH   1  25
TORSDOF 11
ENDMDL
