MODEL 1
REMARK VINA RESULT:    -3.992      0.000      0.000
REMARK INTER + INTRA:          -4.715
REMARK INTER:                  -4.458
REMARK INTRA:                  -0.256
REMARK UNBOUND:                -0.256
REMARK SMILES O=C([O-])C=Cc1ccccc1
REMARK SMILES IDX 4 1 5 2 2 3 1 4 3 5 6 6 7 7 11 8 8 9 10 10 9 11
REMARK H PARENT
REMARK Flexibility Score: inf
ROOT
ATOM      1  C   UNL     1     -26.251 -51.589  23.992  1.00  0.00     0.025 C 
ATOM      2  C   UNL     1     -26.599 -52.386  25.016  1.00  0.00     0.010 C 
ENDROOT
BRANCH   1   3
ATOM      3  C   UNL     1     -25.408 -50.382  24.086  1.00  0.00     0.064 C 
ATOM      4  O   UNL     1     -24.150 -50.453  24.057  1.00  0.00    -0.545 OA
ATOM      5  O   UNL     1     -26.012 -49.147  24.279  1.00  0.00    -0.545 OA
ENDBRANCH   1   3
BRANCH   2   6
ATOM      6  C   UNL     1     -26.057 -52.303  26.388  1.00  0.00    -0.026 A 
ATOM      7  C   UNL     1     -24.989 -53.120  26.801  1.00  0.00     0.008 A 
ATOM      8  C   UNL     1     -26.685 -51.467  27.326  1.00  0.00     0.008 A 
ATOM      9  C   UNL     1     -24.526 -53.061  28.119  1.00  0.00     0.001 A 
ATOM     10  C   UNL     1     -26.218 -51.411  28.643  1.00  0.00     0.001 A 
ATOM     11  C   UNL     1     -25.137 -52.203  29.038  1.00  0.00     0.000 A 
ENDBRANCH   2   6
TORSDOF 2
ENDMDL
MODEL 2
REMARK VINA RESULT:    -3.955      3.046      5.286
REMARK INTER + INTRA:          -4.673
REMARK INTER:                  -4.524
REMARK INTRA:                  -0.149
REMARK UNBOUND:                -0.256
REMARK SMILES O=C([O-])C=Cc1ccccc1
REMARK SMILES IDX 4 1 5 2 2 3 1 4 3 5 6 6 7 7 11 8 8 9 10 10 9 11
REMARK H PARENT
REMARK Flexibility Score: inf
ROOT
ATOM      1  C   UNL     1     -24.800 -50.383  24.161  1.00  0.00     0.025 C 
ATOM      2  C   UNL     1     -24.963 -49.103  23.791  1.00  0.00     0.010 C 
ENDROOT
BRANCH   1   3
ATOM      3  C   UNL     1     -25.836 -51.248  24.756  1.00  0.00     0.064 C 
ATOM      4  O   UNL     1     -26.031 -51.282  26.000  1.00  0.00    -0.545 OA
ATOM      5  O   UNL     1     -26.566 -52.096  23.933  1.00  0.00    -0.545 OA
ENDBRANCH   1   3
BRANCH   2   6
ATOM      6  C   UNL     1     -26.252 -48.383  23.745  1.00  0.00    -0.026 A 
ATOM      7  C   UNL     1     -27.272 -48.770  22.857  1.00  0.00     0.008 A 
ATOM      8  C   UNL     1     -26.424 -47.230  24.528  1.00  0.00     0.008 A 
ATOM      9  C   UNL     1     -28.465 -48.042  22.794  1.00  0.00     0.001 A 
ATOM     10  C   UNL     1     -27.618 -46.505  24.462  1.00  0.00     0.001 A 
ATOM     11  C   UNL     1     -28.640 -46.913  23.600  1.00  0.00     0.000 A 
ENDBRANCH   2   6
TORSDOF 2
ENDMDL
MODEL 3
REMARK VINA RESULT:    -3.948      8.619      9.748
REMARK INTER + INTRA:          -4.666
REMARK INTER:                  -4.401
REMARK INTRA:                  -0.264
REMARK UNBOUND:                -0.256
REMARK SMILES O=C([O-])C=Cc1ccccc1
REMARK SMILES IDX 4 1 5 2 2 3 1 4 3 5 6 6 7 7 11 8 8 9 10 10 9 11
REMARK H PARENT
REMARK Flexibility Score: inf
ROOT
ATOM      1  C   UNL     1     -31.887 -52.417  29.605  1.00  0.00     0.025 C 
ATOM      2  C   UNL     1     -32.353 -53.323  28.730  1.00  0.00     0.010 C 
ENDROOT
BRANCH   1   3
ATOM      3  C   UNL     1     -32.676 -51.747  30.656  1.00  0.00     0.064 C 
ATOM      4  O   UNL     1     -33.293 -50.671  30.432  1.00  0.00    -0.545 OA
ATOM      5  O   UNL     1     -32.683 -52.277  31.939  1.00  0.00    -0.545 OA
ENDBRANCH   1   3
BRANCH   2   6
ATOM      6  C   UNL     1     -33.691 -53.946  28.774  1.00  0.00    -0.026 A 
ATOM      7  C   UNL     1     -34.762 -53.429  28.024  1.00  0.00     0.008 A 
ATOM      8  C   UNL     1     -33.923 -55.011  29.660  1.00  0.00     0.008 A 
ATOM      9  C   UNL     1     -36.034 -54.005  28.122  1.00  0.00     0.001 A 
ATOM     10  C   UNL     1     -35.196 -55.584  29.754  1.00  0.00     0.001 A 
ATOM     11  C   UNL     1     -36.249 -55.085  28.983  1.00  0.00     0.000 A 
ENDBRANCH   2   6
TORSDOF 2
ENDMDL
MODEL 4
REMARK VINA RESULT:    -3.939      2.521      3.146
REMARK INTER + INTRA:          -4.656
REMARK INTER:                  -4.462
REMARK INTRA:                  -0.195
REMARK UNBOUND:                -0.256
REMARK SMILES O=C([O-])C=Cc1ccccc1
REMARK SMILES IDX 4 1 5 2 2 3 1 4 3 5 6 6 7 7 11 8 8 9 10 10 9 11
REMARK H PARENT
REMARK Flexibility Score: inf
ROOT
ATOM      1  C   UNL     1     -27.120 -52.712  24.131  1.00  0.00     0.025 C 
ATOM      2  C   UNL     1     -26.238 -51.993  24.844  1.00  0.00     0.010 C 
ENDROOT
BRANCH   1   3
ATOM      3  C   UNL     1     -27.842 -53.908  24.604  1.00  0.00     0.064 C 
ATOM      4  O   UNL     1     -27.647 -55.042  24.091  1.00  0.00    -0.545 OA
ATOM      5  O   UNL     1     -28.809 -53.768  25.591  1.00  0.00    -0.545 OA
ENDBRANCH   1   3
BRANCH   2   6
ATOM      6  C   UNL     1     -25.966 -52.159  26.287  1.00  0.00    -0.026 A 
ATOM      7  C   UNL     1     -26.629 -51.376  27.249  1.00  0.00     0.008 A 
ATOM      8  C   UNL     1     -24.953 -53.041  26.697  1.00  0.00     0.008 A 
ATOM      9  C   UNL     1     -26.317 -51.515  28.605  1.00  0.00     0.001 A 
ATOM     10  C   UNL     1     -24.646 -53.177  28.055  1.00  0.00     0.001 A 
ATOM     11  C   UNL     1     -25.330 -52.419  29.008  1.00  0.00     0.000 A 
ENDBRANCH   2   6
TORSDOF 2
ENDMDL
MODEL 5
REMARK VINA RESULT:    -3.913      9.774     10.696
REMARK INTER + INTRA:          -4.627
REMARK INTER:                  -4.380
REMARK INTRA:                  -0.247
REMARK UNBOUND:                -0.256
REMARK SMILES O=C([O-])C=Cc1ccccc1
REMARK SMILES IDX 4 1 5 2 2 3 1 4 3 5 6 6 7 7 11 8 8 9 10 10 9 11
REMARK H PARENT
REMARK Flexibility Score: inf
ROOT
ATOM      1  C   UNL     1     -33.796 -45.614  23.826  1.00  0.00     0.025 C 
ATOM      2  C   UNL     1     -34.652 -46.298  24.603  1.00  0.00     0.010 C 
ENDROOT
BRANCH   1   3
ATOM      3  C   UNL     1     -33.013 -44.433  24.236  1.00  0.00     0.064 C 
ATOM      4  O   UNL     1     -33.330 -43.271  23.864  1.00  0.00    -0.545 OA
ATOM      5  O   UNL     1     -31.862 -44.612  24.992  1.00  0.00    -0.545 OA
ENDBRANCH   1   3
BRANCH   2   6
ATOM      6  C   UNL     1     -34.830 -46.104  26.057  1.00  0.00    -0.026 A 
ATOM      7  C   UNL     1     -34.132 -46.892  26.989  1.00  0.00     0.008 A 
ATOM      8  C   UNL     1     -35.790 -45.187  26.515  1.00  0.00     0.008 A 
ATOM      9  C   UNL     1     -34.355 -46.726  28.360  1.00  0.00     0.001 A 
ATOM     10  C   UNL     1     -36.009 -45.024  27.887  1.00  0.00     0.001 A 
ATOM     11  C   UNL     1     -35.290 -45.788  28.808  1.00  0.00     0.000 A 
ENDBRANCH   2   6
TORSDOF 2
ENDMDL
MODEL 6
REMARK VINA RESULT:    -3.913      6.967      8.870
REMARK INTER + INTRA:          -4.627
REMARK INTER:                  -4.431
REMARK INTRA:                  -0.196
REMARK UNBOUND:                -0.256
REMARK SMILES O=C([O-])C=Cc1ccccc1
REMARK SMILES IDX 4 1 5 2 2 3 1 4 3 5 6 6 7 7 11 8 8 9 10 10 9 11
REMARK H PARENT
REMARK Flexibility Score: inf
ROOT
ATOM      1  C   UNL     1     -25.603 -49.040  35.400  1.00  0.00     0.025 C 
ATOM      2  C   UNL     1     -25.108 -50.211  34.968  1.00  0.00     0.010 C 
ENDROOT
BRANCH   1   3
ATOM      3  C   UNL     1     -26.922 -48.479  35.050  1.00  0.00     0.064 C 
ATOM      4  O   UNL     1     -27.106 -47.851  33.974  1.00  0.00    -0.545 OA
ATOM      5  O   UNL     1     -27.967 -48.587  35.959  1.00  0.00    -0.545 OA
ENDBRANCH   1   3
BRANCH   2   6
ATOM      6  C   UNL     1     -25.862 -51.233  34.212  1.00  0.00    -0.026 A 
ATOM      7  C   UNL     1     -26.885 -51.982  34.819  1.00  0.00     0.008 A 
ATOM      8  C   UNL     1     -25.481 -51.531  32.893  1.00  0.00     0.008 A 
ATOM      9  C   UNL     1     -27.550 -52.980  34.098  1.00  0.00     0.001 A 
ATOM     10  C   UNL     1     -26.149 -52.529  32.176  1.00  0.00     0.001 A 
ATOM     11  C   UNL     1     -27.186 -53.249  32.776  1.00  0.00     0.000 A 
ENDBRANCH   2   6
TORSDOF 2
ENDMDL
MODEL 7
REMARK VINA RESULT:    -3.904      8.351      9.355
REMARK INTER + INTRA:          -4.617
REMARK INTER:                  -4.365
REMARK INTRA:                  -0.252
REMARK UNBOUND:                -0.256
REMARK SMILES O=C([O-])C=Cc1ccccc1
REMARK SMILES IDX 4 1 5 2 2 3 1 4 3 5 6 6 7 7 11 8 8 9 10 10 9 11
REMARK H PARENT
REMARK Flexibility Score: inf
ROOT
ATOM      1  C   UNL     1     -33.331 -50.998  28.403  1.00  0.00     0.025 C 
ATOM      2  C   UNL     1     -34.126 -51.589  29.310  1.00  0.00     0.010 C 
ENDROOT
BRANCH   1   3
ATOM      3  C   UNL     1     -32.694 -51.663  27.250  1.00  0.00     0.064 C 
ATOM      4  O   UNL     1     -31.503 -52.071  27.301  1.00  0.00    -0.545 OA
ATOM      5  O   UNL     1     -33.400 -51.779  26.060  1.00  0.00    -0.545 OA
ENDBRANCH   1   3
BRANCH   2   6
ATOM      6  C   UNL     1     -34.654 -52.966  29.218  1.00  0.00    -0.026 A 
ATOM      7  C   UNL     1     -35.763 -53.270  28.409  1.00  0.00     0.008 A 
ATOM      8  C   UNL     1     -34.102 -53.969  30.031  1.00  0.00     0.008 A 
ATOM      9  C   UNL     1     -36.277 -54.570  28.377  1.00  0.00     0.001 A 
ATOM     10  C   UNL     1     -34.618 -55.268  29.996  1.00  0.00     0.001 A 
ATOM     11  C   UNL     1     -35.701 -55.570  29.167  1.00  0.00     0.000 A 
ENDBRANCH   2   6
TORSDOF 2
ENDMDL
MODEL 8
REMARK VINA RESULT:    -3.893     11.339     12.971
REMARK INTER + INTRA:          -4.605
REMARK INTER:                  -4.374
REMARK INTRA:                  -0.231
REMARK UNBOUND:                -0.256
REMARK SMILES O=C([O-])C=Cc1ccccc1
REMARK SMILES IDX 4 1 5 2 2 3 1 4 3 5 6 6 7 7 11 8 8 9 10 10 9 11
REMARK H PARENT
REMARK Flexibility Score: inf
ROOT
ATOM      1  C   UNL     1     -34.394 -46.356  34.180  1.00  0.00     0.025 C 
ATOM      2  C   UNL     1     -33.796 -45.374  33.485  1.00  0.00     0.010 C 
ENDROOT
BRANCH   1   3
ATOM      3  C   UNL     1     -35.481 -47.223  33.688  1.00  0.00     0.064 C 
ATOM      4  O   UNL     1     -36.660 -47.112  34.120  1.00  0.00    -0.545 OA
ATOM      5  O   UNL     1     -35.186 -48.231  32.779  1.00  0.00    -0.545 OA
ENDBRANCH   1   3
BRANCH   2   6
ATOM      6  C   UNL     1     -33.993 -45.103  32.046  1.00  0.00    -0.026 A 
ATOM      7  C   UNL     1     -33.132 -45.650  31.077  1.00  0.00     0.008 A 
ATOM      8  C   UNL     1     -34.992 -44.202  31.647  1.00  0.00     0.008 A 
ATOM      9  C   UNL     1     -33.306 -45.338  29.724  1.00  0.00     0.001 A 
ATOM     10  C   UNL     1     -35.163 -43.893  30.293  1.00  0.00     0.001 A 
ATOM     11  C   UNL     1     -34.324 -44.464  29.333  1.00  0.00     0.000 A 
ENDBRANCH   2   6
TORSDOF 2
ENDMDL
MODEL 9
REMARK VINA RESULT:    -3.842      5.495      7.370
REMARK INTER + INTRA:          -4.548
REMARK INTER:                  -4.273
REMARK INTRA:                  -0.275
REMARK UNBOUND:                -0.256
REMARK SMILES O=C([O-])C=Cc1ccccc1
REMARK SMILES IDX 4 1 5 2 2 3 1 4 3 5 6 6 7 7 11 8 8 9 10 10 9 11
REMARK H PARENT
REMARK Flexibility Score: inf
ROOT
ATOM      1  C   UNL     1     -26.938 -52.200  34.447  1.00  0.00     0.025 C 
ATOM      2  C   UNL     1     -27.360 -53.145  33.591  1.00  0.00     0.010 C 
ENDROOT
BRANCH   1   3
ATOM      3  C   UNL     1     -26.002 -51.104  34.128  1.00  0.00     0.064 C 
ATOM      4  O   UNL     1     -24.756 -51.245  34.248  1.00  0.00    -0.545 OA
ATOM      5  O   UNL     1     -26.511 -49.866  33.754  1.00  0.00    -0.545 OA
ENDBRANCH   1   3
BRANCH   2   6
ATOM      6  C   UNL     1     -27.110 -53.155  32.135  1.00  0.00    -0.026 A 
ATOM      7  C   UNL     1     -27.960 -52.476  31.244  1.00  0.00     0.008 A 
ATOM      8  C   UNL     1     -26.066 -53.941  31.624  1.00  0.00     0.008 A 
ATOM      9  C   UNL     1     -27.734 -52.542  29.865  1.00  0.00     0.001 A 
ATOM     10  C   UNL     1     -25.843 -54.005  30.244  1.00  0.00     0.001 A 
ATOM     11  C   UNL     1     -26.672 -53.302  29.366  1.00  0.00     0.000 A 
ENDBRANCH   2   6
TORSDOF 2
ENDMDL
