MODEL 1
REMARK VINA RESULT:     2.983      0.000      0.000
REMARK INTER + INTRA:           5.325
REMARK INTER:                   4.204
REMARK INTRA:                   1.122
REMARK UNBOUND:                 1.122
REMARK SMILES CC1=CCC(=C(C)C)C(=O)CC(C)=CCC1
REMARK SMILES IDX 12 1 14 2 13 3 15 4 16 5 2 6 1 7 3 8 11 10 9 11 10 12 5 13
REMARK SMILES IDX 6 14 7 15 8 16 4 17
REMARK H PARENT
REMARK Flexibility Score: 60.00
ROOT
ATOM      1  C   UNL     1      -5.733  13.531   8.257  1.00  0.00    -0.070 C 
ATOM      2  C   UNL     1      -5.153  12.667   9.122  1.00  0.00    -0.027 C 
ATOM      3  C   UNL     1      -6.347  14.784   8.831  1.00  0.00     0.039 C 
ENDROOT
BRANCH   2   4
ATOM      4  C   UNL     1      -4.575  11.314   8.782  1.00  0.00     0.032 C 
BRANCH   4   5
ATOM      5  C   UNL     1      -3.040  11.340   8.659  1.00  0.00     0.034 C 
BRANCH   5   6
ATOM      6  C   UNL     1      -2.580  11.239   7.217  1.00  0.00    -0.077 C 
ATOM      7  C   UNL     1      -2.244   9.876   6.667  1.00  0.00     0.039 C 
ATOM      8  C   UNL     1      -2.479  12.300   6.385  1.00  0.00    -0.023 CG0
ATOM      9  G   UNL     1      -2.802  13.731   6.738  1.00  0.00     0.000 G0
ENDBRANCH   5   6
ENDBRANCH   4   5
ENDBRANCH   2   4
BRANCH   1  10
ATOM     10  C   UNL     1      -5.854  13.276   6.762  1.00  0.00     0.111 C 
BRANCH  10  11
ATOM     11  C   UNL     1      -5.184  14.362   5.958  1.00  0.00     0.163 C 
ATOM     12  O   UNL     1      -5.893  15.320   5.546  1.00  0.00    -0.294 OA
BRANCH  11  13
ATOM     13  C   UNL     1      -3.711  14.355   5.690  1.00  0.00    -0.002 C 
ATOM     14  C   UNL     1      -3.191  14.840   4.522  1.00  0.00    -0.069 C 
ATOM     15  C   UNL     1      -4.080  15.343   3.407  1.00  0.00     0.039 C 
ATOM     16  C   UNL     1      -1.698  14.864   4.275  1.00  0.00     0.039 C 
BRANCH  13  17
ATOM     17  C   UNL     1      -2.822  13.716   6.741  1.00  0.00     0.066 CG0
ATOM     18  G   UNL     1      -2.514  12.290   6.352  1.00  0.00     0.000 G0
ENDBRANCH  13  17
ENDBRANCH  11  13
ENDBRANCH  10  11
ENDBRANCH   1  10
TORSDOF 0
ENDMDL
MODEL 2
REMARK VINA RESULT:     3.472      1.794      4.183
REMARK INTER + INTRA:           6.015
REMARK INTER:                   3.694
REMARK INTRA:                   2.320
REMARK UNBOUND:                 1.122
REMARK SMILES CC1=CCC(=C(C)C)C(=O)CC(C)=CCC1
REMARK SMILES IDX 12 1 14 2 13 3 15 4 16 5 2 6 1 7 3 8 11 10 9 11 10 12 5 13
REMARK SMILES IDX 6 14 7 15 8 16 4 17
REMARK H PARENT
REMARK Flexibility Score: 60.00
ROOT
ATOM      1  C   UNL     1      -2.964  11.211   8.103  1.00  0.00    -0.070 C 
ATOM      2  C   UNL     1      -2.257  11.738   7.076  1.00  0.00    -0.027 C 
ATOM      3  C   UNL     1      -2.208  10.399   9.125  1.00  0.00     0.039 C 
ENDROOT
BRANCH   2   4
ATOM      4  C   UNL     1      -2.821  12.489   5.895  1.00  0.00     0.032 C 
BRANCH   4   5
ATOM      5  C   UNL     1      -2.696  14.017   6.050  1.00  0.00     0.034 C 
BRANCH   5   6
ATOM      6  C   UNL     1      -3.633  14.764   5.120  1.00  0.00    -0.077 C 
ATOM      7  C   UNL     1      -3.138  15.124   3.743  1.00  0.00     0.039 C 
ATOM      8  C   UNL     1      -4.901  15.105   5.446  1.00  0.00    -0.023 CG0
ATOM      9  G   UNL     1      -5.585  14.804   6.757  1.00  0.00     0.000 G0
ENDBRANCH   5   6
ENDBRANCH   4   5
ENDBRANCH   2   4
BRANCH   1  10
ATOM     10  C   UNL     1      -4.473  11.339   8.242  1.00  0.00     0.111 C 
BRANCH  10  11
ATOM     11  C   UNL     1      -4.918  12.778   8.168  1.00  0.00     0.163 C 
ATOM     12  O   UNL     1      -4.591  13.550   9.110  1.00  0.00    -0.294 OA
BRANCH  11  13
ATOM     13  C   UNL     1      -5.679  13.312   6.995  1.00  0.00    -0.002 C 
ATOM     14  C   UNL     1      -6.353  12.486   6.139  1.00  0.00    -0.069 C 
ATOM     15  C   UNL     1      -6.305  10.982   6.288  1.00  0.00     0.039 C 
ATOM     16  C   UNL     1      -7.151  13.037   4.977  1.00  0.00     0.039 C 
BRANCH  13  17
ATOM     17  C   UNL     1      -5.610  14.809   6.751  1.00  0.00     0.066 CG0
ATOM     18  G   UNL     1      -4.899  15.082   5.448  1.00  0.00     0.000 G0
ENDBRANCH  13  17
ENDBRANCH  11  13
ENDBRANCH  10  11
ENDBRANCH   1  10
TORSDOF 0
ENDMDL
MODEL 3
REMARK VINA RESULT:     3.899      1.754      3.412
REMARK INTER + INTRA:           6.616
REMARK INTER:                   5.099
REMARK INTRA:                   1.517
REMARK UNBOUND:                 1.122
REMARK SMILES CC1=CCC(=C(C)C)C(=O)CC(C)=CCC1
REMARK SMILES IDX 12 1 14 2 13 3 15 4 16 5 2 6 1 7 3 8 11 10 9 11 10 12 5 13
REMARK SMILES IDX 6 14 7 15 8 16 4 17
REMARK H PARENT
REMARK Flexibility Score: 60.00
ROOT
ATOM      1  C   UNL     1      -3.427  14.167   6.104  1.00  0.00    -0.070 C 
ATOM      2  C   UNL     1      -2.602  13.595   7.012  1.00  0.00    -0.027 C 
ATOM      3  C   UNL     1      -2.975  14.178   4.664  1.00  0.00     0.039 C 
ENDROOT
BRANCH   2   4
ATOM      4  C   UNL     1      -2.802  13.566   8.508  1.00  0.00     0.032 C 
BRANCH   4   5
ATOM      5  C   UNL     1      -2.472  12.193   9.123  1.00  0.00     0.034 C 
BRANCH   5   6
ATOM      6  C   UNL     1      -2.894  11.047   8.223  1.00  0.00    -0.077 C 
ATOM      7  C   UNL     1      -1.831  10.105   7.718  1.00  0.00     0.039 C 
ATOM      8  C   UNL     1      -4.176  10.803   7.869  1.00  0.00    -0.023 CG0
ATOM      9  G   UNL     1      -5.378  11.607   8.301  1.00  0.00     0.000 G0
ENDBRANCH   5   6
ENDBRANCH   4   5
ENDBRANCH   2   4
BRANCH   1  10
ATOM     10  C   UNL     1      -4.737  14.848   6.464  1.00  0.00     0.111 C 
BRANCH  10  11
ATOM     11  C   UNL     1      -5.562  14.004   7.404  1.00  0.00     0.163 C 
ATOM     12  O   UNL     1      -6.106  14.573   8.390  1.00  0.00    -0.294 OA
BRANCH  11  13
ATOM     13  C   UNL     1      -5.788  12.544   7.166  1.00  0.00    -0.002 C 
ATOM     14  C   UNL     1      -6.379  12.086   6.021  1.00  0.00    -0.069 C 
ATOM     15  C   UNL     1      -6.904  13.034   4.966  1.00  0.00     0.039 C 
ATOM     16  C   UNL     1      -6.570  10.606   5.771  1.00  0.00     0.039 C 
BRANCH  13  17
ATOM     17  C   UNL     1      -5.400  11.594   8.284  1.00  0.00     0.066 CG0
ATOM     18  G   UNL     1      -4.182  10.799   7.880  1.00  0.00     0.000 G0
ENDBRANCH  13  17
ENDBRANCH  11  13
ENDBRANCH  10  11
ENDBRANCH   1  10
TORSDOF 0
ENDMDL
MODEL 4
REMARK VINA RESULT:     4.094      1.653      3.759
REMARK INTER + INTRA:           6.891
REMARK INTER:                   4.840
REMARK INTRA:                   2.051
REMARK UNBOUND:                 1.122
REMARK SMILES CC1=CCC(=C(C)C)C(=O)CC(C)=CCC1
REMARK SMILES IDX 12 1 14 2 13 3 15 4 16 5 2 6 1 7 3 8 11 10 9 11 10 12 5 13
REMARK SMILES IDX 6 14 7 15 8 16 4 17
REMARK H PARENT
REMARK Flexibility Score: 60.00
ROOT
ATOM      1  C   UNL     1      -2.994  10.782   8.084  1.00  0.00    -0.070 C 
ATOM      2  C   UNL     1      -4.193  10.929   8.693  1.00  0.00    -0.027 C 
ATOM      3  C   UNL     1      -1.963   9.923   8.774  1.00  0.00     0.039 C 
ENDROOT
BRANCH   2   4
ATOM      4  C   UNL     1      -5.324  11.818   8.239  1.00  0.00     0.032 C 
BRANCH   4   5
ATOM      5  C   UNL     1      -5.488  13.068   9.125  1.00  0.00     0.034 C 
BRANCH   5   6
ATOM      6  C   UNL     1      -6.016  14.257   8.346  1.00  0.00    -0.077 C 
ATOM      7  C   UNL     1      -6.671  15.379   9.111  1.00  0.00     0.039 C 
ATOM      8  C   UNL     1      -5.911  14.382   7.004  1.00  0.00    -0.023 CG0
ATOM      9  G   UNL     1      -5.262  13.387   6.073  1.00  0.00     0.000 G0
ENDBRANCH   5   6
ENDBRANCH   4   5
ENDBRANCH   2   4
BRANCH   1  10
ATOM     10  C   UNL     1      -2.613  11.481   6.789  1.00  0.00     0.111 C 
BRANCH  10  11
ATOM     11  C   UNL     1      -2.865  12.967   6.866  1.00  0.00     0.163 C 
ATOM     12  O   UNL     1      -2.232  13.632   7.732  1.00  0.00    -0.294 OA
BRANCH  11  13
ATOM     13  C   UNL     1      -3.791  13.664   5.919  1.00  0.00    -0.002 C 
ATOM     14  C   UNL     1      -3.333  14.573   5.005  1.00  0.00    -0.069 C 
ATOM     15  C   UNL     1      -1.878  14.979   4.952  1.00  0.00     0.039 C 
ATOM     16  C   UNL     1      -4.271  15.246   4.026  1.00  0.00     0.039 C 
BRANCH  13  17
ATOM     17  C   UNL     1      -5.273  13.374   6.064  1.00  0.00     0.066 CG0
ATOM     18  G   UNL     1      -5.907  14.396   6.977  1.00  0.00     0.000 G0
ENDBRANCH  13  17
ENDBRANCH  11  13
ENDBRANCH  10  11
ENDBRANCH   1  10
TORSDOF 0
ENDMDL
MODEL 5
REMARK VINA RESULT:     5.480      1.716      4.235
REMARK INTER + INTRA:           8.844
REMARK INTER:                   6.983
REMARK INTRA:                   1.861
REMARK UNBOUND:                 1.122
REMARK SMILES CC1=CCC(=C(C)C)C(=O)CC(C)=CCC1
REMARK SMILES IDX 12 1 14 2 13 3 15 4 16 5 2 6 1 7 3 8 11 10 9 11 10 12 5 13
REMARK SMILES IDX 6 14 7 15 8 16 4 17
REMARK H PARENT
REMARK Flexibility Score: 60.00
ROOT
ATOM      1  C   UNL     1      -6.224  13.105   5.984  1.00  0.00    -0.070 C 
ATOM      2  C   UNL     1      -6.064  14.066   5.045  1.00  0.00    -0.027 C 
ATOM      3  C   UNL     1      -6.714  11.755   5.522  1.00  0.00     0.039 C 
ENDROOT
BRANCH   2   4
ATOM      4  C   UNL     1      -5.688  15.507   5.294  1.00  0.00     0.032 C 
BRANCH   4   5
ATOM      5  C   UNL     1      -4.241  15.662   5.796  1.00  0.00     0.034 C 
BRANCH   5   6
ATOM      6  C   UNL     1      -3.355  14.513   5.353  1.00  0.00    -0.077 C 
ATOM      7  C   UNL     1      -3.004  14.403   3.891  1.00  0.00     0.039 C 
ATOM      8  C   UNL     1      -2.837  13.594   6.199  1.00  0.00    -0.023 CG0
ATOM      9  G   UNL     1      -3.044  13.557   7.694  1.00  0.00     0.000 G0
ENDBRANCH   5   6
ENDBRANCH   4   5
ENDBRANCH   2   4
BRANCH   1  10
ATOM     10  C   UNL     1      -6.000  13.331   7.471  1.00  0.00     0.111 C 
BRANCH  10  11
ATOM     11  C   UNL     1      -5.191  12.216   8.087  1.00  0.00     0.163 C 
ATOM     12  O   UNL     1      -5.811  11.218   8.547  1.00  0.00    -0.294 OA
BRANCH  11  13
ATOM     13  C   UNL     1      -3.696  12.244   8.113  1.00  0.00    -0.002 C 
ATOM     14  C   UNL     1      -2.965  11.174   8.551  1.00  0.00    -0.069 C 
ATOM     15  C   UNL     1      -3.629   9.932   9.101  1.00  0.00     0.039 C 
ATOM     16  C   UNL     1      -1.451  11.196   8.540  1.00  0.00     0.039 C 
BRANCH  13  17
ATOM     17  C   UNL     1      -3.022  13.541   7.703  1.00  0.00     0.066 CG0
ATOM     18  G   UNL     1      -2.842  13.572   6.205  1.00  0.00     0.000 G0
ENDBRANCH  13  17
ENDBRANCH  11  13
ENDBRANCH  10  11
ENDBRANCH   1  10
TORSDOF 0
ENDMDL
