MODEL 1
REMARK VINA RESULT:    -3.797      0.000      0.000
REMARK INTER + INTRA:          -4.135
REMARK INTER:                  -5.351
REMARK INTRA:                   1.216
REMARK UNBOUND:                 1.216
REMARK SMILES CC1=CCC(=C(C)C)C(=O)CC(C)=CCC1
REMARK SMILES IDX 12 1 14 2 13 3 15 4 16 5 2 6 1 7 3 8 11 10 9 11 10 12 5 13
REMARK SMILES IDX 6 14 7 15 8 16 4 17
REMARK H PARENT
REMARK Flexibility Score: 60.00
ROOT
ATOM      1  C   UNL     1      -3.896  -3.124   1.957  1.00  0.00    -0.070 C 
ATOM      2  C   UNL     1      -3.390  -2.690   3.135  1.00  0.00    -0.027 C 
ATOM      3  C   UNL     1      -4.249  -2.094   0.915  1.00  0.00     0.039 C 
ENDROOT
BRANCH   2   4
ATOM      4  C   UNL     1      -2.932  -3.582   4.267  1.00  0.00     0.032 C 
BRANCH   4   5
ATOM      5  C   UNL     1      -3.432  -3.071   5.627  1.00  0.00     0.034 C 
BRANCH   5   6
ATOM      6  C   UNL     1      -4.704  -3.757   6.104  1.00  0.00    -0.077 C 
ATOM      7  C   UNL     1      -5.607  -3.029   7.068  1.00  0.00     0.039 C 
ATOM      8  C   UNL     1      -5.086  -4.988   5.691  1.00  0.00    -0.023 CG0
ATOM      9  G   UNL     1      -4.287  -5.894   4.785  1.00  0.00     0.000 G0
ENDBRANCH   5   6
ENDBRANCH   4   5
ENDBRANCH   2   4
BRANCH   1  10
ATOM     10  C   UNL     1      -4.124  -4.591   1.646  1.00  0.00     0.111 C 
BRANCH  10  11
ATOM     11  C   UNL     1      -5.235  -5.155   2.487  1.00  0.00     0.163 C 
ATOM     12  O   UNL     1      -6.407  -4.713   2.341  1.00  0.00    -0.294 OA
BRANCH  11  13
ATOM     13  C   UNL     1      -4.985  -6.241   3.469  1.00  0.00    -0.002 C 
ATOM     14  C   UNL     1      -5.370  -7.517   3.194  1.00  0.00    -0.069 C 
ATOM     15  C   UNL     1      -5.974  -7.882   1.856  1.00  0.00     0.039 C 
ATOM     16  C   UNL     1      -5.170  -8.626   4.202  1.00  0.00     0.039 C 
BRANCH  13  17
ATOM     17  C   UNL     1      -4.292  -5.906   4.785  1.00  0.00     0.066 CG0
ATOM     18  G   UNL     1      -5.094  -4.993   5.680  1.00  0.00     0.000 G0
ENDBRANCH  13  17
ENDBRANCH  11  13
ENDBRANCH  10  11
ENDBRANCH   1  10
TORSDOF 0
ENDMDL
MODEL 2
REMARK VINA RESULT:    -3.757      2.113      3.827
REMARK INTER + INTRA:          -4.079
REMARK INTER:                  -5.632
REMARK INTRA:                   1.553
REMARK UNBOUND:                 1.216
REMARK SMILES CC1=CCC(=C(C)C)C(=O)CC(C)=CCC1
REMARK SMILES IDX 12 1 14 2 13 3 15 4 16 5 2 6 1 7 3 8 11 10 9 11 10 12 5 13
REMARK SMILES IDX 6 14 7 15 8 16 4 17
REMARK H PARENT
REMARK Flexibility Score: 60.00
ROOT
ATOM      1  C   UNL     1      -4.014  -3.805   5.366  1.00  0.00    -0.070 C 
ATOM      2  C   UNL     1      -2.997  -3.692   4.479  1.00  0.00    -0.027 C 
ATOM      3  C   UNL     1      -4.276  -2.647   6.294  1.00  0.00     0.039 C 
ENDROOT
BRANCH   2   4
ATOM      4  C   UNL     1      -2.629  -4.728   3.441  1.00  0.00     0.032 C 
BRANCH   4   5
ATOM      5  C   UNL     1      -2.593  -4.126   2.028  1.00  0.00     0.034 C 
BRANCH   5   6
ATOM      6  C   UNL     1      -3.860  -3.367   1.658  1.00  0.00    -0.077 C 
ATOM      7  C   UNL     1      -3.735  -1.989   1.061  1.00  0.00     0.039 C 
ATOM      8  C   UNL     1      -5.104  -3.875   1.819  1.00  0.00    -0.023 CG0
ATOM      9  G   UNL     1      -5.433  -5.203   2.457  1.00  0.00     0.000 G0
ENDBRANCH   5   6
ENDBRANCH   4   5
ENDBRANCH   2   4
BRANCH   1  10
ATOM     10  C   UNL     1      -4.890  -5.039   5.466  1.00  0.00     0.111 C 
BRANCH  10  11
ATOM     11  C   UNL     1      -6.257  -4.780   4.899  1.00  0.00     0.163 C 
ATOM     12  O   UNL     1      -7.138  -4.248   5.627  1.00  0.00    -0.294 OA
BRANCH  11  13
ATOM     13  C   UNL     1      -6.584  -5.114   3.489  1.00  0.00    -0.002 C 
ATOM     14  C   UNL     1      -7.874  -5.338   3.119  1.00  0.00    -0.069 C 
ATOM     15  C   UNL     1      -9.012  -5.165   4.101  1.00  0.00     0.039 C 
ATOM     16  C   UNL     1      -8.221  -5.728   1.700  1.00  0.00     0.039 C 
BRANCH  13  17
ATOM     17  C   UNL     1      -5.457  -5.200   2.465  1.00  0.00     0.066 CG0
ATOM     18  G   UNL     1      -5.118  -3.877   1.822  1.00  0.00     0.000 G0
ENDBRANCH  13  17
ENDBRANCH  11  13
ENDBRANCH  10  11
ENDBRANCH   1  10
TORSDOF 0
ENDMDL
MODEL 3
REMARK VINA RESULT:    -3.450     16.506     18.627
REMARK INTER + INTRA:          -3.646
REMARK INTER:                  -4.245
REMARK INTRA:                   0.600
REMARK UNBOUND:                 1.216
REMARK SMILES CC1=CCC(=C(C)C)C(=O)CC(C)=CCC1
REMARK SMILES IDX 12 1 14 2 13 3 15 4 16 5 2 6 1 7 3 8 11 10 9 11 10 12 5 13
REMARK SMILES IDX 6 14 7 15 8 16 4 17
REMARK H PARENT
REMARK Flexibility Score: 60.00
ROOT
ATOM      1  C   UNL     1       7.708   5.271   5.885  1.00  0.00    -0.070 C 
ATOM      2  C   UNL     1       8.671   4.587   5.224  1.00  0.00    -0.027 C 
ATOM      3  C   UNL     1       6.378   4.595   6.097  1.00  0.00     0.039 C 
ENDROOT
BRANCH   2   4
ATOM      4  C   UNL     1      10.076   5.087   4.971  1.00  0.00     0.032 C 
BRANCH   4   5
ATOM      5  C   UNL     1      11.125   4.198   5.656  1.00  0.00     0.034 C 
BRANCH   5   6
ATOM      6  C   UNL     1      10.779   3.849   7.097  1.00  0.00    -0.077 C 
ATOM      7  C   UNL     1      10.547   2.405   7.461  1.00  0.00     0.039 C 
ATOM      8  C   UNL     1      10.688   4.771   8.083  1.00  0.00    -0.023 CG0
ATOM      9  G   UNL     1      10.821   6.264   7.902  1.00  0.00     0.000 G0
ENDBRANCH   5   6
ENDBRANCH   4   5
ENDBRANCH   2   4
BRANCH   1  10
ATOM     10  C   UNL     1       7.908   6.679   6.413  1.00  0.00     0.111 C 
BRANCH  10  11
ATOM     11  C   UNL     1       8.260   6.664   7.874  1.00  0.00     0.163 C 
ATOM     12  O   UNL     1       7.402   6.275   8.712  1.00  0.00    -0.294 OA
BRANCH  11  13
ATOM     13  C   UNL     1       9.606   7.074   8.349  1.00  0.00    -0.002 C 
ATOM     14  C   UNL     1       9.745   8.157   9.162  1.00  0.00    -0.069 C 
ATOM     15  C   UNL     1       8.539   8.912   9.675  1.00  0.00     0.039 C 
ATOM     16  C   UNL     1      11.111   8.620   9.615  1.00  0.00     0.039 C 
BRANCH  13  17
ATOM     17  C   UNL     1      10.824   6.267   7.916  1.00  0.00     0.066 CG0
ATOM     18  G   UNL     1      10.666   4.778   8.109  1.00  0.00     0.000 G0
ENDBRANCH  13  17
ENDBRANCH  11  13
ENDBRANCH  10  11
ENDBRANCH   1  10
TORSDOF 0
ENDMDL
MODEL 4
REMARK VINA RESULT:    -3.361     10.702     12.191
REMARK INTER + INTRA:          -3.521
REMARK INTER:                  -4.388
REMARK INTRA:                   0.867
REMARK UNBOUND:                 1.216
REMARK SMILES CC1=CCC(=C(C)C)C(=O)CC(C)=CCC1
REMARK SMILES IDX 12 1 14 2 13 3 15 4 16 5 2 6 1 7 3 8 11 10 9 11 10 12 5 13
REMARK SMILES IDX 6 14 7 15 8 16 4 17
REMARK H PARENT
REMARK Flexibility Score: 60.00
ROOT
ATOM      1  C   UNL     1       4.609  -8.321  -4.887  1.00  0.00    -0.070 C 
ATOM      2  C   UNL     1       5.625  -7.520  -4.486  1.00  0.00    -0.027 C 
ATOM      3  C   UNL     1       4.661  -8.886  -6.283  1.00  0.00     0.039 C 
ENDROOT
BRANCH   2   4
ATOM      4  C   UNL     1       5.764  -6.913  -3.109  1.00  0.00     0.032 C 
BRANCH   4   5
ATOM      5  C   UNL     1       4.473  -6.206  -2.668  1.00  0.00     0.034 C 
BRANCH   5   6
ATOM      6  C   UNL     1       4.145  -4.970  -3.493  1.00  0.00    -0.077 C 
ATOM      7  C   UNL     1       5.173  -3.872  -3.601  1.00  0.00     0.039 C 
ATOM      8  C   UNL     1       2.978  -4.809  -4.160  1.00  0.00    -0.023 CG0
ATOM      9  G   UNL     1       1.807  -5.762  -4.120  1.00  0.00     0.000 G0
ENDBRANCH   5   6
ENDBRANCH   4   5
ENDBRANCH   2   4
BRANCH   1  10
ATOM     10  C   UNL     1       3.429  -8.666  -3.998  1.00  0.00     0.111 C 
BRANCH  10  11
ATOM     11  C   UNL     1       2.131  -8.272  -4.645  1.00  0.00     0.163 C 
ATOM     12  O   UNL     1       1.208  -9.125  -4.748  1.00  0.00    -0.294 OA
BRANCH  11  13
ATOM     13  C   UNL     1       1.905  -6.892  -5.145  1.00  0.00    -0.002 C 
ATOM     14  C   UNL     1       1.795  -6.656  -6.481  1.00  0.00    -0.069 C 
ATOM     15  C   UNL     1       1.807  -7.791  -7.481  1.00  0.00     0.039 C 
ATOM     16  C   UNL     1       1.614  -5.252  -7.012  1.00  0.00     0.039 C 
BRANCH  13  17
ATOM     17  C   UNL     1       1.797  -5.748  -4.144  1.00  0.00     0.066 CG0
ATOM     18  G   UNL     1       2.977  -4.807  -4.166  1.00  0.00     0.000 G0
ENDBRANCH  13  17
ENDBRANCH  11  13
ENDBRANCH  10  11
ENDBRANCH   1  10
TORSDOF 0
ENDMDL
MODEL 5
REMARK VINA RESULT:    -3.276      1.821      4.382
REMARK INTER + INTRA:          -3.400
REMARK INTER:                  -4.546
REMARK INTRA:                   1.145
REMARK UNBOUND:                 1.216
REMARK SMILES CC1=CCC(=C(C)C)C(=O)CC(C)=CCC1
REMARK SMILES IDX 12 1 14 2 13 3 15 4 16 5 2 6 1 7 3 8 11 10 9 11 10 12 5 13
REMARK SMILES IDX 6 14 7 15 8 16 4 17
REMARK H PARENT
REMARK Flexibility Score: 60.00
ROOT
ATOM      1  C   UNL     1      -3.563  -5.172   3.051  1.00  0.00    -0.070 C 
ATOM      2  C   UNL     1      -4.352  -6.106   2.469  1.00  0.00    -0.027 C 
ATOM      3  C   UNL     1      -2.884  -4.164   2.161  1.00  0.00     0.039 C 
ENDROOT
BRANCH   2   4
ATOM      4  C   UNL     1      -5.150  -7.156   3.209  1.00  0.00     0.032 C 
BRANCH   4   5
ATOM      5  C   UNL     1      -6.660  -6.897   3.104  1.00  0.00     0.034 C 
BRANCH   5   6
ATOM      6  C   UNL     1      -7.020  -5.419   3.028  1.00  0.00    -0.077 C 
ATOM      7  C   UNL     1      -7.548  -4.864   1.730  1.00  0.00     0.039 C 
ATOM      8  C   UNL     1      -6.912  -4.573   4.079  1.00  0.00    -0.023 CG0
ATOM      9  G   UNL     1      -6.346  -4.926   5.434  1.00  0.00     0.000 G0
ENDBRANCH   5   6
ENDBRANCH   4   5
ENDBRANCH   2   4
BRANCH   1  10
ATOM     10  C   UNL     1      -3.333  -5.102   4.549  1.00  0.00     0.111 C 
BRANCH  10  11
ATOM     11  C   UNL     1      -3.988  -3.886   5.140  1.00  0.00     0.163 C 
ATOM     12  O   UNL     1      -3.470  -2.752   4.952  1.00  0.00    -0.294 OA
BRANCH  11  13
ATOM     13  C   UNL     1      -5.246  -3.989   5.922  1.00  0.00    -0.002 C 
ATOM     14  C   UNL     1      -5.411  -3.255   7.057  1.00  0.00    -0.069 C 
ATOM     15  C   UNL     1      -4.367  -2.253   7.500  1.00  0.00     0.039 C 
ATOM     16  C   UNL     1      -6.664  -3.383   7.893  1.00  0.00     0.039 C 
BRANCH  13  17
ATOM     17  C   UNL     1      -6.348  -4.924   5.437  1.00  0.00     0.066 CG0
ATOM     18  G   UNL     1      -6.905  -4.556   4.082  1.00  0.00     0.000 G0
ENDBRANCH  13  17
ENDBRANCH  11  13
ENDBRANCH  10  11
ENDBRANCH   1  10
TORSDOF 0
ENDMDL
MODEL 6
REMARK VINA RESULT:    -3.275      2.384      3.391
REMARK INTER + INTRA:          -3.400
REMARK INTER:                  -3.811
REMARK INTRA:                   0.411
REMARK UNBOUND:                 1.216
REMARK SMILES CC1=CCC(=C(C)C)C(=O)CC(C)=CCC1
REMARK SMILES IDX 12 1 14 2 13 3 15 4 16 5 2 6 1 7 3 8 11 10 9 11 10 12 5 13
REMARK SMILES IDX 6 14 7 15 8 16 4 17
REMARK H PARENT
REMARK Flexibility Score: 60.00
ROOT
ATOM      1  C   UNL     1      -4.147  -3.894   5.235  1.00  0.00    -0.070 C 
ATOM      2  C   UNL     1      -4.636  -3.152   6.256  1.00  0.00    -0.027 C 
ATOM      3  C   UNL     1      -2.919  -3.393   4.520  1.00  0.00     0.039 C 
ENDROOT
BRANCH   2   4
ATOM      4  C   UNL     1      -5.821  -3.529   7.116  1.00  0.00     0.032 C 
BRANCH   4   5
ATOM      5  C   UNL     1      -7.106  -2.828   6.649  1.00  0.00     0.034 C 
BRANCH   5   6
ATOM      6  C   UNL     1      -8.261  -3.785   6.388  1.00  0.00    -0.077 C 
ATOM      7  C   UNL     1      -9.110  -4.234   7.550  1.00  0.00     0.039 C 
ATOM      8  C   UNL     1      -8.583  -4.243   5.156  1.00  0.00    -0.023 CG0
ATOM      9  G   UNL     1      -7.815  -3.960   3.887  1.00  0.00     0.000 G0
ENDBRANCH   5   6
ENDBRANCH   4   5
ENDBRANCH   2   4
BRANCH   1  10
ATOM     10  C   UNL     1      -4.780  -5.197   4.782  1.00  0.00     0.111 C 
BRANCH  10  11
ATOM     11  C   UNL     1      -5.493  -5.023   3.470  1.00  0.00     0.163 C 
ATOM     12  O   UNL     1      -4.821  -4.810   2.425  1.00  0.00    -0.294 OA
BRANCH  11  13
ATOM     13  C   UNL     1      -6.972  -5.122   3.376  1.00  0.00    -0.002 C 
ATOM     14  C   UNL     1      -7.553  -6.235   2.852  1.00  0.00    -0.069 C 
ATOM     15  C   UNL     1      -6.723  -7.431   2.438  1.00  0.00     0.039 C 
ATOM     16  C   UNL     1      -9.054  -6.334   2.702  1.00  0.00     0.039 C 
BRANCH  13  17
ATOM     17  C   UNL     1      -7.827  -3.962   3.876  1.00  0.00     0.066 CG0
ATOM     18  G   UNL     1      -8.591  -4.272   5.141  1.00  0.00     0.000 G0
ENDBRANCH  13  17
ENDBRANCH  11  13
ENDBRANCH  10  11
ENDBRANCH   1  10
TORSDOF 0
ENDMDL
MODEL 7
REMARK VINA RESULT:    -3.185     12.005     13.201
REMARK INTER + INTRA:          -3.273
REMARK INTER:                  -3.636
REMARK INTRA:                   0.363
REMARK UNBOUND:                 1.216
REMARK SMILES CC1=CCC(=C(C)C)C(=O)CC(C)=CCC1
REMARK SMILES IDX 12 1 14 2 13 3 15 4 16 5 2 6 1 7 3 8 11 10 9 11 10 12 5 13
REMARK SMILES IDX 6 14 7 15 8 16 4 17
REMARK H PARENT
REMARK Flexibility Score: 60.00
ROOT
ATOM      1  C   UNL     1       7.905  -6.291   2.683  1.00  0.00    -0.070 C 
ATOM      2  C   UNL     1       8.808  -5.284   2.629  1.00  0.00    -0.027 C 
ATOM      3  C   UNL     1       7.925  -7.320   1.582  1.00  0.00     0.039 C 
ENDROOT
BRANCH   2   4
ATOM      4  C   UNL     1       8.967  -4.201   3.672  1.00  0.00     0.032 C 
BRANCH   4   5
ATOM      5  C   UNL     1       9.993  -4.595   4.745  1.00  0.00     0.034 C 
BRANCH   5   6
ATOM      6  C   UNL     1       9.530  -4.304   6.165  1.00  0.00    -0.077 C 
ATOM      7  C   UNL     1       9.631  -2.894   6.690  1.00  0.00     0.039 C 
ATOM      8  C   UNL     1       9.008  -5.246   6.984  1.00  0.00    -0.023 CG0
ATOM      9  G   UNL     1       8.887  -6.717   6.664  1.00  0.00     0.000 G0
ENDBRANCH   5   6
ENDBRANCH   4   5
ENDBRANCH   2   4
BRANCH   1  10
ATOM     10  C   UNL     1       6.881  -6.425   3.795  1.00  0.00     0.111 C 
BRANCH  10  11
ATOM     11  C   UNL     1       7.287  -7.485   4.779  1.00  0.00     0.163 C 
ATOM     12  O   UNL     1       7.467  -8.666   4.378  1.00  0.00    -0.294 OA
BRANCH  11  13
ATOM     13  C   UNL     1       7.506  -7.164   6.213  1.00  0.00    -0.002 C 
ATOM     14  C   UNL     1       6.476  -7.249   7.100  1.00  0.00    -0.069 C 
ATOM     15  C   UNL     1       5.116  -7.758   6.674  1.00  0.00     0.039 C 
ATOM     16  C   UNL     1       6.666  -6.879   8.553  1.00  0.00     0.039 C 
BRANCH  13  17
ATOM     17  C   UNL     1       8.895  -6.740   6.676  1.00  0.00     0.066 CG0
ATOM     18  G   UNL     1       9.014  -5.263   6.969  1.00  0.00     0.000 G0
ENDBRANCH  13  17
ENDBRANCH  11  13
ENDBRANCH  10  11
ENDBRANCH   1  10
TORSDOF 0
ENDMDL
MODEL 8
REMARK VINA RESULT:    -2.951     17.507     19.703
REMARK INTER + INTRA:          -2.942
REMARK INTER:                  -3.741
REMARK INTRA:                   0.799
REMARK UNBOUND:                 1.216
REMARK SMILES CC1=CCC(=C(C)C)C(=O)CC(C)=CCC1
REMARK SMILES IDX 12 1 14 2 13 3 15 4 16 5 2 6 1 7 3 8 11 10 9 11 10 12 5 13
REMARK SMILES IDX 6 14 7 15 8 16 4 17
REMARK H PARENT
REMARK Flexibility Score: 60.00
ROOT
ATOM      1  C   UNL     1      10.465   9.220  10.183  1.00  0.00    -0.070 C 
ATOM      2  C   UNL     1      11.028   8.080   9.720  1.00  0.00    -0.027 C 
ATOM      3  C   UNL     1      11.022  10.534   9.698  1.00  0.00     0.039 C 
ENDROOT
BRANCH   2   4
ATOM      4  C   UNL     1      10.564   6.680  10.055  1.00  0.00     0.032 C 
BRANCH   4   5
ATOM      5  C   UNL     1      10.129   5.911   8.799  1.00  0.00     0.034 C 
BRANCH   5   6
ATOM      6  C   UNL     1       9.190   6.701   7.897  1.00  0.00    -0.077 C 
ATOM      7  C   UNL     1       9.601   6.964   6.471  1.00  0.00     0.039 C 
ATOM      8  C   UNL     1       7.986   7.167   8.303  1.00  0.00    -0.023 CG0
ATOM      9  G   UNL     1       7.433   7.061   9.704  1.00  0.00     0.000 G0
ENDBRANCH   5   6
ENDBRANCH   4   5
ENDBRANCH   2   4
BRANCH   1  10
ATOM     10  C   UNL     1       9.309   9.231  11.166  1.00  0.00     0.111 C 
BRANCH  10  11
ATOM     11  C   UNL     1       8.003   9.472  10.462  1.00  0.00     0.163 C 
ATOM     12  O   UNL     1       7.767  10.608   9.969  1.00  0.00    -0.294 OA
BRANCH  11  13
ATOM     13  C   UNL     1       6.994   8.392  10.315  1.00  0.00    -0.002 C 
ATOM     14  C   UNL     1       5.708   8.596  10.711  1.00  0.00    -0.069 C 
ATOM     15  C   UNL     1       5.251   9.945  11.221  1.00  0.00     0.039 C 
ATOM     16  C   UNL     1       4.679   7.494  10.615  1.00  0.00     0.039 C 
BRANCH  13  17
ATOM     17  C   UNL     1       7.418   7.056   9.715  1.00  0.00     0.066 CG0
ATOM     18  G   UNL     1       7.983   7.170   8.319  1.00  0.00     0.000 G0
ENDBRANCH  13  17
ENDBRANCH  11  13
ENDBRANCH  10  11
ENDBRANCH   1  10
TORSDOF 0
ENDMDL
MODEL 9
REMARK VINA RESULT:    -2.866     12.769     14.097
REMARK INTER + INTRA:          -2.823
REMARK INTER:                  -3.293
REMARK INTRA:                   0.470
REMARK UNBOUND:                 1.216
REMARK SMILES CC1=CCC(=C(C)C)C(=O)CC(C)=CCC1
REMARK SMILES IDX 12 1 14 2 13 3 15 4 16 5 2 6 1 7 3 8 11 10 9 11 10 12 5 13
REMARK SMILES IDX 6 14 7 15 8 16 4 17
REMARK H PARENT
REMARK Flexibility Score: 60.00
ROOT
ATOM      1  C   UNL     1       7.696  -4.397   4.958  1.00  0.00    -0.070 C 
ATOM      2  C   UNL     1       7.039  -5.382   5.612  1.00  0.00    -0.027 C 
ATOM      3  C   UNL     1       8.067  -3.157   5.731  1.00  0.00     0.039 C 
ENDROOT
BRANCH   2   4
ATOM      4  C   UNL     1       6.639  -6.711   5.011  1.00  0.00     0.032 C 
BRANCH   4   5
ATOM      5  C   UNL     1       7.278  -7.888   5.764  1.00  0.00     0.034 C 
BRANCH   5   6
ATOM      6  C   UNL     1       8.794  -7.793   5.866  1.00  0.00    -0.077 C 
ATOM      7  C   UNL     1       9.431  -7.751   7.232  1.00  0.00     0.039 C 
ATOM      8  C   UNL     1       9.612  -7.766   4.788  1.00  0.00    -0.023 CG0
ATOM      9  G   UNL     1       9.161  -7.733   3.347  1.00  0.00     0.000 G0
ENDBRANCH   5   6
ENDBRANCH   4   5
ENDBRANCH   2   4
BRANCH   1  10
ATOM     10  C   UNL     1       8.068  -4.485   3.489  1.00  0.00     0.111 C 
BRANCH  10  11
ATOM     11  C   UNL     1       9.401  -5.155   3.309  1.00  0.00     0.163 C 
ATOM     12  O   UNL     1      10.435  -4.613   3.786  1.00  0.00    -0.294 OA
BRANCH  11  13
ATOM     13  C   UNL     1       9.523  -6.454   2.600  1.00  0.00    -0.002 C 
ATOM     14  C   UNL     1       9.951  -6.494   1.309  1.00  0.00    -0.069 C 
ATOM     15  C   UNL     1      10.400  -5.238   0.593  1.00  0.00     0.039 C 
ATOM     16  C   UNL     1      10.034  -7.802   0.555  1.00  0.00     0.039 C 
BRANCH  13  17
ATOM     17  C   UNL     1       9.163  -7.739   3.338  1.00  0.00     0.066 CG0
ATOM     18  G   UNL     1       9.609  -7.757   4.780  1.00  0.00     0.000 G0
ENDBRANCH  13  17
ENDBRANCH  11  13
ENDBRANCH  10  11
ENDBRANCH   1  10
TORSDOF 0
ENDMDL
