MODEL 1
REMARK VINA RESULT:    -2.210      0.000      0.000
REMARK INTER + INTRA:          -2.210
REMARK INTER:                  -2.210
REMARK INTRA:                   0.000
REMARK UNBOUND:                 0.000
REMARK SMILES CC1=CC=CC(C)(C)[C@H]1C
REMARK SMILES IDX 10 1 9 2 2 3 3 4 4 5 5 6 6 7 7 8 8 9 1 10
REMARK H PARENT
REMARK Flexibility Score: inf
ROOT
ATOM      1  C   UNL     1     166.080 173.230 138.377  1.00  0.00     0.013 C 
ATOM      2  C   UNL     1     166.764 174.547 138.789  1.00  0.00     0.021 C 
ATOM      3  C   UNL     1     165.905 175.222 139.849  1.00  0.00    -0.070 C 
ATOM      4  C   UNL     1     166.109 174.951 141.148  1.00  0.00    -0.001 C 
ATOM      5  C   UNL     1     167.236 174.103 141.576  1.00  0.00    -0.004 C 
ATOM      6  C   UNL     1     168.211 173.778 140.719  1.00  0.00    -0.020 C 
ATOM      7  C   UNL     1     168.234 174.352 139.313  1.00  0.00    -0.011 C 
ATOM      8  C   UNL     1     168.947 175.723 139.363  1.00  0.00     0.016 C 
ATOM      9  C   UNL     1     169.056 173.423 138.393  1.00  0.00     0.016 C 
ATOM     10  C   UNL     1     164.772 176.122 139.446  1.00  0.00     0.040 C 
ENDROOT
TORSDOF 0
ENDMDL
MODEL 2
REMARK VINA RESULT:    -2.206     15.995     17.544
REMARK INTER + INTRA:          -2.206
REMARK INTER:                  -2.206
REMARK INTRA:                   0.000
REMARK UNBOUND:                 0.000
REMARK SMILES CC1=CC=CC(C)(C)[C@H]1C
REMARK SMILES IDX 10 1 9 2 2 3 3 4 4 5 5 6 6 7 7 8 8 9 1 10
REMARK H PARENT
REMARK Flexibility Score: inf
ROOT
ATOM      1  C   UNL     1     165.913 158.772 138.383  1.00  0.00     0.013 C 
ATOM      2  C   UNL     1     165.226 157.457 138.797  1.00  0.00     0.021 C 
ATOM      3  C   UNL     1     166.078 156.788 139.866  1.00  0.00    -0.070 C 
ATOM      4  C   UNL     1     165.865 157.066 141.163  1.00  0.00    -0.001 C 
ATOM      5  C   UNL     1     164.734 157.916 141.578  1.00  0.00    -0.004 C 
ATOM      6  C   UNL     1     163.766 158.236 140.712  1.00  0.00    -0.020 C 
ATOM      7  C   UNL     1     163.753 157.654 139.309  1.00  0.00    -0.011 C 
ATOM      8  C   UNL     1     163.041 156.283 139.361  1.00  0.00     0.016 C 
ATOM      9  C   UNL     1     162.937 158.578 138.379  1.00  0.00     0.016 C 
ATOM     10  C   UNL     1     167.215 155.886 139.476  1.00  0.00     0.040 C 
ENDROOT
TORSDOF 0
ENDMDL
MODEL 3
REMARK VINA RESULT:    -2.130      1.405      3.539
REMARK INTER + INTRA:          -2.130
REMARK INTER:                  -2.130
REMARK INTRA:                   0.000
REMARK UNBOUND:                 0.000
REMARK SMILES CC1=CC=CC(C)(C)[C@H]1C
REMARK SMILES IDX 10 1 9 2 2 3 3 4 4 5 5 6 6 7 7 8 8 9 1 10
REMARK H PARENT
REMARK Flexibility Score: inf
ROOT
ATOM      1  C   UNL     1     168.621 173.145 136.971  1.00  0.00     0.013 C 
ATOM      2  C   UNL     1     168.385 173.137 138.493  1.00  0.00     0.021 C 
ATOM      3  C   UNL     1     169.378 174.094 139.136  1.00  0.00    -0.070 C 
ATOM      4  C   UNL     1     169.051 175.386 139.301  1.00  0.00    -0.001 C 
ATOM      5  C   UNL     1     167.696 175.870 138.983  1.00  0.00    -0.004 C 
ATOM      6  C   UNL     1     166.700 175.008 138.749  1.00  0.00    -0.020 C 
ATOM      7  C   UNL     1     166.914 173.512 138.901  1.00  0.00    -0.011 C 
ATOM      8  C   UNL     1     166.682 173.138 140.382  1.00  0.00     0.016 C 
ATOM      9  C   UNL     1     165.869 172.755 138.052  1.00  0.00     0.016 C 
ATOM     10  C   UNL     1     170.755 173.623 139.507  1.00  0.00     0.040 C 
ENDROOT
TORSDOF 0
ENDMDL
MODEL 4
REMARK VINA RESULT:    -2.114     15.993     17.039
REMARK INTER + INTRA:          -2.114
REMARK INTER:                  -2.114
REMARK INTRA:                   0.000
REMARK UNBOUND:                 0.000
REMARK SMILES CC1=CC=CC(C)(C)[C@H]1C
REMARK SMILES IDX 10 1 9 2 2 3 3 4 4 5 5 6 6 7 7 8 8 9 1 10
REMARK H PARENT
REMARK Flexibility Score: inf
ROOT
ATOM      1  C   UNL     1     164.104 155.879 138.409  1.00  0.00     0.013 C 
ATOM      2  C   UNL     1     164.773 157.266 138.415  1.00  0.00     0.021 C 
ATOM      3  C   UNL     1     163.695 158.317 138.639  1.00  0.00    -0.070 C 
ATOM      4  C   UNL     1     163.376 158.694 139.888  1.00  0.00    -0.001 C 
ATOM      5  C   UNL     1     164.142 158.198 141.046  1.00  0.00    -0.004 C 
ATOM      6  C   UNL     1     165.303 157.556 140.873  1.00  0.00    -0.020 C 
ATOM      7  C   UNL     1     165.912 157.408 139.490  1.00  0.00    -0.011 C 
ATOM      8  C   UNL     1     166.745 158.674 139.190  1.00  0.00     0.016 C 
ATOM      9  C   UNL     1     166.870 156.196 139.479  1.00  0.00     0.016 C 
ATOM     10  C   UNL     1     162.922 158.870 137.475  1.00  0.00     0.040 C 
ENDROOT
TORSDOF 0
ENDMDL
MODEL 5
REMARK VINA RESULT:    -2.114     15.552     16.871
REMARK INTER + INTRA:          -2.114
REMARK INTER:                  -2.114
REMARK INTRA:                   0.000
REMARK UNBOUND:                 0.000
REMARK SMILES CC1=CC=CC(C)(C)[C@H]1C
REMARK SMILES IDX 10 1 9 2 2 3 3 4 4 5 5 6 6 7 7 8 8 9 1 10
REMARK H PARENT
REMARK Flexibility Score: inf
ROOT
ATOM      1  C   UNL     1     163.370 158.871 136.943  1.00  0.00     0.013 C 
ATOM      2  C   UNL     1     163.612 158.910 138.464  1.00  0.00     0.021 C 
ATOM      3  C   UNL     1     162.607 157.982 139.132  1.00  0.00    -0.070 C 
ATOM      4  C   UNL     1     162.915 156.689 139.324  1.00  0.00    -0.001 C 
ATOM      5  C   UNL     1     164.262 156.178 139.011  1.00  0.00    -0.004 C 
ATOM      6  C   UNL     1     165.270 157.019 138.754  1.00  0.00    -0.020 C 
ATOM      7  C   UNL     1     165.079 158.522 138.874  1.00  0.00    -0.011 C 
ATOM      8  C   UNL     1     165.324 158.924 140.346  1.00  0.00     0.016 C 
ATOM      9  C   UNL     1     166.132 159.243 138.004  1.00  0.00     0.016 C 
ATOM     10  C   UNL     1     161.239 158.483 139.498  1.00  0.00     0.040 C 
ENDROOT
TORSDOF 0
ENDMDL
MODEL 6
REMARK VINA RESULT:    -2.114     16.158     17.547
REMARK INTER + INTRA:          -2.114
REMARK INTER:                  -2.114
REMARK INTRA:                   0.000
REMARK UNBOUND:                 0.000
REMARK SMILES CC1=CC=CC(C)(C)[C@H]1C
REMARK SMILES IDX 10 1 9 2 2 3 3 4 4 5 5 6 6 7 7 8 8 9 1 10
REMARK H PARENT
REMARK Flexibility Score: inf
ROOT
ATOM      1  C   UNL     1     165.696 159.025 138.759  1.00  0.00     0.013 C 
ATOM      2  C   UNL     1     165.280 158.135 139.945  1.00  0.00     0.021 C 
ATOM      3  C   UNL     1     163.760 158.115 140.018  1.00  0.00    -0.070 C 
ATOM      4  C   UNL     1     163.070 157.182 139.343  1.00  0.00    -0.001 C 
ATOM      5  C   UNL     1     163.766 156.096 138.629  1.00  0.00    -0.004 C 
ATOM      6  C   UNL     1     165.071 155.875 138.825  1.00  0.00    -0.020 C 
ATOM      7  C   UNL     1     165.848 156.672 139.859  1.00  0.00    -0.011 C 
ATOM      8  C   UNL     1     165.682 155.976 141.230  1.00  0.00     0.016 C 
ATOM      9  C   UNL     1     167.349 156.655 139.497  1.00  0.00     0.016 C 
ATOM     10  C   UNL     1     163.022 159.187 140.769  1.00  0.00     0.040 C 
ENDROOT
TORSDOF 0
ENDMDL
MODEL 7
REMARK VINA RESULT:    -2.092      1.139      2.359
REMARK INTER + INTRA:          -2.092
REMARK INTER:                  -2.092
REMARK INTRA:                   0.000
REMARK UNBOUND:                 0.000
REMARK SMILES CC1=CC=CC(C)(C)[C@H]1C
REMARK SMILES IDX 10 1 9 2 2 3 3 4 4 5 5 6 6 7 7 8 8 9 1 10
REMARK H PARENT
REMARK Flexibility Score: inf
ROOT
ATOM      1  C   UNL     1     167.713 173.381 141.237  1.00  0.00     0.013 C 
ATOM      2  C   UNL     1     167.529 173.339 139.709  1.00  0.00     0.021 C 
ATOM      3  C   UNL     1     166.215 174.026 139.365  1.00  0.00    -0.070 C 
ATOM      4  C   UNL     1     166.193 175.347 139.124  1.00  0.00    -0.001 C 
ATOM      5  C   UNL     1     167.443 176.125 139.063  1.00  0.00    -0.004 C 
ATOM      6  C   UNL     1     168.630 175.510 139.013  1.00  0.00    -0.020 C 
ATOM      7  C   UNL     1     168.718 173.996 138.917  1.00  0.00    -0.011 C 
ATOM      8  C   UNL     1     168.623 173.600 137.426  1.00  0.00     0.016 C 
ATOM      9  C   UNL     1     170.092 173.528 139.445  1.00  0.00     0.016 C 
ATOM     10  C   UNL     1     164.928 173.251 139.382  1.00  0.00     0.040 C 
ENDROOT
TORSDOF 0
ENDMDL
MODEL 8
REMARK VINA RESULT:    -2.088     15.914     17.339
REMARK INTER + INTRA:          -2.088
REMARK INTER:                  -2.088
REMARK INTRA:                   0.000
REMARK UNBOUND:                 0.000
REMARK SMILES CC1=CC=CC(C)(C)[C@H]1C
REMARK SMILES IDX 10 1 9 2 2 3 3 4 4 5 5 6 6 7 7 8 8 9 1 10
REMARK H PARENT
REMARK Flexibility Score: inf
ROOT
ATOM      1  C   UNL     1     164.240 158.512 141.303  1.00  0.00     0.013 C 
ATOM      2  C   UNL     1     164.437 158.627 139.780  1.00  0.00     0.021 C 
ATOM      3  C   UNL     1     165.761 157.968 139.417  1.00  0.00    -0.070 C 
ATOM      4  C   UNL     1     165.797 156.661 139.115  1.00  0.00    -0.001 C 
ATOM      5  C   UNL     1     164.554 155.875 139.006  1.00  0.00    -0.004 C 
ATOM      6  C   UNL     1     163.362 156.482 138.973  1.00  0.00    -0.020 C 
ATOM      7  C   UNL     1     163.261 157.997 138.947  1.00  0.00    -0.011 C 
ATOM      8  C   UNL     1     163.367 158.464 137.477  1.00  0.00     0.016 C 
ATOM      9  C   UNL     1     161.878 158.427 139.483  1.00  0.00     0.016 C 
ATOM     10  C   UNL     1     167.040 158.752 139.481  1.00  0.00     0.040 C 
ENDROOT
TORSDOF 0
ENDMDL
