MODEL 1
REMARK VINA RESULT:    -6.958      0.000      0.000
REMARK INTER + INTRA:         -11.754
REMARK INTER:                 -10.822
REMARK INTRA:                  -0.932
REMARK UNBOUND:                -0.932
REMARK SMILES C[C@@]12C[C@H](O)[C@H]3C[C@]1(O[C@H]1O[C@H](CO)[C@@H](O)[C@H](O)[C@@H]1O)[C@@]3(COC(=O)c1ccccc1)C(=O)O2
REMARK SMILES IDX 1 1 2 2 3 3 4 4 6 5 7 6 8 7 21 8 32 9 33 10 34 11 9 12 10 13
REMARK SMILES IDX 19 14 11 15 17 16 12 17 15 18 20 19 18 21 13 23 14 24 16 26
REMARK SMILES IDX 5 28 22 30 23 31 24 32 25 33 26 34 27 35 31 36 28 37 30 38
REMARK SMILES IDX 29 39
REMARK H PARENT 20 20 18 22 14 25 16 27 5 29
REMARK Flexibility Score: inf
ROOT
ATOM      1  C   UNL     1     -43.250 -15.372   0.937  1.00  0.00     0.060 C 
ATOM      2  C   UNL     1     -43.071 -14.316  -0.155  1.00  0.00     0.142 C 
ATOM      3  C   UNL     1     -43.020 -14.973  -1.581  1.00  0.00     0.083 C 
ATOM      4  C   UNL     1     -43.215 -13.900  -2.716  1.00  0.00     0.123 C 
ATOM      5  C   UNL     1     -44.003 -12.664  -2.175  1.00  0.00     0.045 C 
ATOM      6  C   UNL     1     -45.144 -13.215  -1.302  1.00  0.00     0.049 C 
ATOM      7  C   UNL     1     -44.142 -13.137  -0.124  1.00  0.00     0.131 C 
ATOM      8  C   UNL     1     -43.346 -12.064  -0.888  1.00  0.00     0.140 C 
ATOM      9  C   UNL     1     -41.929 -12.399  -0.548  1.00  0.00     0.319 C 
ATOM     10  O   UNL     1     -40.935 -11.652  -0.749  1.00  0.00    -0.251 OA
ATOM     11  O   UNL     1     -41.829 -13.653   0.003  1.00  0.00    -0.456 OA
ENDROOT
BRANCH   7  12
ATOM     12  O   UNL     1     -44.525 -12.760   1.203  1.00  0.00    -0.338 OA
BRANCH  12  13
ATOM     13  C   UNL     1     -45.919 -12.806   1.474  1.00  0.00     0.282 C 
ATOM     14  C   UNL     1     -46.421 -11.409   1.890  1.00  0.00     0.202 C 
ATOM     15  O   UNL     1     -46.247 -13.787   2.449  1.00  0.00    -0.341 OA
ATOM     16  C   UNL     1     -45.877 -11.036   3.282  1.00  0.00     0.179 C 
ATOM     17  C   UNL     1     -45.657 -13.509   3.709  1.00  0.00     0.178 C 
ATOM     18  C   UNL     1     -46.176 -12.167   4.278  1.00  0.00     0.177 C 
BRANCH  14  19
ATOM     19  O   UNL     1     -47.826 -11.411   1.900  1.00  0.00    -0.385 OA
ATOM     20  H   UNL     1     -48.122 -10.616   1.384  1.00  0.00     0.211 HD
ENDBRANCH  14  19
BRANCH  16  21
ATOM     21  O   UNL     1     -46.461  -9.843   3.737  1.00  0.00    -0.387 OA
ATOM     22  H   UNL     1     -47.203 -10.102   4.345  1.00  0.00     0.211 HD
ENDBRANCH  16  21
BRANCH  17  23
ATOM     23  C   UNL     1     -45.979 -14.669   4.662  1.00  0.00     0.191 C 
BRANCH  23  24
ATOM     24  O   UNL     1     -46.602 -15.715   3.967  1.00  0.00    -0.394 OA
ATOM     25  H   UNL     1     -45.876 -16.281   3.593  1.00  0.00     0.210 HD
ENDBRANCH  23  24
ENDBRANCH  17  23
BRANCH  18  26
ATOM     26  O   UNL     1     -45.601 -11.884   5.531  1.00  0.00    -0.387 OA
ATOM     27  H   UNL     1     -44.751 -11.395   5.370  1.00  0.00     0.211 HD
ENDBRANCH  18  26
ENDBRANCH  12  13
ENDBRANCH   7  12
BRANCH   4  28
ATOM     28  O   UNL     1     -41.978 -13.482  -3.230  1.00  0.00    -0.393 OA
ATOM     29  H   UNL     1     -42.103 -13.356  -4.207  1.00  0.00     0.210 HD
ENDBRANCH   4  28
BRANCH   8  30
ATOM     30  C   UNL     1     -43.717 -10.590  -0.624  1.00  0.00     0.255 C 
BRANCH  30  31
ATOM     31  O   UNL     1     -43.156 -10.175   0.617  1.00  0.00    -0.461 OA
BRANCH  31  32
ATOM     32  C   UNL     1     -43.268  -8.867   1.100  1.00  0.00     0.338 C 
ATOM     33  O   UNL     1     -44.248  -8.543   1.825  1.00  0.00    -0.246 OA
BRANCH  32  34
ATOM     34  C   UNL     1     -42.232  -7.868   0.755  1.00  0.00     0.060 A 
ATOM     35  C   UNL     1     -42.581  -6.662   0.119  1.00  0.00     0.015 A 
ATOM     36  C   UNL     1     -40.881  -8.114   1.059  1.00  0.00     0.015 A 
ATOM     37  C   UNL     1     -41.597  -5.721  -0.202  1.00  0.00     0.001 A 
ATOM     38  C   UNL     1     -39.901  -7.170   0.734  1.00  0.00     0.001 A 
ATOM     39  C   UNL     1     -40.258  -5.975   0.104  1.00  0.00     0.000 A 
ENDBRANCH  32  34
ENDBRANCH  31  32
ENDBRANCH  30  31
ENDBRANCH   8  30
TORSDOF 12
ENDMDL
MODEL 2
REMARK VINA RESULT:    -6.482      2.662      3.917
REMARK INTER + INTRA:         -11.015
REMARK INTER:                 -10.398
REMARK INTRA:                  -0.617
REMARK UNBOUND:                -0.932
REMARK SMILES C[C@@]12C[C@H](O)[C@H]3C[C@]1(O[C@H]1O[C@H](CO)[C@@H](O)[C@H](O)[C@@H]1O)[C@@]3(COC(=O)c1ccccc1)C(=O)O2
REMARK SMILES IDX 1 1 2 2 3 3 4 4 6 5 7 6 8 7 21 8 32 9 33 10 34 11 9 12 10 13
REMARK SMILES IDX 19 14 11 15 17 16 12 17 15 18 20 19 18 21 13 23 14 24 16 26
REMARK SMILES IDX 5 28 22 30 23 31 24 32 25 33 26 34 27 35 31 36 28 37 30 38
REMARK SMILES IDX 29 39
REMARK H PARENT 20 20 18 22 14 25 16 27 5 29
REMARK Flexibility Score: inf
ROOT
ATOM      1  C   UNL     1     -40.128 -13.200  -1.516  1.00  0.00     0.060 C 
ATOM      2  C   UNL     1     -40.624 -11.820  -1.949  1.00  0.00     0.142 C 
ATOM      3  C   UNL     1     -39.962 -11.374  -3.301  1.00  0.00     0.083 C 
ATOM      4  C   UNL     1     -40.727 -10.156  -3.942  1.00  0.00     0.123 C 
ATOM      5  C   UNL     1     -42.212 -10.123  -3.457  1.00  0.00     0.045 C 
ATOM      6  C   UNL     1     -42.720 -11.576  -3.489  1.00  0.00     0.049 C 
ATOM      7  C   UNL     1     -42.209 -11.677  -2.031  1.00  0.00     0.131 C 
ATOM      8  C   UNL     1     -42.323 -10.148  -1.897  1.00  0.00     0.140 C 
ATOM      9  C   UNL     1     -41.136  -9.800  -1.059  1.00  0.00     0.319 C 
ATOM     10  O   UNL     1     -40.946  -8.695  -0.487  1.00  0.00    -0.251 OA
ATOM     11  O   UNL     1     -40.243 -10.843  -0.997  1.00  0.00    -0.456 OA
ENDROOT
BRANCH   7  12
ATOM     12  O   UNL     1     -42.894 -12.416  -1.014  1.00  0.00    -0.338 OA
BRANCH  12  13
ATOM     13  C   UNL     1     -43.129 -13.787  -1.307  1.00  0.00     0.282 C 
ATOM     14  C   UNL     1     -44.513 -13.956  -1.964  1.00  0.00     0.202 C 
ATOM     15  O   UNL     1     -42.995 -14.614  -0.158  1.00  0.00    -0.341 OA
ATOM     16  C   UNL     1     -45.630 -13.693  -0.937  1.00  0.00     0.179 C 
ATOM     17  C   UNL     1     -43.953 -14.302   0.841  1.00  0.00     0.178 C 
ATOM     18  C   UNL     1     -45.391 -14.541   0.322  1.00  0.00     0.177 C 
BRANCH  14  19
ATOM     19  O   UNL     1     -44.620 -15.259  -2.479  1.00  0.00    -0.385 OA
ATOM     20  H   UNL     1     -45.580 -15.415  -2.680  1.00  0.00     0.211 HD
ENDBRANCH  14  19
BRANCH  16  21
ATOM     21  O   UNL     1     -46.886 -14.006  -1.482  1.00  0.00    -0.387 OA
ATOM     22  H   UNL     1     -46.741 -14.180  -2.450  1.00  0.00     0.211 HD
ENDBRANCH  16  21
BRANCH  17  23
ATOM     23  C   UNL     1     -43.666 -15.169   2.075  1.00  0.00     0.191 C 
BRANCH  23  24
ATOM     24  O   UNL     1     -44.489 -16.304   2.078  1.00  0.00    -0.394 OA
ATOM     25  H   UNL     1     -44.118 -16.923   2.761  1.00  0.00     0.210 HD
ENDBRANCH  23  24
ENDBRANCH  17  23
BRANCH  18  26
ATOM     26  O   UNL     1     -46.349 -14.241   1.307  1.00  0.00    -0.387 OA
ATOM     27  H   UNL     1     -46.448 -15.041   1.887  1.00  0.00     0.211 HD
ENDBRANCH  18  26
ENDBRANCH  12  13
ENDBRANCH   7  12
BRANCH   4  28
ATOM     28  O   UNL     1     -40.099  -8.943  -3.619  1.00  0.00    -0.393 OA
ATOM     29  H   UNL     1     -39.593  -9.098  -2.779  1.00  0.00     0.210 HD
ENDBRANCH   4  28
BRANCH   8  30
ATOM     30  C   UNL     1     -43.654  -9.587  -1.355  1.00  0.00     0.255 C 
BRANCH  30  31
ATOM     31  O   UNL     1     -44.153  -8.600  -2.252  1.00  0.00    -0.461 OA
BRANCH  31  32
ATOM     32  C   UNL     1     -44.294  -7.254  -1.897  1.00  0.00     0.338 C 
ATOM     33  O   UNL     1     -45.443  -6.737  -1.826  1.00  0.00    -0.246 OA
BRANCH  32  34
ATOM     34  C   UNL     1     -43.092  -6.443  -1.606  1.00  0.00     0.060 A 
ATOM     35  C   UNL     1     -42.102  -6.248  -2.587  1.00  0.00     0.015 A 
ATOM     36  C   UNL     1     -42.923  -5.856  -0.338  1.00  0.00     0.015 A 
ATOM     37  C   UNL     1     -40.969  -5.478  -2.304  1.00  0.00     0.001 A 
ATOM     38  C   UNL     1     -41.787  -5.089  -0.061  1.00  0.00     0.001 A 
ATOM     39  C   UNL     1     -40.810  -4.900  -1.043  1.00  0.00     0.000 A 
ENDBRANCH  32  34
ENDBRANCH  31  32
ENDBRANCH  30  31
ENDBRANCH   8  30
TORSDOF 12
ENDMDL
MODEL 3
REMARK VINA RESULT:    -6.452      2.616      8.449
REMARK INTER + INTRA:         -10.967
REMARK INTER:                  -9.951
REMARK INTRA:                  -1.016
REMARK UNBOUND:                -0.932
REMARK SMILES C[C@@]12C[C@H](O)[C@H]3C[C@]1(O[C@H]1O[C@H](CO)[C@@H](O)[C@H](O)[C@@H]1O)[C@@]3(COC(=O)c1ccccc1)C(=O)O2
REMARK SMILES IDX 1 1 2 2 3 3 4 4 6 5 7 6 8 7 21 8 32 9 33 10 34 11 9 12 10 13
REMARK SMILES IDX 19 14 11 15 17 16 12 17 15 18 20 19 18 21 13 23 14 24 16 26
REMARK SMILES IDX 5 28 22 30 23 31 24 32 25 33 26 34 27 35 31 36 28 37 30 38
REMARK SMILES IDX 29 39
REMARK H PARENT 20 20 18 22 14 25 16 27 5 29
REMARK Flexibility Score: inf
ROOT
ATOM      1  C   UNL     1     -46.086 -10.492   3.692  1.00  0.00     0.060 C 
ATOM      2  C   UNL     1     -45.959 -11.794   4.484  1.00  0.00     0.142 C 
ATOM      3  C   UNL     1     -47.109 -11.930   5.545  1.00  0.00     0.083 C 
ATOM      4  C   UNL     1     -47.214 -13.403   6.093  1.00  0.00     0.123 C 
ATOM      5  C   UNL     1     -46.639 -14.419   5.054  1.00  0.00     0.045 C 
ATOM      6  C   UNL     1     -47.149 -13.973   3.672  1.00  0.00     0.049 C 
ATOM      7  C   UNL     1     -45.866 -13.110   3.591  1.00  0.00     0.131 C 
ATOM      8  C   UNL     1     -45.187 -14.046   4.607  1.00  0.00     0.140 C 
ATOM      9  C   UNL     1     -44.371 -13.104   5.432  1.00  0.00     0.319 C 
ATOM     10  O   UNL     1     -43.458 -13.437   6.232  1.00  0.00    -0.251 OA
ATOM     11  O   UNL     1     -44.753 -11.800   5.227  1.00  0.00    -0.456 OA
ENDROOT
BRANCH   7  12
ATOM     12  O   UNL     1     -45.131 -12.916   2.378  1.00  0.00    -0.338 OA
BRANCH  12  13
ATOM     13  C   UNL     1     -45.906 -12.912   1.187  1.00  0.00     0.282 C 
ATOM     14  C   UNL     1     -45.603 -14.176   0.358  1.00  0.00     0.202 C 
ATOM     15  O   UNL     1     -45.712 -11.730   0.421  1.00  0.00    -0.341 OA
ATOM     16  C   UNL     1     -44.182 -14.104  -0.232  1.00  0.00     0.179 C 
ATOM     17  C   UNL     1     -44.374 -11.600  -0.034  1.00  0.00     0.178 C 
ATOM     18  C   UNL     1     -43.992 -12.770  -0.971  1.00  0.00     0.177 C 
BRANCH  14  19
ATOM     19  O   UNL     1     -46.554 -14.287  -0.671  1.00  0.00    -0.385 OA
ATOM     20  H   UNL     1     -46.665 -15.256  -0.861  1.00  0.00     0.211 HD
ENDBRANCH  14  19
BRANCH  16  21
ATOM     21  O   UNL     1     -43.961 -15.169  -1.120  1.00  0.00    -0.387 OA
ATOM     22  H   UNL     1     -44.532 -15.921  -0.811  1.00  0.00     0.211 HD
ENDBRANCH  16  21
BRANCH  17  23
ATOM     23  C   UNL     1     -44.237 -10.253  -0.757  1.00  0.00     0.191 C 
BRANCH  23  24
ATOM     24  O   UNL     1     -45.338  -9.431  -0.474  1.00  0.00    -0.394 OA
ATOM     25  H   UNL     1     -45.390  -8.763  -1.208  1.00  0.00     0.210 HD
ENDBRANCH  23  24
ENDBRANCH  17  23
BRANCH  18  26
ATOM     26  O   UNL     1     -42.669 -12.647  -1.433  1.00  0.00    -0.387 OA
ATOM     27  H   UNL     1     -42.073 -12.619  -0.639  1.00  0.00     0.211 HD
ENDBRANCH  18  26
ENDBRANCH  12  13
ENDBRANCH   7  12
BRANCH   4  28
ATOM     28  O   UNL     1     -46.528 -13.536   7.310  1.00  0.00    -0.393 OA
ATOM     29  H   UNL     1     -45.568 -13.374   7.115  1.00  0.00     0.210 HD
ENDBRANCH   4  28
BRANCH   8  30
ATOM     30  C   UNL     1     -44.382 -15.234   4.041  1.00  0.00     0.255 C 
BRANCH  30  31
ATOM     31  O   UNL     1     -43.586 -15.804   5.074  1.00  0.00    -0.461 OA
BRANCH  31  32
ATOM     32  C   UNL     1     -43.823 -17.079   5.599  1.00  0.00     0.338 C 
ATOM     33  O   UNL     1     -42.915 -17.955   5.564  1.00  0.00    -0.246 OA
BRANCH  32  34
ATOM     34  C   UNL     1     -45.141 -17.394   6.192  1.00  0.00     0.060 A 
ATOM     35  C   UNL     1     -45.487 -16.914   7.469  1.00  0.00     0.015 A 
ATOM     36  C   UNL     1     -46.067 -18.182   5.485  1.00  0.00     0.015 A 
ATOM     37  C   UNL     1     -46.735 -17.216   8.024  1.00  0.00     0.001 A 
ATOM     38  C   UNL     1     -47.314 -18.481   6.044  1.00  0.00     0.001 A 
ATOM     39  C   UNL     1     -47.648 -17.998   7.312  1.00  0.00     0.000 A 
ENDBRANCH  32  34
ENDBRANCH  31  32
ENDBRANCH  30  31
ENDBRANCH   8  30
TORSDOF 12
ENDMDL
MODEL 4
REMARK VINA RESULT:    -6.418      4.990      8.161
REMARK INTER + INTRA:         -10.914
REMARK INTER:                 -10.113
REMARK INTRA:                  -0.801
REMARK UNBOUND:                -0.932
REMARK SMILES C[C@@]12C[C@H](O)[C@H]3C[C@]1(O[C@H]1O[C@H](CO)[C@@H](O)[C@H](O)[C@@H]1O)[C@@]3(COC(=O)c1ccccc1)C(=O)O2
REMARK SMILES IDX 1 1 2 2 3 3 4 4 6 5 7 6 8 7 21 8 32 9 33 10 34 11 9 12 10 13
REMARK SMILES IDX 19 14 11 15 17 16 12 17 15 18 20 19 18 21 13 23 14 24 16 26
REMARK SMILES IDX 5 28 22 30 23 31 24 32 25 33 26 34 27 35 31 36 28 37 30 38
REMARK SMILES IDX 29 39
REMARK H PARENT 20 20 18 22 14 25 16 27 5 29
REMARK Flexibility Score: inf
ROOT
ATOM      1  C   UNL     1     -45.269 -18.906   8.799  1.00  0.00     0.060 C 
ATOM      2  C   UNL     1     -44.775 -19.011   7.355  1.00  0.00     0.142 C 
ATOM      3  C   UNL     1     -44.083 -20.395   7.088  1.00  0.00     0.083 C 
ATOM      4  C   UNL     1     -43.913 -20.665   5.546  1.00  0.00     0.123 C 
ATOM      5  C   UNL     1     -44.976 -19.865   4.727  1.00  0.00     0.045 C 
ATOM      6  C   UNL     1     -46.309 -19.998   5.485  1.00  0.00     0.049 C 
ATOM      7  C   UNL     1     -45.883 -18.719   6.248  1.00  0.00     0.131 C 
ATOM      8  C   UNL     1     -44.962 -18.340   5.075  1.00  0.00     0.140 C 
ATOM      9  C   UNL     1     -43.778 -17.742   5.764  1.00  0.00     0.319 C 
ATOM     10  O   UNL     1     -42.872 -17.070   5.205  1.00  0.00    -0.251 OA
ATOM     11  O   UNL     1     -43.780 -18.034   7.107  1.00  0.00    -0.456 OA
ENDROOT
BRANCH   7  12
ATOM     12  O   UNL     1     -46.808 -17.697   6.634  1.00  0.00    -0.338 OA
BRANCH  12  13
ATOM     13  C   UNL     1     -48.168 -17.944   6.304  1.00  0.00     0.282 C 
ATOM     14  C   UNL     1     -48.675 -16.872   5.320  1.00  0.00     0.202 C 
ATOM     15  O   UNL     1     -48.996 -18.025   7.456  1.00  0.00    -0.341 OA
ATOM     16  C   UNL     1     -48.802 -15.510   6.029  1.00  0.00     0.179 C 
ATOM     17  C   UNL     1     -49.030 -16.804   8.178  1.00  0.00     0.178 C 
ATOM     18  C   UNL     1     -49.628 -15.668   7.315  1.00  0.00     0.177 C 
BRANCH  14  19
ATOM     19  O   UNL     1     -49.920 -17.273   4.807  1.00  0.00    -0.385 OA
ATOM     20  H   UNL     1     -49.742 -17.977   4.129  1.00  0.00     0.211 HD
ENDBRANCH  14  19
BRANCH  16  21
ATOM     21  O   UNL     1     -49.418 -14.570   5.187  1.00  0.00    -0.387 OA
ATOM     22  H   UNL     1     -50.315 -14.935   4.961  1.00  0.00     0.211 HD
ENDBRANCH  16  21
BRANCH  17  23
ATOM     23  C   UNL     1     -49.859 -17.017   9.453  1.00  0.00     0.191 C 
BRANCH  23  24
ATOM     24  O   UNL     1     -49.423 -16.156  10.470  1.00  0.00    -0.394 OA
ATOM     25  H   UNL     1     -48.488 -16.414  10.680  1.00  0.00     0.210 HD
ENDBRANCH  23  24
ENDBRANCH  17  23
BRANCH  18  26
ATOM     26  O   UNL     1     -49.672 -14.453   8.024  1.00  0.00    -0.387 OA
ATOM     27  H   UNL     1     -49.638 -13.715   7.361  1.00  0.00     0.211 HD
ENDBRANCH  18  26
ENDBRANCH  12  13
ENDBRANCH   7  12
BRANCH   4  28
ATOM     28  O   UNL     1     -42.624 -20.314   5.114  1.00  0.00    -0.393 OA
ATOM     29  H   UNL     1     -42.584 -20.516   4.143  1.00  0.00     0.210 HD
ENDBRANCH   4  28
BRANCH   8  30
ATOM     30  C   UNL     1     -45.560 -17.441   3.973  1.00  0.00     0.255 C 
BRANCH  30  31
ATOM     31  O   UNL     1     -45.338 -16.074   4.304  1.00  0.00    -0.461 OA
BRANCH  31  32
ATOM     32  C   UNL     1     -45.729 -15.019   3.472  1.00  0.00     0.338 C 
ATOM     33  O   UNL     1     -46.584 -14.182   3.873  1.00  0.00    -0.246 OA
BRANCH  32  34
ATOM     34  C   UNL     1     -45.135 -14.891   2.124  1.00  0.00     0.060 A 
ATOM     35  C   UNL     1     -43.860 -15.419   1.846  1.00  0.00     0.015 A 
ATOM     36  C   UNL     1     -45.841 -14.235   1.098  1.00  0.00     0.015 A 
ATOM     37  C   UNL     1     -43.306 -15.294   0.568  1.00  0.00     0.001 A 
ATOM     38  C   UNL     1     -45.281 -14.113  -0.178  1.00  0.00     0.001 A 
ATOM     39  C   UNL     1     -44.015 -14.641  -0.443  1.00  0.00     0.000 A 
ENDBRANCH  32  34
ENDBRANCH  31  32
ENDBRANCH  30  31
ENDBRANCH   8  30
TORSDOF 12
ENDMDL
MODEL 5
REMARK VINA RESULT:    -6.398      2.373      4.516
REMARK INTER + INTRA:         -10.883
REMARK INTER:                 -10.293
REMARK INTRA:                  -0.591
REMARK UNBOUND:                -0.932
REMARK SMILES C[C@@]12C[C@H](O)[C@H]3C[C@]1(O[C@H]1O[C@H](CO)[C@@H](O)[C@H](O)[C@@H]1O)[C@@]3(COC(=O)c1ccccc1)C(=O)O2
REMARK SMILES IDX 1 1 2 2 3 3 4 4 6 5 7 6 8 7 21 8 32 9 33 10 34 11 9 12 10 13
REMARK SMILES IDX 19 14 11 15 17 16 12 17 15 18 20 19 18 21 13 23 14 24 16 26
REMARK SMILES IDX 5 28 22 30 23 31 24 32 25 33 26 34 27 35 31 36 28 37 30 38
REMARK SMILES IDX 29 39
REMARK H PARENT 20 20 18 22 14 25 16 27 5 29
REMARK Flexibility Score: inf
ROOT
ATOM      1  C   UNL     1     -40.004 -13.290  -1.663  1.00  0.00     0.060 C 
ATOM      2  C   UNL     1     -40.468 -11.874  -2.006  1.00  0.00     0.142 C 
ATOM      3  C   UNL     1     -39.876 -11.398  -3.380  1.00  0.00     0.083 C 
ATOM      4  C   UNL     1     -40.629 -10.124  -3.920  1.00  0.00     0.123 C 
ATOM      5  C   UNL     1     -42.077 -10.053  -3.337  1.00  0.00     0.045 C 
ATOM      6  C   UNL     1     -42.647 -11.482  -3.393  1.00  0.00     0.049 C 
ATOM      7  C   UNL     1     -42.047 -11.665  -1.977  1.00  0.00     0.131 C 
ATOM      8  C   UNL     1     -42.088 -10.140  -1.775  1.00  0.00     0.140 C 
ATOM      9  C   UNL     1     -40.836  -9.875  -1.004  1.00  0.00     0.319 C 
ATOM     10  O   UNL     1     -40.562  -8.804  -0.402  1.00  0.00    -0.251 OA
ATOM     11  O   UNL     1     -39.985 -10.954  -1.044  1.00  0.00    -0.456 OA
ENDROOT
BRANCH   7  12
ATOM     12  O   UNL     1     -42.696 -12.420  -0.948  1.00  0.00    -0.338 OA
BRANCH  12  13
ATOM     13  C   UNL     1     -42.988 -13.772  -1.271  1.00  0.00     0.282 C 
ATOM     14  C   UNL     1     -44.358 -13.862  -1.972  1.00  0.00     0.202 C 
ATOM     15  O   UNL     1     -42.931 -14.623  -0.134  1.00  0.00    -0.341 OA
ATOM     16  C   UNL     1     -45.493 -13.560  -0.975  1.00  0.00     0.179 C 
ATOM     17  C   UNL     1     -43.903 -14.280   0.841  1.00  0.00     0.178 C 
ATOM     18  C   UNL     1     -45.334 -14.439   0.275  1.00  0.00     0.177 C 
BRANCH  14  19
ATOM     19  O   UNL     1     -44.513 -15.150  -2.513  1.00  0.00    -0.385 OA
ATOM     20  H   UNL     1     -44.687 -15.038  -3.484  1.00  0.00     0.211 HD
ENDBRANCH  14  19
BRANCH  16  21
ATOM     21  O   UNL     1     -46.745 -13.802  -1.564  1.00  0.00    -0.387 OA
ATOM     22  H   UNL     1     -47.301 -14.254  -0.876  1.00  0.00     0.211 HD
ENDBRANCH  16  21
BRANCH  17  23
ATOM     23  C   UNL     1     -43.698 -15.180   2.068  1.00  0.00     0.191 C 
BRANCH  23  24
ATOM     24  O   UNL     1     -44.507 -16.322   1.979  1.00  0.00    -0.394 OA
ATOM     25  H   UNL     1     -45.437 -16.001   1.841  1.00  0.00     0.210 HD
ENDBRANCH  23  24
ENDBRANCH  17  23
BRANCH  18  26
ATOM     26  O   UNL     1     -46.307 -14.108   1.236  1.00  0.00    -0.387 OA
ATOM     27  H   UNL     1     -46.839 -14.925   1.422  1.00  0.00     0.211 HD
ENDBRANCH  18  26
ENDBRANCH  12  13
ENDBRANCH   7  12
BRANCH   4  28
ATOM     28  O   UNL     1     -39.931  -8.951  -3.592  1.00  0.00    -0.393 OA
ATOM     29  H   UNL     1     -40.613  -8.241  -3.465  1.00  0.00     0.210 HD
ENDBRANCH   4  28
BRANCH   8  30
ATOM     30  C   UNL     1     -43.356  -9.550  -1.124  1.00  0.00     0.255 C 
BRANCH  30  31
ATOM     31  O   UNL     1     -43.246  -9.637   0.293  1.00  0.00    -0.461 OA
BRANCH  31  32
ATOM     32  C   UNL     1     -43.920  -8.772   1.161  1.00  0.00     0.338 C 
ATOM     33  O   UNL     1     -43.498  -7.595   1.334  1.00  0.00    -0.246 OA
BRANCH  32  34
ATOM     34  C   UNL     1     -45.128  -9.243   1.873  1.00  0.00     0.060 A 
ATOM     35  C   UNL     1     -46.295  -8.457   1.908  1.00  0.00     0.015 A 
ATOM     36  C   UNL     1     -45.124 -10.488   2.528  1.00  0.00     0.015 A 
ATOM     37  C   UNL     1     -47.433  -8.909   2.582  1.00  0.00     0.001 A 
ATOM     38  C   UNL     1     -46.265 -10.935   3.202  1.00  0.00     0.001 A 
ATOM     39  C   UNL     1     -47.419 -10.147   3.230  1.00  0.00     0.000 A 
ENDBRANCH  32  34
ENDBRANCH  31  32
ENDBRANCH  30  31
ENDBRANCH   8  30
TORSDOF 12
ENDMDL
MODEL 6
REMARK VINA RESULT:    -6.396      6.038      9.742
REMARK INTER + INTRA:         -10.881
REMARK INTER:                 -10.142
REMARK INTRA:                  -0.739
REMARK UNBOUND:                -0.932
REMARK SMILES C[C@@]12C[C@H](O)[C@H]3C[C@]1(O[C@H]1O[C@H](CO)[C@@H](O)[C@H](O)[C@@H]1O)[C@@]3(COC(=O)c1ccccc1)C(=O)O2
REMARK SMILES IDX 1 1 2 2 3 3 4 4 6 5 7 6 8 7 21 8 32 9 33 10 34 11 9 12 10 13
REMARK SMILES IDX 19 14 11 15 17 16 12 17 15 18 20 19 18 21 13 23 14 24 16 26
REMARK SMILES IDX 5 28 22 30 23 31 24 32 25 33 26 34 27 35 31 36 28 37 30 38
REMARK SMILES IDX 29 39
REMARK H PARENT 20 20 18 22 14 25 16 27 5 29
REMARK Flexibility Score: inf
ROOT
ATOM      1  C   UNL     1     -46.227 -13.951   4.479  1.00  0.00     0.060 C 
ATOM      2  C   UNL     1     -44.911 -14.341   5.154  1.00  0.00     0.142 C 
ATOM      3  C   UNL     1     -44.198 -13.088   5.778  1.00  0.00     0.083 C 
ATOM      4  C   UNL     1     -43.062 -13.514   6.782  1.00  0.00     0.123 C 
ATOM      5  C   UNL     1     -43.344 -14.938   7.360  1.00  0.00     0.045 C 
ATOM      6  C   UNL     1     -44.848 -14.995   7.682  1.00  0.00     0.049 C 
ATOM      7  C   UNL     1     -45.034 -15.506   6.233  1.00  0.00     0.131 C 
ATOM      8  C   UNL     1     -43.575 -15.996   6.231  1.00  0.00     0.140 C 
ATOM      9  C   UNL     1     -43.131 -15.706   4.834  1.00  0.00     0.319 C 
ATOM     10  O   UNL     1     -42.087 -16.154   4.292  1.00  0.00    -0.251 OA
ATOM     11  O   UNL     1     -44.004 -14.857   4.197  1.00  0.00    -0.456 OA
ENDROOT
BRANCH   7  12
ATOM     12  O   UNL     1     -45.997 -16.503   5.876  1.00  0.00    -0.338 OA
BRANCH  12  13
ATOM     13  C   UNL     1     -46.958 -16.814   6.876  1.00  0.00     0.282 C 
ATOM     14  C   UNL     1     -47.279 -18.321   6.847  1.00  0.00     0.202 C 
ATOM     15  O   UNL     1     -48.136 -16.029   6.754  1.00  0.00    -0.341 OA
ATOM     16  C   UNL     1     -48.074 -18.677   5.577  1.00  0.00     0.179 C 
ATOM     17  C   UNL     1     -48.817 -16.270   5.533  1.00  0.00     0.178 C 
ATOM     18  C   UNL     1     -49.286 -17.742   5.442  1.00  0.00     0.177 C 
BRANCH  14  19
ATOM     19  O   UNL     1     -48.020 -18.654   7.995  1.00  0.00    -0.385 OA
ATOM     20  H   UNL     1     -47.526 -19.379   8.459  1.00  0.00     0.211 HD
ENDBRANCH  14  19
BRANCH  16  21
ATOM     21  O   UNL     1     -48.512 -20.010   5.625  1.00  0.00    -0.387 OA
ATOM     22  H   UNL     1     -48.460 -20.293   6.576  1.00  0.00     0.211 HD
ENDBRANCH  16  21
BRANCH  17  23
ATOM     23  C   UNL     1     -50.011 -15.309   5.445  1.00  0.00     0.191 C 
BRANCH  23  24
ATOM     24  O   UNL     1     -51.214 -16.005   5.626  1.00  0.00    -0.394 OA
ATOM     25  H   UNL     1     -51.541 -16.250   4.720  1.00  0.00     0.210 HD
ENDBRANCH  23  24
ENDBRANCH  17  23
BRANCH  18  26
ATOM     26  O   UNL     1     -49.967 -17.990   4.236  1.00  0.00    -0.387 OA
ATOM     27  H   UNL     1     -50.200 -18.956   4.214  1.00  0.00     0.211 HD
ENDBRANCH  18  26
ENDBRANCH  12  13
ENDBRANCH   7  12
BRANCH   4  28
ATOM     28  O   UNL     1     -41.806 -13.500   6.155  1.00  0.00    -0.393 OA
ATOM     29  H   UNL     1     -41.716 -12.614   5.718  1.00  0.00     0.210 HD
ENDBRANCH   4  28
BRANCH   8  30
ATOM     30  C   UNL     1     -43.321 -17.452   6.675  1.00  0.00     0.255 C 
BRANCH  30  31
ATOM     31  O   UNL     1     -43.738 -18.342   5.645  1.00  0.00    -0.461 OA
BRANCH  31  32
ATOM     32  C   UNL     1     -43.468 -19.714   5.672  1.00  0.00     0.338 C 
ATOM     33  O   UNL     1     -44.228 -20.520   5.068  1.00  0.00    -0.246 OA
BRANCH  32  34
ATOM     34  C   UNL     1     -42.288 -20.214   6.410  1.00  0.00     0.060 A 
ATOM     35  C   UNL     1     -40.986 -19.856   6.012  1.00  0.00     0.015 A 
ATOM     36  C   UNL     1     -42.453 -21.057   7.524  1.00  0.00     0.015 A 
ATOM     37  C   UNL     1     -39.875 -20.332   6.716  1.00  0.00     0.001 A 
ATOM     38  C   UNL     1     -41.339 -21.531   8.224  1.00  0.00     0.001 A 
ATOM     39  C   UNL     1     -40.051 -21.169   7.820  1.00  0.00     0.000 A 
ENDBRANCH  32  34
ENDBRANCH  31  32
ENDBRANCH  30  31
ENDBRANCH   8  30
TORSDOF 12
ENDMDL
MODEL 7
REMARK VINA RESULT:    -6.345      4.960      8.321
REMARK INTER + INTRA:         -10.801
REMARK INTER:                  -9.650
REMARK INTRA:                  -1.151
REMARK UNBOUND:                -0.932
REMARK SMILES C[C@@]12C[C@H](O)[C@H]3C[C@]1(O[C@H]1O[C@H](CO)[C@@H](O)[C@H](O)[C@@H]1O)[C@@]3(COC(=O)c1ccccc1)C(=O)O2
REMARK SMILES IDX 1 1 2 2 3 3 4 4 6 5 7 6 8 7 21 8 32 9 33 10 34 11 9 12 10 13
REMARK SMILES IDX 19 14 11 15 17 16 12 17 15 18 20 19 18 21 13 23 14 24 16 26
REMARK SMILES IDX 5 28 22 30 23 31 24 32 25 33 26 34 27 35 31 36 28 37 30 38
REMARK SMILES IDX 29 39
REMARK H PARENT 20 20 18 22 14 25 16 27 5 29
REMARK Flexibility Score: inf
ROOT
ATOM      1  C   UNL     1     -46.978 -17.571   9.201  1.00  0.00     0.060 C 
ATOM      2  C   UNL     1     -46.360 -18.355   8.042  1.00  0.00     0.142 C 
ATOM      3  C   UNL     1     -46.364 -19.898   8.332  1.00  0.00     0.083 C 
ATOM      4  C   UNL     1     -46.089 -20.730   7.023  1.00  0.00     0.123 C 
ATOM      5  C   UNL     1     -46.504 -19.915   5.756  1.00  0.00     0.045 C 
ATOM      6  C   UNL     1     -47.847 -19.240   6.085  1.00  0.00     0.049 C 
ATOM      7  C   UNL     1     -47.005 -18.055   6.616  1.00  0.00     0.131 C 
ATOM      8  C   UNL     1     -45.835 -18.501   5.721  1.00  0.00     0.140 C 
ATOM      9  C   UNL     1     -44.640 -18.219   6.573  1.00  0.00     0.319 C 
ATOM     10  O   UNL     1     -43.447 -18.197   6.172  1.00  0.00    -0.251 OA
ATOM     11  O   UNL     1     -44.998 -18.000   7.882  1.00  0.00    -0.456 OA
ENDROOT
BRANCH   7  12
ATOM     12  O   UNL     1     -47.392 -16.686   6.451  1.00  0.00    -0.338 OA
BRANCH  12  13
ATOM     13  C   UNL     1     -48.649 -16.477   5.821  1.00  0.00     0.282 C 
ATOM     14  C   UNL     1     -48.633 -15.146   5.044  1.00  0.00     0.202 C 
ATOM     15  O   UNL     1     -49.729 -16.529   6.743  1.00  0.00    -0.341 OA
ATOM     16  C   UNL     1     -48.608 -13.955   6.021  1.00  0.00     0.179 C 
ATOM     17  C   UNL     1     -49.653 -15.498   7.716  1.00  0.00     0.178 C 
ATOM     18  C   UNL     1     -49.738 -14.103   7.052  1.00  0.00     0.177 C 
BRANCH  14  19
ATOM     19  O   UNL     1     -49.773 -15.081   4.224  1.00  0.00    -0.385 OA
ATOM     20  H   UNL     1     -50.319 -14.316   4.545  1.00  0.00     0.211 HD
ENDBRANCH  14  19
BRANCH  16  21
ATOM     21  O   UNL     1     -48.762 -12.744   5.327  1.00  0.00    -0.387 OA
ATOM     22  H   UNL     1     -49.710 -12.700   5.035  1.00  0.00     0.211 HD
ENDBRANCH  16  21
BRANCH  17  23
ATOM     23  C   UNL     1     -50.795 -15.696   8.722  1.00  0.00     0.191 C 
BRANCH  23  24
ATOM     24  O   UNL     1     -50.440 -15.174   9.974  1.00  0.00    -0.394 OA
ATOM     25  H   UNL     1     -51.035 -14.396  10.137  1.00  0.00     0.210 HD
ENDBRANCH  23  24
ENDBRANCH  17  23
BRANCH  18  26
ATOM     26  O   UNL     1     -49.669 -13.074   8.009  1.00  0.00    -0.387 OA
ATOM     27  H   UNL     1     -49.096 -12.353   7.636  1.00  0.00     0.211 HD
ENDBRANCH  18  26
ENDBRANCH  12  13
ENDBRANCH   7  12
BRANCH   4  28
ATOM     28  O   UNL     1     -44.735 -21.088   6.930  1.00  0.00    -0.393 OA
ATOM     29  H   UNL     1     -44.314 -20.835   7.793  1.00  0.00     0.210 HD
ENDBRANCH   4  28
BRANCH   8  30
ATOM     30  C   UNL     1     -45.753 -17.882   4.310  1.00  0.00     0.255 C 
BRANCH  30  31
ATOM     31  O   UNL     1     -45.048 -16.647   4.374  1.00  0.00    -0.461 OA
BRANCH  31  32
ATOM     32  C   UNL     1     -45.050 -15.717   3.329  1.00  0.00     0.338 C 
ATOM     33  O   UNL     1     -44.897 -16.105   2.138  1.00  0.00    -0.246 OA
BRANCH  32  34
ATOM     34  C   UNL     1     -45.232 -14.279   3.627  1.00  0.00     0.060 A 
ATOM     35  C   UNL     1     -45.764 -13.407   2.660  1.00  0.00     0.015 A 
ATOM     36  C   UNL     1     -44.873 -13.766   4.886  1.00  0.00     0.015 A 
ATOM     37  C   UNL     1     -45.934 -12.049   2.949  1.00  0.00     0.001 A 
ATOM     38  C   UNL     1     -45.045 -12.407   5.171  1.00  0.00     0.001 A 
ATOM     39  C   UNL     1     -45.574 -11.549   4.203  1.00  0.00     0.000 A 
ENDBRANCH  32  34
ENDBRANCH  31  32
ENDBRANCH  30  31
ENDBRANCH   8  30
TORSDOF 12
ENDMDL
MODEL 8
REMARK VINA RESULT:    -6.278      5.151      9.293
REMARK INTER + INTRA:         -10.697
REMARK INTER:                  -9.451
REMARK INTRA:                  -1.246
REMARK UNBOUND:                -0.932
REMARK SMILES C[C@@]12C[C@H](O)[C@H]3C[C@]1(O[C@H]1O[C@H](CO)[C@@H](O)[C@H](O)[C@@H]1O)[C@@]3(COC(=O)c1ccccc1)C(=O)O2
REMARK SMILES IDX 1 1 2 2 3 3 4 4 6 5 7 6 8 7 21 8 32 9 33 10 34 11 9 12 10 13
REMARK SMILES IDX 19 14 11 15 17 16 12 17 15 18 20 19 18 21 13 23 14 24 16 26
REMARK SMILES IDX 5 28 22 30 23 31 24 32 25 33 26 34 27 35 31 36 28 37 30 38
REMARK SMILES IDX 29 39
REMARK H PARENT 20 20 18 22 14 25 16 27 5 29
REMARK Flexibility Score: inf
ROOT
ATOM      1  C   UNL     1     -45.011 -14.294   2.865  1.00  0.00     0.060 C 
ATOM      2  C   UNL     1     -44.784 -15.441   3.851  1.00  0.00     0.142 C 
ATOM      3  C   UNL     1     -43.253 -15.685   4.101  1.00  0.00     0.083 C 
ATOM      4  C   UNL     1     -43.014 -16.584   5.371  1.00  0.00     0.123 C 
ATOM      5  C   UNL     1     -44.218 -16.471   6.360  1.00  0.00     0.045 C 
ATOM      6  C   UNL     1     -44.605 -14.982   6.417  1.00  0.00     0.049 C 
ATOM      7  C   UNL     1     -45.558 -15.292   5.236  1.00  0.00     0.131 C 
ATOM      8  C   UNL     1     -45.585 -16.771   5.661  1.00  0.00     0.140 C 
ATOM      9  C   UNL     1     -45.611 -17.491   4.351  1.00  0.00     0.319 C 
ATOM     10  O   UNL     1     -45.880 -18.711   4.195  1.00  0.00    -0.251 OA
ATOM     11  O   UNL     1     -45.280 -16.654   3.313  1.00  0.00    -0.456 OA
ENDROOT
BRANCH   7  12
ATOM     12  O   UNL     1     -46.849 -14.690   5.096  1.00  0.00    -0.338 OA
BRANCH  12  13
ATOM     13  C   UNL     1     -47.056 -13.502   5.850  1.00  0.00     0.282 C 
ATOM     14  C   UNL     1     -48.423 -13.559   6.558  1.00  0.00     0.202 C 
ATOM     15  O   UNL     1     -46.931 -12.331   5.054  1.00  0.00    -0.341 OA
ATOM     16  C   UNL     1     -49.565 -13.441   5.531  1.00  0.00     0.179 C 
ATOM     17  C   UNL     1     -47.914 -12.270   4.033  1.00  0.00     0.178 C 
ATOM     18  C   UNL     1     -49.337 -12.213   4.637  1.00  0.00     0.177 C 
BRANCH  14  19
ATOM     19  O   UNL     1     -48.499 -12.513   7.494  1.00  0.00    -0.385 OA
ATOM     20  H   UNL     1     -47.875 -11.804   7.188  1.00  0.00     0.211 HD
ENDBRANCH  14  19
BRANCH  16  21
ATOM     21  O   UNL     1     -50.805 -13.326   6.182  1.00  0.00    -0.387 OA
ATOM     22  H   UNL     1     -51.094 -14.248   6.410  1.00  0.00     0.211 HD
ENDBRANCH  16  21
BRANCH  17  23
ATOM     23  C   UNL     1     -47.638 -11.033   3.167  1.00  0.00     0.191 C 
BRANCH  23  24
ATOM     24  O   UNL     1     -48.128 -11.225   1.867  1.00  0.00    -0.394 OA
ATOM     25  H   UNL     1     -48.228 -12.205   1.743  1.00  0.00     0.210 HD
ENDBRANCH  23  24
ENDBRANCH  17  23
BRANCH  18  26
ATOM     26  O   UNL     1     -50.320 -12.146   3.633  1.00  0.00    -0.387 OA
ATOM     27  H   UNL     1     -50.172 -12.910   3.014  1.00  0.00     0.211 HD
ENDBRANCH  18  26
ENDBRANCH  12  13
ENDBRANCH   7  12
BRANCH   4  28
ATOM     28  O   UNL     1     -42.827 -17.927   5.008  1.00  0.00    -0.393 OA
ATOM     29  H   UNL     1     -42.180 -17.931   4.255  1.00  0.00     0.210 HD
ENDBRANCH   4  28
BRANCH   8  30
ATOM     30  C   UNL     1     -46.703 -17.204   6.631  1.00  0.00     0.255 C 
BRANCH  30  31
ATOM     31  O   UNL     1     -46.715 -18.624   6.738  1.00  0.00    -0.461 OA
BRANCH  31  32
ATOM     32  C   UNL     1     -46.076 -19.312   7.775  1.00  0.00     0.338 C 
ATOM     33  O   UNL     1     -46.644 -19.437   8.894  1.00  0.00    -0.246 OA
BRANCH  32  34
ATOM     34  C   UNL     1     -44.733 -19.890   7.552  1.00  0.00     0.060 A 
ATOM     35  C   UNL     1     -43.619 -19.423   8.275  1.00  0.00     0.015 A 
ATOM     36  C   UNL     1     -44.551 -20.918   6.609  1.00  0.00     0.015 A 
ATOM     37  C   UNL     1     -42.353 -19.975   8.059  1.00  0.00     0.001 A 
ATOM     38  C   UNL     1     -43.282 -21.467   6.396  1.00  0.00     0.001 A 
ATOM     39  C   UNL     1     -42.184 -20.996   7.120  1.00  0.00     0.000 A 
ENDBRANCH  32  34
ENDBRANCH  31  32
ENDBRANCH  30  31
ENDBRANCH   8  30
TORSDOF 12
ENDMDL
MODEL 9
REMARK VINA RESULT:    -6.261      3.833      7.638
REMARK INTER + INTRA:         -10.670
REMARK INTER:                  -9.592
REMARK INTRA:                  -1.078
REMARK UNBOUND:                -0.932
REMARK SMILES C[C@@]12C[C@H](O)[C@H]3C[C@]1(O[C@H]1O[C@H](CO)[C@@H](O)[C@H](O)[C@@H]1O)[C@@]3(COC(=O)c1ccccc1)C(=O)O2
REMARK SMILES IDX 1 1 2 2 3 3 4 4 6 5 7 6 8 7 21 8 32 9 33 10 34 11 9 12 10 13
REMARK SMILES IDX 19 14 11 15 17 16 12 17 15 18 20 19 18 21 13 23 14 24 16 26
REMARK SMILES IDX 5 28 22 30 23 31 24 32 25 33 26 34 27 35 31 36 28 37 30 38
REMARK SMILES IDX 29 39
REMARK H PARENT 20 20 18 22 14 25 16 27 5 29
REMARK Flexibility Score: inf
ROOT
ATOM      1  C   UNL     1     -51.537 -13.386   5.445  1.00  0.00     0.060 C 
ATOM      2  C   UNL     1     -50.768 -12.113   5.090  1.00  0.00     0.142 C 
ATOM      3  C   UNL     1     -51.398 -10.853   5.785  1.00  0.00     0.083 C 
ATOM      4  C   UNL     1     -50.418  -9.621   5.740  1.00  0.00     0.123 C 
ATOM      5  C   UNL     1     -48.936 -10.101   5.616  1.00  0.00     0.045 C 
ATOM      6  C   UNL     1     -48.777 -11.297   6.572  1.00  0.00     0.049 C 
ATOM      7  C   UNL     1     -49.201 -12.180   5.373  1.00  0.00     0.131 C 
ATOM      8  C   UNL     1     -48.732 -11.075   4.409  1.00  0.00     0.140 C 
ATOM      9  C   UNL     1     -49.751 -11.135   3.317  1.00  0.00     0.319 C 
ATOM     10  O   UNL     1     -49.645 -10.582   2.190  1.00  0.00    -0.251 OA
ATOM     11  O   UNL     1     -50.852 -11.862   3.698  1.00  0.00    -0.456 OA
ENDROOT
BRANCH   7  12
ATOM     12  O   UNL     1     -48.638 -13.471   5.117  1.00  0.00    -0.338 OA
BRANCH  12  13
ATOM     13  C   UNL     1     -48.225 -14.197   6.266  1.00  0.00     0.282 C 
ATOM     14  C   UNL     1     -46.698 -14.406   6.236  1.00  0.00     0.202 C 
ATOM     15  O   UNL     1     -48.915 -15.432   6.401  1.00  0.00    -0.341 OA
ATOM     16  C   UNL     1     -46.313 -15.399   5.124  1.00  0.00     0.179 C 
ATOM     17  C   UNL     1     -48.652 -16.313   5.320  1.00  0.00     0.178 C 
ATOM     18  C   UNL     1     -47.151 -16.681   5.258  1.00  0.00     0.177 C 
BRANCH  14  19
ATOM     19  O   UNL     1     -46.276 -14.887   7.488  1.00  0.00    -0.385 OA
ATOM     20  H   UNL     1     -46.497 -14.188   8.157  1.00  0.00     0.211 HD
ENDBRANCH  14  19
BRANCH  16  21
ATOM     21  O   UNL     1     -44.948 -15.720   5.198  1.00  0.00    -0.387 OA
ATOM     22  H   UNL     1     -44.623 -15.801   4.263  1.00  0.00     0.211 HD
ENDBRANCH  16  21
BRANCH  17  23
ATOM     23  C   UNL     1     -49.516 -17.570   5.498  1.00  0.00     0.191 C 
BRANCH  23  24
ATOM     24  O   UNL     1     -49.880 -18.095   4.250  1.00  0.00    -0.394 OA
ATOM     25  H   UNL     1     -50.566 -18.792   4.423  1.00  0.00     0.210 HD
ENDBRANCH  23  24
ENDBRANCH  17  23
BRANCH  18  26
ATOM     26  O   UNL     1     -46.880 -17.559   4.193  1.00  0.00    -0.387 OA
ATOM     27  H   UNL     1     -45.962 -17.365   3.866  1.00  0.00     0.211 HD
ENDBRANCH  18  26
ENDBRANCH  12  13
ENDBRANCH   7  12
BRANCH   4  28
ATOM     28  O   UNL     1     -50.729  -8.771   4.667  1.00  0.00    -0.393 OA
ATOM     29  H   UNL     1     -49.917  -8.228   4.490  1.00  0.00     0.210 HD
ENDBRANCH   4  28
BRANCH   8  30
ATOM     30  C   UNL     1     -47.276 -11.152   3.906  1.00  0.00     0.255 C 
BRANCH  30  31
ATOM     31  O   UNL     1     -47.189 -12.099   2.846  1.00  0.00    -0.461 OA
BRANCH  31  32
ATOM     32  C   UNL     1     -46.388 -11.903   1.716  1.00  0.00     0.338 C 
ATOM     33  O   UNL     1     -46.497 -10.842   1.042  1.00  0.00    -0.246 OA
BRANCH  32  34
ATOM     34  C   UNL     1     -45.415 -12.944   1.318  1.00  0.00     0.060 A 
ATOM     35  C   UNL     1     -44.405 -12.662   0.379  1.00  0.00     0.015 A 
ATOM     36  C   UNL     1     -45.489 -14.233   1.875  1.00  0.00     0.015 A 
ATOM     37  C   UNL     1     -43.489 -13.651   0.009  1.00  0.00     0.001 A 
ATOM     38  C   UNL     1     -44.570 -15.219   1.500  1.00  0.00     0.001 A 
ATOM     39  C   UNL     1     -43.571 -14.929   0.568  1.00  0.00     0.000 A 
ENDBRANCH  32  34
ENDBRANCH  31  32
ENDBRANCH  30  31
ENDBRANCH   8  30
TORSDOF 12
ENDMDL
