MODEL 1
REMARK VINA RESULT:    -7.462      0.000      0.000
REMARK INTER + INTRA:         -10.973
REMARK INTER:                  -9.861
REMARK INTRA:                  -1.112
REMARK UNBOUND:                -1.112
REMARK SMILES C=C(CC[C@@H](C)[C@H]1CC[C@@]2(C)[C@@H]3CC[C@H]4C(C)(C)[C@H](O)CC[C@@]45C[C@@]35CC[C@@]12C)C(C)C
REMARK SMILES IDX 4 1 3 2 2 3 1 4 30 5 31 6 32 7 5 8 6 9 7 10 8 11 28 12 9 13
REMARK SMILES IDX 10 14 27 15 29 16 11 17 12 18 26 19 25 20 13 21 23 22 24 23
REMARK SMILES IDX 14 24 15 25 22 26 16 27 21 28 19 29 17 30 18 31 20 32
REMARK H PARENT 20 33
REMARK Flexibility Score: inf
ROOT
ATOM      1  C   UNL     1     148.828 141.128 138.755  1.00  0.00     0.008 C 
ENDROOT
BRANCH   1   2
ATOM      2  C   UNL     1     149.754 141.251 139.979  1.00  0.00     0.031 C 
BRANCH   2   3
ATOM      3  C   UNL     1     149.005 141.813 141.169  1.00  0.00    -0.075 C 
ATOM      4  C   UNL     1     148.546 143.077 141.122  1.00  0.00     0.008 C 
BRANCH   3   5
ATOM      5  C   UNL     1     148.784 140.945 142.401  1.00  0.00     0.008 C 
ATOM      6  C   UNL     1     149.306 139.519 142.177  1.00  0.00     0.012 C 
ATOM      7  C   UNL     1     147.311 140.940 142.826  1.00  0.00     0.012 C 
ENDBRANCH   3   5
ENDBRANCH   2   3
ENDBRANCH   1   2
BRANCH   1   8
ATOM      8  C   UNL     1     149.201 139.919 137.845  1.00  0.00    -0.010 C 
ATOM      9  C   UNL     1     150.104 138.964 138.655  1.00  0.00     0.008 C 
BRANCH   8  10
ATOM     10  C   UNL     1     147.914 139.197 137.290  1.00  0.00    -0.002 C 
ATOM     11  C   UNL     1     148.070 137.669 137.301  1.00  0.00     0.005 C 
ATOM     12  C   UNL     1     146.507 139.478 137.947  1.00  0.00    -0.024 C 
ATOM     13  C   UNL     1     146.683 137.054 137.396  1.00  0.00     0.008 C 
ATOM     14  C   UNL     1     145.647 138.209 137.519  1.00  0.00    -0.024 C 
ATOM     15  C   UNL     1     146.575 139.637 139.509  1.00  0.00     0.008 C 
ATOM     16  C   UNL     1     145.911 140.802 137.380  1.00  0.00     0.012 C 
ATOM     17  C   UNL     1     145.028 138.367 136.093  1.00  0.00     0.012 C 
ATOM     18  C   UNL     1     144.533 137.768 138.559  1.00  0.00     0.002 C 
ATOM     19  C   UNL     1     146.447 138.337 140.292  1.00  0.00     0.008 C 
ATOM     20  C   UNL     1     145.042 137.763 140.041  1.00  0.00    -0.020 C 
ATOM     21  C   UNL     1     143.201 138.533 138.460  1.00  0.00     0.005 C 
ATOM     22  C   UNL     1     144.028 137.799 141.225  1.00  0.00    -0.020 C 
ATOM     23  C   UNL     1     144.658 136.474 140.783  1.00  0.00     0.015 C 
ATOM     24  C   UNL     1     142.171 137.908 139.402  1.00  0.00     0.005 C 
ATOM     25  C   UNL     1     142.559 138.168 140.871  1.00  0.00     0.004 C 
ATOM     26  C   UNL     1     144.453 138.220 142.649  1.00  0.00     0.010 C 
ATOM     27  C   UNL     1     141.547 137.609 141.936  1.00  0.00    -0.006 C 
ATOM     28  C   UNL     1     143.452 137.703 143.691  1.00  0.00     0.033 C 
ATOM     29  C   UNL     1     141.993 138.086 143.361  1.00  0.00     0.120 C 
ATOM     30  C   UNL     1     140.120 138.155 141.669  1.00  0.00     0.014 C 
ATOM     31  C   UNL     1     141.460 136.062 141.903  1.00  0.00     0.014 C 
BRANCH  29  32
ATOM     32  O   UNL     1     141.845 139.481 143.474  1.00  0.00    -0.393 OA
ATOM     33  H   UNL     1     142.330 139.887 142.709  1.00  0.00     0.210 HD
ENDBRANCH  29  32
ENDBRANCH   8  10
ENDBRANCH   1   8
TORSDOF 6
ENDMDL
MODEL 2
REMARK VINA RESULT:    -7.057      2.604      7.453
REMARK INTER + INTRA:         -10.438
REMARK INTER:                  -8.710
REMARK INTRA:                  -1.728
REMARK UNBOUND:                -1.112
REMARK SMILES C=C(CC[C@@H](C)[C@H]1CC[C@@]2(C)[C@@H]3CC[C@H]4C(C)(C)[C@H](O)CC[C@@]45C[C@@]35CC[C@@]12C)C(C)C
REMARK SMILES IDX 4 1 3 2 2 3 1 4 30 5 31 6 32 7 5 8 6 9 7 10 8 11 28 12 9 13
REMARK SMILES IDX 10 14 27 15 29 16 11 17 12 18 26 19 25 20 13 21 23 22 24 23
REMARK SMILES IDX 14 24 15 25 22 26 16 27 21 28 19 29 17 30 18 31 20 32
REMARK H PARENT 20 33
REMARK Flexibility Score: inf
ROOT
ATOM      1  C   UNL     1     141.352 135.410 143.310  1.00  0.00     0.008 C 
ENDROOT
BRANCH   1   2
ATOM      2  C   UNL     1     139.917 135.956 143.420  1.00  0.00     0.031 C 
BRANCH   2   3
ATOM      3  C   UNL     1     139.530 136.716 142.169  1.00  0.00    -0.075 C 
ATOM      4  C   UNL     1     139.673 136.125 140.969  1.00  0.00     0.008 C 
BRANCH   3   5
ATOM      5  C   UNL     1     138.989 138.135 142.285  1.00  0.00     0.008 C 
ATOM      6  C   UNL     1     140.121 139.144 142.518  1.00  0.00     0.012 C 
ATOM      7  C   UNL     1     137.915 138.238 143.375  1.00  0.00     0.012 C 
ENDBRANCH   3   5
ENDBRANCH   2   3
ENDBRANCH   1   2
BRANCH   1   8
ATOM      8  C   UNL     1     142.384 136.281 144.088  1.00  0.00    -0.010 C 
ATOM      9  C   UNL     1     142.387 135.823 145.563  1.00  0.00     0.008 C 
BRANCH   8  10
ATOM     10  C   UNL     1     143.816 136.200 143.433  1.00  0.00    -0.002 C 
ATOM     11  C   UNL     1     143.958 134.968 142.527  1.00  0.00     0.005 C 
ATOM     12  C   UNL     1     144.363 137.410 142.582  1.00  0.00    -0.024 C 
ATOM     13  C   UNL     1     145.016 135.274 141.480  1.00  0.00     0.008 C 
ATOM     14  C   UNL     1     145.494 136.740 141.684  1.00  0.00    -0.024 C 
ATOM     15  C   UNL     1     143.256 138.101 141.707  1.00  0.00     0.008 C 
ATOM     16  C   UNL     1     144.945 138.505 143.527  1.00  0.00     0.012 C 
ATOM     17  C   UNL     1     146.860 136.633 142.435  1.00  0.00     0.012 C 
ATOM     18  C   UNL     1     145.699 137.399 140.256  1.00  0.00     0.002 C 
ATOM     19  C   UNL     1     143.057 137.491 140.325  1.00  0.00     0.008 C 
ATOM     20  C   UNL     1     144.350 137.702 139.519  1.00  0.00    -0.020 C 
ATOM     21  C   UNL     1     146.606 138.643 140.229  1.00  0.00     0.005 C 
ATOM     22  C   UNL     1     144.304 138.724 138.342  1.00  0.00    -0.020 C 
ATOM     23  C   UNL     1     144.364 137.220 138.060  1.00  0.00     0.015 C 
ATOM     24  C   UNL     1     146.847 139.081 138.784  1.00  0.00     0.005 C 
ATOM     25  C   UNL     1     145.549 139.642 138.169  1.00  0.00     0.004 C 
ATOM     26  C   UNL     1     142.981 139.371 137.875  1.00  0.00     0.010 C 
ATOM     27  C   UNL     1     145.683 140.168 136.694  1.00  0.00    -0.006 C 
ATOM     28  C   UNL     1     143.116 139.913 136.446  1.00  0.00     0.033 C 
ATOM     29  C   UNL     1     144.335 140.845 136.271  1.00  0.00     0.120 C 
ATOM     30  C   UNL     1     146.808 141.231 136.596  1.00  0.00     0.014 C 
ATOM     31  C   UNL     1     146.036 139.032 135.700  1.00  0.00     0.014 C 
BRANCH  29  32
ATOM     32  O   UNL     1     144.127 142.021 137.017  1.00  0.00    -0.393 OA
ATOM     33  H   UNL     1     144.941 142.580 136.910  1.00  0.00     0.210 HD
ENDBRANCH  29  32
ENDBRANCH   8  10
ENDBRANCH   1   8
TORSDOF 6
ENDMDL
MODEL 3
REMARK VINA RESULT:    -6.995      1.408      2.071
REMARK INTER + INTRA:         -10.356
REMARK INTER:                  -8.313
REMARK INTRA:                  -2.042
REMARK UNBOUND:                -1.112
REMARK SMILES C=C(CC[C@@H](C)[C@H]1CC[C@@]2(C)[C@@H]3CC[C@H]4C(C)(C)[C@H](O)CC[C@@]45C[C@@]35CC[C@@]12C)C(C)C
REMARK SMILES IDX 4 1 3 2 2 3 1 4 30 5 31 6 32 7 5 8 6 9 7 10 8 11 28 12 9 13
REMARK SMILES IDX 10 14 27 15 29 16 11 17 12 18 26 19 25 20 13 21 23 22 24 23
REMARK SMILES IDX 14 24 15 25 22 26 16 27 21 28 19 29 17 30 18 31 20 32
REMARK H PARENT 20 33
REMARK Flexibility Score: inf
ROOT
ATOM      1  C   UNL     1     149.292 139.006 137.973  1.00  0.00     0.008 C 
ENDROOT
BRANCH   1   2
ATOM      2  C   UNL     1     149.742 139.835 139.189  1.00  0.00     0.031 C 
BRANCH   2   3
ATOM      3  C   UNL     1     148.912 139.499 140.410  1.00  0.00    -0.075 C 
ATOM      4  C   UNL     1     148.841 138.221 140.826  1.00  0.00     0.008 C 
BRANCH   3   5
ATOM      5  C   UNL     1     148.170 140.605 141.147  1.00  0.00     0.008 C 
ATOM      6  C   UNL     1     147.883 141.795 140.221  1.00  0.00     0.012 C 
ATOM      7  C   UNL     1     148.927 141.047 142.405  1.00  0.00     0.012 C 
ENDBRANCH   3   5
ENDBRANCH   2   3
ENDBRANCH   1   2
BRANCH   1   8
ATOM      8  C   UNL     1     147.939 139.503 137.379  1.00  0.00    -0.010 C 
ATOM      9  C   UNL     1     148.249 140.411 136.169  1.00  0.00     0.008 C 
BRANCH   8  10
ATOM     10  C   UNL     1     147.000 138.297 136.996  1.00  0.00    -0.002 C 
ATOM     11  C   UNL     1     147.495 136.976 137.603  1.00  0.00     0.005 C 
ATOM     12  C   UNL     1     145.460 138.360 137.332  1.00  0.00    -0.024 C 
ATOM     13  C   UNL     1     146.297 136.054 137.765  1.00  0.00     0.008 C 
ATOM     14  C   UNL     1     145.023 136.829 137.322  1.00  0.00    -0.024 C 
ATOM     15  C   UNL     1     145.156 139.044 138.714  1.00  0.00     0.008 C 
ATOM     16  C   UNL     1     144.711 139.184 136.241  1.00  0.00     0.012 C 
ATOM     17  C   UNL     1     144.702 136.314 135.882  1.00  0.00     0.012 C 
ATOM     18  C   UNL     1     143.845 136.458 138.317  1.00  0.00     0.002 C 
ATOM     19  C   UNL     1     145.164 138.103 139.911  1.00  0.00     0.008 C 
ATOM     20  C   UNL     1     144.015 137.096 139.738  1.00  0.00    -0.020 C 
ATOM     21  C   UNL     1     142.425 136.724 137.784  1.00  0.00     0.005 C 
ATOM     22  C   UNL     1     142.792 137.230 140.696  1.00  0.00    -0.020 C 
ATOM     23  C   UNL     1     143.786 136.077 140.864  1.00  0.00     0.015 C 
ATOM     24  C   UNL     1     141.389 136.180 138.768  1.00  0.00     0.005 C 
ATOM     25  C   UNL     1     141.386 137.016 140.064  1.00  0.00     0.004 C 
ATOM     26  C   UNL     1     142.796 138.207 141.892  1.00  0.00     0.010 C 
ATOM     27  C   UNL     1     140.326 136.577 141.138  1.00  0.00    -0.006 C 
ATOM     28  C   UNL     1     141.742 137.801 142.930  1.00  0.00     0.033 C 
ATOM     29  C   UNL     1     140.339 137.610 142.316  1.00  0.00     0.120 C 
ATOM     30  C   UNL     1     138.902 136.563 140.523  1.00  0.00     0.014 C 
ATOM     31  C   UNL     1     140.604 135.153 141.684  1.00  0.00     0.014 C 
BRANCH  29  32
ATOM     32  O   UNL     1     139.855 138.855 141.874  1.00  0.00    -0.393 OA
ATOM     33  H   UNL     1     140.646 139.404 141.629  1.00  0.00     0.210 HD
ENDBRANCH  29  32
ENDBRANCH   8  10
ENDBRANCH   1   8
TORSDOF 6
ENDMDL
MODEL 4
REMARK VINA RESULT:    -6.864      1.567      2.194
REMARK INTER + INTRA:         -10.184
REMARK INTER:                  -8.019
REMARK INTRA:                  -2.165
REMARK UNBOUND:                -1.112
REMARK SMILES C=C(CC[C@@H](C)[C@H]1CC[C@@]2(C)[C@@H]3CC[C@H]4C(C)(C)[C@H](O)CC[C@@]45C[C@@]35CC[C@@]12C)C(C)C
REMARK SMILES IDX 4 1 3 2 2 3 1 4 30 5 31 6 32 7 5 8 6 9 7 10 8 11 28 12 9 13
REMARK SMILES IDX 10 14 27 15 29 16 11 17 12 18 26 19 25 20 13 21 23 22 24 23
REMARK SMILES IDX 14 24 15 25 22 26 16 27 21 28 19 29 17 30 18 31 20 32
REMARK H PARENT 20 33
REMARK Flexibility Score: inf
ROOT
ATOM      1  C   UNL     1     149.761 139.618 137.982  1.00  0.00     0.008 C 
ENDROOT
BRANCH   1   2
ATOM      2  C   UNL     1     150.066 140.593 139.133  1.00  0.00     0.031 C 
BRANCH   2   3
ATOM      3  C   UNL     1     149.491 140.087 140.438  1.00  0.00    -0.075 C 
ATOM      4  C   UNL     1     149.915 138.909 140.931  1.00  0.00     0.008 C 
BRANCH   3   5
ATOM      5  C   UNL     1     148.442 140.912 141.172  1.00  0.00     0.008 C 
ATOM      6  C   UNL     1     147.902 142.041 140.285  1.00  0.00     0.012 C 
ATOM      7  C   UNL     1     148.985 141.456 142.499  1.00  0.00     0.012 C 
ENDBRANCH   3   5
ENDBRANCH   2   3
ENDBRANCH   1   2
BRANCH   1   8
ATOM      8  C   UNL     1     148.280 139.706 137.502  1.00  0.00    -0.010 C 
ATOM      9  C   UNL     1     148.254 140.460 136.154  1.00  0.00     0.008 C 
BRANCH   8  10
ATOM     10  C   UNL     1     147.621 138.278 137.400  1.00  0.00    -0.002 C 
ATOM     11  C   UNL     1     148.538 137.187 137.973  1.00  0.00     0.005 C 
ATOM     12  C   UNL     1     146.206 138.015 138.046  1.00  0.00    -0.024 C 
ATOM     13  C   UNL     1     147.664 136.034 138.439  1.00  0.00     0.008 C 
ATOM     14  C   UNL     1     146.175 136.434 138.224  1.00  0.00    -0.024 C 
ATOM     15  C   UNL     1     146.003 138.760 139.415  1.00  0.00     0.008 C 
ATOM     16  C   UNL     1     145.082 138.514 137.086  1.00  0.00     0.012 C 
ATOM     17  C   UNL     1     145.731 135.700 136.918  1.00  0.00     0.012 C 
ATOM     18  C   UNL     1     145.337 135.911 139.464  1.00  0.00     0.002 C 
ATOM     19  C   UNL     1     146.473 137.988 140.641  1.00  0.00     0.008 C 
ATOM     20  C   UNL     1     145.603 136.727 140.775  1.00  0.00    -0.020 C 
ATOM     21  C   UNL     1     143.822 135.775 139.224  1.00  0.00     0.005 C 
ATOM     22  C   UNL     1     144.587 136.677 141.957  1.00  0.00    -0.020 C 
ATOM     23  C   UNL     1     145.854 135.816 141.986  1.00  0.00     0.015 C 
ATOM     24  C   UNL     1     143.160 135.117 140.435  1.00  0.00     0.005 C 
ATOM     25  C   UNL     1     143.188 136.069 141.648  1.00  0.00     0.004 C 
ATOM     26  C   UNL     1     144.569 137.755 143.063  1.00  0.00     0.010 C 
ATOM     27  C   UNL     1     142.494 135.517 142.945  1.00  0.00    -0.006 C 
ATOM     28  C   UNL     1     143.864 137.233 144.322  1.00  0.00     0.033 C 
ATOM     29  C   UNL     1     142.465 136.650 144.027  1.00  0.00     0.120 C 
ATOM     30  C   UNL     1     141.030 135.101 142.643  1.00  0.00     0.014 C 
ATOM     31  C   UNL     1     143.219 134.269 143.509  1.00  0.00     0.014 C 
BRANCH  29  32
ATOM     32  O   UNL     1     141.609 137.690 143.619  1.00  0.00    -0.393 OA
ATOM     33  H   UNL     1     140.794 137.265 143.244  1.00  0.00     0.210 HD
ENDBRANCH  29  32
ENDBRANCH   8  10
ENDBRANCH   1   8
TORSDOF 6
ENDMDL
MODEL 5
REMARK VINA RESULT:    -6.772      3.491      5.833
REMARK INTER + INTRA:         -10.062
REMARK INTER:                  -7.938
REMARK INTRA:                  -2.124
REMARK UNBOUND:                -1.112
REMARK SMILES C=C(CC[C@@H](C)[C@H]1CC[C@@]2(C)[C@@H]3CC[C@H]4C(C)(C)[C@H](O)CC[C@@]45C[C@@]35CC[C@@]12C)C(C)C
REMARK SMILES IDX 4 1 3 2 2 3 1 4 30 5 31 6 32 7 5 8 6 9 7 10 8 11 28 12 9 13
REMARK SMILES IDX 10 14 27 15 29 16 11 17 12 18 26 19 25 20 13 21 23 22 24 23
REMARK SMILES IDX 14 24 15 25 22 26 16 27 21 28 19 29 17 30 18 31 20 32
REMARK H PARENT 20 33
REMARK Flexibility Score: inf
ROOT
ATOM      1  C   UNL     1     145.907 140.762 136.889  1.00  0.00     0.008 C 
ENDROOT
BRANCH   1   2
ATOM      2  C   UNL     1     146.829 141.109 138.072  1.00  0.00     0.031 C 
BRANCH   2   3
ATOM      3  C   UNL     1     148.220 140.553 137.856  1.00  0.00    -0.075 C 
ATOM      4  C   UNL     1     148.602 140.198 136.615  1.00  0.00     0.008 C 
BRANCH   3   5
ATOM      5  C   UNL     1     149.165 140.399 139.040  1.00  0.00     0.008 C 
ATOM      6  C   UNL     1     150.085 139.184 138.863  1.00  0.00     0.012 C 
ATOM      7  C   UNL     1     148.395 140.328 140.365  1.00  0.00     0.012 C 
ENDBRANCH   3   5
ENDBRANCH   2   3
ENDBRANCH   1   2
BRANCH   1   8
ATOM      8  C   UNL     1     144.610 140.025 137.339  1.00  0.00    -0.010 C 
ATOM      9  C   UNL     1     143.406 140.952 137.059  1.00  0.00     0.008 C 
BRANCH   8  10
ATOM     10  C   UNL     1     144.465 138.626 136.629  1.00  0.00    -0.002 C 
ATOM     11  C   UNL     1     145.382 138.514 135.402  1.00  0.00     0.005 C 
ATOM     12  C   UNL     1     144.699 137.298 137.447  1.00  0.00    -0.024 C 
ATOM     13  C   UNL     1     145.689 137.043 135.176  1.00  0.00     0.008 C 
ATOM     14  C   UNL     1     145.016 136.225 136.315  1.00  0.00    -0.024 C 
ATOM     15  C   UNL     1     145.871 137.411 138.489  1.00  0.00     0.008 C 
ATOM     16  C   UNL     1     143.412 136.933 138.249  1.00  0.00     0.012 C 
ATOM     17  C   UNL     1     143.717 135.625 135.687  1.00  0.00     0.012 C 
ATOM     18  C   UNL     1     146.008 135.064 136.746  1.00  0.00     0.002 C 
ATOM     19  C   UNL     1     147.250 137.069 137.942  1.00  0.00     0.008 C 
ATOM     20  C   UNL     1     147.252 135.583 137.545  1.00  0.00    -0.020 C 
ATOM     21  C   UNL     1     145.357 133.884 137.490  1.00  0.00     0.005 C 
ATOM     22  C   UNL     1     148.091 134.605 138.423  1.00  0.00    -0.020 C 
ATOM     23  C   UNL     1     148.568 134.989 137.020  1.00  0.00     0.015 C 
ATOM     24  C   UNL     1     146.385 132.773 137.704  1.00  0.00     0.005 C 
ATOM     25  C   UNL     1     147.453 133.218 138.723  1.00  0.00     0.004 C 
ATOM     26  C   UNL     1     149.032 135.114 139.538  1.00  0.00     0.010 C 
ATOM     27  C   UNL     1     148.544 132.137 139.060  1.00  0.00    -0.006 C 
ATOM     28  C   UNL     1     150.080 134.051 139.893  1.00  0.00     0.033 C 
ATOM     29  C   UNL     1     149.454 132.677 140.216  1.00  0.00     0.120 C 
ATOM     30  C   UNL     1     147.877 130.824 139.545  1.00  0.00     0.014 C 
ATOM     31  C   UNL     1     149.414 131.783 137.827  1.00  0.00     0.014 C 
BRANCH  29  32
ATOM     32  O   UNL     1     148.716 132.775 141.410  1.00  0.00    -0.393 OA
ATOM     33  H   UNL     1     148.908 133.669 141.797  1.00  0.00     0.210 HD
ENDBRANCH  29  32
ENDBRANCH   8  10
ENDBRANCH   1   8
TORSDOF 6
ENDMDL
MODEL 6
REMARK VINA RESULT:    -6.613      2.044      4.851
REMARK INTER + INTRA:          -9.851
REMARK INTER:                  -7.877
REMARK INTRA:                  -1.974
REMARK UNBOUND:                -1.112
REMARK SMILES C=C(CC[C@@H](C)[C@H]1CC[C@@]2(C)[C@@H]3CC[C@H]4C(C)(C)[C@H](O)CC[C@@]45C[C@@]35CC[C@@]12C)C(C)C
REMARK SMILES IDX 4 1 3 2 2 3 1 4 30 5 31 6 32 7 5 8 6 9 7 10 8 11 28 12 9 13
REMARK SMILES IDX 10 14 27 15 29 16 11 17 12 18 26 19 25 20 13 21 23 22 24 23
REMARK SMILES IDX 14 24 15 25 22 26 16 27 21 28 19 29 17 30 18 31 20 32
REMARK H PARENT 20 33
REMARK Flexibility Score: inf
ROOT
ATOM      1  C   UNL     1     145.958 141.154 137.515  1.00  0.00     0.008 C 
ENDROOT
BRANCH   1   2
ATOM      2  C   UNL     1     144.827 141.322 136.485  1.00  0.00     0.031 C 
BRANCH   2   3
ATOM      3  C   UNL     1     143.844 140.173 136.569  1.00  0.00    -0.075 C 
ATOM      4  C   UNL     1     143.013 140.092 137.624  1.00  0.00     0.008 C 
BRANCH   3   5
ATOM      5  C   UNL     1     143.812 139.125 135.464  1.00  0.00     0.008 C 
ATOM      6  C   UNL     1     144.348 137.776 135.962  1.00  0.00     0.012 C 
ATOM      7  C   UNL     1     144.569 139.601 134.218  1.00  0.00     0.012 C 
ENDBRANCH   3   5
ENDBRANCH   2   3
ENDBRANCH   1   2
BRANCH   1   8
ATOM      8  C   UNL     1     146.979 140.049 137.107  1.00  0.00    -0.010 C 
ATOM      9  C   UNL     1     147.915 140.632 136.026  1.00  0.00     0.008 C 
BRANCH   8  10
ATOM     10  C   UNL     1     147.772 139.506 138.356  1.00  0.00    -0.002 C 
ATOM     11  C   UNL     1     147.959 140.592 139.426  1.00  0.00     0.005 C 
ATOM     12  C   UNL     1     147.247 138.239 139.135  1.00  0.00    -0.024 C 
ATOM     13  C   UNL     1     148.110 139.905 140.773  1.00  0.00     0.008 C 
ATOM     14  C   UNL     1     147.944 138.373 140.559  1.00  0.00    -0.024 C 
ATOM     15  C   UNL     1     145.680 138.192 139.254  1.00  0.00     0.008 C 
ATOM     16  C   UNL     1     147.685 136.940 138.393  1.00  0.00     0.012 C 
ATOM     17  C   UNL     1     149.395 137.792 140.565  1.00  0.00     0.012 C 
ATOM     18  C   UNL     1     147.110 137.789 141.776  1.00  0.00     0.002 C 
ATOM     19  C   UNL     1     145.108 138.915 140.466  1.00  0.00     0.008 C 
ATOM     20  C   UNL     1     145.596 138.188 141.731  1.00  0.00    -0.020 C 
ATOM     21  C   UNL     1     147.251 136.273 142.002  1.00  0.00     0.005 C 
ATOM     22  C   UNL     1     144.542 137.380 142.548  1.00  0.00    -0.020 C 
ATOM     23  C   UNL     1     145.092 138.705 143.087  1.00  0.00     0.015 C 
ATOM     24  C   UNL     1     146.530 135.869 143.288  1.00  0.00     0.005 C 
ATOM     25  C   UNL     1     145.004 136.008 143.116  1.00  0.00     0.004 C 
ATOM     26  C   UNL     1     143.033 137.445 142.221  1.00  0.00     0.010 C 
ATOM     27  C   UNL     1     144.151 135.577 144.363  1.00  0.00    -0.006 C 
ATOM     28  C   UNL     1     142.196 136.996 143.426  1.00  0.00     0.033 C 
ATOM     29  C   UNL     1     142.632 135.623 143.981  1.00  0.00     0.120 C 
ATOM     30  C   UNL     1     144.498 134.125 144.785  1.00  0.00     0.014 C 
ATOM     31  C   UNL     1     144.412 136.487 145.591  1.00  0.00     0.014 C 
BRANCH  29  32
ATOM     32  O   UNL     1     142.341 134.627 143.030  1.00  0.00    -0.393 OA
ATOM     33  H   UNL     1     142.509 135.023 142.134  1.00  0.00     0.210 HD
ENDBRANCH  29  32
ENDBRANCH   8  10
ENDBRANCH   1   8
TORSDOF 6
ENDMDL
MODEL 7
REMARK VINA RESULT:    -6.567      2.776      8.390
REMARK INTER + INTRA:          -9.791
REMARK INTER:                  -8.529
REMARK INTRA:                  -1.262
REMARK UNBOUND:                -1.112
REMARK SMILES C=C(CC[C@@H](C)[C@H]1CC[C@@]2(C)[C@@H]3CC[C@H]4C(C)(C)[C@H](O)CC[C@@]45C[C@@]35CC[C@@]12C)C(C)C
REMARK SMILES IDX 4 1 3 2 2 3 1 4 30 5 31 6 32 7 5 8 6 9 7 10 8 11 28 12 9 13
REMARK SMILES IDX 10 14 27 15 29 16 11 17 12 18 26 19 25 20 13 21 23 22 24 23
REMARK SMILES IDX 14 24 15 25 22 26 16 27 21 28 19 29 17 30 18 31 20 32
REMARK H PARENT 20 33
REMARK Flexibility Score: inf
ROOT
ATOM      1  C   UNL     1     139.047 136.370 142.036  1.00  0.00     0.008 C 
ENDROOT
BRANCH   1   2
ATOM      2  C   UNL     1     138.146 137.587 141.763  1.00  0.00     0.031 C 
BRANCH   2   3
ATOM      3  C   UNL     1     136.903 137.544 142.627  1.00  0.00    -0.075 C 
ATOM      4  C   UNL     1     136.127 136.445 142.610  1.00  0.00     0.008 C 
BRANCH   3   5
ATOM      5  C   UNL     1     136.546 138.742 143.497  1.00  0.00     0.008 C 
ATOM      6  C   UNL     1     136.954 138.510 144.958  1.00  0.00     0.012 C 
ATOM      7  C   UNL     1     135.058 139.094 143.381  1.00  0.00     0.012 C 
ENDBRANCH   3   5
ENDBRANCH   2   3
ENDBRANCH   1   2
BRANCH   1   8
ATOM      8  C   UNL     1     140.029 136.608 143.223  1.00  0.00    -0.010 C 
ATOM      9  C   UNL     1     139.501 135.832 144.449  1.00  0.00     0.008 C 
BRANCH   8  10
ATOM     10  C   UNL     1     141.503 136.196 142.844  1.00  0.00    -0.002 C 
ATOM     11  C   UNL     1     141.529 135.006 141.874  1.00  0.00     0.005 C 
ATOM     12  C   UNL     1     142.484 137.263 142.221  1.00  0.00    -0.024 C 
ATOM     13  C   UNL     1     142.819 135.077 141.075  1.00  0.00     0.008 C 
ATOM     14  C   UNL     1     143.581 136.367 141.495  1.00  0.00    -0.024 C 
ATOM     15  C   UNL     1     141.775 138.245 141.219  1.00  0.00     0.008 C 
ATOM     16  C   UNL     1     143.105 138.138 143.353  1.00  0.00     0.012 C 
ATOM     17  C   UNL     1     144.700 135.890 142.475  1.00  0.00     0.012 C 
ATOM     18  C   UNL     1     144.223 137.010 140.195  1.00  0.00     0.002 C 
ATOM     19  C   UNL     1     141.722 137.761 139.776  1.00  0.00     0.008 C 
ATOM     20  C   UNL     1     143.164 137.672 139.248  1.00  0.00    -0.020 C 
ATOM     21  C   UNL     1     145.387 137.986 140.449  1.00  0.00     0.005 C 
ATOM     22  C   UNL     1     143.604 138.719 138.180  1.00  0.00    -0.020 C 
ATOM     23  C   UNL     1     143.360 137.260 137.781  1.00  0.00     0.015 C 
ATOM     24  C   UNL     1     146.013 138.407 139.119  1.00  0.00     0.005 C 
ATOM     25  C   UNL     1     145.040 139.301 138.325  1.00  0.00     0.004 C 
ATOM     26  C   UNL     1     142.597 139.696 137.532  1.00  0.00     0.010 C 
ATOM     27  C   UNL     1     145.593 139.835 136.955  1.00  0.00    -0.006 C 
ATOM     28  C   UNL     1     143.145 140.244 136.208  1.00  0.00     0.033 C 
ATOM     29  C   UNL     1     144.560 140.846 136.349  1.00  0.00     0.120 C 
ATOM     30  C   UNL     1     146.935 140.584 137.164  1.00  0.00     0.014 C 
ATOM     31  C   UNL     1     145.859 138.688 135.947  1.00  0.00     0.014 C 
BRANCH  29  32
ATOM     32  O   UNL     1     144.491 142.005 137.144  1.00  0.00    -0.393 OA
ATOM     33  H   UNL     1     144.470 141.706 138.091  1.00  0.00     0.210 HD
ENDBRANCH  29  32
ENDBRANCH   8  10
ENDBRANCH   1   8
TORSDOF 6
ENDMDL
MODEL 8
REMARK VINA RESULT:    -6.542      2.295      4.994
REMARK INTER + INTRA:          -9.758
REMARK INTER:                  -8.316
REMARK INTRA:                  -1.441
REMARK UNBOUND:                -1.112
REMARK SMILES C=C(CC[C@@H](C)[C@H]1CC[C@@]2(C)[C@@H]3CC[C@H]4C(C)(C)[C@H](O)CC[C@@]45C[C@@]35CC[C@@]12C)C(C)C
REMARK SMILES IDX 4 1 3 2 2 3 1 4 30 5 31 6 32 7 5 8 6 9 7 10 8 11 28 12 9 13
REMARK SMILES IDX 10 14 27 15 29 16 11 17 12 18 26 19 25 20 13 21 23 22 24 23
REMARK SMILES IDX 14 24 15 25 22 26 16 27 21 28 19 29 17 30 18 31 20 32
REMARK H PARENT 20 33
REMARK Flexibility Score: inf
ROOT
ATOM      1  C   UNL     1     146.785 139.176 140.192  1.00  0.00     0.008 C 
ENDROOT
BRANCH   1   2
ATOM      2  C   UNL     1     148.065 139.560 139.428  1.00  0.00     0.031 C 
BRANCH   2   3
ATOM      3  C   UNL     1     148.758 140.734 140.089  1.00  0.00    -0.075 C 
ATOM      4  C   UNL     1     149.959 141.132 139.632  1.00  0.00     0.008 C 
BRANCH   3   5
ATOM      5  C   UNL     1     148.090 141.443 141.260  1.00  0.00     0.008 C 
ATOM      6  C   UNL     1     147.929 142.943 140.982  1.00  0.00     0.012 C 
ATOM      7  C   UNL     1     148.848 141.196 142.570  1.00  0.00     0.012 C 
ENDBRANCH   3   5
ENDBRANCH   2   3
ENDBRANCH   1   2
BRANCH   1   8
ATOM      8  C   UNL     1     146.863 137.746 140.806  1.00  0.00    -0.010 C 
ATOM      9  C   UNL     1     148.350 137.335 140.886  1.00  0.00     0.008 C 
BRANCH   8  10
ATOM     10  C   UNL     1     146.148 137.682 142.210  1.00  0.00    -0.002 C 
ATOM     11  C   UNL     1     145.646 139.063 142.656  1.00  0.00     0.005 C 
ATOM     12  C   UNL     1     144.931 136.703 142.431  1.00  0.00    -0.024 C 
ATOM     13  C   UNL     1     144.472 138.855 143.598  1.00  0.00     0.008 C 
ATOM     14  C   UNL     1     144.186 137.329 143.691  1.00  0.00    -0.024 C 
ATOM     15  C   UNL     1     143.982 136.605 141.181  1.00  0.00     0.008 C 
ATOM     16  C   UNL     1     145.452 135.262 142.720  1.00  0.00     0.012 C 
ATOM     17  C   UNL     1     144.820 136.867 145.042  1.00  0.00     0.012 C 
ATOM     18  C   UNL     1     142.614 137.119 143.718  1.00  0.00     0.002 C 
ATOM     19  C   UNL     1     142.869 137.644 141.138  1.00  0.00     0.008 C 
ATOM     20  C   UNL     1     141.933 137.393 142.333  1.00  0.00    -0.020 C 
ATOM     21  C   UNL     1     142.140 135.767 144.281  1.00  0.00     0.005 C 
ATOM     22  C   UNL     1     140.512 136.830 142.027  1.00  0.00    -0.020 C 
ATOM     23  C   UNL     1     140.691 138.287 142.464  1.00  0.00     0.015 C 
ATOM     24  C   UNL     1     140.616 135.757 144.398  1.00  0.00     0.005 C 
ATOM     25  C   UNL     1     139.969 135.743 142.998  1.00  0.00     0.004 C 
ATOM     26  C   UNL     1     139.982 136.697 140.582  1.00  0.00     0.010 C 
ATOM     27  C   UNL     1     138.399 135.686 142.990  1.00  0.00    -0.006 C 
ATOM     28  C   UNL     1     138.450 136.611 140.570  1.00  0.00     0.033 C 
ATOM     29  C   UNL     1     137.904 135.518 141.513  1.00  0.00     0.120 C 
ATOM     30  C   UNL     1     137.894 134.471 143.810  1.00  0.00     0.014 C 
ATOM     31  C   UNL     1     137.767 136.956 143.615  1.00  0.00     0.014 C 
BRANCH  29  32
ATOM     32  O   UNL     1     138.276 134.254 141.018  1.00  0.00    -0.393 OA
ATOM     33  H   UNL     1     138.691 133.757 141.771  1.00  0.00     0.210 HD
ENDBRANCH  29  32
ENDBRANCH   8  10
ENDBRANCH   1   8
TORSDOF 6
ENDMDL
MODEL 9
REMARK VINA RESULT:    -6.538      2.411      7.356
REMARK INTER + INTRA:          -9.752
REMARK INTER:                  -7.540
REMARK INTRA:                  -2.212
REMARK UNBOUND:                -1.112
REMARK SMILES C=C(CC[C@@H](C)[C@H]1CC[C@@]2(C)[C@@H]3CC[C@H]4C(C)(C)[C@H](O)CC[C@@]45C[C@@]35CC[C@@]12C)C(C)C
REMARK SMILES IDX 4 1 3 2 2 3 1 4 30 5 31 6 32 7 5 8 6 9 7 10 8 11 28 12 9 13
REMARK SMILES IDX 10 14 27 15 29 16 11 17 12 18 26 19 25 20 13 21 23 22 24 23
REMARK SMILES IDX 14 24 15 25 22 26 16 27 21 28 19 29 17 30 18 31 20 32
REMARK H PARENT 20 33
REMARK Flexibility Score: inf
ROOT
ATOM      1  C   UNL     1     140.871 135.814 138.016  1.00  0.00     0.008 C 
ENDROOT
BRANCH   1   2
ATOM      2  C   UNL     1     141.364 136.710 136.865  1.00  0.00     0.031 C 
BRANCH   2   3
ATOM      3  C   UNL     1     142.683 136.208 136.316  1.00  0.00    -0.075 C 
ATOM      4  C   UNL     1     143.446 137.036 135.579  1.00  0.00     0.008 C 
BRANCH   3   5
ATOM      5  C   UNL     1     143.125 134.779 136.599  1.00  0.00     0.008 C 
ATOM      6  C   UNL     1     144.576 134.734 137.095  1.00  0.00     0.012 C 
ATOM      7  C   UNL     1     142.924 133.878 135.375  1.00  0.00     0.012 C 
ENDBRANCH   3   5
ENDBRANCH   2   3
ENDBRANCH   1   2
BRANCH   1   8
ATOM      8  C   UNL     1     140.512 136.629 139.295  1.00  0.00    -0.010 C 
ATOM      9  C   UNL     1     139.078 136.248 139.723  1.00  0.00     0.008 C 
BRANCH   8  10
ATOM     10  C   UNL     1     141.563 136.389 140.445  1.00  0.00    -0.002 C 
ATOM     11  C   UNL     1     142.470 135.187 140.145  1.00  0.00     0.005 C 
ATOM     12  C   UNL     1     142.538 137.552 140.876  1.00  0.00    -0.024 C 
ATOM     13  C   UNL     1     143.785 135.395 140.878  1.00  0.00     0.008 C 
ATOM     14  C   UNL     1     143.732 136.778 141.590  1.00  0.00    -0.024 C 
ATOM     15  C   UNL     1     143.044 138.415 139.664  1.00  0.00     0.008 C 
ATOM     16  C   UNL     1     141.809 138.523 141.854  1.00  0.00     0.012 C 
ATOM     17  C   UNL     1     143.422 136.464 143.089  1.00  0.00     0.012 C 
ATOM     18  C   UNL     1     145.157 137.462 141.452  1.00  0.00     0.002 C 
ATOM     19  C   UNL     1     144.304 137.893 138.986  1.00  0.00     0.008 C 
ATOM     20  C   UNL     1     145.459 137.967 140.000  1.00  0.00    -0.020 C 
ATOM     21  C   UNL     1     145.453 138.577 142.471  1.00  0.00     0.005 C 
ATOM     22  C   UNL     1     146.568 139.033 139.748  1.00  0.00    -0.020 C 
ATOM     23  C   UNL     1     146.855 137.546 139.517  1.00  0.00     0.015 C 
ATOM     24  C   UNL     1     146.904 139.038 142.332  1.00  0.00     0.005 C 
ATOM     25  C   UNL     1     147.104 139.788 140.999  1.00  0.00     0.004 C 
ATOM     26  C   UNL     1     146.621 139.864 138.447  1.00  0.00     0.010 C 
ATOM     27  C   UNL     1     148.552 140.351 140.763  1.00  0.00    -0.006 C 
ATOM     28  C   UNL     1     148.025 140.442 138.227  1.00  0.00     0.033 C 
ATOM     29  C   UNL     1     148.554 141.214 139.454  1.00  0.00     0.120 C 
ATOM     30  C   UNL     1     148.981 141.262 141.942  1.00  0.00     0.014 C 
ATOM     31  C   UNL     1     149.606 139.221 140.648  1.00  0.00     0.014 C 
BRANCH  29  32
ATOM     32  O   UNL     1     147.781 142.375 139.638  1.00  0.00    -0.393 OA
ATOM     33  H   UNL     1     147.265 142.251 140.477  1.00  0.00     0.210 HD
ENDBRANCH  29  32
ENDBRANCH   8  10
ENDBRANCH   1   8
TORSDOF 6
ENDMDL
