MODEL 1
REMARK VINA RESULT:    -4.235      0.000      0.000
REMARK INTER + INTRA:          -9.610
REMARK INTER:                  -7.453
REMARK INTRA:                  -2.157
REMARK UNBOUND:                -2.157
REMARK SMILES CCCCCCCCCCCCCCC(=O)[O-]
REMARK SMILES IDX 9 1 10 2 11 3 12 4 13 5 14 6 15 7 16 8 17 9 8 10 7 11 6 12
REMARK SMILES IDX 5 13 4 14 3 15 2 16 1 17
REMARK H PARENT
REMARK Flexibility Score: inf
ROOT
ATOM      1  C   UNL     1      -5.566  43.498  20.397  1.00  0.00     0.000 C 
ENDROOT
BRANCH   1   2
ATOM      2  C   UNL     1      -4.753  44.091  19.229  1.00  0.00     0.000 C 
BRANCH   2   3
ATOM      3  C   UNL     1      -3.583  45.006  19.646  1.00  0.00     0.000 C 
BRANCH   3   4
ATOM      4  C   UNL     1      -2.261  44.277  19.942  1.00  0.00     0.000 C 
BRANCH   4   5
ATOM      5  C   UNL     1      -1.787  44.462  21.393  1.00  0.00     0.006 C 
BRANCH   5   6
ATOM      6  C   UNL     1      -0.609  43.543  21.741  1.00  0.00     0.053 C 
BRANCH   6   7
ATOM      7  C   UNL     1      -0.174  43.710  23.164  1.00  0.00     0.041 C 
ATOM      8  O   UNL     1      -0.762  44.532  23.914  1.00  0.00    -0.550 OA
ATOM      9  O   UNL     1       0.902  42.979  23.654  1.00  0.00    -0.550 OA
ENDBRANCH   6   7
ENDBRANCH   5   6
ENDBRANCH   4   5
ENDBRANCH   3   4
ENDBRANCH   2   3
ENDBRANCH   1   2
BRANCH   1  10
ATOM     10  C   UNL     1      -5.267  42.019  20.715  1.00  0.00     0.000 C 
BRANCH  10  11
ATOM     11  C   UNL     1      -4.342  41.789  21.924  1.00  0.00    -0.000 C 
BRANCH  11  12
ATOM     12  C   UNL     1      -4.898  42.392  23.223  1.00  0.00    -0.000 C 
BRANCH  12  13
ATOM     13  C   UNL     1      -3.779  43.031  24.055  1.00  0.00    -0.000 C 
BRANCH  13  14
ATOM     14  C   UNL     1      -4.192  44.422  24.556  1.00  0.00    -0.000 C 
BRANCH  14  15
ATOM     15  C   UNL     1      -5.057  45.186  23.540  1.00  0.00    -0.000 C 
BRANCH  15  16
ATOM     16  C   UNL     1      -4.331  46.396  22.936  1.00  0.00    -0.003 C 
ATOM     17  C   UNL     1      -3.599  47.191  24.014  1.00  0.00     0.004 C 
ENDBRANCH  15  16
ENDBRANCH  14  15
ENDBRANCH  13  14
ENDBRANCH  12  13
ENDBRANCH  11  12
ENDBRANCH  10  11
ENDBRANCH   1  10
TORSDOF 13
ENDMDL
MODEL 2
REMARK VINA RESULT:    -4.003      2.049      3.783
REMARK INTER + INTRA:          -9.202
REMARK INTER:                  -7.183
REMARK INTRA:                  -2.019
REMARK UNBOUND:                -2.157
REMARK SMILES CCCCCCCCCCCCCCC(=O)[O-]
REMARK SMILES IDX 9 1 10 2 11 3 12 4 13 5 14 6 15 7 16 8 17 9 8 10 7 11 6 12
REMARK SMILES IDX 5 13 4 14 3 15 2 16 1 17
REMARK H PARENT
REMARK Flexibility Score: inf
ROOT
ATOM      1  C   UNL     1      -3.432  44.962  19.832  1.00  0.00     0.000 C 
ENDROOT
BRANCH   1   2
ATOM      2  C   UNL     1      -4.735  44.312  19.324  1.00  0.00     0.000 C 
BRANCH   2   3
ATOM      3  C   UNL     1      -5.520  43.509  20.381  1.00  0.00     0.000 C 
BRANCH   3   4
ATOM      4  C   UNL     1      -4.981  42.094  20.655  1.00  0.00     0.000 C 
BRANCH   4   5
ATOM      5  C   UNL     1      -6.018  41.179  21.328  1.00  0.00     0.006 C 
BRANCH   5   6
ATOM      6  C   UNL     1      -5.380  40.237  22.357  1.00  0.00     0.053 C 
BRANCH   6   7
ATOM      7  C   UNL     1      -4.789  40.989  23.510  1.00  0.00     0.041 C 
ATOM      8  O   UNL     1      -3.545  40.983  23.699  1.00  0.00    -0.550 OA
ATOM      9  O   UNL     1      -5.616  41.674  24.392  1.00  0.00    -0.550 OA
ENDBRANCH   6   7
ENDBRANCH   5   6
ENDBRANCH   4   5
ENDBRANCH   3   4
ENDBRANCH   2   3
ENDBRANCH   1   2
BRANCH   1  10
ATOM     10  C   UNL     1      -2.135  44.264  19.376  1.00  0.00     0.000 C 
BRANCH  10  11
ATOM     11  C   UNL     1      -1.239  43.748  20.515  1.00  0.00    -0.000 C 
BRANCH  11  12
ATOM     12  C   UNL     1      -1.999  43.571  21.839  1.00  0.00    -0.000 C 
BRANCH  12  13
ATOM     13  C   UNL     1      -1.362  44.409  22.954  1.00  0.00    -0.000 C 
BRANCH  13  14
ATOM     14  C   UNL     1      -2.437  45.098  23.807  1.00  0.00    -0.000 C 
BRANCH  14  15
ATOM     15  C   UNL     1      -3.858  44.617  23.472  1.00  0.00    -0.000 C 
BRANCH  15  16
ATOM     16  C   UNL     1      -4.832  45.776  23.225  1.00  0.00    -0.003 C 
ATOM     17  C   UNL     1      -4.097  47.112  23.183  1.00  0.00     0.004 C 
ENDBRANCH  15  16
ENDBRANCH  14  15
ENDBRANCH  13  14
ENDBRANCH  12  13
ENDBRANCH  11  12
ENDBRANCH  10  11
ENDBRANCH   1  10
TORSDOF 13
ENDMDL
MODEL 3
REMARK VINA RESULT:    -3.929      2.799      4.319
REMARK INTER + INTRA:          -9.072
REMARK INTER:                  -7.249
REMARK INTRA:                  -1.823
REMARK UNBOUND:                -2.157
REMARK SMILES CCCCCCCCCCCCCCC(=O)[O-]
REMARK SMILES IDX 9 1 10 2 11 3 12 4 13 5 14 6 15 7 16 8 17 9 8 10 7 11 6 12
REMARK SMILES IDX 5 13 4 14 3 15 2 16 1 17
REMARK H PARENT
REMARK Flexibility Score: inf
ROOT
ATOM      1  C   UNL     1      -0.555  43.805  21.922  1.00  0.00     0.000 C 
ENDROOT
BRANCH   1   2
ATOM      2  C   UNL     1      -1.653  44.041  20.866  1.00  0.00     0.000 C 
BRANCH   2   3
ATOM      3  C   UNL     1      -3.089  43.734  21.338  1.00  0.00     0.000 C 
BRANCH   3   4
ATOM      4  C   UNL     1      -4.187  44.583  20.675  1.00  0.00     0.000 C 
BRANCH   4   5
ATOM      5  C   UNL     1      -3.773  45.127  19.297  1.00  0.00     0.006 C 
BRANCH   5   6
ATOM      6  C   UNL     1      -4.459  44.378  18.147  1.00  0.00     0.053 C 
BRANCH   6   7
ATOM      7  C   UNL     1      -3.531  43.408  17.482  1.00  0.00     0.041 C 
ATOM      8  O   UNL     1      -3.123  43.623  16.311  1.00  0.00    -0.550 OA
ATOM      9  O   UNL     1      -3.141  42.251  18.146  1.00  0.00    -0.550 OA
ENDBRANCH   6   7
ENDBRANCH   5   6
ENDBRANCH   4   5
ENDBRANCH   3   4
ENDBRANCH   2   3
ENDBRANCH   1   2
BRANCH   1  10
ATOM     10  C   UNL     1      -0.915  44.260  23.351  1.00  0.00     0.000 C 
BRANCH  10  11
ATOM     11  C   UNL     1      -0.649  43.218  24.451  1.00  0.00    -0.000 C 
BRANCH  11  12
ATOM     12  C   UNL     1      -1.707  43.242  25.564  1.00  0.00    -0.000 C 
BRANCH  12  13
ATOM     13  C   UNL     1      -3.122  43.146  24.980  1.00  0.00    -0.000 C 
BRANCH  13  14
ATOM     14  C   UNL     1      -4.003  44.299  25.480  1.00  0.00    -0.000 C 
BRANCH  14  15
ATOM     15  C   UNL     1      -4.506  45.199  24.340  1.00  0.00    -0.000 C 
BRANCH  15  16
ATOM     16  C   UNL     1      -3.691  46.493  24.206  1.00  0.00    -0.003 C 
ATOM     17  C   UNL     1      -4.061  47.245  22.931  1.00  0.00     0.004 C 
ENDBRANCH  15  16
ENDBRANCH  14  15
ENDBRANCH  13  14
ENDBRANCH  12  13
ENDBRANCH  11  12
ENDBRANCH  10  11
ENDBRANCH   1  10
TORSDOF 13
ENDMDL
MODEL 4
REMARK VINA RESULT:    -3.840      2.087      4.872
REMARK INTER + INTRA:          -8.915
REMARK INTER:                  -6.752
REMARK INTRA:                  -2.162
REMARK UNBOUND:                -2.157
REMARK SMILES CCCCCCCCCCCCCCC(=O)[O-]
REMARK SMILES IDX 9 1 10 2 11 3 12 4 13 5 14 6 15 7 16 8 17 9 8 10 7 11 6 12
REMARK SMILES IDX 5 13 4 14 3 15 2 16 1 17
REMARK H PARENT
REMARK Flexibility Score: inf
ROOT
ATOM      1  C   UNL     1      -1.037  43.877  20.121  1.00  0.00     0.000 C 
ENDROOT
BRANCH   1   2
ATOM      2  C   UNL     1      -1.450  43.238  21.462  1.00  0.00     0.000 C 
BRANCH   2   3
ATOM      3  C   UNL     1      -0.868  43.919  22.717  1.00  0.00     0.000 C 
BRANCH   3   4
ATOM      4  C   UNL     1      -1.907  44.343  23.769  1.00  0.00     0.000 C 
BRANCH   4   5
ATOM      5  C   UNL     1      -2.700  45.595  23.356  1.00  0.00     0.006 C 
BRANCH   5   6
ATOM      6  C   UNL     1      -4.215  45.395  23.493  1.00  0.00     0.053 C 
BRANCH   6   7
ATOM      7  C   UNL     1      -4.564  44.604  24.717  1.00  0.00     0.041 C 
ATOM      8  O   UNL     1      -4.424  45.112  25.860  1.00  0.00    -0.550 OA
ATOM      9  O   UNL     1      -5.016  43.296  24.596  1.00  0.00    -0.550 OA
ENDBRANCH   6   7
ENDBRANCH   5   6
ENDBRANCH   4   5
ENDBRANCH   3   4
ENDBRANCH   2   3
ENDBRANCH   1   2
BRANCH   1  10
ATOM     10  C   UNL     1      -2.195  44.124  19.133  1.00  0.00     0.000 C 
BRANCH  10  11
ATOM     11  C   UNL     1      -3.401  44.879  19.719  1.00  0.00    -0.000 C 
BRANCH  11  12
ATOM     12  C   UNL     1      -4.745  44.237  19.346  1.00  0.00    -0.000 C 
BRANCH  12  13
ATOM     13  C   UNL     1      -5.484  43.743  20.596  1.00  0.00    -0.000 C 
BRANCH  13  14
ATOM     14  C   UNL     1      -5.011  42.337  20.995  1.00  0.00    -0.000 C 
BRANCH  14  15
ATOM     15  C   UNL     1      -4.958  41.369  19.803  1.00  0.00    -0.000 C 
BRANCH  15  16
ATOM     16  C   UNL     1      -3.602  40.662  19.675  1.00  0.00    -0.003 C 
ATOM     17  C   UNL     1      -3.111  40.673  18.231  1.00  0.00     0.004 C 
ENDBRANCH  15  16
ENDBRANCH  14  15
ENDBRANCH  13  14
ENDBRANCH  12  13
ENDBRANCH  11  12
ENDBRANCH  10  11
ENDBRANCH   1  10
TORSDOF 13
ENDMDL
MODEL 5
REMARK VINA RESULT:    -3.838      2.660      4.285
REMARK INTER + INTRA:          -8.911
REMARK INTER:                  -7.090
REMARK INTRA:                  -1.821
REMARK UNBOUND:                -2.157
REMARK SMILES CCCCCCCCCCCCCCC(=O)[O-]
REMARK SMILES IDX 9 1 10 2 11 3 12 4 13 5 14 6 15 7 16 8 17 9 8 10 7 11 6 12
REMARK SMILES IDX 5 13 4 14 3 15 2 16 1 17
REMARK H PARENT
REMARK Flexibility Score: inf
ROOT
ATOM      1  C   UNL     1      -1.156  42.432  20.433  1.00  0.00     0.000 C 
ENDROOT
BRANCH   1   2
ATOM      2  C   UNL     1      -1.362  43.906  20.031  1.00  0.00     0.000 C 
BRANCH   2   3
ATOM      3  C   UNL     1      -2.610  44.579  20.636  1.00  0.00     0.000 C 
BRANCH   3   4
ATOM      4  C   UNL     1      -3.605  45.146  19.609  1.00  0.00     0.000 C 
BRANCH   4   5
ATOM      5  C   UNL     1      -4.791  44.203  19.341  1.00  0.00     0.006 C 
BRANCH   5   6
ATOM      6  C   UNL     1      -5.290  43.520  20.620  1.00  0.00     0.053 C 
BRANCH   6   7
ATOM      7  C   UNL     1      -5.422  42.038  20.445  1.00  0.00     0.041 C 
ATOM      8  O   UNL     1      -4.843  41.459  19.490  1.00  0.00    -0.550 OA
ATOM      9  O   UNL     1      -6.210  41.300  21.321  1.00  0.00    -0.550 OA
ENDBRANCH   6   7
ENDBRANCH   5   6
ENDBRANCH   4   5
ENDBRANCH   3   4
ENDBRANCH   2   3
ENDBRANCH   1   2
BRANCH   1  10
ATOM     10  C   UNL     1      -0.038  42.187  21.467  1.00  0.00     0.000 C 
BRANCH  10  11
ATOM     11  C   UNL     1       0.404  43.433  22.253  1.00  0.00    -0.000 C 
BRANCH  11  12
ATOM     12  C   UNL     1      -0.083  43.423  23.710  1.00  0.00    -0.000 C 
BRANCH  12  13
ATOM     13  C   UNL     1      -1.177  44.475  23.931  1.00  0.00    -0.000 C 
BRANCH  13  14
ATOM     14  C   UNL     1      -2.536  43.808  24.189  1.00  0.00    -0.000 C 
BRANCH  14  15
ATOM     15  C   UNL     1      -3.698  44.815  24.196  1.00  0.00    -0.000 C 
BRANCH  15  16
ATOM     16  C   UNL     1      -3.241  46.247  23.888  1.00  0.00    -0.003 C 
ATOM     17  C   UNL     1      -4.279  46.986  23.048  1.00  0.00     0.004 C 
ENDBRANCH  15  16
ENDBRANCH  14  15
ENDBRANCH  13  14
ENDBRANCH  12  13
ENDBRANCH  11  12
ENDBRANCH  10  11
ENDBRANCH   1  10
TORSDOF 13
ENDMDL
MODEL 6
REMARK VINA RESULT:    -3.827      2.055      4.509
REMARK INTER + INTRA:          -8.893
REMARK INTER:                  -6.987
REMARK INTRA:                  -1.905
REMARK UNBOUND:                -2.157
REMARK SMILES CCCCCCCCCCCCCCC(=O)[O-]
REMARK SMILES IDX 9 1 10 2 11 3 12 4 13 5 14 6 15 7 16 8 17 9 8 10 7 11 6 12
REMARK SMILES IDX 5 13 4 14 3 15 2 16 1 17
REMARK H PARENT
REMARK Flexibility Score: inf
ROOT
ATOM      1  C   UNL     1      -1.743  41.851  20.076  1.00  0.00     0.000 C 
ENDROOT
BRANCH   1   2
ATOM      2  C   UNL     1      -0.675  42.899  20.449  1.00  0.00     0.000 C 
BRANCH   2   3
ATOM      3  C   UNL     1      -1.095  43.897  21.547  1.00  0.00     0.000 C 
BRANCH   3   4
ATOM      4  C   UNL     1      -0.340  43.754  22.879  1.00  0.00     0.000 C 
BRANCH   4   5
ATOM      5  C   UNL     1      -1.189  44.159  24.096  1.00  0.00     0.006 C 
BRANCH   5   6
ATOM      6  C   UNL     1      -2.437  44.954  23.693  1.00  0.00     0.053 C 
BRANCH   6   7
ATOM      7  C   UNL     1      -3.640  44.542  24.485  1.00  0.00     0.041 C 
ATOM      8  O   UNL     1      -4.725  44.284  23.901  1.00  0.00    -0.550 OA
ATOM      9  O   UNL     1      -3.571  44.469  25.871  1.00  0.00    -0.550 OA
ENDBRANCH   6   7
ENDBRANCH   5   6
ENDBRANCH   4   5
ENDBRANCH   3   4
ENDBRANCH   2   3
ENDBRANCH   1   2
BRANCH   1  10
ATOM     10  C   UNL     1      -2.251  41.926  18.622  1.00  0.00     0.000 C 
BRANCH  10  11
ATOM     11  C   UNL     1      -2.042  43.284  17.929  1.00  0.00    -0.000 C 
BRANCH  11  12
ATOM     12  C   UNL     1      -3.237  43.700  17.058  1.00  0.00    -0.000 C 
BRANCH  12  13
ATOM     13  C   UNL     1      -4.396  44.211  17.922  1.00  0.00    -0.000 C 
BRANCH  13  14
ATOM     14  C   UNL     1      -3.879  45.079  19.079  1.00  0.00    -0.000 C 
BRANCH  14  15
ATOM     15  C   UNL     1      -4.351  44.577  20.453  1.00  0.00    -0.000 C 
BRANCH  15  16
ATOM     16  C   UNL     1      -5.523  43.591  20.352  1.00  0.00    -0.003 C 
ATOM     17  C   UNL     1      -5.216  42.295  21.096  1.00  0.00     0.004 C 
ENDBRANCH  15  16
ENDBRANCH  14  15
ENDBRANCH  13  14
ENDBRANCH  12  13
ENDBRANCH  11  12
ENDBRANCH  10  11
ENDBRANCH   1  10
TORSDOF 13
ENDMDL
MODEL 7
REMARK VINA RESULT:    -3.822      1.993      3.815
REMARK INTER + INTRA:          -8.884
REMARK INTER:                  -6.569
REMARK INTRA:                  -2.315
REMARK UNBOUND:                -2.157
REMARK SMILES CCCCCCCCCCCCCCC(=O)[O-]
REMARK SMILES IDX 9 1 10 2 11 3 12 4 13 5 14 6 15 7 16 8 17 9 8 10 7 11 6 12
REMARK SMILES IDX 5 13 4 14 3 15 2 16 1 17
REMARK H PARENT
REMARK Flexibility Score: inf
ROOT
ATOM      1  C   UNL     1      -4.127  41.732  21.482  1.00  0.00     0.000 C 
ENDROOT
BRANCH   1   2
ATOM      2  C   UNL     1      -5.136  42.337  20.485  1.00  0.00     0.000 C 
BRANCH   2   3
ATOM      3  C   UNL     1      -5.202  43.878  20.477  1.00  0.00     0.000 C 
BRANCH   3   4
ATOM      4  C   UNL     1      -3.846  44.586  20.325  1.00  0.00     0.000 C 
BRANCH   4   5
ATOM      5  C   UNL     1      -3.464  45.419  21.561  1.00  0.00     0.006 C 
BRANCH   5   6
ATOM      6  C   UNL     1      -4.561  45.405  22.633  1.00  0.00     0.053 C 
BRANCH   6   7
ATOM      7  C   UNL     1      -4.138  46.128  23.874  1.00  0.00     0.041 C 
ATOM      8  O   UNL     1      -3.661  47.290  23.798  1.00  0.00    -0.550 OA
ATOM      9  O   UNL     1      -4.244  45.507  25.113  1.00  0.00    -0.550 OA
ENDBRANCH   6   7
ENDBRANCH   5   6
ENDBRANCH   4   5
ENDBRANCH   3   4
ENDBRANCH   2   3
ENDBRANCH   1   2
BRANCH   1  10
ATOM     10  C   UNL     1      -4.688  41.459  22.892  1.00  0.00     0.000 C 
BRANCH  10  11
ATOM     11  C   UNL     1      -3.947  42.174  24.036  1.00  0.00    -0.000 C 
BRANCH  11  12
ATOM     12  C   UNL     1      -2.419  42.087  23.904  1.00  0.00    -0.000 C 
BRANCH  12  13
ATOM     13  C   UNL     1      -1.734  43.192  24.717  1.00  0.00    -0.000 C 
BRANCH  13  14
ATOM     14  C   UNL     1      -0.939  44.135  23.802  1.00  0.00    -0.000 C 
BRANCH  14  15
ATOM     15  C   UNL     1       0.010  43.383  22.856  1.00  0.00    -0.000 C 
BRANCH  15  16
ATOM     16  C   UNL     1      -0.294  43.652  21.376  1.00  0.00    -0.003 C 
ATOM     17  C   UNL     1      -0.602  42.354  20.634  1.00  0.00     0.004 C 
ENDBRANCH  15  16
ENDBRANCH  14  15
ENDBRANCH  13  14
ENDBRANCH  12  13
ENDBRANCH  11  12
ENDBRANCH  10  11
ENDBRANCH   1  10
TORSDOF 13
ENDMDL
MODEL 8
REMARK VINA RESULT:    -3.777      1.558      4.468
REMARK INTER + INTRA:          -8.804
REMARK INTER:                  -7.185
REMARK INTRA:                  -1.619
REMARK UNBOUND:                -2.157
REMARK SMILES CCCCCCCCCCCCCCC(=O)[O-]
REMARK SMILES IDX 9 1 10 2 11 3 12 4 13 5 14 6 15 7 16 8 17 9 8 10 7 11 6 12
REMARK SMILES IDX 5 13 4 14 3 15 2 16 1 17
REMARK H PARENT
REMARK Flexibility Score: inf
ROOT
ATOM      1  C   UNL     1      -5.094  43.913  19.886  1.00  0.00     0.000 C 
ENDROOT
BRANCH   1   2
ATOM      2  C   UNL     1      -4.481  44.067  21.291  1.00  0.00     0.000 C 
BRANCH   2   3
ATOM      3  C   UNL     1      -3.753  45.403  21.544  1.00  0.00     0.000 C 
BRANCH   3   4
ATOM      4  C   UNL     1      -3.941  45.990  22.953  1.00  0.00     0.000 C 
BRANCH   4   5
ATOM      5  C   UNL     1      -4.638  45.017  23.919  1.00  0.00     0.006 C 
BRANCH   5   6
ATOM      6  C   UNL     1      -3.702  44.539  25.037  1.00  0.00     0.053 C 
BRANCH   6   7
ATOM      7  C   UNL     1      -2.593  43.682  24.507  1.00  0.00     0.041 C 
ATOM      8  O   UNL     1      -2.835  42.520  24.090  1.00  0.00    -0.550 OA
ATOM      9  O   UNL     1      -1.288  44.158  24.501  1.00  0.00    -0.550 OA
ENDBRANCH   6   7
ENDBRANCH   5   6
ENDBRANCH   4   5
ENDBRANCH   3   4
ENDBRANCH   2   3
ENDBRANCH   1   2
BRANCH   1  10
ATOM     10  C   UNL     1      -4.375  44.698  18.770  1.00  0.00     0.000 C 
BRANCH  10  11
ATOM     11  C   UNL     1      -4.010  43.871  17.524  1.00  0.00    -0.000 C 
BRANCH  11  12
ATOM     12  C   UNL     1      -2.515  43.523  17.456  1.00  0.00    -0.000 C 
BRANCH  12  13
ATOM     13  C   UNL     1      -1.736  44.226  18.574  1.00  0.00    -0.000 C 
BRANCH  13  14
ATOM     14  C   UNL     1      -0.898  43.220  19.378  1.00  0.00    -0.000 C 
BRANCH  14  15
ATOM     15  C   UNL     1      -0.774  43.604  20.861  1.00  0.00    -0.000 C 
BRANCH  15  16
ATOM     16  C   UNL     1       0.134  42.646  21.645  1.00  0.00    -0.003 C 
ATOM     17  C   UNL     1       1.353  43.377  22.200  1.00  0.00     0.004 C 
ENDBRANCH  15  16
ENDBRANCH  14  15
ENDBRANCH  13  14
ENDBRANCH  12  13
ENDBRANCH  11  12
ENDBRANCH  10  11
ENDBRANCH   1  10
TORSDOF 13
ENDMDL
MODEL 9
REMARK VINA RESULT:    -3.754      2.008      3.470
REMARK INTER + INTRA:          -8.763
REMARK INTER:                  -6.742
REMARK INTRA:                  -2.021
REMARK UNBOUND:                -2.157
REMARK SMILES CCCCCCCCCCCCCCC(=O)[O-]
REMARK SMILES IDX 9 1 10 2 11 3 12 4 13 5 14 6 15 7 16 8 17 9 8 10 7 11 6 12
REMARK SMILES IDX 5 13 4 14 3 15 2 16 1 17
REMARK H PARENT
REMARK Flexibility Score: inf
ROOT
ATOM      1  C   UNL     1      -2.490  44.173  19.396  1.00  0.00     0.000 C 
ENDROOT
BRANCH   1   2
ATOM      2  C   UNL     1      -1.241  43.864  20.245  1.00  0.00     0.000 C 
BRANCH   2   3
ATOM      3  C   UNL     1      -1.235  42.475  20.916  1.00  0.00     0.000 C 
BRANCH   3   4
ATOM      4  C   UNL     1      -0.251  42.324  22.089  1.00  0.00     0.000 C 
BRANCH   4   5
ATOM      5  C   UNL     1       0.663  43.549  22.265  1.00  0.00     0.006 C 
BRANCH   5   6
ATOM      6  C   UNL     1       1.360  43.561  23.631  1.00  0.00     0.053 C 
BRANCH   6   7
ATOM      7  C   UNL     1       2.807  43.932  23.515  1.00  0.00     0.041 C 
ATOM      8  O   UNL     1       3.380  43.905  22.394  1.00  0.00    -0.550 OA
ATOM      9  O   UNL     1       3.531  44.279  24.649  1.00  0.00    -0.550 OA
ENDBRANCH   6   7
ENDBRANCH   5   6
ENDBRANCH   4   5
ENDBRANCH   3   4
ENDBRANCH   2   3
ENDBRANCH   1   2
BRANCH   1  10
ATOM     10  C   UNL     1      -3.537  45.075  20.081  1.00  0.00     0.000 C 
BRANCH  10  11
ATOM     11  C   UNL     1      -4.570  44.330  20.946  1.00  0.00    -0.000 C 
BRANCH  11  12
ATOM     12  C   UNL     1      -4.654  44.879  22.379  1.00  0.00    -0.000 C 
BRANCH  12  13
ATOM     13  C   UNL     1      -3.459  45.789  22.690  1.00  0.00    -0.000 C 
BRANCH  13  14
ATOM     14  C   UNL     1      -2.396  45.041  23.508  1.00  0.00    -0.000 C 
BRANCH  14  15
ATOM     15  C   UNL     1      -2.980  43.860  24.299  1.00  0.00    -0.000 C 
BRANCH  15  16
ATOM     16  C   UNL     1      -2.111  43.468  25.502  1.00  0.00    -0.003 C 
ATOM     17  C   UNL     1      -1.858  41.963  25.529  1.00  0.00     0.004 C 
ENDBRANCH  15  16
ENDBRANCH  14  15
ENDBRANCH  13  14
ENDBRANCH  12  13
ENDBRANCH  11  12
ENDBRANCH  10  11
ENDBRANCH   1  10
TORSDOF 13
ENDMDL
