MODEL 1
REMARK VINA RESULT:    -4.635      0.000      0.000
REMARK INTER + INTRA:          -6.450
REMARK INTER:                  -6.532
REMARK INTRA:                   0.081
REMARK UNBOUND:                 0.081
REMARK SMILES CC1=CCC(=C(C)C)C(=O)CC(C)=CCC1
REMARK SMILES IDX 12 1 14 2 13 3 15 4 16 5 2 6 1 7 3 8 11 10 9 11 10 12 5 13
REMARK SMILES IDX 6 14 7 15 8 16 4 17
REMARK H PARENT
REMARK Flexibility Score: 60.00
ROOT
ATOM      1  C   UNL     1      17.067 -30.769  21.646  1.00  0.00    -0.070 C 
ATOM      2  C   UNL     1      17.760 -31.285  20.605  1.00  0.00    -0.027 C 
ATOM      3  C   UNL     1      16.575 -29.348  21.536  1.00  0.00     0.039 C 
ENDROOT
BRANCH   2   4
ATOM      4  C   UNL     1      18.194 -32.724  20.484  1.00  0.00     0.032 C 
BRANCH   4   5
ATOM      5  C   UNL     1      17.266 -33.469  19.520  1.00  0.00     0.034 C 
BRANCH   5   6
ATOM      6  C   UNL     1      16.323 -34.415  20.236  1.00  0.00    -0.077 C 
ATOM      7  C   UNL     1      16.772 -35.835  20.479  1.00  0.00     0.039 C 
ATOM      8  C   UNL     1      15.064 -34.079  20.610  1.00  0.00    -0.023 CG0
ATOM      9  G   UNL     1      14.410 -32.712  20.527  1.00  0.00     0.000 G0
ENDBRANCH   5   6
ENDBRANCH   4   5
ENDBRANCH   2   4
BRANCH   1  10
ATOM     10  C   UNL     1      16.779 -31.538  22.920  1.00  0.00     0.111 C 
BRANCH  10  11
ATOM     11  C   UNL     1      15.424 -32.203  22.882  1.00  0.00     0.163 C 
ATOM     12  O   UNL     1      15.186 -33.070  23.766  1.00  0.00    -0.294 OA
BRANCH  11  13
ATOM     13  C   UNL     1      14.377 -31.905  21.850  1.00  0.00    -0.002 C 
ATOM     14  C   UNL     1      13.333 -31.067  22.138  1.00  0.00    -0.069 C 
ATOM     15  C   UNL     1      12.143 -30.922  21.218  1.00  0.00     0.039 C 
ATOM     16  C   UNL     1      13.340 -30.196  23.374  1.00  0.00     0.039 C 
BRANCH  13  17
ATOM     17  C   UNL     1      14.412 -32.701  20.549  1.00  0.00     0.066 CG0
ATOM     18  G   UNL     1      15.077 -34.064  20.607  1.00  0.00     0.000 G0
ENDBRANCH  13  17
ENDBRANCH  11  13
ENDBRANCH  10  11
ENDBRANCH   1  10
TORSDOF 0
ENDMDL
MODEL 2
REMARK VINA RESULT:    -4.579      1.546      2.039
REMARK INTER + INTRA:          -6.371
REMARK INTER:                  -6.596
REMARK INTRA:                   0.224
REMARK UNBOUND:                 0.081
REMARK SMILES CC1=CCC(=C(C)C)C(=O)CC(C)=CCC1
REMARK SMILES IDX 12 1 14 2 13 3 15 4 16 5 2 6 1 7 3 8 11 10 9 11 10 12 5 13
REMARK SMILES IDX 6 14 7 15 8 16 4 17
REMARK H PARENT
REMARK Flexibility Score: 60.00
ROOT
ATOM      1  C   UNL     1      19.076 -31.267  20.881  1.00  0.00    -0.070 C 
ATOM      2  C   UNL     1      19.514 -32.510  20.577  1.00  0.00    -0.027 C 
ATOM      3  C   UNL     1      20.102 -30.215  21.214  1.00  0.00     0.039 C 
ENDROOT
BRANCH   2   4
ATOM      4  C   UNL     1      18.643 -33.636  20.079  1.00  0.00     0.032 C 
BRANCH   4   5
ATOM      5  C   UNL     1      17.820 -34.208  21.237  1.00  0.00     0.034 C 
BRANCH   5   6
ATOM      6  C   UNL     1      16.387 -34.504  20.839  1.00  0.00    -0.077 C 
ATOM      7  C   UNL     1      16.139 -35.396  19.648  1.00  0.00     0.039 C 
ATOM      8  C   UNL     1      15.309 -33.954  21.450  1.00  0.00    -0.023 CG0
ATOM      9  G   UNL     1      15.298 -33.080  22.691  1.00  0.00     0.000 G0
ENDBRANCH   5   6
ENDBRANCH   4   5
ENDBRANCH   2   4
BRANCH   1  10
ATOM     10  C   UNL     1      17.609 -30.886  20.922  1.00  0.00     0.111 C 
BRANCH  10  11
ATOM     11  C   UNL     1      16.996 -31.150  22.277  1.00  0.00     0.163 C 
ATOM     12  O   UNL     1      17.747 -31.019  23.281  1.00  0.00    -0.294 OA
BRANCH  11  13
ATOM     13  C   UNL     1      15.572 -31.576  22.480  1.00  0.00    -0.002 C 
ATOM     14  C   UNL     1      14.582 -30.642  22.635  1.00  0.00    -0.069 C 
ATOM     15  C   UNL     1      13.184 -31.021  23.070  1.00  0.00     0.039 C 
ATOM     16  C   UNL     1      14.820 -29.182  22.327  1.00  0.00     0.039 C 
BRANCH  13  17
ATOM     17  C   UNL     1      15.295 -33.061  22.690  1.00  0.00     0.066 CG0
ATOM     18  G   UNL     1      15.296 -33.931  21.447  1.00  0.00     0.000 G0
ENDBRANCH  13  17
ENDBRANCH  11  13
ENDBRANCH  10  11
ENDBRANCH   1  10
TORSDOF 0
ENDMDL
MODEL 3
REMARK VINA RESULT:    -4.523      2.604      4.340
REMARK INTER + INTRA:          -6.292
REMARK INTER:                  -6.161
REMARK INTRA:                  -0.131
REMARK UNBOUND:                 0.081
REMARK SMILES CC1=CCC(=C(C)C)C(=O)CC(C)=CCC1
REMARK SMILES IDX 12 1 14 2 13 3 15 4 16 5 2 6 1 7 3 8 11 10 9 11 10 12 5 13
REMARK SMILES IDX 6 14 7 15 8 16 4 17
REMARK H PARENT
REMARK Flexibility Score: 60.00
ROOT
ATOM      1  C   UNL     1      14.583 -32.621  22.537  1.00  0.00    -0.070 C 
ATOM      2  C   UNL     1      14.609 -32.742  21.190  1.00  0.00    -0.027 C 
ATOM      3  C   UNL     1      14.098 -31.320  23.123  1.00  0.00     0.039 C 
ENDROOT
BRANCH   2   4
ATOM      4  C   UNL     1      14.921 -34.013  20.442  1.00  0.00     0.032 C 
BRANCH   4   5
ATOM      5  C   UNL     1      16.384 -34.002  19.985  1.00  0.00     0.034 C 
BRANCH   5   6
ATOM      6  C   UNL     1      17.048 -35.356  20.135  1.00  0.00    -0.077 C 
ATOM      7  C   UNL     1      16.756 -36.422  19.108  1.00  0.00     0.039 C 
ATOM      8  C   UNL     1      17.839 -35.692  21.184  1.00  0.00    -0.023 CG0
ATOM      9  G   UNL     1      18.321 -34.786  22.303  1.00  0.00     0.000 G0
ENDBRANCH   5   6
ENDBRANCH   4   5
ENDBRANCH   2   4
BRANCH   1  10
ATOM     10  C   UNL     1      15.033 -33.718  23.482  1.00  0.00     0.111 C 
BRANCH  10  11
ATOM     11  C   UNL     1      16.513 -33.644  23.767  1.00  0.00     0.163 C 
ATOM     12  O   UNL     1      16.965 -32.538  24.170  1.00  0.00    -0.294 OA
BRANCH  11  13
ATOM     13  C   UNL     1      17.459 -34.793  23.574  1.00  0.00    -0.002 C 
ATOM     14  C   UNL     1      17.649 -35.712  24.571  1.00  0.00    -0.069 C 
ATOM     15  C   UNL     1      18.753 -36.743  24.510  1.00  0.00     0.039 C 
ATOM     16  C   UNL     1      16.728 -35.781  25.767  1.00  0.00     0.039 C 
BRANCH  13  17
ATOM     17  C   UNL     1      18.328 -34.798  22.320  1.00  0.00     0.066 CG0
ATOM     18  G   UNL     1      17.857 -35.677  21.175  1.00  0.00     0.000 G0
ENDBRANCH  13  17
ENDBRANCH  11  13
ENDBRANCH  10  11
ENDBRANCH   1  10
TORSDOF 0
ENDMDL
MODEL 4
REMARK VINA RESULT:    -4.435      1.851      2.882
REMARK INTER + INTRA:          -6.168
REMARK INTER:                  -6.314
REMARK INTRA:                   0.146
REMARK UNBOUND:                 0.081
REMARK SMILES CC1=CCC(=C(C)C)C(=O)CC(C)=CCC1
REMARK SMILES IDX 12 1 14 2 13 3 15 4 16 5 2 6 1 7 3 8 11 10 9 11 10 12 5 13
REMARK SMILES IDX 6 14 7 15 8 16 4 17
REMARK H PARENT
REMARK Flexibility Score: 60.00
ROOT
ATOM      1  C   UNL     1      17.274 -35.047  23.732  1.00  0.00    -0.070 C 
ATOM      2  C   UNL     1      17.983 -35.871  22.927  1.00  0.00    -0.027 C 
ATOM      3  C   UNL     1      16.884 -35.551  25.098  1.00  0.00     0.039 C 
ENDROOT
BRANCH   2   4
ATOM      4  C   UNL     1      18.578 -35.480  21.598  1.00  0.00     0.032 C 
BRANCH   4   5
ATOM      5  C   UNL     1      17.576 -35.764  20.475  1.00  0.00     0.034 C 
BRANCH   5   6
ATOM      6  C   UNL     1      17.336 -34.555  19.593  1.00  0.00    -0.077 C 
ATOM      7  C   UNL     1      18.422 -34.133  18.634  1.00  0.00     0.039 C 
ATOM      8  C   UNL     1      16.225 -33.781  19.667  1.00  0.00    -0.023 CG0
ATOM      9  G   UNL     1      14.982 -34.028  20.503  1.00  0.00     0.000 G0
ENDBRANCH   5   6
ENDBRANCH   4   5
ENDBRANCH   2   4
BRANCH   1  10
ATOM     10  C   UNL     1      16.839 -33.653  23.324  1.00  0.00     0.111 C 
BRANCH  10  11
ATOM     11  C   UNL     1      15.359 -33.589  23.031  1.00  0.00     0.163 C 
ATOM     12  O   UNL     1      14.576 -33.968  23.943  1.00  0.00    -0.294 OA
BRANCH  11  13
ATOM     13  C   UNL     1      14.786 -33.127  21.723  1.00  0.00    -0.002 C 
ATOM     14  C   UNL     1      13.985 -32.018  21.667  1.00  0.00    -0.069 C 
ATOM     15  C   UNL     1      13.205 -31.654  20.424  1.00  0.00     0.039 C 
ATOM     16  C   UNL     1      13.876 -31.064  22.834  1.00  0.00     0.039 C 
BRANCH  13  17
ATOM     17  C   UNL     1      14.973 -34.026  20.506  1.00  0.00     0.066 CG0
ATOM     18  G   UNL     1      16.210 -33.775  19.662  1.00  0.00     0.000 G0
ENDBRANCH  13  17
ENDBRANCH  11  13
ENDBRANCH  10  11
ENDBRANCH   1  10
TORSDOF 0
ENDMDL
MODEL 5
REMARK VINA RESULT:    -4.406      1.995      3.886
REMARK INTER + INTRA:          -6.127
REMARK INTER:                  -5.959
REMARK INTRA:                  -0.168
REMARK UNBOUND:                 0.081
REMARK SMILES CC1=CCC(=C(C)C)C(=O)CC(C)=CCC1
REMARK SMILES IDX 12 1 14 2 13 3 15 4 16 5 2 6 1 7 3 8 11 10 9 11 10 12 5 13
REMARK SMILES IDX 6 14 7 15 8 16 4 17
REMARK H PARENT
REMARK Flexibility Score: 60.00
ROOT
ATOM      1  C   UNL     1      14.269 -32.206  21.123  1.00  0.00    -0.070 C 
ATOM      2  C   UNL     1      14.215 -33.122  20.129  1.00  0.00    -0.027 C 
ATOM      3  C   UNL     1      13.287 -31.063  21.090  1.00  0.00     0.039 C 
ENDROOT
BRANCH   2   4
ATOM      4  C   UNL     1      15.016 -34.398  20.085  1.00  0.00     0.032 C 
BRANCH   4   5
ATOM      5  C   UNL     1      16.297 -34.180  19.275  1.00  0.00     0.034 C 
BRANCH   5   6
ATOM      6  C   UNL     1      17.500 -34.863  19.897  1.00  0.00    -0.077 C 
ATOM      7  C   UNL     1      17.621 -36.362  19.777  1.00  0.00     0.039 C 
ATOM      8  C   UNL     1      18.442 -34.210  20.621  1.00  0.00    -0.023 CG0
ATOM      9  G   UNL     1      18.569 -32.712  20.833  1.00  0.00     0.000 G0
ENDBRANCH   5   6
ENDBRANCH   4   5
ENDBRANCH   2   4
BRANCH   1  10
ATOM     10  C   UNL     1      15.277 -32.261  22.254  1.00  0.00     0.111 C 
BRANCH  10  11
ATOM     11  C   UNL     1      16.552 -31.531  21.909  1.00  0.00     0.163 C 
ATOM     12  O   UNL     1      16.437 -30.366  21.439  1.00  0.00    -0.294 OA
BRANCH  11  13
ATOM     13  C   UNL     1      17.923 -32.121  22.070  1.00  0.00    -0.002 C 
ATOM     14  C   UNL     1      18.604 -31.986  23.251  1.00  0.00    -0.069 C 
ATOM     15  C   UNL     1      20.063 -32.358  23.381  1.00  0.00     0.039 C 
ATOM     16  C   UNL     1      17.915 -31.505  24.507  1.00  0.00     0.039 C 
BRANCH  13  17
ATOM     17  C   UNL     1      18.596 -32.708  20.834  1.00  0.00     0.066 CG0
ATOM     18  G   UNL     1      18.429 -34.201  20.616  1.00  0.00     0.000 G0
ENDBRANCH  13  17
ENDBRANCH  11  13
ENDBRANCH  10  11
ENDBRANCH   1  10
TORSDOF 0
ENDMDL
MODEL 6
REMARK VINA RESULT:    -4.353      1.896      4.919
REMARK INTER + INTRA:          -6.053
REMARK INTER:                  -6.568
REMARK INTRA:                   0.515
REMARK UNBOUND:                 0.081
REMARK SMILES CC1=CCC(=C(C)C)C(=O)CC(C)=CCC1
REMARK SMILES IDX 12 1 14 2 13 3 15 4 16 5 2 6 1 7 3 8 11 10 9 11 10 12 5 13
REMARK SMILES IDX 6 14 7 15 8 16 4 17
REMARK H PARENT
REMARK Flexibility Score: 60.00
ROOT
ATOM      1  C   UNL     1      14.408 -32.989  21.072  1.00  0.00    -0.070 C 
ATOM      2  C   UNL     1      13.607 -31.900  21.035  1.00  0.00    -0.027 C 
ATOM      3  C   UNL     1      14.731 -33.677  19.770  1.00  0.00     0.039 C 
ENDROOT
BRANCH   2   4
ATOM      4  C   UNL     1      13.303 -31.009  22.213  1.00  0.00     0.032 C 
BRANCH   4   5
ATOM      5  C   UNL     1      14.569 -30.808  23.053  1.00  0.00     0.034 C 
BRANCH   5   6
ATOM      6  C   UNL     1      15.587 -29.921  22.364  1.00  0.00    -0.077 C 
ATOM      7  C   UNL     1      15.131 -28.593  21.812  1.00  0.00     0.039 C 
ATOM      8  C   UNL     1      16.875 -30.283  22.149  1.00  0.00    -0.023 CG0
ATOM      9  G   UNL     1      17.579 -31.531  22.653  1.00  0.00     0.000 G0
ENDBRANCH   5   6
ENDBRANCH   4   5
ENDBRANCH   2   4
BRANCH   1  10
ATOM     10  C   UNL     1      14.979 -33.562  22.355  1.00  0.00     0.111 C 
BRANCH  10  11
ATOM     11  C   UNL     1      16.459 -33.835  22.240  1.00  0.00     0.163 C 
ATOM     12  O   UNL     1      16.854 -34.993  22.541  1.00  0.00    -0.294 OA
BRANCH  11  13
ATOM     13  C   UNL     1      17.467 -32.807  21.815  1.00  0.00    -0.002 C 
ATOM     14  C   UNL     1      18.346 -33.073  20.799  1.00  0.00    -0.069 C 
ATOM     15  C   UNL     1      19.518 -32.168  20.496  1.00  0.00     0.039 C 
ATOM     16  C   UNL     1      18.161 -34.265  19.888  1.00  0.00     0.039 C 
BRANCH  13  17
ATOM     17  C   UNL     1      17.599 -31.546  22.662  1.00  0.00     0.066 CG0
ATOM     18  G   UNL     1      16.886 -30.308  22.149  1.00  0.00     0.000 G0
ENDBRANCH  13  17
ENDBRANCH  11  13
ENDBRANCH  10  11
ENDBRANCH   1  10
TORSDOF 0
ENDMDL
MODEL 7
REMARK VINA RESULT:    -4.195      2.247      4.286
REMARK INTER + INTRA:          -5.831
REMARK INTER:                  -5.992
REMARK INTRA:                   0.161
REMARK UNBOUND:                 0.081
REMARK SMILES CC1=CCC(=C(C)C)C(=O)CC(C)=CCC1
REMARK SMILES IDX 12 1 14 2 13 3 15 4 16 5 2 6 1 7 3 8 11 10 9 11 10 12 5 13
REMARK SMILES IDX 6 14 7 15 8 16 4 17
REMARK H PARENT
REMARK Flexibility Score: 60.00
ROOT
ATOM      1  C   UNL     1      14.538 -30.592  23.148  1.00  0.00    -0.070 C 
ATOM      2  C   UNL     1      13.858 -31.703  23.516  1.00  0.00    -0.027 C 
ATOM      3  C   UNL     1      13.745 -29.372  22.758  1.00  0.00     0.039 C 
ENDROOT
BRANCH   2   4
ATOM      4  C   UNL     1      14.485 -32.955  24.075  1.00  0.00     0.032 C 
BRANCH   4   5
ATOM      5  C   UNL     1      15.139 -33.758  22.945  1.00  0.00     0.034 C 
BRANCH   5   6
ATOM      6  C   UNL     1      16.500 -34.301  23.333  1.00  0.00    -0.077 C 
ATOM      7  C   UNL     1      16.607 -35.172  24.560  1.00  0.00     0.039 C 
ATOM      8  C   UNL     1      17.646 -33.990  22.679  1.00  0.00    -0.023 CG0
ATOM      9  G   UNL     1      17.789 -33.188  21.398  1.00  0.00     0.000 G0
ENDBRANCH   5   6
ENDBRANCH   4   5
ENDBRANCH   2   4
BRANCH   1  10
ATOM     10  C   UNL     1      16.052 -30.521  23.092  1.00  0.00     0.111 C 
BRANCH  10  11
ATOM     11  C   UNL     1      16.584 -30.918  21.736  1.00  0.00     0.163 C 
ATOM     12  O   UNL     1      15.887 -30.607  20.732  1.00  0.00    -0.294 OA
BRANCH  11  13
ATOM     13  C   UNL     1      17.865 -31.672  21.529  1.00  0.00    -0.002 C 
ATOM     14  C   UNL     1      19.039 -31.001  21.310  1.00  0.00    -0.069 C 
ATOM     15  C   UNL     1      20.299 -31.713  20.871  1.00  0.00     0.039 C 
ATOM     16  C   UNL     1      19.153 -29.513  21.547  1.00  0.00     0.039 C 
BRANCH  13  17
ATOM     17  C   UNL     1      17.786 -33.188  21.391  1.00  0.00     0.066 CG0
ATOM     18  G   UNL     1      17.654 -33.980  22.680  1.00  0.00     0.000 G0
ENDBRANCH  13  17
ENDBRANCH  11  13
ENDBRANCH  10  11
ENDBRANCH   1  10
TORSDOF 0
ENDMDL
MODEL 8
REMARK VINA RESULT:    -4.155      2.372      4.441
REMARK INTER + INTRA:          -5.774
REMARK INTER:                  -5.608
REMARK INTRA:                  -0.166
REMARK UNBOUND:                 0.081
REMARK SMILES CC1=CCC(=C(C)C)C(=O)CC(C)=CCC1
REMARK SMILES IDX 12 1 14 2 13 3 15 4 16 5 2 6 1 7 3 8 11 10 9 11 10 12 5 13
REMARK SMILES IDX 6 14 7 15 8 16 4 17
REMARK H PARENT
REMARK Flexibility Score: 60.00
ROOT
ATOM      1  C   UNL     1      15.798 -31.010  22.409  1.00  0.00    -0.070 C 
ATOM      2  C   UNL     1      16.559 -30.791  23.506  1.00  0.00    -0.027 C 
ATOM      3  C   UNL     1      14.480 -30.288  22.304  1.00  0.00     0.039 C 
ENDROOT
BRANCH   2   4
ATOM      4  C   UNL     1      17.960 -31.310  23.704  1.00  0.00     0.032 C 
BRANCH   4   5
ATOM      5  C   UNL     1      17.925 -32.602  24.527  1.00  0.00     0.034 C 
BRANCH   5   6
ATOM      6  C   UNL     1      18.918 -33.634  24.029  1.00  0.00    -0.077 C 
ATOM      7  C   UNL     1      20.380 -33.444  24.352  1.00  0.00     0.039 C 
ATOM      8  C   UNL     1      18.578 -34.685  23.244  1.00  0.00    -0.023 CG0
ATOM      9  G   UNL     1      17.181 -35.117  22.834  1.00  0.00     0.000 G0
ENDBRANCH   5   6
ENDBRANCH   4   5
ENDBRANCH   2   4
BRANCH   1  10
ATOM     10  C   UNL     1      16.196 -31.956  21.293  1.00  0.00     0.111 C 
BRANCH  10  11
ATOM     11  C   UNL     1      15.740 -33.370  21.564  1.00  0.00     0.163 C 
ATOM     12  O   UNL     1      14.529 -33.532  21.876  1.00  0.00    -0.294 OA
BRANCH  11  13
ATOM     13  C   UNL     1      16.645 -34.565  21.504  1.00  0.00    -0.002 C 
ATOM     14  C   UNL     1      16.852 -35.223  20.321  1.00  0.00    -0.069 C 
ATOM     15  C   UNL     1      17.563 -36.556  20.259  1.00  0.00     0.039 C 
ATOM     16  C   UNL     1      16.424 -34.625  19.001  1.00  0.00     0.039 C 
BRANCH  13  17
ATOM     17  C   UNL     1      17.173 -35.126  22.821  1.00  0.00     0.066 CG0
ATOM     18  G   UNL     1      18.563 -34.679  23.237  1.00  0.00     0.000 G0
ENDBRANCH  13  17
ENDBRANCH  11  13
ENDBRANCH  10  11
ENDBRANCH   1  10
TORSDOF 0
ENDMDL
MODEL 9
REMARK VINA RESULT:    -4.124      1.089      3.837
REMARK INTER + INTRA:          -5.730
REMARK INTER:                  -6.019
REMARK INTRA:                   0.289
REMARK UNBOUND:                 0.081
REMARK SMILES CC1=CCC(=C(C)C)C(=O)CC(C)=CCC1
REMARK SMILES IDX 12 1 14 2 13 3 15 4 16 5 2 6 1 7 3 8 11 10 9 11 10 12 5 13
REMARK SMILES IDX 6 14 7 15 8 16 4 17
REMARK H PARENT
REMARK Flexibility Score: 60.00
ROOT
ATOM      1  C   UNL     1      17.891 -31.644  22.004  1.00  0.00    -0.070 C 
ATOM      2  C   UNL     1      17.235 -30.546  21.562  1.00  0.00    -0.027 C 
ATOM      3  C   UNL     1      19.133 -32.073  21.267  1.00  0.00     0.039 C 
ENDROOT
BRANCH   2   4
ATOM      4  C   UNL     1      16.070 -29.894  22.262  1.00  0.00     0.032 C 
BRANCH   4   5
ATOM      5  C   UNL     1      14.850 -29.877  21.336  1.00  0.00     0.034 C 
BRANCH   5   6
ATOM      6  C   UNL     1      13.760 -30.826  21.795  1.00  0.00    -0.077 C 
ATOM      7  C   UNL     1      12.628 -30.277  22.627  1.00  0.00     0.039 C 
ATOM      8  C   UNL     1      13.781 -32.161  21.562  1.00  0.00    -0.023 CG0
ATOM      9  G   UNL     1      14.773 -32.934  20.711  1.00  0.00     0.000 G0
ENDBRANCH   5   6
ENDBRANCH   4   5
ENDBRANCH   2   4
BRANCH   1  10
ATOM     10  C   UNL     1      17.428 -32.470  23.188  1.00  0.00     0.111 C 
BRANCH  10  11
ATOM     11  C   UNL     1      16.200 -33.285  22.861  1.00  0.00     0.163 C 
ATOM     12  O   UNL     1      15.455 -33.613  23.824  1.00  0.00    -0.294 OA
BRANCH  11  13
ATOM     13  C   UNL     1      15.840 -33.735  21.475  1.00  0.00    -0.002 C 
ATOM     14  C   UNL     1      16.560 -34.721  20.855  1.00  0.00    -0.069 C 
ATOM     15  C   UNL     1      16.383 -35.042  19.389  1.00  0.00     0.039 C 
ATOM     16  C   UNL     1      17.538 -35.583  21.620  1.00  0.00     0.039 C 
BRANCH  13  17
ATOM     17  C   UNL     1      14.779 -32.941  20.721  1.00  0.00     0.066 CG0
ATOM     18  G   UNL     1      13.786 -32.164  21.567  1.00  0.00     0.000 G0
ENDBRANCH  13  17
ENDBRANCH  11  13
ENDBRANCH  10  11
ENDBRANCH   1  10
TORSDOF 0
ENDMDL
