MODEL 1
REMARK VINA RESULT:    -3.004      0.000      0.000
REMARK INTER + INTRA:          -3.608
REMARK INTER:                  -3.530
REMARK INTRA:                  -0.078
REMARK UNBOUND:                -0.078
REMARK SMILES O=C([O-])CCC(=O)[O-]
REMARK SMILES IDX 4 1 2 2 1 3 3 4 5 5 6 6 7 7 8 8
REMARK H PARENT
REMARK Flexibility Score: inf
ROOT
ATOM      1  C   UNL     1      -6.249  -5.487  -0.895  1.00  0.00     0.059 C 
ENDROOT
BRANCH   1   2
ATOM      2  C   UNL     1      -5.870  -5.539  -2.341  1.00  0.00     0.042 C 
ATOM      3  O   UNL     1      -5.093  -6.436  -2.761  1.00  0.00    -0.550 OA
ATOM      4  O   UNL     1      -6.338  -4.568  -3.217  1.00  0.00    -0.550 OA
ENDBRANCH   1   2
BRANCH   1   5
ATOM      5  C   UNL     1      -5.017  -5.216  -0.029  1.00  0.00     0.059 C 
BRANCH   5   6
ATOM      6  C   UNL     1      -4.996  -3.789   0.419  1.00  0.00     0.042 C 
ATOM      7  O   UNL     1      -4.759  -3.506   1.622  1.00  0.00    -0.550 OA
ATOM      8  O   UNL     1      -5.190  -2.768  -0.504  1.00  0.00    -0.550 OA
ENDBRANCH   5   6
ENDBRANCH   1   5
TORSDOF 3
ENDMDL
MODEL 2
REMARK VINA RESULT:    -2.992      0.387      3.863
REMARK INTER + INTRA:          -3.595
REMARK INTER:                  -3.492
REMARK INTRA:                  -0.103
REMARK UNBOUND:                -0.078
REMARK SMILES O=C([O-])CCC(=O)[O-]
REMARK SMILES IDX 4 1 2 2 1 3 3 4 5 5 6 6 7 7 8 8
REMARK H PARENT
REMARK Flexibility Score: inf
ROOT
ATOM      1  C   UNL     1      -5.032  -5.265   0.109  1.00  0.00     0.059 C 
ENDROOT
BRANCH   1   2
ATOM      2  C   UNL     1      -4.888  -3.886   0.670  1.00  0.00     0.042 C 
ATOM      3  O   UNL     1      -4.575  -2.926  -0.081  1.00  0.00    -0.550 OA
ATOM      4  O   UNL     1      -5.053  -3.670   2.032  1.00  0.00    -0.550 OA
ENDBRANCH   1   2
BRANCH   1   5
ATOM      5  C   UNL     1      -6.296  -5.365  -0.747  1.00  0.00     0.059 C 
BRANCH   5   6
ATOM      6  C   UNL     1      -5.946  -5.350  -2.202  1.00  0.00     0.042 C 
ATOM      7  O   UNL     1      -6.305  -4.387  -2.929  1.00  0.00    -0.550 OA
ATOM      8  O   UNL     1      -5.181  -6.375  -2.744  1.00  0.00    -0.550 OA
ENDBRANCH   5   6
ENDBRANCH   1   5
TORSDOF 3
ENDMDL
MODEL 3
REMARK VINA RESULT:    -2.971      1.291      3.569
REMARK INTER + INTRA:          -3.571
REMARK INTER:                  -3.449
REMARK INTRA:                  -0.121
REMARK UNBOUND:                -0.078
REMARK SMILES O=C([O-])CCC(=O)[O-]
REMARK SMILES IDX 4 1 2 2 1 3 3 4 5 5 6 6 7 7 8 8
REMARK H PARENT
REMARK Flexibility Score: inf
ROOT
ATOM      1  C   UNL     1      -6.334  -5.346  -0.089  1.00  0.00     0.059 C 
ENDROOT
BRANCH   1   2
ATOM      2  C   UNL     1      -5.254  -4.884   0.838  1.00  0.00     0.042 C 
ATOM      3  O   UNL     1      -5.136  -5.400   1.980  1.00  0.00    -0.550 OA
ATOM      4  O   UNL     1      -4.407  -3.850   0.458  1.00  0.00    -0.550 OA
ENDBRANCH   1   2
BRANCH   1   5
ATOM      5  C   UNL     1      -5.762  -5.622  -1.481  1.00  0.00     0.059 C 
BRANCH   5   6
ATOM      6  C   UNL     1      -6.331  -4.665  -2.480  1.00  0.00     0.042 C 
ATOM      7  O   UNL     1      -6.776  -3.549  -2.105  1.00  0.00    -0.550 OA
ATOM      8  O   UNL     1      -6.323  -4.984  -3.832  1.00  0.00    -0.550 OA
ENDBRANCH   5   6
ENDBRANCH   1   5
TORSDOF 3
ENDMDL
MODEL 4
REMARK VINA RESULT:    -2.969      0.913      1.471
REMARK INTER + INTRA:          -3.568
REMARK INTER:                  -3.541
REMARK INTRA:                  -0.028
REMARK UNBOUND:                -0.078
REMARK SMILES O=C([O-])CCC(=O)[O-]
REMARK SMILES IDX 4 1 2 2 1 3 3 4 5 5 6 6 7 7 8 8
REMARK H PARENT
REMARK Flexibility Score: inf
ROOT
ATOM      1  C   UNL     1      -6.121  -5.363  -0.778  1.00  0.00     0.059 C 
ENDROOT
BRANCH   1   2
ATOM      2  C   UNL     1      -5.864  -5.429  -2.250  1.00  0.00     0.042 C 
ATOM      3  O   UNL     1      -5.179  -6.369  -2.731  1.00  0.00    -0.550 OA
ATOM      4  O   UNL     1      -6.340  -4.426  -3.085  1.00  0.00    -0.550 OA
ENDBRANCH   1   2
BRANCH   1   5
ATOM      5  C   UNL     1      -4.805  -5.219  -0.011  1.00  0.00     0.059 C 
BRANCH   5   6
ATOM      6  C   UNL     1      -5.050  -4.636   1.345  1.00  0.00     0.042 C 
ATOM      7  O   UNL     1      -4.872  -3.407   1.548  1.00  0.00    -0.550 OA
ATOM      8  O   UNL     1      -5.523  -5.442   2.373  1.00  0.00    -0.550 OA
ENDBRANCH   5   6
ENDBRANCH   1   5
TORSDOF 3
ENDMDL
MODEL 5
REMARK VINA RESULT:    -2.859      1.692      4.297
REMARK INTER + INTRA:          -3.438
REMARK INTER:                  -3.353
REMARK INTRA:                  -0.085
REMARK UNBOUND:                -0.078
REMARK SMILES O=C([O-])CCC(=O)[O-]
REMARK SMILES IDX 4 1 2 2 1 3 3 4 5 5 6 6 7 7 8 8
REMARK H PARENT
REMARK Flexibility Score: inf
ROOT
ATOM      1  C   UNL     1      -4.702  -3.464   0.546  1.00  0.00     0.059 C 
ENDROOT
BRANCH   1   2
ATOM      2  C   UNL     1      -4.981  -2.960   1.926  1.00  0.00     0.042 C 
ATOM      3  O   UNL     1      -5.022  -1.723   2.153  1.00  0.00    -0.550 OA
ATOM      4  O   UNL     1      -5.146  -3.858   2.974  1.00  0.00    -0.550 OA
ENDBRANCH   1   2
BRANCH   1   5
ATOM      5  C   UNL     1      -4.774  -4.992   0.509  1.00  0.00     0.059 C 
BRANCH   5   6
ATOM      6  C   UNL     1      -5.840  -5.444  -0.438  1.00  0.00     0.042 C 
ATOM      7  O   UNL     1      -7.023  -5.591  -0.036  1.00  0.00    -0.550 OA
ATOM      8  O   UNL     1      -5.536  -5.654  -1.777  1.00  0.00    -0.550 OA
ENDBRANCH   5   6
ENDBRANCH   1   5
TORSDOF 3
ENDMDL
MODEL 6
REMARK VINA RESULT:    -2.853      1.699      2.312
REMARK INTER + INTRA:          -3.431
REMARK INTER:                  -3.314
REMARK INTRA:                  -0.117
REMARK UNBOUND:                -0.078
REMARK SMILES O=C([O-])CCC(=O)[O-]
REMARK SMILES IDX 4 1 2 2 1 3 3 4 5 5 6 6 7 7 8 8
REMARK H PARENT
REMARK Flexibility Score: inf
ROOT
ATOM      1  C   UNL     1      -4.747  -4.970   0.484  1.00  0.00     0.059 C 
ENDROOT
BRANCH   1   2
ATOM      2  C   UNL     1      -5.807  -5.467  -0.447  1.00  0.00     0.042 C 
ATOM      3  O   UNL     1      -6.976  -5.667  -0.028  1.00  0.00    -0.550 OA
ATOM      4  O   UNL     1      -5.491  -5.755  -1.769  1.00  0.00    -0.550 OA
ENDBRANCH   1   2
BRANCH   1   5
ATOM      5  C   UNL     1      -4.774  -3.442   0.559  1.00  0.00     0.059 C 
BRANCH   5   6
ATOM      6  C   UNL     1      -5.113  -2.992   1.944  1.00  0.00     0.042 C 
ATOM      7  O   UNL     1      -5.868  -3.690   2.671  1.00  0.00    -0.550 OA
ATOM      8  O   UNL     1      -4.556  -1.824   2.452  1.00  0.00    -0.550 OA
ENDBRANCH   5   6
ENDBRANCH   1   5
TORSDOF 3
ENDMDL
MODEL 7
REMARK VINA RESULT:    -2.814      2.715      4.201
REMARK INTER + INTRA:          -3.385
REMARK INTER:                  -3.319
REMARK INTRA:                  -0.066
REMARK UNBOUND:                -0.078
REMARK SMILES O=C([O-])CCC(=O)[O-]
REMARK SMILES IDX 4 1 2 2 1 3 3 4 5 5 6 6 7 7 8 8
REMARK H PARENT
REMARK Flexibility Score: inf
ROOT
ATOM      1  C   UNL     1      -5.588  -3.381   2.142  1.00  0.00     0.059 C 
ENDROOT
BRANCH   1   2
ATOM      2  C   UNL     1      -4.871  -3.959   0.964  1.00  0.00     0.042 C 
ATOM      3  O   UNL     1      -4.569  -3.229  -0.015  1.00  0.00    -0.550 OA
ATOM      4  O   UNL     1      -4.578  -5.317   0.926  1.00  0.00    -0.550 OA
ENDBRANCH   1   2
BRANCH   1   5
ATOM      5  C   UNL     1      -4.858  -2.139   2.657  1.00  0.00     0.059 C 
BRANCH   5   6
ATOM      6  C   UNL     1      -4.458  -2.321   4.086  1.00  0.00     0.042 C 
ATOM      7  O   UNL     1      -4.609  -3.437   4.649  1.00  0.00    -0.550 OA
ATOM      8  O   UNL     1      -3.871  -1.272   4.783  1.00  0.00    -0.550 OA
ENDBRANCH   5   6
ENDBRANCH   1   5
TORSDOF 3
ENDMDL
MODEL 8
REMARK VINA RESULT:    -2.778      2.052      3.386
REMARK INTER + INTRA:          -3.343
REMARK INTER:                  -3.153
REMARK INTRA:                  -0.190
REMARK UNBOUND:                -0.078
REMARK SMILES O=C([O-])CCC(=O)[O-]
REMARK SMILES IDX 4 1 2 2 1 3 3 4 5 5 6 6 7 7 8 8
REMARK H PARENT
REMARK Flexibility Score: inf
ROOT
ATOM      1  C   UNL     1      -5.547  -5.399  -0.630  1.00  0.00     0.059 C 
ENDROOT
BRANCH   1   2
ATOM      2  C   UNL     1      -4.979  -4.750   0.592  1.00  0.00     0.042 C 
ATOM      3  O   UNL     1      -4.341  -3.669   0.496  1.00  0.00    -0.550 OA
ATOM      4  O   UNL     1      -5.113  -5.363   1.831  1.00  0.00    -0.550 OA
ENDBRANCH   1   2
BRANCH   1   5
ATOM      5  C   UNL     1      -7.054  -5.609  -0.473  1.00  0.00     0.059 C 
BRANCH   5   6
ATOM      6  C   UNL     1      -7.756  -4.294  -0.358  1.00  0.00     0.042 C 
ATOM      7  O   UNL     1      -8.452  -4.033   0.658  1.00  0.00    -0.550 OA
ATOM      8  O   UNL     1      -7.603  -3.334  -1.352  1.00  0.00    -0.550 OA
ENDBRANCH   5   6
ENDBRANCH   1   5
TORSDOF 3
ENDMDL
MODEL 9
REMARK VINA RESULT:    -2.695      1.595      2.350
REMARK INTER + INTRA:          -3.246
REMARK INTER:                  -3.134
REMARK INTRA:                  -0.112
REMARK UNBOUND:                -0.078
REMARK SMILES O=C([O-])CCC(=O)[O-]
REMARK SMILES IDX 4 1 2 2 1 3 3 4 5 5 6 6 7 7 8 8
REMARK H PARENT
REMARK Flexibility Score: inf
ROOT
ATOM      1  C   UNL     1      -5.710  -5.303  -0.385  1.00  0.00     0.059 C 
ENDROOT
BRANCH   1   2
ATOM      2  C   UNL     1      -5.936  -4.093  -1.236  1.00  0.00     0.042 C 
ATOM      3  O   UNL     1      -5.567  -2.958  -0.835  1.00  0.00    -0.550 OA
ATOM      4  O   UNL     1      -6.598  -4.212  -2.451  1.00  0.00    -0.550 OA
ENDBRANCH   1   2
BRANCH   1   5
ATOM      5  C   UNL     1      -4.818  -4.957   0.810  1.00  0.00     0.059 C 
BRANCH   5   6
ATOM      6  C   UNL     1      -5.623  -4.927   2.071  1.00  0.00     0.042 C 
ATOM      7  O   UNL     1      -5.368  -5.732   3.004  1.00  0.00    -0.550 OA
ATOM      8  O   UNL     1      -6.622  -3.975   2.235  1.00  0.00    -0.550 OA
ENDBRANCH   5   6
ENDBRANCH   1   5
TORSDOF 3
ENDMDL
