MODEL 1
REMARK VINA RESULT:    -4.406      0.000      0.000
REMARK INTER + INTRA:          -7.184
REMARK INTER:                  -6.724
REMARK INTRA:                  -0.460
REMARK UNBOUND:                -0.460
REMARK SMILES O=C([O-])CCCCCCCCC(=O)[O-]
REMARK SMILES IDX 7 1 6 2 5 3 4 4 2 5 1 6 3 7 8 8 9 9 10 10 11 11 12 12 13 13
REMARK SMILES IDX 14 14
REMARK H PARENT
REMARK Flexibility Score: inf
ROOT
ATOM      1  C   UNL     1      50.419  33.750   3.807  1.00  0.00     0.000 C 
ENDROOT
BRANCH   1   2
ATOM      2  C   UNL     1      50.463  33.780   2.272  1.00  0.00     0.000 C 
BRANCH   2   3
ATOM      3  C   UNL     1      51.792  33.220   1.747  1.00  0.00     0.006 C 
BRANCH   3   4
ATOM      4  C   UNL     1      51.586  32.162   0.657  1.00  0.00     0.053 C 
BRANCH   4   5
ATOM      5  C   UNL     1      50.822  32.710  -0.510  1.00  0.00     0.041 C 
ATOM      6  O   UNL     1      49.690  32.244  -0.803  1.00  0.00    -0.550 OA
ATOM      7  O   UNL     1      51.377  33.714  -1.293  1.00  0.00    -0.550 OA
ENDBRANCH   4   5
ENDBRANCH   3   4
ENDBRANCH   2   3
ENDBRANCH   1   2
BRANCH   1   8
ATOM      8  C   UNL     1      51.239  32.595   4.410  1.00  0.00     0.000 C 
BRANCH   8   9
ATOM      9  C   UNL     1      50.829  32.180   5.835  1.00  0.00     0.000 C 
BRANCH   9  10
ATOM     10  C   UNL     1      49.430  32.684   6.227  1.00  0.00     0.006 C 
BRANCH  10  11
ATOM     11  C   UNL     1      49.219  32.681   7.746  1.00  0.00     0.053 C 
BRANCH  11  12
ATOM     12  C   UNL     1      49.214  34.071   8.308  1.00  0.00     0.041 C 
ATOM     13  O   UNL     1      50.094  34.899   7.956  1.00  0.00    -0.550 OA
ATOM     14  O   UNL     1      48.259  34.438   9.248  1.00  0.00    -0.550 OA
ENDBRANCH  11  12
ENDBRANCH  10  11
ENDBRANCH   9  10
ENDBRANCH   8   9
ENDBRANCH   1   8
TORSDOF 9
ENDMDL
MODEL 2
REMARK VINA RESULT:    -4.404      1.071      7.401
REMARK INTER + INTRA:          -7.181
REMARK INTER:                  -6.743
REMARK INTRA:                  -0.437
REMARK UNBOUND:                -0.460
REMARK SMILES O=C([O-])CCCCCCCCC(=O)[O-]
REMARK SMILES IDX 7 1 6 2 5 3 4 4 2 5 1 6 3 7 8 8 9 9 10 10 11 11 12 12 13 13
REMARK SMILES IDX 14 14
REMARK H PARENT
REMARK Flexibility Score: inf
ROOT
ATOM      1  C   UNL     1      50.375  33.785   4.068  1.00  0.00     0.000 C 
ENDROOT
BRANCH   1   2
ATOM      2  C   UNL     1      50.929  32.507   4.714  1.00  0.00     0.000 C 
BRANCH   2   3
ATOM      3  C   UNL     1      49.953  31.953   5.763  1.00  0.00     0.006 C 
BRANCH   3   4
ATOM      4  C   UNL     1      50.324  32.386   7.186  1.00  0.00     0.053 C 
BRANCH   4   5
ATOM      5  C   UNL     1      49.469  33.521   7.661  1.00  0.00     0.041 C 
ATOM      6  O   UNL     1      48.383  33.293   8.256  1.00  0.00    -0.550 OA
ATOM      7  O   UNL     1      49.857  34.832   7.416  1.00  0.00    -0.550 OA
ENDBRANCH   4   5
ENDBRANCH   3   4
ENDBRANCH   2   3
ENDBRANCH   1   2
BRANCH   1   8
ATOM      8  C   UNL     1      50.542  33.807   2.538  1.00  0.00     0.000 C 
BRANCH   8   9
ATOM      9  C   UNL     1      51.667  32.908   1.992  1.00  0.00     0.000 C 
BRANCH   9  10
ATOM     10  C   UNL     1      51.413  32.439   0.550  1.00  0.00     0.006 C 
BRANCH  10  11
ATOM     11  C   UNL     1      50.076  32.954   0.001  1.00  0.00     0.053 C 
BRANCH  11  12
ATOM     12  C   UNL     1      49.995  32.810  -1.489  1.00  0.00     0.041 C 
ATOM     13  O   UNL     1      50.610  31.876  -2.069  1.00  0.00    -0.550 OA
ATOM     14  O   UNL     1      49.271  33.728  -2.238  1.00  0.00    -0.550 OA
ENDBRANCH  11  12
ENDBRANCH  10  11
ENDBRANCH   9  10
ENDBRANCH   8   9
ENDBRANCH   1   8
TORSDOF 9
ENDMDL
MODEL 3
REMARK VINA RESULT:    -4.390     13.597     15.772
REMARK INTER + INTRA:          -7.159
REMARK INTER:                  -6.517
REMARK INTRA:                  -0.642
REMARK UNBOUND:                -0.460
REMARK SMILES O=C([O-])CCCCCCCCC(=O)[O-]
REMARK SMILES IDX 7 1 6 2 5 3 4 4 2 5 1 6 3 7 8 8 9 9 10 10 11 11 12 12 13 13
REMARK SMILES IDX 14 14
REMARK H PARENT
REMARK Flexibility Score: inf
ROOT
ATOM      1  C   UNL     1      51.301  46.381  12.436  1.00  0.00     0.000 C 
ENDROOT
BRANCH   1   2
ATOM      2  C   UNL     1      52.558  45.991  13.228  1.00  0.00     0.000 C 
BRANCH   2   3
ATOM      3  C   UNL     1      53.796  45.966  12.321  1.00  0.00     0.006 C 
BRANCH   3   4
ATOM      4  C   UNL     1      54.395  44.560  12.194  1.00  0.00     0.053 C 
BRANCH   4   5
ATOM      5  C   UNL     1      54.235  44.012  10.809  1.00  0.00     0.041 C 
ATOM      6  O   UNL     1      54.078  42.776  10.630  1.00  0.00    -0.550 OA
ATOM      7  O   UNL     1      54.293  44.865   9.714  1.00  0.00    -0.550 OA
ENDBRANCH   4   5
ENDBRANCH   3   4
ENDBRANCH   2   3
ENDBRANCH   1   2
BRANCH   1   8
ATOM      8  C   UNL     1      51.611  46.809  10.990  1.00  0.00     0.000 C 
BRANCH   8   9
ATOM      9  C   UNL     1      50.936  48.118  10.539  1.00  0.00     0.000 C 
BRANCH   9  10
ATOM     10  C   UNL     1      49.813  48.570  11.488  1.00  0.00     0.006 C 
BRANCH  10  11
ATOM     11  C   UNL     1      48.474  48.742  10.758  1.00  0.00     0.053 C 
BRANCH  11  12
ATOM     12  C   UNL     1      47.454  47.751  11.229  1.00  0.00     0.041 C 
ATOM     13  O   UNL     1      46.241  47.896  10.921  1.00  0.00    -0.550 OA
ATOM     14  O   UNL     1      47.836  46.689  12.038  1.00  0.00    -0.550 OA
ENDBRANCH  11  12
ENDBRANCH  10  11
ENDBRANCH   9  10
ENDBRANCH   8   9
ENDBRANCH   1   8
TORSDOF 9
ENDMDL
MODEL 4
REMARK VINA RESULT:    -4.338      1.321      1.823
REMARK INTER + INTRA:          -7.080
REMARK INTER:                  -6.797
REMARK INTRA:                  -0.283
REMARK UNBOUND:                -0.460
REMARK SMILES O=C([O-])CCCCCCCCC(=O)[O-]
REMARK SMILES IDX 7 1 6 2 5 3 4 4 2 5 1 6 3 7 8 8 9 9 10 10 11 11 12 12 13 13
REMARK SMILES IDX 14 14
REMARK H PARENT
REMARK Flexibility Score: inf
ROOT
ATOM      1  C   UNL     1      49.591  33.475   4.811  1.00  0.00     0.000 C 
ENDROOT
BRANCH   1   2
ATOM      2  C   UNL     1      50.885  33.376   3.989  1.00  0.00     0.000 C 
BRANCH   2   3
ATOM      3  C   UNL     1      50.640  33.774   2.526  1.00  0.00     0.006 C 
BRANCH   3   4
ATOM      4  C   UNL     1      51.684  33.171   1.578  1.00  0.00     0.053 C 
BRANCH   4   5
ATOM      5  C   UNL     1      51.163  33.062   0.177  1.00  0.00     0.041 C 
ATOM      6  O   UNL     1      49.981  33.404  -0.089  1.00  0.00    -0.550 OA
ATOM      7  O   UNL     1      51.975  32.551  -0.827  1.00  0.00    -0.550 OA
ENDBRANCH   4   5
ENDBRANCH   3   4
ENDBRANCH   2   3
ENDBRANCH   1   2
BRANCH   1   8
ATOM      8  C   UNL     1      49.437  32.333   5.831  1.00  0.00     0.000 C 
BRANCH   8   9
ATOM      9  C   UNL     1      50.058  32.606   7.213  1.00  0.00     0.000 C 
BRANCH   9  10
ATOM     10  C   UNL     1      49.185  33.518   8.092  1.00  0.00     0.006 C 
BRANCH  10  11
ATOM     11  C   UNL     1      49.907  34.818   8.472  1.00  0.00     0.053 C 
BRANCH  11  12
ATOM     12  C   UNL     1      49.695  35.170   9.913  1.00  0.00     0.041 C 
ATOM     13  O   UNL     1      50.605  34.958  10.757  1.00  0.00    -0.550 OA
ATOM     14  O   UNL     1      48.479  35.697  10.329  1.00  0.00    -0.550 OA
ENDBRANCH  11  12
ENDBRANCH  10  11
ENDBRANCH   9  10
ENDBRANCH   8   9
ENDBRANCH   1   8
TORSDOF 9
ENDMDL
MODEL 5
REMARK VINA RESULT:    -4.327      1.162      7.826
REMARK INTER + INTRA:          -7.064
REMARK INTER:                  -6.722
REMARK INTRA:                  -0.342
REMARK UNBOUND:                -0.460
REMARK SMILES O=C([O-])CCCCCCCCC(=O)[O-]
REMARK SMILES IDX 7 1 6 2 5 3 4 4 2 5 1 6 3 7 8 8 9 9 10 10 11 11 12 12 13 13
REMARK SMILES IDX 14 14
REMARK H PARENT
REMARK Flexibility Score: inf
ROOT
ATOM      1  C   UNL     1      49.536  32.311   5.912  1.00  0.00     0.000 C 
ENDROOT
BRANCH   1   2
ATOM      2  C   UNL     1      49.855  32.857   7.311  1.00  0.00     0.000 C 
BRANCH   2   3
ATOM      3  C   UNL     1      49.422  34.325   7.441  1.00  0.00     0.006 C 
BRANCH   3   4
ATOM      4  C   UNL     1      50.172  35.054   8.562  1.00  0.00     0.053 C 
BRANCH   4   5
ATOM      5  C   UNL     1      49.528  34.831   9.897  1.00  0.00     0.041 C 
ATOM      6  O   UNL     1      50.042  34.034  10.725  1.00  0.00    -0.550 OA
ATOM      7  O   UNL     1      48.341  35.480  10.212  1.00  0.00    -0.550 OA
ENDBRANCH   4   5
ENDBRANCH   3   4
ENDBRANCH   2   3
ENDBRANCH   1   2
BRANCH   1   8
ATOM      8  C   UNL     1      49.559  33.397   4.822  1.00  0.00     0.000 C 
BRANCH   8   9
ATOM      9  C   UNL     1      50.828  33.418   3.951  1.00  0.00     0.000 C 
BRANCH   9  10
ATOM     10  C   UNL     1      50.547  33.811   2.490  1.00  0.00     0.006 C 
BRANCH  10  11
ATOM     11  C   UNL     1      51.631  33.299   1.534  1.00  0.00     0.053 C 
BRANCH  11  12
ATOM     12  C   UNL     1      51.106  33.129   0.140  1.00  0.00     0.041 C 
ATOM     13  O   UNL     1      51.862  33.319  -0.849  1.00  0.00    -0.550 OA
ATOM     14  O   UNL     1      49.773  32.796  -0.066  1.00  0.00    -0.550 OA
ENDBRANCH  11  12
ENDBRANCH  10  11
ENDBRANCH   9  10
ENDBRANCH   8   9
ENDBRANCH   1   8
TORSDOF 9
ENDMDL
MODEL 6
REMARK VINA RESULT:    -4.296      1.476      7.487
REMARK INTER + INTRA:          -7.016
REMARK INTER:                  -6.444
REMARK INTRA:                  -0.571
REMARK UNBOUND:                -0.460
REMARK SMILES O=C([O-])CCCCCCCCC(=O)[O-]
REMARK SMILES IDX 7 1 6 2 5 3 4 4 2 5 1 6 3 7 8 8 9 9 10 10 11 11 12 12 13 13
REMARK SMILES IDX 14 14
REMARK H PARENT
REMARK Flexibility Score: inf
ROOT
ATOM      1  C   UNL     1      51.247  33.677   2.137  1.00  0.00     0.000 C 
ENDROOT
BRANCH   1   2
ATOM      2  C   UNL     1      51.208  32.990   3.510  1.00  0.00     0.000 C 
BRANCH   2   3
ATOM      3  C   UNL     1      50.119  33.604   4.401  1.00  0.00     0.006 C 
BRANCH   3   4
ATOM      4  C   UNL     1      49.750  32.692   5.578  1.00  0.00     0.053 C 
BRANCH   4   5
ATOM      5  C   UNL     1      49.359  33.482   6.790  1.00  0.00     0.041 C 
ATOM      6  O   UNL     1      49.768  34.663   6.937  1.00  0.00    -0.550 OA
ATOM      7  O   UNL     1      48.570  32.899   7.773  1.00  0.00    -0.550 OA
ENDBRANCH   4   5
ENDBRANCH   3   4
ENDBRANCH   2   3
ENDBRANCH   1   2
BRANCH   1   8
ATOM      8  C   UNL     1      49.869  33.737   1.454  1.00  0.00     0.000 C 
BRANCH   8   9
ATOM      9  C   UNL     1      49.790  33.040   0.083  1.00  0.00     0.000 C 
BRANCH   9  10
ATOM     10  C   UNL     1      50.960  32.071  -0.165  1.00  0.00     0.006 C 
BRANCH  10  11
ATOM     11  C   UNL     1      51.632  32.312  -1.523  1.00  0.00     0.053 C 
BRANCH  11  12
ATOM     12  C   UNL     1      52.134  33.719  -1.651  1.00  0.00     0.041 C 
ATOM     13  O   UNL     1      51.655  34.485  -2.528  1.00  0.00    -0.550 OA
ATOM     14  O   UNL     1      53.157  34.171  -0.826  1.00  0.00    -0.550 OA
ENDBRANCH  11  12
ENDBRANCH  10  11
ENDBRANCH   9  10
ENDBRANCH   8   9
ENDBRANCH   1   8
TORSDOF 9
ENDMDL
MODEL 7
REMARK VINA RESULT:    -4.277      2.079      3.600
REMARK INTER + INTRA:          -6.987
REMARK INTER:                  -6.573
REMARK INTRA:                  -0.414
REMARK UNBOUND:                -0.460
REMARK SMILES O=C([O-])CCCCCCCCC(=O)[O-]
REMARK SMILES IDX 7 1 6 2 5 3 4 4 2 5 1 6 3 7 8 8 9 9 10 10 11 11 12 12 13 13
REMARK SMILES IDX 14 14
REMARK H PARENT
REMARK Flexibility Score: inf
ROOT
ATOM      1  C   UNL     1      49.475  33.722   6.358  1.00  0.00     0.000 C 
ENDROOT
BRANCH   1   2
ATOM      2  C   UNL     1      50.516  32.616   6.132  1.00  0.00     0.000 C 
BRANCH   2   3
ATOM      3  C   UNL     1      50.906  32.522   4.650  1.00  0.00     0.006 C 
BRANCH   3   4
ATOM      4  C   UNL     1      50.421  33.733   3.844  1.00  0.00     0.053 C 
BRANCH   4   5
ATOM      5  C   UNL     1      50.735  33.590   2.386  1.00  0.00     0.041 C 
ATOM      6  O   UNL     1      51.905  33.314   2.012  1.00  0.00    -0.550 OA
ATOM      7  O   UNL     1      49.740  33.796   1.438  1.00  0.00    -0.550 OA
ENDBRANCH   4   5
ENDBRANCH   3   4
ENDBRANCH   2   3
ENDBRANCH   1   2
BRANCH   1   8
ATOM      8  C   UNL     1      49.111  33.912   7.842  1.00  0.00     0.000 C 
BRANCH   8   9
ATOM      9  C   UNL     1      49.916  35.000   8.576  1.00  0.00     0.000 C 
BRANCH   9  10
ATOM     10  C   UNL     1      50.128  34.684  10.067  1.00  0.00     0.006 C 
BRANCH  10  11
ATOM     11  C   UNL     1      48.800  34.492  10.812  1.00  0.00     0.053 C 
BRANCH  11  12
ATOM     12  C   UNL     1      47.999  35.758  10.852  1.00  0.00     0.041 C 
ATOM     13  O   UNL     1      48.455  36.778  11.433  1.00  0.00    -0.550 OA
ATOM     14  O   UNL     1      46.733  35.799  10.281  1.00  0.00    -0.550 OA
ENDBRANCH  11  12
ENDBRANCH  10  11
ENDBRANCH   9  10
ENDBRANCH   8   9
ENDBRANCH   1   8
TORSDOF 9
ENDMDL
MODEL 8
REMARK VINA RESULT:    -4.227      1.236      2.064
REMARK INTER + INTRA:          -6.911
REMARK INTER:                  -6.537
REMARK INTRA:                  -0.374
REMARK UNBOUND:                -0.460
REMARK SMILES O=C([O-])CCCCCCCCC(=O)[O-]
REMARK SMILES IDX 7 1 6 2 5 3 4 4 2 5 1 6 3 7 8 8 9 9 10 10 11 11 12 12 13 13
REMARK SMILES IDX 14 14
REMARK H PARENT
REMARK Flexibility Score: inf
ROOT
ATOM      1  C   UNL     1      51.858  33.341   1.607  1.00  0.00     0.000 C 
ENDROOT
BRANCH   1   2
ATOM      2  C   UNL     1      51.709  31.907   1.078  1.00  0.00     0.000 C 
BRANCH   2   3
ATOM      3  C   UNL     1      51.672  31.888  -0.457  1.00  0.00     0.006 C 
BRANCH   3   4
ATOM      4  C   UNL     1      50.249  32.047  -1.005  1.00  0.00     0.053 C 
BRANCH   4   5
ATOM      5  C   UNL     1      50.137  33.228  -1.921  1.00  0.00     0.041 C 
ATOM      6  O   UNL     1      49.128  33.364  -2.662  1.00  0.00    -0.550 OA
ATOM      7  O   UNL     1      51.163  34.162  -1.978  1.00  0.00    -0.550 OA
ENDBRANCH   4   5
ENDBRANCH   3   4
ENDBRANCH   2   3
ENDBRANCH   1   2
BRANCH   1   8
ATOM      8  C   UNL     1      50.693  33.772   2.516  1.00  0.00     0.000 C 
BRANCH   8   9
ATOM      9  C   UNL     1      50.885  33.465   4.012  1.00  0.00     0.000 C 
BRANCH   9  10
ATOM     10  C   UNL     1      49.564  33.467   4.799  1.00  0.00     0.006 C 
BRANCH  10  11
ATOM     11  C   UNL     1      49.544  32.398   5.900  1.00  0.00     0.053 C 
BRANCH  11  12
ATOM     12  C   UNL     1      49.115  32.967   7.218  1.00  0.00     0.041 C 
ATOM     13  O   UNL     1      49.486  34.122   7.560  1.00  0.00    -0.550 OA
ATOM     14  O   UNL     1      48.338  32.209   8.084  1.00  0.00    -0.550 OA
ENDBRANCH  11  12
ENDBRANCH  10  11
ENDBRANCH   9  10
ENDBRANCH   8   9
ENDBRANCH   1   8
TORSDOF 9
ENDMDL
MODEL 9
REMARK VINA RESULT:    -4.140     17.903     18.715
REMARK INTER + INTRA:          -6.779
REMARK INTER:                  -6.351
REMARK INTRA:                  -0.428
REMARK UNBOUND:                -0.460
REMARK SMILES O=C([O-])CCCCCCCCC(=O)[O-]
REMARK SMILES IDX 7 1 6 2 5 3 4 4 2 5 1 6 3 7 8 8 9 9 10 10 11 11 12 12 13 13
REMARK SMILES IDX 14 14
REMARK H PARENT
REMARK Flexibility Score: inf
ROOT
ATOM      1  C   UNL     1      49.422  51.720   0.638  1.00  0.00     0.000 C 
ENDROOT
BRANCH   1   2
ATOM      2  C   UNL     1      49.760  50.657   1.694  1.00  0.00     0.000 C 
BRANCH   2   3
ATOM      3  C   UNL     1      50.972  51.082   2.535  1.00  0.00     0.006 C 
BRANCH   3   4
ATOM      4  C   UNL     1      51.980  51.906   1.726  1.00  0.00     0.053 C 
BRANCH   4   5
ATOM      5  C   UNL     1      53.057  51.045   1.139  1.00  0.00     0.041 C 
ATOM      6  O   UNL     1      52.954  50.615  -0.040  1.00  0.00    -0.550 OA
ATOM      7  O   UNL     1      54.158  50.690   1.907  1.00  0.00    -0.550 OA
ENDBRANCH   4   5
ENDBRANCH   3   4
ENDBRANCH   2   3
ENDBRANCH   1   2
BRANCH   1   8
ATOM      8  C   UNL     1      47.929  52.090   0.612  1.00  0.00     0.000 C 
BRANCH   8   9
ATOM      9  C   UNL     1      46.995  51.078   1.301  1.00  0.00     0.000 C 
BRANCH   9  10
ATOM     10  C   UNL     1      45.633  51.684   1.684  1.00  0.00     0.006 C 
BRANCH  10  11
ATOM     11  C   UNL     1      44.521  51.267   0.712  1.00  0.00     0.053 C 
BRANCH  11  12
ATOM     12  C   UNL     1      43.680  50.162   1.273  1.00  0.00     0.041 C 
ATOM     13  O   UNL     1      43.672  49.029   0.722  1.00  0.00    -0.550 OA
ATOM     14  O   UNL     1      42.876  50.393   2.383  1.00  0.00    -0.550 OA
ENDBRANCH  11  12
ENDBRANCH  10  11
ENDBRANCH   9  10
ENDBRANCH   8   9
ENDBRANCH   1   8
TORSDOF 9
ENDMDL
