MODEL 1
REMARK VINA RESULT:    -4.825      0.000      0.000
REMARK INTER + INTRA:          -5.339
REMARK INTER:                  -5.248
REMARK INTRA:                  -0.091
REMARK UNBOUND:                -0.091
REMARK SMILES C=C(C)[C@H]1CC=C(C)[C@H](O)C1
REMARK SMILES IDX 8 1 7 2 6 3 5 4 4 5 11 6 9 7 10 8 2 10 1 11 3 12
REMARK H PARENT 10 9
REMARK Flexibility Score: inf
ROOT
ATOM      1  C   UNL     1     179.419 181.829 185.612  1.00  0.00     0.042 C 
ATOM      2  C   UNL     1     179.969 180.630 184.887  1.00  0.00    -0.049 C 
ATOM      3  C   UNL     1     180.371 179.561 185.607  1.00  0.00    -0.025 C 
ATOM      4  C   UNL     1     181.003 178.343 184.984  1.00  0.00     0.035 C 
ATOM      5  C   UNL     1     180.578 178.160 183.518  1.00  0.00     0.021 C 
ATOM      6  C   UNL     1     180.785 179.475 182.746  1.00  0.00     0.044 C 
ATOM      7  C   UNL     1     179.964 180.626 183.364  1.00  0.00     0.140 C 
ENDROOT
BRANCH   7   8
ATOM      8  O   UNL     1     178.646 180.613 182.876  1.00  0.00    -0.389 OA
ATOM      9  H   UNL     1     178.063 180.227 183.580  1.00  0.00     0.211 HD
ENDBRANCH   7   8
BRANCH   5  10
ATOM     10  C   UNL     1     181.317 177.000 182.861  1.00  0.00    -0.077 C 
ATOM     11  C   UNL     1     181.524 175.842 183.511  1.00  0.00     0.008 C 
ATOM     12  C   UNL     1     181.837 177.137 181.453  1.00  0.00     0.039 C 
ENDBRANCH   5  10
TORSDOF 2
ENDMDL
MODEL 2
REMARK VINA RESULT:    -4.754      1.593      3.010
REMARK INTER + INTRA:          -5.262
REMARK INTER:                  -5.168
REMARK INTRA:                  -0.094
REMARK UNBOUND:                -0.091
REMARK SMILES C=C(C)[C@H]1CC=C(C)[C@H](O)C1
REMARK SMILES IDX 8 1 7 2 6 3 5 4 4 5 11 6 9 7 10 8 2 10 1 11 3 12
REMARK H PARENT 10 9
REMARK Flexibility Score: inf
ROOT
ATOM      1  C   UNL     1     178.232 184.217 183.446  1.00  0.00     0.042 C 
ATOM      2  C   UNL     1     178.973 182.979 183.874  1.00  0.00    -0.049 C 
ATOM      3  C   UNL     1     179.225 182.790 185.187  1.00  0.00    -0.025 C 
ATOM      4  C   UNL     1     180.022 181.623 185.709  1.00  0.00     0.035 C 
ATOM      5  C   UNL     1     179.961 180.414 184.762  1.00  0.00     0.021 C 
ATOM      6  C   UNL     1     180.306 180.855 183.329  1.00  0.00     0.044 C 
ATOM      7  C   UNL     1     179.328 181.936 182.822  1.00  0.00     0.140 C 
ENDROOT
BRANCH   7   8
ATOM      8  O   UNL     1     178.163 181.346 182.301  1.00  0.00    -0.389 OA
ATOM      9  H   UNL     1     177.720 182.012 181.713  1.00  0.00     0.211 HD
ENDBRANCH   7   8
BRANCH   5  10
ATOM     10  C   UNL     1     180.869 179.284 185.236  1.00  0.00    -0.077 C 
ATOM     11  C   UNL     1     181.751 179.466 186.234  1.00  0.00     0.008 C 
ATOM     12  C   UNL     1     180.792 177.929 184.581  1.00  0.00     0.039 C 
ENDBRANCH   5  10
TORSDOF 2
ENDMDL
MODEL 3
REMARK VINA RESULT:    -4.732      2.077      3.522
REMARK INTER + INTRA:          -5.238
REMARK INTER:                  -5.143
REMARK INTRA:                  -0.095
REMARK UNBOUND:                -0.091
REMARK SMILES C=C(C)[C@H]1CC=C(C)[C@H](O)C1
REMARK SMILES IDX 8 1 7 2 6 3 5 4 4 5 11 6 9 7 10 8 2 10 1 11 3 12
REMARK H PARENT 10 9
REMARK Flexibility Score: inf
ROOT
ATOM      1  C   UNL     1     178.018 183.736 182.651  1.00  0.00     0.042 C 
ATOM      2  C   UNL     1     178.736 182.628 183.372  1.00  0.00    -0.049 C 
ATOM      3  C   UNL     1     178.938 181.456 182.732  1.00  0.00    -0.025 C 
ATOM      4  C   UNL     1     179.580 180.261 183.390  1.00  0.00     0.035 C 
ATOM      5  C   UNL     1     180.507 180.670 184.546  1.00  0.00     0.021 C 
ATOM      6  C   UNL     1     179.766 181.624 185.498  1.00  0.00     0.044 C 
ATOM      7  C   UNL     1     179.293 182.897 184.764  1.00  0.00     0.140 C 
ENDROOT
BRANCH   7   8
ATOM      8  O   UNL     1     180.326 183.848 184.705  1.00  0.00    -0.389 OA
ATOM      9  H   UNL     1     180.161 184.524 185.413  1.00  0.00     0.211 HD
ENDBRANCH   7   8
BRANCH   5  10
ATOM     10  C   UNL     1     181.053 179.453 185.283  1.00  0.00    -0.077 C 
ATOM     11  C   UNL     1     181.791 179.582 186.400  1.00  0.00     0.008 C 
ATOM     12  C   UNL     1     180.771 178.067 184.764  1.00  0.00     0.039 C 
ENDBRANCH   5  10
TORSDOF 2
ENDMDL
MODEL 4
REMARK VINA RESULT:    -4.659      2.286      4.849
REMARK INTER + INTRA:          -5.159
REMARK INTER:                  -5.070
REMARK INTRA:                  -0.088
REMARK UNBOUND:                -0.091
REMARK SMILES C=C(C)[C@H]1CC=C(C)[C@H](O)C1
REMARK SMILES IDX 8 1 7 2 6 3 5 4 4 5 11 6 9 7 10 8 2 10 1 11 3 12
REMARK H PARENT 10 9
REMARK Flexibility Score: inf
ROOT
ATOM      1  C   UNL     1     180.781 178.215 184.747  1.00  0.00     0.042 C 
ATOM      2  C   UNL     1     180.340 179.542 184.192  1.00  0.00    -0.049 C 
ATOM      3  C   UNL     1     180.094 179.646 182.868  1.00  0.00    -0.025 C 
ATOM      4  C   UNL     1     179.719 180.945 182.203  1.00  0.00     0.035 C 
ATOM      5  C   UNL     1     179.049 181.922 183.183  1.00  0.00     0.021 C 
ATOM      6  C   UNL     1     179.907 182.058 184.453  1.00  0.00     0.044 C 
ATOM      7  C   UNL     1     180.095 180.696 185.155  1.00  0.00     0.140 C 
ENDROOT
BRANCH   7   8
ATOM      8  O   UNL     1     179.000 180.415 185.992  1.00  0.00    -0.389 OA
ATOM      9  H   UNL     1     178.592 179.565 185.684  1.00  0.00     0.211 HD
ENDBRANCH   7   8
BRANCH   5  10
ATOM     10  C   UNL     1     178.788 183.276 182.534  1.00  0.00    -0.077 C 
ATOM     11  C   UNL     1     177.584 183.869 182.611  1.00  0.00     0.008 C 
ATOM     12  C   UNL     1     179.890 183.978 181.783  1.00  0.00     0.039 C 
ENDBRANCH   5  10
TORSDOF 2
ENDMDL
MODEL 5
REMARK VINA RESULT:    -4.499      3.877      4.914
REMARK INTER + INTRA:          -4.985
REMARK INTER:                  -4.891
REMARK INTRA:                  -0.093
REMARK UNBOUND:                -0.091
REMARK SMILES C=C(C)[C@H]1CC=C(C)[C@H](O)C1
REMARK SMILES IDX 8 1 7 2 6 3 5 4 4 5 11 6 9 7 10 8 2 10 1 11 3 12
REMARK H PARENT 10 9
REMARK Flexibility Score: inf
ROOT
ATOM      1  C   UNL     1     185.362 181.608 188.317  1.00  0.00     0.042 C 
ATOM      2  C   UNL     1     184.165 181.053 187.594  1.00  0.00    -0.049 C 
ATOM      3  C   UNL     1     184.362 180.229 186.543  1.00  0.00    -0.025 C 
ATOM      4  C   UNL     1     183.234 179.679 185.708  1.00  0.00     0.035 C 
ATOM      5  C   UNL     1     181.916 179.608 186.497  1.00  0.00     0.021 C 
ATOM      6  C   UNL     1     181.636 180.964 187.168  1.00  0.00     0.044 C 
ATOM      7  C   UNL     1     182.774 181.361 188.133  1.00  0.00     0.140 C 
ENDROOT
BRANCH   7   8
ATOM      8  O   UNL     1     182.589 180.762 189.391  1.00  0.00    -0.389 OA
ATOM      9  H   UNL     1     183.160 179.952 189.431  1.00  0.00     0.211 HD
ENDBRANCH   7   8
BRANCH   5  10
ATOM     10  C   UNL     1     180.756 179.169 185.611  1.00  0.00    -0.077 C 
ATOM     11  C   UNL     1     179.582 179.824 185.620  1.00  0.00     0.008 C 
ATOM     12  C   UNL     1     180.909 177.977 184.702  1.00  0.00     0.039 C 
ENDBRANCH   5  10
TORSDOF 2
ENDMDL
MODEL 6
REMARK VINA RESULT:    -4.437      1.645      4.303
REMARK INTER + INTRA:          -4.917
REMARK INTER:                  -4.829
REMARK INTRA:                  -0.089
REMARK UNBOUND:                -0.091
REMARK SMILES C=C(C)[C@H]1CC=C(C)[C@H](O)C1
REMARK SMILES IDX 8 1 7 2 6 3 5 4 4 5 11 6 9 7 10 8 2 10 1 11 3 12
REMARK H PARENT 10 9
REMARK Flexibility Score: inf
ROOT
ATOM      1  C   UNL     1     181.690 176.349 183.400  1.00  0.00     0.042 C 
ATOM      2  C   UNL     1     181.052 177.711 183.458  1.00  0.00    -0.049 C 
ATOM      3  C   UNL     1     180.505 178.126 184.622  1.00  0.00    -0.025 C 
ATOM      4  C   UNL     1     179.779 179.439 184.765  1.00  0.00     0.035 C 
ATOM      5  C   UNL     1     180.252 180.474 183.731  1.00  0.00     0.021 C 
ATOM      6  C   UNL     1     180.221 179.857 182.322  1.00  0.00     0.044 C 
ATOM      7  C   UNL     1     181.128 178.612 182.232  1.00  0.00     0.140 C 
ENDROOT
BRANCH   7   8
ATOM      8  O   UNL     1     182.460 178.986 181.979  1.00  0.00    -0.389 OA
ATOM      9  H   UNL     1     182.776 178.472 181.191  1.00  0.00     0.211 HD
ENDBRANCH   7   8
BRANCH   5  10
ATOM     10  C   UNL     1     179.427 181.753 183.802  1.00  0.00    -0.077 C 
ATOM     11  C   UNL     1     179.391 182.503 184.917  1.00  0.00     0.008 C 
ATOM     12  C   UNL     1     178.626 182.202 182.608  1.00  0.00     0.039 C 
ENDBRANCH   5  10
TORSDOF 2
ENDMDL
MODEL 7
REMARK VINA RESULT:    -4.435      1.429      1.630
REMARK INTER + INTRA:          -4.915
REMARK INTER:                  -4.828
REMARK INTRA:                  -0.087
REMARK UNBOUND:                -0.091
REMARK SMILES C=C(C)[C@H]1CC=C(C)[C@H](O)C1
REMARK SMILES IDX 8 1 7 2 6 3 5 4 4 5 11 6 9 7 10 8 2 10 1 11 3 12
REMARK H PARENT 10 9
REMARK Flexibility Score: inf
ROOT
ATOM      1  C   UNL     1     178.979 181.653 183.223  1.00  0.00     0.042 C 
ATOM      2  C   UNL     1     179.854 180.430 183.158  1.00  0.00    -0.049 C 
ATOM      3  C   UNL     1     179.785 179.524 184.158  1.00  0.00    -0.025 C 
ATOM      4  C   UNL     1     180.669 178.306 184.223  1.00  0.00     0.035 C 
ATOM      5  C   UNL     1     181.153 177.870 182.830  1.00  0.00     0.021 C 
ATOM      6  C   UNL     1     181.751 179.076 182.085  1.00  0.00     0.044 C 
ATOM      7  C   UNL     1     180.715 180.208 181.921  1.00  0.00     0.140 C 
ENDROOT
BRANCH   7   8
ATOM      8  O   UNL     1     179.907 179.981 180.793  1.00  0.00    -0.389 OA
ATOM      9  H   UNL     1     179.878 179.002 180.630  1.00  0.00     0.211 HD
ENDBRANCH   7   8
BRANCH   5  10
ATOM     10  C   UNL     1     182.145 176.716 182.918  1.00  0.00    -0.077 C 
ATOM     11  C   UNL     1     181.749 175.476 183.253  1.00  0.00     0.008 C 
ATOM     12  C   UNL     1     183.605 176.951 182.628  1.00  0.00     0.039 C 
ENDBRANCH   5  10
TORSDOF 2
ENDMDL
MODEL 8
REMARK VINA RESULT:    -4.412      1.733      2.161
REMARK INTER + INTRA:          -4.891
REMARK INTER:                  -4.800
REMARK INTRA:                  -0.091
REMARK UNBOUND:                -0.091
REMARK SMILES C=C(C)[C@H]1CC=C(C)[C@H](O)C1
REMARK SMILES IDX 8 1 7 2 6 3 5 4 4 5 11 6 9 7 10 8 2 10 1 11 3 12
REMARK H PARENT 10 9
REMARK Flexibility Score: inf
ROOT
ATOM      1  C   UNL     1     181.312 181.315 187.670  1.00  0.00     0.042 C 
ATOM      2  C   UNL     1     181.287 180.489 186.413  1.00  0.00    -0.049 C 
ATOM      3  C   UNL     1     182.299 179.626 186.179  1.00  0.00    -0.025 C 
ATOM      4  C   UNL     1     182.405 178.808 184.918  1.00  0.00     0.035 C 
ATOM      5  C   UNL     1     181.031 178.566 184.271  1.00  0.00     0.021 C 
ATOM      6  C   UNL     1     180.280 179.901 184.127  1.00  0.00     0.044 C 
ATOM      7  C   UNL     1     180.074 180.583 185.496  1.00  0.00     0.140 C 
ENDROOT
BRANCH   7   8
ATOM      8  O   UNL     1     178.931 180.073 186.137  1.00  0.00    -0.389 OA
ATOM      9  H   UNL     1     178.733 179.183 185.745  1.00  0.00     0.211 HD
ENDBRANCH   7   8
BRANCH   5  10
ATOM     10  C   UNL     1     181.160 177.847 182.934  1.00  0.00    -0.077 C 
ATOM     11  C   UNL     1     181.210 178.526 181.775  1.00  0.00     0.008 C 
ATOM     12  C   UNL     1     181.232 176.343 182.890  1.00  0.00     0.039 C 
ENDBRANCH   5  10
TORSDOF 2
ENDMDL
MODEL 9
REMARK VINA RESULT:    -4.310      1.894      3.064
REMARK INTER + INTRA:          -4.779
REMARK INTER:                  -4.689
REMARK INTRA:                  -0.091
REMARK UNBOUND:                -0.091
REMARK SMILES C=C(C)[C@H]1CC=C(C)[C@H](O)C1
REMARK SMILES IDX 8 1 7 2 6 3 5 4 4 5 11 6 9 7 10 8 2 10 1 11 3 12
REMARK H PARENT 10 9
REMARK Flexibility Score: inf
ROOT
ATOM      1  C   UNL     1     178.295 184.004 183.293  1.00  0.00     0.042 C 
ATOM      2  C   UNL     1     178.911 182.633 183.364  1.00  0.00    -0.049 C 
ATOM      3  C   UNL     1     179.067 181.928 182.222  1.00  0.00    -0.025 C 
ATOM      4  C   UNL     1     179.605 180.520 182.194  1.00  0.00     0.035 C 
ATOM      5  C   UNL     1     180.506 180.224 183.404  1.00  0.00     0.021 C 
ATOM      6  C   UNL     1     179.785 180.626 184.703  1.00  0.00     0.044 C 
ATOM      7  C   UNL     1     179.424 182.126 184.706  1.00  0.00     0.140 C 
ENDROOT
BRANCH   7   8
ATOM      8  O   UNL     1     180.516 182.899 185.138  1.00  0.00    -0.389 OA
ATOM      9  H   UNL     1     180.437 183.797 184.725  1.00  0.00     0.211 HD
ENDBRANCH   7   8
BRANCH   5  10
ATOM     10  C   UNL     1     180.942 178.764 183.433  1.00  0.00    -0.077 C 
ATOM     11  C   UNL     1     181.418 178.153 182.335  1.00  0.00     0.008 C 
ATOM     12  C   UNL     1     180.843 177.972 184.711  1.00  0.00     0.039 C 
ENDBRANCH   5  10
TORSDOF 2
ENDMDL
