MODEL 1
REMARK VINA RESULT:    -3.902      0.000      0.000
REMARK INTER + INTRA:          -5.190
REMARK INTER:                  -5.043
REMARK INTRA:                  -0.148
REMARK UNBOUND:                -0.148
REMARK SMILES CCCCCCC(=O)[O-]
REMARK SMILES IDX 5 1 6 2 7 3 8 4 9 5 4 6 3 7 2 8 1 9
REMARK H PARENT
REMARK Flexibility Score: inf
ROOT
ATOM      1  C   UNL     1     -11.197  13.926 -13.214  1.00  0.00     0.006 C 
ENDROOT
BRANCH   1   2
ATOM      2  C   UNL     1     -10.049  14.762 -13.795  1.00  0.00     0.053 C 
BRANCH   2   3
ATOM      3  C   UNL     1      -9.795  14.435 -15.235  1.00  0.00     0.041 C 
ATOM      4  O   UNL     1     -10.630  13.752 -15.885  1.00  0.00    -0.550 OA
ATOM      5  O   UNL     1      -8.654  14.911 -15.868  1.00  0.00    -0.550 OA
ENDBRANCH   2   3
ENDBRANCH   1   2
BRANCH   1   6
ATOM      6  C   UNL     1     -11.718  14.496 -11.887  1.00  0.00     0.000 C 
BRANCH   6   7
ATOM      7  C   UNL     1     -10.780  15.588 -11.353  1.00  0.00    -0.000 C 
BRANCH   7   8
ATOM      8  C   UNL     1     -11.093  15.977  -9.900  1.00  0.00    -0.003 C 
ATOM      9  C   UNL     1      -9.933  16.700  -9.217  1.00  0.00     0.004 C 
ENDBRANCH   7   8
ENDBRANCH   6   7
ENDBRANCH   1   6
TORSDOF 5
ENDMDL
MODEL 2
REMARK VINA RESULT:    -3.729      5.025      7.625
REMARK INTER + INTRA:          -4.966
REMARK INTER:                  -4.835
REMARK INTRA:                  -0.131
REMARK UNBOUND:                -0.148
REMARK SMILES CCCCCCC(=O)[O-]
REMARK SMILES IDX 5 1 6 2 7 3 8 4 9 5 4 6 3 7 2 8 1 9
REMARK H PARENT
REMARK Flexibility Score: inf
ROOT
ATOM      1  C   UNL     1     -11.724  15.075 -19.028  1.00  0.00     0.006 C 
ENDROOT
BRANCH   1   2
ATOM      2  C   UNL     1     -10.514  14.647 -18.186  1.00  0.00     0.053 C 
BRANCH   2   3
ATOM      3  C   UNL     1     -10.914  13.756 -17.050  1.00  0.00     0.041 C 
ATOM      4  O   UNL     1     -10.492  13.986 -15.886  1.00  0.00    -0.550 OA
ATOM      5  O   UNL     1     -11.780  12.691 -17.270  1.00  0.00    -0.550 OA
ENDBRANCH   2   3
ENDBRANCH   1   2
BRANCH   1   6
ATOM      6  C   UNL     1     -11.581  16.507 -19.565  1.00  0.00     0.000 C 
BRANCH   6   7
ATOM      7  C   UNL     1     -12.605  16.781 -20.675  1.00  0.00    -0.000 C 
BRANCH   7   8
ATOM      8  C   UNL     1     -12.158  17.901 -21.628  1.00  0.00    -0.003 C 
ATOM      9  C   UNL     1     -10.772  18.448 -21.289  1.00  0.00     0.004 C 
ENDBRANCH   7   8
ENDBRANCH   6   7
ENDBRANCH   1   6
TORSDOF 5
ENDMDL
MODEL 3
REMARK VINA RESULT:    -3.636      5.922      7.737
REMARK INTER + INTRA:          -4.847
REMARK INTER:                  -4.770
REMARK INTRA:                  -0.076
REMARK UNBOUND:                -0.148
REMARK SMILES CCCCCCC(=O)[O-]
REMARK SMILES IDX 5 1 6 2 7 3 8 4 9 5 4 6 3 7 2 8 1 9
REMARK H PARENT
REMARK Flexibility Score: inf
ROOT
ATOM      1  C   UNL     1     -11.787  16.748 -19.844  1.00  0.00     0.006 C 
ENDROOT
BRANCH   1   2
ATOM      2  C   UNL     1     -12.619  17.078 -21.090  1.00  0.00     0.053 C 
BRANCH   2   3
ATOM      3  C   UNL     1     -11.995  18.172 -21.901  1.00  0.00     0.041 C 
ATOM      4  O   UNL     1     -12.553  18.575 -22.956  1.00  0.00    -0.550 OA
ATOM      5  O   UNL     1     -10.816  18.770 -21.476  1.00  0.00    -0.550 OA
ENDBRANCH   2   3
ENDBRANCH   1   2
BRANCH   1   6
ATOM      6  C   UNL     1     -12.006  15.306 -19.364  1.00  0.00     0.000 C 
BRANCH   6   7
ATOM      7  C   UNL     1     -10.836  14.835 -18.488  1.00  0.00    -0.000 C 
BRANCH   7   8
ATOM      8  C   UNL     1     -11.215  13.656 -17.579  1.00  0.00    -0.003 C 
ATOM      9  C   UNL     1     -10.609  13.767 -16.181  1.00  0.00     0.004 C 
ENDBRANCH   7   8
ENDBRANCH   6   7
ENDBRANCH   1   6
TORSDOF 5
ENDMDL
MODEL 4
REMARK VINA RESULT:    -3.631     15.811     16.847
REMARK INTER + INTRA:          -4.840
REMARK INTER:                  -4.551
REMARK INTRA:                  -0.289
REMARK UNBOUND:                -0.148
REMARK SMILES CCCCCCC(=O)[O-]
REMARK SMILES IDX 5 1 6 2 7 3 8 4 9 5 4 6 3 7 2 8 1 9
REMARK H PARENT
REMARK Flexibility Score: inf
ROOT
ATOM      1  C   UNL     1     -21.567  19.821 -25.058  1.00  0.00     0.006 C 
ENDROOT
BRANCH   1   2
ATOM      2  C   UNL     1     -20.654  18.636 -25.399  1.00  0.00     0.053 C 
BRANCH   2   3
ATOM      3  C   UNL     1     -21.346  17.635 -26.273  1.00  0.00     0.041 C 
ATOM      4  O   UNL     1     -21.575  17.901 -27.482  1.00  0.00    -0.550 OA
ATOM      5  O   UNL     1     -21.706  16.394 -25.761  1.00  0.00    -0.550 OA
ENDBRANCH   2   3
ENDBRANCH   1   2
BRANCH   1   6
ATOM      6  C   UNL     1     -22.804  19.391 -24.257  1.00  0.00     0.000 C 
BRANCH   6   7
ATOM      7  C   UNL     1     -22.880  20.140 -22.919  1.00  0.00    -0.000 C 
BRANCH   7   8
ATOM      8  C   UNL     1     -22.854  19.194 -21.709  1.00  0.00    -0.003 C 
ATOM      9  C   UNL     1     -22.120  17.885 -21.997  1.00  0.00     0.004 C 
ENDBRANCH   7   8
ENDBRANCH   6   7
ENDBRANCH   1   6
TORSDOF 5
ENDMDL
MODEL 5
REMARK VINA RESULT:    -3.611     15.465     16.545
REMARK INTER + INTRA:          -4.814
REMARK INTER:                  -4.416
REMARK INTRA:                  -0.399
REMARK UNBOUND:                -0.148
REMARK SMILES CCCCCCC(=O)[O-]
REMARK SMILES IDX 5 1 6 2 7 3 8 4 9 5 4 6 3 7 2 8 1 9
REMARK H PARENT
REMARK Flexibility Score: inf
ROOT
ATOM      1  C   UNL     1     -23.376  18.146 -24.723  1.00  0.00     0.006 C 
ENDROOT
BRANCH   1   2
ATOM      2  C   UNL     1     -22.414  17.402 -25.660  1.00  0.00     0.053 C 
BRANCH   2   3
ATOM      3  C   UNL     1     -21.295  18.284 -26.123  1.00  0.00     0.041 C 
ATOM      4  O   UNL     1     -20.634  18.958 -25.289  1.00  0.00    -0.550 OA
ATOM      5  O   UNL     1     -20.960  18.337 -27.470  1.00  0.00    -0.550 OA
ENDBRANCH   2   3
ENDBRANCH   1   2
BRANCH   1   6
ATOM      6  C   UNL     1     -23.519  17.448 -23.363  1.00  0.00     0.000 C 
BRANCH   6   7
ATOM      7  C   UNL     1     -22.420  17.906 -22.393  1.00  0.00    -0.000 C 
BRANCH   7   8
ATOM      8  C   UNL     1     -21.555  16.741 -21.887  1.00  0.00    -0.003 C 
ATOM      9  C   UNL     1     -20.284  16.545 -22.712  1.00  0.00     0.004 C 
ENDBRANCH   7   8
ENDBRANCH   6   7
ENDBRANCH   1   6
TORSDOF 5
ENDMDL
MODEL 6
REMARK VINA RESULT:    -3.602     15.142     16.124
REMARK INTER + INTRA:          -4.803
REMARK INTER:                  -4.431
REMARK INTRA:                  -0.372
REMARK UNBOUND:                -0.148
REMARK SMILES CCCCCCC(=O)[O-]
REMARK SMILES IDX 5 1 6 2 7 3 8 4 9 5 4 6 3 7 2 8 1 9
REMARK H PARENT
REMARK Flexibility Score: inf
ROOT
ATOM      1  C   UNL     1     -19.800  17.637 -24.258  1.00  0.00     0.006 C 
ENDROOT
BRANCH   1   2
ATOM      2  C   UNL     1     -20.655  18.625 -25.062  1.00  0.00     0.053 C 
BRANCH   2   3
ATOM      3  C   UNL     1     -21.589  17.920 -25.998  1.00  0.00     0.041 C 
ATOM      4  O   UNL     1     -21.146  17.377 -27.044  1.00  0.00    -0.550 OA
ATOM      5  O   UNL     1     -22.943  17.833 -25.698  1.00  0.00    -0.550 OA
ENDBRANCH   2   3
ENDBRANCH   1   2
BRANCH   1   6
ATOM      6  C   UNL     1     -20.644  16.523 -23.620  1.00  0.00     0.000 C 
BRANCH   6   7
ATOM      7  C   UNL     1     -21.043  16.891 -22.184  1.00  0.00    -0.000 C 
BRANCH   7   8
ATOM      8  C   UNL     1     -22.500  17.368 -22.080  1.00  0.00    -0.003 C 
ATOM      9  C   UNL     1     -22.615  18.872 -21.834  1.00  0.00     0.004 C 
ENDBRANCH   7   8
ENDBRANCH   6   7
ENDBRANCH   1   6
TORSDOF 5
ENDMDL
MODEL 7
REMARK VINA RESULT:    -3.600     15.201     16.438
REMARK INTER + INTRA:          -4.799
REMARK INTER:                  -4.419
REMARK INTRA:                  -0.380
REMARK UNBOUND:                -0.148
REMARK SMILES CCCCCCC(=O)[O-]
REMARK SMILES IDX 5 1 6 2 7 3 8 4 9 5 4 6 3 7 2 8 1 9
REMARK H PARENT
REMARK Flexibility Score: inf
ROOT
ATOM      1  C   UNL     1     -21.655  17.075 -23.397  1.00  0.00     0.006 C 
ENDROOT
BRANCH   1   2
ATOM      2  C   UNL     1     -21.850  17.609 -21.972  1.00  0.00     0.053 C 
BRANCH   2   3
ATOM      3  C   UNL     1     -22.792  18.773 -21.939  1.00  0.00     0.041 C 
ATOM      4  O   UNL     1     -22.585  19.733 -21.150  1.00  0.00    -0.550 OA
ATOM      5  O   UNL     1     -23.881  18.815 -22.802  1.00  0.00    -0.550 OA
ENDBRANCH   2   3
ENDBRANCH   1   2
BRANCH   1   6
ATOM      6  C   UNL     1     -20.199  17.199 -23.871  1.00  0.00     0.000 C 
BRANCH   6   7
ATOM      7  C   UNL     1     -20.052  18.329 -24.901  1.00  0.00    -0.000 C 
BRANCH   7   8
ATOM      8  C   UNL     1     -21.407  18.835 -25.420  1.00  0.00    -0.003 C 
ATOM      9  C   UNL     1     -21.598  20.336 -25.210  1.00  0.00     0.004 C 
ENDBRANCH   7   8
ENDBRANCH   6   7
ENDBRANCH   1   6
TORSDOF 5
ENDMDL
MODEL 8
REMARK VINA RESULT:    -3.527     16.078     16.949
REMARK INTER + INTRA:          -4.705
REMARK INTER:                  -4.534
REMARK INTRA:                  -0.171
REMARK UNBOUND:                -0.148
REMARK SMILES CCCCCCC(=O)[O-]
REMARK SMILES IDX 5 1 6 2 7 3 8 4 9 5 4 6 3 7 2 8 1 9
REMARK H PARENT
REMARK Flexibility Score: inf
ROOT
ATOM      1  C   UNL     1     -23.163  18.400 -24.566  1.00  0.00     0.006 C 
ENDROOT
BRANCH   1   2
ATOM      2  C   UNL     1     -22.516  17.568 -25.682  1.00  0.00     0.053 C 
BRANCH   2   3
ATOM      3  C   UNL     1     -21.272  18.215 -26.209  1.00  0.00     0.041 C 
ATOM      4  O   UNL     1     -20.314  18.471 -25.432  1.00  0.00    -0.550 OA
ATOM      5  O   UNL     1     -21.157  18.506 -27.563  1.00  0.00    -0.550 OA
ENDBRANCH   2   3
ENDBRANCH   1   2
BRANCH   1   6
ATOM      6  C   UNL     1     -23.798  17.521 -23.479  1.00  0.00     0.000 C 
BRANCH   6   7
ATOM      7  C   UNL     1     -24.078  18.336 -22.208  1.00  0.00    -0.000 C 
BRANCH   7   8
ATOM      8  C   UNL     1     -22.823  19.042 -21.670  1.00  0.00    -0.003 C 
ATOM      9  C   UNL     1     -23.095  20.479 -21.229  1.00  0.00     0.004 C 
ENDBRANCH   7   8
ENDBRANCH   6   7
ENDBRANCH   1   6
TORSDOF 5
ENDMDL
MODEL 9
REMARK VINA RESULT:    -3.517     17.213     18.090
REMARK INTER + INTRA:          -4.693
REMARK INTER:                  -4.427
REMARK INTRA:                  -0.265
REMARK UNBOUND:                -0.148
REMARK SMILES CCCCCCC(=O)[O-]
REMARK SMILES IDX 5 1 6 2 7 3 8 4 9 5 4 6 3 7 2 8 1 9
REMARK H PARENT
REMARK Flexibility Score: inf
ROOT
ATOM      1  C   UNL     1     -23.230  18.274 -24.864  1.00  0.00     0.006 C 
ENDROOT
BRANCH   1   2
ATOM      2  C   UNL     1     -22.454  19.152 -23.873  1.00  0.00     0.053 C 
BRANCH   2   3
ATOM      3  C   UNL     1     -22.514  20.601 -24.249  1.00  0.00     0.041 C 
ATOM      4  O   UNL     1     -23.085  21.429 -23.491  1.00  0.00    -0.550 OA
ATOM      5  O   UNL     1     -21.911  21.044 -25.421  1.00  0.00    -0.550 OA
ENDBRANCH   2   3
ENDBRANCH   1   2
BRANCH   1   6
ATOM      6  C   UNL     1     -22.373  17.128 -25.420  1.00  0.00     0.000 C 
BRANCH   6   7
ATOM      7  C   UNL     1     -21.007  17.644 -25.894  1.00  0.00    -0.000 C 
BRANCH   7   8
ATOM      8  C   UNL     1     -21.054  18.217 -27.319  1.00  0.00    -0.003 C 
ATOM      9  C   UNL     1     -20.624  17.204 -28.379  1.00  0.00     0.004 C 
ENDBRANCH   7   8
ENDBRANCH   6   7
ENDBRANCH   1   6
TORSDOF 5
ENDMDL
