MODEL 1
REMARK VINA RESULT:    -5.604      0.000      0.000
REMARK INTER + INTRA:          -7.913
REMARK INTER:                  -7.570
REMARK INTRA:                  -0.343
REMARK UNBOUND:                -0.343
REMARK SMILES CCCCCCC=CC(=O)[O-]
REMARK SMILES IDX 5 1 6 2 7 3 8 4 9 5 10 6 11 7 4 8 3 9 2 10 1 11
REMARK H PARENT
REMARK Flexibility Score: inf
ROOT
ATOM      1  C   UNL     1     129.138 124.571 128.243  1.00  0.00     0.004 C 
ENDROOT
BRANCH   1   2
ATOM      2  C   UNL     1     129.394 125.011 126.792  1.00  0.00     0.027 C 
BRANCH   2   3
ATOM      3  C   UNL     1     130.854 124.907 126.443  1.00  0.00    -0.025 C 
ATOM      4  C   UNL     1     131.690 125.937 126.238  1.00  0.00     0.020 C 
BRANCH   4   5
ATOM      5  C   UNL     1     131.345 127.373 126.270  1.00  0.00     0.064 C 
ATOM      6  O   UNL     1     131.094 127.963 125.187  1.00  0.00    -0.545 OA
ATOM      7  O   UNL     1     131.261 128.090 127.457  1.00  0.00    -0.545 OA
ENDBRANCH   4   5
ENDBRANCH   2   3
ENDBRANCH   1   2
BRANCH   1   8
ATOM      8  C   UNL     1     128.504 123.174 128.335  1.00  0.00     0.000 C 
BRANCH   8   9
ATOM      9  C   UNL     1     128.307 122.716 129.791  1.00  0.00    -0.000 C 
BRANCH   9  10
ATOM     10  C   UNL     1     128.619 123.828 130.804  1.00  0.00    -0.003 C 
ATOM     11  C   UNL     1     128.568 123.343 132.253  1.00  0.00     0.004 C 
ENDBRANCH   9  10
ENDBRANCH   8   9
ENDBRANCH   1   8
TORSDOF 6
ENDMDL
MODEL 2
REMARK VINA RESULT:    -5.365      1.400      1.797
REMARK INTER + INTRA:          -7.590
REMARK INTER:                  -7.147
REMARK INTRA:                  -0.442
REMARK UNBOUND:                -0.343
REMARK SMILES CCCCCCC=CC(=O)[O-]
REMARK SMILES IDX 5 1 6 2 7 3 8 4 9 5 10 6 11 7 4 8 3 9 2 10 1 11
REMARK H PARENT
REMARK Flexibility Score: inf
ROOT
ATOM      1  C   UNL     1     129.124 125.572 127.574  1.00  0.00     0.004 C 
ENDROOT
BRANCH   1   2
ATOM      2  C   UNL     1     130.496 126.227 127.347  1.00  0.00     0.027 C 
BRANCH   2   3
ATOM      3  C   UNL     1     131.204 125.610 126.172  1.00  0.00    -0.025 C 
ATOM      4  C   UNL     1     131.118 126.020 124.896  1.00  0.00     0.020 C 
BRANCH   4   5
ATOM      5  C   UNL     1     130.285 127.126 124.380  1.00  0.00     0.064 C 
ATOM      6  O   UNL     1     130.832 128.227 124.112  1.00  0.00    -0.545 OA
ATOM      7  O   UNL     1     128.921 126.985 124.154  1.00  0.00    -0.545 OA
ENDBRANCH   4   5
ENDBRANCH   2   3
ENDBRANCH   1   2
BRANCH   1   8
ATOM      8  C   UNL     1     129.203 124.039 127.634  1.00  0.00     0.000 C 
BRANCH   8   9
ATOM      9  C   UNL     1     128.615 123.474 128.939  1.00  0.00    -0.000 C 
BRANCH   9  10
ATOM     10  C   UNL     1     128.947 124.346 130.160  1.00  0.00    -0.003 C 
ATOM     11  C   UNL     1     128.579 123.679 131.485  1.00  0.00     0.004 C 
ENDBRANCH   9  10
ENDBRANCH   8   9
ENDBRANCH   1   8
TORSDOF 6
ENDMDL
MODEL 3
REMARK VINA RESULT:    -5.314      3.899      6.247
REMARK INTER + INTRA:          -7.521
REMARK INTER:                  -7.110
REMARK INTRA:                  -0.411
REMARK UNBOUND:                -0.343
REMARK SMILES CCCCCCC=CC(=O)[O-]
REMARK SMILES IDX 5 1 6 2 7 3 8 4 9 5 10 6 11 7 4 8 3 9 2 10 1 11
REMARK H PARENT
REMARK Flexibility Score: inf
ROOT
ATOM      1  C   UNL     1     128.568 126.691 124.200  1.00  0.00     0.004 C 
ENDROOT
BRANCH   1   2
ATOM      2  C   UNL     1     129.835 127.562 124.207  1.00  0.00     0.027 C 
BRANCH   2   3
ATOM      3  C   UNL     1     131.060 126.737 124.487  1.00  0.00    -0.025 C 
ATOM      4  C   UNL     1     131.586 126.493 125.698  1.00  0.00     0.020 C 
BRANCH   4   5
ATOM      5  C   UNL     1     131.099 127.015 126.992  1.00  0.00     0.064 C 
ATOM      6  O   UNL     1     131.509 128.137 127.389  1.00  0.00    -0.545 OA
ATOM      7  O   UNL     1     130.184 126.323 127.776  1.00  0.00    -0.545 OA
ENDBRANCH   4   5
ENDBRANCH   2   3
ENDBRANCH   1   2
BRANCH   1   8
ATOM      8  C   UNL     1     127.553 127.133 123.134  1.00  0.00     0.000 C 
BRANCH   8   9
ATOM      9  C   UNL     1     127.946 128.464 122.470  1.00  0.00    -0.000 C 
BRANCH   9  10
ATOM     10  C   UNL     1     126.741 129.191 121.852  1.00  0.00    -0.003 C 
ATOM     11  C   UNL     1     125.447 128.968 122.635  1.00  0.00     0.004 C 
ENDBRANCH   9  10
ENDBRANCH   8   9
ENDBRANCH   1   8
TORSDOF 6
ENDMDL
MODEL 4
REMARK VINA RESULT:    -5.086      3.390      5.612
REMARK INTER + INTRA:          -7.213
REMARK INTER:                  -6.606
REMARK INTRA:                  -0.607
REMARK UNBOUND:                -0.343
REMARK SMILES CCCCCCC=CC(=O)[O-]
REMARK SMILES IDX 5 1 6 2 7 3 8 4 9 5 10 6 11 7 4 8 3 9 2 10 1 11
REMARK H PARENT
REMARK Flexibility Score: inf
ROOT
ATOM      1  C   UNL     1     128.452 125.334 126.259  1.00  0.00     0.004 C 
ENDROOT
BRANCH   1   2
ATOM      2  C   UNL     1     129.290 124.398 127.146  1.00  0.00     0.027 C 
BRANCH   2   3
ATOM      3  C   UNL     1     129.269 124.846 128.581  1.00  0.00    -0.025 C 
ATOM      4  C   UNL     1     128.647 124.221 129.593  1.00  0.00     0.020 C 
BRANCH   4   5
ATOM      5  C   UNL     1     127.825 122.996 129.501  1.00  0.00     0.064 C 
ATOM      6  O   UNL     1     128.298 121.912 129.931  1.00  0.00    -0.545 OA
ATOM      7  O   UNL     1     126.537 123.003 128.979  1.00  0.00    -0.545 OA
ENDBRANCH   4   5
ENDBRANCH   2   3
ENDBRANCH   1   2
BRANCH   1   8
ATOM      8  C   UNL     1     129.320 126.272 125.406  1.00  0.00     0.000 C 
BRANCH   8   9
ATOM      9  C   UNL     1     130.790 125.819 125.350  1.00  0.00    -0.000 C 
BRANCH   9  10
ATOM     10  C   UNL     1     131.759 126.906 125.842  1.00  0.00    -0.003 C 
ATOM     11  C   UNL     1     131.235 127.660 127.064  1.00  0.00     0.004 C 
ENDBRANCH   9  10
ENDBRANCH   8   9
ENDBRANCH   1   8
TORSDOF 6
ENDMDL
MODEL 5
REMARK VINA RESULT:    -4.923      2.933      5.503
REMARK INTER + INTRA:          -6.993
REMARK INTER:                  -6.609
REMARK INTRA:                  -0.384
REMARK UNBOUND:                -0.343
REMARK SMILES CCCCCCC=CC(=O)[O-]
REMARK SMILES IDX 5 1 6 2 7 3 8 4 9 5 10 6 11 7 4 8 3 9 2 10 1 11
REMARK H PARENT
REMARK Flexibility Score: inf
ROOT
ATOM      1  C   UNL     1     127.920 125.490 127.755  1.00  0.00     0.004 C 
ENDROOT
BRANCH   1   2
ATOM      2  C   UNL     1     126.974 124.544 128.513  1.00  0.00     0.027 C 
BRANCH   2   3
ATOM      3  C   UNL     1     127.608 123.197 128.726  1.00  0.00    -0.025 C 
ATOM      4  C   UNL     1     128.304 122.816 129.809  1.00  0.00     0.020 C 
BRANCH   4   5
ATOM      5  C   UNL     1     128.624 123.646 130.989  1.00  0.00     0.064 C 
ATOM      6  O   UNL     1     128.295 123.234 132.131  1.00  0.00    -0.545 OA
ATOM      7  O   UNL     1     129.301 124.855 130.884  1.00  0.00    -0.545 OA
ENDBRANCH   4   5
ENDBRANCH   2   3
ENDBRANCH   1   2
BRANCH   1   8
ATOM      8  C   UNL     1     128.748 124.763 126.684  1.00  0.00     0.000 C 
BRANCH   8   9
ATOM      9  C   UNL     1     130.262 124.906 126.920  1.00  0.00    -0.000 C 
BRANCH   9  10
ATOM     10  C   UNL     1     130.907 125.945 125.989  1.00  0.00    -0.003 C 
ATOM     11  C   UNL     1     129.969 126.406 124.874  1.00  0.00     0.004 C 
ENDBRANCH   9  10
ENDBRANCH   8   9
ENDBRANCH   1   8
TORSDOF 6
ENDMDL
MODEL 6
REMARK VINA RESULT:    -4.836      4.868      7.297
REMARK INTER + INTRA:          -6.876
REMARK INTER:                  -6.626
REMARK INTRA:                  -0.250
REMARK UNBOUND:                -0.343
REMARK SMILES CCCCCCC=CC(=O)[O-]
REMARK SMILES IDX 5 1 6 2 7 3 8 4 9 5 10 6 11 7 4 8 3 9 2 10 1 11
REMARK H PARENT
REMARK Flexibility Score: inf
ROOT
ATOM      1  C   UNL     1     127.552 127.060 122.501  1.00  0.00     0.004 C 
ENDROOT
BRANCH   1   2
ATOM      2  C   UNL     1     128.530 127.340 123.654  1.00  0.00     0.027 C 
BRANCH   2   3
ATOM      3  C   UNL     1     128.336 126.361 124.780  1.00  0.00    -0.025 C 
ATOM      4  C   UNL     1     129.131 126.227 125.853  1.00  0.00     0.020 C 
BRANCH   4   5
ATOM      5  C   UNL     1     130.375 126.976 126.129  1.00  0.00     0.064 C 
ATOM      6  O   UNL     1     130.349 127.909 126.973  1.00  0.00    -0.545 OA
ATOM      7  O   UNL     1     131.579 126.670 125.507  1.00  0.00    -0.545 OA
ENDBRANCH   4   5
ENDBRANCH   2   3
ENDBRANCH   1   2
BRANCH   1   8
ATOM      8  C   UNL     1     126.440 128.117 122.401  1.00  0.00     0.000 C 
BRANCH   8   9
ATOM      9  C   UNL     1     126.932 129.423 121.753  1.00  0.00    -0.000 C 
BRANCH   9  10
ATOM     10  C   UNL     1     125.935 130.579 121.930  1.00  0.00    -0.003 C 
ATOM     11  C   UNL     1     126.532 131.939 121.566  1.00  0.00     0.004 C 
ENDBRANCH   9  10
ENDBRANCH   8   9
ENDBRANCH   1   8
TORSDOF 6
ENDMDL
MODEL 7
REMARK VINA RESULT:    -4.680      4.492      6.800
REMARK INTER + INTRA:          -6.664
REMARK INTER:                  -6.478
REMARK INTRA:                  -0.186
REMARK UNBOUND:                -0.343
REMARK SMILES CCCCCCC=CC(=O)[O-]
REMARK SMILES IDX 5 1 6 2 7 3 8 4 9 5 10 6 11 7 4 8 3 9 2 10 1 11
REMARK H PARENT
REMARK Flexibility Score: inf
ROOT
ATOM      1  C   UNL     1     128.665 126.656 123.279  1.00  0.00     0.004 C 
ENDROOT
BRANCH   1   2
ATOM      2  C   UNL     1     129.161 126.765 124.731  1.00  0.00     0.027 C 
BRANCH   2   3
ATOM      3  C   UNL     1     128.265 126.003 125.669  1.00  0.00    -0.025 C 
ATOM      4  C   UNL     1     128.623 124.945 126.414  1.00  0.00     0.020 C 
BRANCH   4   5
ATOM      5  C   UNL     1     129.947 124.289 126.436  1.00  0.00     0.064 C 
ATOM      6  O   UNL     1     130.951 124.955 126.803  1.00  0.00    -0.545 OA
ATOM      7  O   UNL     1     130.121 122.955 126.091  1.00  0.00    -0.545 OA
ENDBRANCH   4   5
ENDBRANCH   2   3
ENDBRANCH   1   2
BRANCH   1   8
ATOM      8  C   UNL     1     127.435 127.537 123.007  1.00  0.00     0.000 C 
BRANCH   8   9
ATOM      9  C   UNL     1     127.729 128.652 121.988  1.00  0.00    -0.000 C 
BRANCH   9  10
ATOM     10  C   UNL     1     126.559 129.637 121.841  1.00  0.00    -0.003 C 
ATOM     11  C   UNL     1     125.335 129.232 122.662  1.00  0.00     0.004 C 
ENDBRANCH   9  10
ENDBRANCH   8   9
ENDBRANCH   1   8
TORSDOF 6
ENDMDL
MODEL 8
REMARK VINA RESULT:    -4.462      1.782      2.255
REMARK INTER + INTRA:          -6.371
REMARK INTER:                  -6.250
REMARK INTRA:                  -0.120
REMARK UNBOUND:                -0.343
REMARK SMILES CCCCCCC=CC(=O)[O-]
REMARK SMILES IDX 5 1 6 2 7 3 8 4 9 5 10 6 11 7 4 8 3 9 2 10 1 11
REMARK H PARENT
REMARK Flexibility Score: inf
ROOT
ATOM      1  C   UNL     1     129.518 124.499 126.228  1.00  0.00     0.004 C 
ENDROOT
BRANCH   1   2
ATOM      2  C   UNL     1     130.923 125.100 126.394  1.00  0.00     0.027 C 
BRANCH   2   3
ATOM      3  C   UNL     1     131.492 125.525 125.067  1.00  0.00    -0.025 C 
ATOM      4  C   UNL     1     131.121 126.603 124.360  1.00  0.00     0.020 C 
BRANCH   4   5
ATOM      5  C   UNL     1     130.055 127.565 124.712  1.00  0.00     0.064 C 
ATOM      6  O   UNL     1     129.184 127.852 123.849  1.00  0.00    -0.545 OA
ATOM      7  O   UNL     1     129.966 128.146 125.970  1.00  0.00    -0.545 OA
ENDBRANCH   4   5
ENDBRANCH   2   3
ENDBRANCH   1   2
BRANCH   1   8
ATOM      8  C   UNL     1     129.229 123.383 127.245  1.00  0.00     0.000 C 
BRANCH   8   9
ATOM      9  C   UNL     1     128.777 123.938 128.607  1.00  0.00    -0.000 C 
BRANCH   9  10
ATOM     10  C   UNL     1     127.588 124.903 128.484  1.00  0.00    -0.003 C 
ATOM     11  C   UNL     1     126.295 124.328 129.063  1.00  0.00     0.004 C 
ENDBRANCH   9  10
ENDBRANCH   8   9
ENDBRANCH   1   8
TORSDOF 6
ENDMDL
MODEL 9
REMARK VINA RESULT:    -4.390     13.986     15.027
REMARK INTER + INTRA:          -6.273
REMARK INTER:                  -5.945
REMARK INTRA:                  -0.328
REMARK UNBOUND:                -0.343
REMARK SMILES CCCCCCC=CC(=O)[O-]
REMARK SMILES IDX 5 1 6 2 7 3 8 4 9 5 10 6 11 7 4 8 3 9 2 10 1 11
REMARK H PARENT
REMARK Flexibility Score: inf
ROOT
ATOM      1  C   UNL     1     118.543 130.684 124.368  1.00  0.00     0.004 C 
ENDROOT
BRANCH   1   2
ATOM      2  C   UNL     1     117.702 131.283 125.507  1.00  0.00     0.027 C 
BRANCH   2   3
ATOM      3  C   UNL     1     116.347 131.712 125.014  1.00  0.00    -0.025 C 
ATOM      4  C   UNL     1     115.197 131.632 125.702  1.00  0.00     0.020 C 
BRANCH   4   5
ATOM      5  C   UNL     1     115.017 131.071 127.057  1.00  0.00     0.064 C 
ATOM      6  O   UNL     1     114.801 131.855 128.017  1.00  0.00    -0.545 OA
ATOM      7  O   UNL     1     115.052 129.705 127.305  1.00  0.00    -0.545 OA
ENDBRANCH   4   5
ENDBRANCH   2   3
ENDBRANCH   1   2
BRANCH   1   8
ATOM      8  C   UNL     1     118.906 129.211 124.612  1.00  0.00     0.000 C 
BRANCH   8   9
ATOM      9  C   UNL     1     119.376 128.504 123.329  1.00  0.00    -0.000 C 
BRANCH   9  10
ATOM     10  C   UNL     1     118.855 129.189 122.056  1.00  0.00    -0.003 C 
ATOM     11  C   UNL     1     119.189 128.410 120.783  1.00  0.00     0.004 C 
ENDBRANCH   9  10
ENDBRANCH   8   9
ENDBRANCH   1   8
TORSDOF 6
ENDMDL
