MODEL 1
REMARK VINA RESULT:    -4.742      0.000      0.000
REMARK INTER + INTRA:          -5.208
REMARK INTER:                  -5.158
REMARK INTRA:                  -0.050
REMARK UNBOUND:                -0.050
REMARK SMILES COc1cc2ccc(=O)oc2cc1O
REMARK SMILES IDX 3 1 13 2 12 3 11 4 5 5 4 6 6 7 7 8 8 9 9 10 10 11 2 12 1 13
REMARK SMILES IDX 14 14
REMARK H PARENT 14 15
REMARK Flexibility Score: inf
ROOT
ATOM      1  C   UNL     1      18.031 129.617  57.228  1.00  0.00     0.161 A 
ATOM      2  C   UNL     1      18.795 130.488  56.427  1.00  0.00     0.161 A 
ATOM      3  C   UNL     1      18.736 130.398  55.032  1.00  0.00     0.098 A 
ATOM      4  C   UNL     1      17.919 129.446  54.419  1.00  0.00     0.142 A 
ATOM      5  C   UNL     1      17.149 128.570  55.211  1.00  0.00     0.022 A 
ATOM      6  C   UNL     1      17.206 128.656  56.609  1.00  0.00     0.062 A 
ATOM      7  C   UNL     1      16.341 127.627  54.568  1.00  0.00     0.019 A 
ATOM      8  C   UNL     1      16.318 127.580  53.175  1.00  0.00     0.094 A 
ATOM      9  C   UNL     1      17.108 128.482  52.454  1.00  0.00     0.336 A 
ATOM     10  O   UNL     1      17.102 128.456  51.196  1.00  0.00    -0.246 OA
ATOM     11  O   UNL     1      17.868 129.369  53.091  1.00  0.00    -0.423 OA
ENDROOT
BRANCH   1  12
ATOM     12  O   UNL     1      18.114 129.734  58.625  1.00  0.00    -0.493 OA
ATOM     13  C   UNL     1      16.995 129.727  59.505  1.00  0.00     0.278 C 
ENDBRANCH   1  12
BRANCH   2  14
ATOM     14  O   UNL     1      19.624 131.452  57.002  1.00  0.00    -0.504 OA
ATOM     15  H   UNL     1      20.270 132.007  56.452  1.00  0.00     0.293 HD
ENDBRANCH   2  14
TORSDOF 2
ENDMDL
MODEL 2
REMARK VINA RESULT:    -4.725      1.500      5.045
REMARK INTER + INTRA:          -5.190
REMARK INTER:                  -5.195
REMARK INTRA:                   0.005
REMARK UNBOUND:                -0.050
REMARK SMILES COc1cc2ccc(=O)oc2cc1O
REMARK SMILES IDX 3 1 13 2 12 3 11 4 5 5 4 6 6 7 7 8 8 9 9 10 10 11 2 12 1 13
REMARK SMILES IDX 14 14
REMARK H PARENT 14 15
REMARK Flexibility Score: inf
ROOT
ATOM      1  C   UNL     1      17.080 128.045  54.611  1.00  0.00     0.161 A 
ATOM      2  C   UNL     1      18.266 128.676  55.031  1.00  0.00     0.161 A 
ATOM      3  C   UNL     1      18.375 129.177  56.333  1.00  0.00     0.098 A 
ATOM      4  C   UNL     1      17.311 129.055  57.229  1.00  0.00     0.142 A 
ATOM      5  C   UNL     1      16.119 128.423  56.819  1.00  0.00     0.022 A 
ATOM      6  C   UNL     1      16.005 127.921  55.516  1.00  0.00     0.062 A 
ATOM      7  C   UNL     1      15.071 128.316  57.738  1.00  0.00     0.019 A 
ATOM      8  C   UNL     1      15.232 128.832  59.024  1.00  0.00     0.094 A 
ATOM      9  C   UNL     1      16.444 129.445  59.361  1.00  0.00     0.336 A 
ATOM     10  O   UNL     1      16.609 129.916  60.516  1.00  0.00    -0.246 OA
ATOM     11  O   UNL     1      17.425 129.533  58.466  1.00  0.00    -0.423 OA
ENDROOT
BRANCH   1  12
ATOM     12  O   UNL     1      17.003 127.553  53.297  1.00  0.00    -0.493 OA
ATOM     13  C   UNL     1      16.743 128.353  52.148  1.00  0.00     0.278 C 
ENDBRANCH   1  12
BRANCH   2  14
ATOM     14  O   UNL     1      19.351 128.818  54.166  1.00  0.00    -0.504 OA
ATOM     15  H   UNL     1      19.717 129.725  53.903  1.00  0.00     0.293 HD
ENDBRANCH   2  14
TORSDOF 2
ENDMDL
MODEL 3
REMARK VINA RESULT:    -4.671      1.843      4.630
REMARK INTER + INTRA:          -5.130
REMARK INTER:                  -5.066
REMARK INTRA:                  -0.064
REMARK UNBOUND:                -0.050
REMARK SMILES COc1cc2ccc(=O)oc2cc1O
REMARK SMILES IDX 3 1 13 2 12 3 11 4 5 5 4 6 6 7 7 8 8 9 9 10 10 11 2 12 1 13
REMARK SMILES IDX 14 14
REMARK H PARENT 14 15
REMARK Flexibility Score: inf
ROOT
ATOM      1  C   UNL     1      19.438 130.057  55.744  1.00  0.00     0.161 A 
ATOM      2  C   UNL     1      18.642 129.254  54.904  1.00  0.00     0.161 A 
ATOM      3  C   UNL     1      17.473 128.664  55.394  1.00  0.00     0.098 A 
ATOM      4  C   UNL     1      17.081 128.865  56.720  1.00  0.00     0.142 A 
ATOM      5  C   UNL     1      17.870 129.667  57.568  1.00  0.00     0.022 A 
ATOM      6  C   UNL     1      19.043 130.260  57.082  1.00  0.00     0.062 A 
ATOM      7  C   UNL     1      17.452 129.850  58.890  1.00  0.00     0.019 A 
ATOM      8  C   UNL     1      16.277 129.240  59.328  1.00  0.00     0.094 A 
ATOM      9  C   UNL     1      15.544 128.457  58.429  1.00  0.00     0.336 A 
ATOM     10  O   UNL     1      14.481 127.898  58.804  1.00  0.00    -0.246 OA
ATOM     11  O   UNL     1      15.965 128.300  57.176  1.00  0.00    -0.423 OA
ENDROOT
BRANCH   1  12
ATOM     12  O   UNL     1      20.607 130.634  55.220  1.00  0.00    -0.493 OA
ATOM     13  C   UNL     1      20.753 132.012  54.895  1.00  0.00     0.278 C 
ENDBRANCH   1  12
BRANCH   2  14
ATOM     14  O   UNL     1      19.000 129.029  53.574  1.00  0.00    -0.504 OA
ATOM     15  H   UNL     1      19.949 128.800  53.302  1.00  0.00     0.293 HD
ENDBRANCH   2  14
TORSDOF 2
ENDMDL
MODEL 4
REMARK VINA RESULT:    -4.479      3.339      6.108
REMARK INTER + INTRA:          -4.921
REMARK INTER:                  -4.873
REMARK INTRA:                  -0.049
REMARK UNBOUND:                -0.050
REMARK SMILES COc1cc2ccc(=O)oc2cc1O
REMARK SMILES IDX 3 1 13 2 12 3 11 4 5 5 4 6 6 7 7 8 8 9 9 10 10 11 2 12 1 13
REMARK SMILES IDX 14 14
REMARK H PARENT 14 15
REMARK Flexibility Score: inf
ROOT
ATOM      1  C   UNL     1      17.020 129.561  50.028  1.00  0.00     0.161 A 
ATOM      2  C   UNL     1      16.151 130.641  50.279  1.00  0.00     0.161 A 
ATOM      3  C   UNL     1      15.497 130.748  51.511  1.00  0.00     0.098 A 
ATOM      4  C   UNL     1      15.699 129.787  52.505  1.00  0.00     0.142 A 
ATOM      5  C   UNL     1      16.567 128.702  52.264  1.00  0.00     0.022 A 
ATOM      6  C   UNL     1      17.224 128.591  51.031  1.00  0.00     0.062 A 
ATOM      7  C   UNL     1      16.749 127.756  53.278  1.00  0.00     0.019 A 
ATOM      8  C   UNL     1      16.073 127.911  54.488  1.00  0.00     0.094 A 
ATOM      9  C   UNL     1      15.228 129.012  54.656  1.00  0.00     0.336 A 
ATOM     10  O   UNL     1      14.608 129.170  55.740  1.00  0.00    -0.246 OA
ATOM     11  O   UNL     1      15.073 129.898  53.675  1.00  0.00    -0.423 OA
ENDROOT
BRANCH   1  12
ATOM     12  O   UNL     1      17.661 129.484  48.781  1.00  0.00    -0.493 OA
ATOM     13  C   UNL     1      17.820 128.288  48.026  1.00  0.00     0.278 C 
ENDBRANCH   1  12
BRANCH   2  14
ATOM     14  O   UNL     1      15.923 131.620  49.313  1.00  0.00    -0.504 OA
ATOM     15  H   UNL     1      15.759 131.391  48.340  1.00  0.00     0.293 HD
ENDBRANCH   2  14
TORSDOF 2
ENDMDL
MODEL 5
REMARK VINA RESULT:    -4.426      2.762      3.606
REMARK INTER + INTRA:          -4.864
REMARK INTER:                  -4.801
REMARK INTRA:                  -0.064
REMARK UNBOUND:                -0.050
REMARK SMILES COc1cc2ccc(=O)oc2cc1O
REMARK SMILES IDX 3 1 13 2 12 3 11 4 5 5 4 6 6 7 7 8 8 9 9 10 10 11 2 12 1 13
REMARK SMILES IDX 14 14
REMARK H PARENT 14 15
REMARK Flexibility Score: inf
ROOT
ATOM      1  C   UNL     1      15.380 129.180  54.901  1.00  0.00     0.161 A 
ATOM      2  C   UNL     1      16.051 127.953  54.738  1.00  0.00     0.161 A 
ATOM      3  C   UNL     1      16.651 127.635  53.515  1.00  0.00     0.098 A 
ATOM      4  C   UNL     1      16.593 128.531  52.444  1.00  0.00     0.142 A 
ATOM      5  C   UNL     1      15.924 129.762  52.598  1.00  0.00     0.022 A 
ATOM      6  C   UNL     1      15.321 130.084  53.821  1.00  0.00     0.062 A 
ATOM      7  C   UNL     1      15.882 130.638  51.508  1.00  0.00     0.019 A 
ATOM      8  C   UNL     1      16.497 130.272  50.311  1.00  0.00     0.094 A 
ATOM      9  C   UNL     1      17.143 129.034  50.232  1.00  0.00     0.336 A 
ATOM     10  O   UNL     1      17.704 128.685  49.161  1.00  0.00    -0.246 OA
ATOM     11  O   UNL     1      17.168 128.220  51.285  1.00  0.00    -0.423 OA
ENDROOT
BRANCH   1  12
ATOM     12  O   UNL     1      14.788 129.468  56.142  1.00  0.00    -0.493 OA
ATOM     13  C   UNL     1      15.299 130.405  57.085  1.00  0.00     0.278 C 
ENDBRANCH   1  12
BRANCH   2  14
ATOM     14  O   UNL     1      16.131 127.032  55.783  1.00  0.00    -0.504 OA
ATOM     15  H   UNL     1      15.334 126.482  56.080  1.00  0.00     0.293 HD
ENDBRANCH   2  14
TORSDOF 2
ENDMDL
MODEL 6
REMARK VINA RESULT:    -4.406      8.671      9.949
REMARK INTER + INTRA:          -4.842
REMARK INTER:                  -4.797
REMARK INTRA:                  -0.046
REMARK UNBOUND:                -0.050
REMARK SMILES COc1cc2ccc(=O)oc2cc1O
REMARK SMILES IDX 3 1 13 2 12 3 11 4 5 5 4 6 6 7 7 8 8 9 9 10 10 11 2 12 1 13
REMARK SMILES IDX 14 14
REMARK H PARENT 14 15
REMARK Flexibility Score: inf
ROOT
ATOM      1  C   UNL     1      17.640 125.987  63.062  1.00  0.00     0.161 A 
ATOM      2  C   UNL     1      16.324 125.963  63.563  1.00  0.00     0.161 A 
ATOM      3  C   UNL     1      15.777 127.103  64.160  1.00  0.00     0.098 A 
ATOM      4  C   UNL     1      16.528 128.277  64.265  1.00  0.00     0.142 A 
ATOM      5  C   UNL     1      17.846 128.311  63.766  1.00  0.00     0.022 A 
ATOM      6  C   UNL     1      18.398 127.171  63.168  1.00  0.00     0.062 A 
ATOM      7  C   UNL     1      18.572 129.500  63.886  1.00  0.00     0.019 A 
ATOM      8  C   UNL     1      17.979 130.608  64.489  1.00  0.00     0.094 A 
ATOM      9  C   UNL     1      16.666 130.501  64.961  1.00  0.00     0.336 A 
ATOM     10  O   UNL     1      16.112 131.489  65.509  1.00  0.00    -0.246 OA
ATOM     11  O   UNL     1      15.997 129.357  64.834  1.00  0.00    -0.423 OA
ENDROOT
BRANCH   1  12
ATOM     12  O   UNL     1      18.160 124.825  62.468  1.00  0.00    -0.493 OA
ATOM     13  C   UNL     1      19.530 124.442  62.502  1.00  0.00     0.278 C 
ENDBRANCH   1  12
BRANCH   2  14
ATOM     14  O   UNL     1      15.543 124.811  63.478  1.00  0.00    -0.504 OA
ATOM     15  H   UNL     1      14.667 124.714  63.977  1.00  0.00     0.293 HD
ENDBRANCH   2  14
TORSDOF 2
ENDMDL
MODEL 7
REMARK VINA RESULT:    -4.395      1.763      2.504
REMARK INTER + INTRA:          -4.830
REMARK INTER:                  -4.770
REMARK INTRA:                  -0.061
REMARK UNBOUND:                -0.050
REMARK SMILES COc1cc2ccc(=O)oc2cc1O
REMARK SMILES IDX 3 1 13 2 12 3 11 4 5 5 4 6 6 7 7 8 8 9 9 10 10 11 2 12 1 13
REMARK SMILES IDX 14 14
REMARK H PARENT 14 15
REMARK Flexibility Score: inf
ROOT
ATOM      1  C   UNL     1      17.363 129.953  59.552  1.00  0.00     0.161 A 
ATOM      2  C   UNL     1      18.585 130.224  58.906  1.00  0.00     0.161 A 
ATOM      3  C   UNL     1      18.781 129.836  57.576  1.00  0.00     0.098 A 
ATOM      4  C   UNL     1      17.768 129.178  56.875  1.00  0.00     0.142 A 
ATOM      5  C   UNL     1      16.541 128.903  57.512  1.00  0.00     0.022 A 
ATOM      6  C   UNL     1      16.340 129.289  58.843  1.00  0.00     0.062 A 
ATOM      7  C   UNL     1      15.546 128.242  56.784  1.00  0.00     0.019 A 
ATOM      8  C   UNL     1      15.793 127.878  55.460  1.00  0.00     0.094 A 
ATOM      9  C   UNL     1      17.035 128.184  54.894  1.00  0.00     0.336 A 
ATOM     10  O   UNL     1      17.278 127.864  53.702  1.00  0.00    -0.246 OA
ATOM     11  O   UNL     1      17.964 128.813  55.610  1.00  0.00    -0.423 OA
ENDROOT
BRANCH   1  12
ATOM     12  O   UNL     1      17.199 130.357  60.887  1.00  0.00    -0.493 OA
ATOM     13  C   UNL     1      17.458 129.533  62.019  1.00  0.00     0.278 C 
ENDBRANCH   1  12
BRANCH   2  14
ATOM     14  O   UNL     1      19.621 130.879  59.573  1.00  0.00    -0.504 OA
ATOM     15  H   UNL     1      20.099 130.466  60.365  1.00  0.00     0.293 HD
ENDBRANCH   2  14
TORSDOF 2
ENDMDL
MODEL 8
REMARK VINA RESULT:    -4.394      1.426      5.364
REMARK INTER + INTRA:          -4.829
REMARK INTER:                  -4.764
REMARK INTRA:                  -0.065
REMARK UNBOUND:                -0.050
REMARK SMILES COc1cc2ccc(=O)oc2cc1O
REMARK SMILES IDX 3 1 13 2 12 3 11 4 5 5 4 6 6 7 7 8 8 9 9 10 10 11 2 12 1 13
REMARK SMILES IDX 14 14
REMARK H PARENT 14 15
REMARK Flexibility Score: inf
ROOT
ATOM      1  C   UNL     1      16.938 128.535  53.090  1.00  0.00     0.161 A 
ATOM      2  C   UNL     1      15.711 128.499  53.781  1.00  0.00     0.161 A 
ATOM      3  C   UNL     1      15.664 128.780  55.151  1.00  0.00     0.098 A 
ATOM      4  C   UNL     1      16.832 129.100  55.847  1.00  0.00     0.142 A 
ATOM      5  C   UNL     1      18.066 129.139  55.165  1.00  0.00     0.022 A 
ATOM      6  C   UNL     1      18.117 128.857  53.793  1.00  0.00     0.062 A 
ATOM      7  C   UNL     1      19.217 129.462  55.889  1.00  0.00     0.019 A 
ATOM      8  C   UNL     1      19.115 129.734  57.253  1.00  0.00     0.094 A 
ATOM      9  C   UNL     1      17.858 129.677  57.863  1.00  0.00     0.336 A 
ATOM     10  O   UNL     1      17.744 129.919  59.093  1.00  0.00    -0.246 OA
ATOM     11  O   UNL     1      16.778 129.367  57.150  1.00  0.00    -0.423 OA
ENDROOT
BRANCH   1  12
ATOM     12  O   UNL     1      16.949 128.247  51.716  1.00  0.00    -0.493 OA
ATOM     13  C   UNL     1      16.997 129.227  50.684  1.00  0.00     0.278 C 
ENDBRANCH   1  12
BRANCH   2  14
ATOM     14  O   UNL     1      14.523 128.183  53.121  1.00  0.00    -0.504 OA
ATOM     15  H   UNL     1      14.496 127.552  52.329  1.00  0.00     0.293 HD
ENDBRANCH   2  14
TORSDOF 2
ENDMDL
MODEL 9
REMARK VINA RESULT:    -4.174      2.049      3.288
REMARK INTER + INTRA:          -4.590
REMARK INTER:                  -4.531
REMARK INTRA:                  -0.059
REMARK UNBOUND:                -0.050
REMARK SMILES COc1cc2ccc(=O)oc2cc1O
REMARK SMILES IDX 3 1 13 2 12 3 11 4 5 5 4 6 6 7 7 8 8 9 9 10 10 11 2 12 1 13
REMARK SMILES IDX 14 14
REMARK H PARENT 14 15
REMARK Flexibility Score: inf
ROOT
ATOM      1  C   UNL     1      16.500 129.282  59.013  1.00  0.00     0.161 A 
ATOM      2  C   UNL     1      15.326 128.546  58.761  1.00  0.00     0.161 A 
ATOM      3  C   UNL     1      15.080 128.024  57.487  1.00  0.00     0.098 A 
ATOM      4  C   UNL     1      15.996 128.225  56.452  1.00  0.00     0.142 A 
ATOM      5  C   UNL     1      17.175 128.960  56.693  1.00  0.00     0.022 A 
ATOM      6  C   UNL     1      17.425 129.485  57.968  1.00  0.00     0.062 A 
ATOM      7  C   UNL     1      18.073 129.145  55.637  1.00  0.00     0.019 A 
ATOM      8  C   UNL     1      17.780 128.602  54.386  1.00  0.00     0.094 A 
ATOM      9  C   UNL     1      16.591 127.884  54.220  1.00  0.00     0.336 A 
ATOM     10  O   UNL     1      16.308 127.386  53.100  1.00  0.00    -0.246 OA
ATOM     11  O   UNL     1      15.754 127.723  55.243  1.00  0.00    -0.423 OA
ENDROOT
BRANCH   1  12
ATOM     12  O   UNL     1      16.715 129.793  60.303  1.00  0.00    -0.493 OA
ATOM     13  C   UNL     1      17.790 129.412  61.155  1.00  0.00     0.278 C 
ENDBRANCH   1  12
BRANCH   2  14
ATOM     14  O   UNL     1      14.387 128.324  59.769  1.00  0.00    -0.504 OA
ATOM     15  H   UNL     1      13.406 128.170  59.568  1.00  0.00     0.293 HD
ENDBRANCH   2  14
TORSDOF 2
ENDMDL
