MODEL 1
REMARK VINA RESULT:    -4.601      0.000      0.000
REMARK INTER + INTRA:          -6.214
REMARK INTER:                  -5.946
REMARK INTRA:                  -0.268
REMARK UNBOUND:                -0.268
REMARK SMILES C=CC(=O)CCCCC
REMARK SMILES IDX 6 1 7 2 8 3 9 4 5 5 3 6 4 7 2 8 1 9
REMARK H PARENT
REMARK Flexibility Score: inf
ROOT
ATOM      1  C   UNL     1     -25.922  19.359 -33.178  1.00  0.00     0.008 C 
ENDROOT
BRANCH   1   2
ATOM      2  C   UNL     1     -27.370  19.878 -33.203  1.00  0.00     0.000 C 
BRANCH   2   3
ATOM      3  C   UNL     1     -27.498  21.234 -33.915  1.00  0.00    -0.003 C 
ATOM      4  C   UNL     1     -27.649  22.403 -32.941  1.00  0.00     0.004 C 
ENDBRANCH   2   3
ENDBRANCH   1   2
BRANCH   1   5
ATOM      5  C   UNL     1     -25.039  20.052 -34.225  1.00  0.00     0.080 C 
BRANCH   5   6
ATOM      6  C   UNL     1     -23.579  19.953 -33.886  1.00  0.00     0.155 C 
ATOM      7  O   UNL     1     -22.881  19.046 -34.414  1.00  0.00    -0.295 OA
BRANCH   6   8
ATOM      8  C   UNL     1     -22.979  20.895 -32.921  1.00  0.00     0.039 C 
ATOM      9  C   UNL     1     -22.523  20.508 -31.731  1.00  0.00     0.012 C 
ENDBRANCH   6   8
ENDBRANCH   5   6
ENDBRANCH   1   5
TORSDOF 5
ENDMDL
MODEL 2
REMARK VINA RESULT:    -4.386      2.136      4.799
REMARK INTER + INTRA:          -5.935
REMARK INTER:                  -5.800
REMARK INTRA:                  -0.136
REMARK UNBOUND:                -0.268
REMARK SMILES C=CC(=O)CCCCC
REMARK SMILES IDX 6 1 7 2 8 3 9 4 5 5 3 6 4 7 2 8 1 9
REMARK H PARENT
REMARK Flexibility Score: inf
ROOT
ATOM      1  C   UNL     1     -25.253  19.406 -33.205  1.00  0.00     0.008 C 
ENDROOT
BRANCH   1   2
ATOM      2  C   UNL     1     -24.263  19.884 -34.281  1.00  0.00     0.000 C 
BRANCH   2   3
ATOM      3  C   UNL     1     -22.878  20.214 -33.704  1.00  0.00    -0.003 C 
ATOM      4  C   UNL     1     -22.949  21.090 -32.453  1.00  0.00     0.004 C 
ENDBRANCH   2   3
ENDBRANCH   1   2
BRANCH   1   5
ATOM      5  C   UNL     1     -26.681  19.899 -33.470  1.00  0.00     0.080 C 
BRANCH   5   6
ATOM      6  C   UNL     1     -27.707  19.071 -32.749  1.00  0.00     0.155 C 
ATOM      7  O   UNL     1     -27.386  17.934 -32.310  1.00  0.00    -0.295 OA
BRANCH   6   8
ATOM      8  C   UNL     1     -29.082  19.580 -32.583  1.00  0.00     0.039 C 
ATOM      9  C   UNL     1     -30.119  19.064 -33.241  1.00  0.00     0.012 C 
ENDBRANCH   6   8
ENDBRANCH   5   6
ENDBRANCH   1   5
TORSDOF 5
ENDMDL
MODEL 3
REMARK VINA RESULT:    -4.379      1.705      4.305
REMARK INTER + INTRA:          -5.927
REMARK INTER:                  -5.698
REMARK INTRA:                  -0.230
REMARK UNBOUND:                -0.268
REMARK SMILES C=CC(=O)CCCCC
REMARK SMILES IDX 6 1 7 2 8 3 9 4 5 5 3 6 4 7 2 8 1 9
REMARK H PARENT
REMARK Flexibility Score: inf
ROOT
ATOM      1  C   UNL     1     -24.744  20.001 -34.287  1.00  0.00     0.008 C 
ENDROOT
BRANCH   1   2
ATOM      2  C   UNL     1     -23.258  20.053 -33.893  1.00  0.00     0.000 C 
BRANCH   2   3
ATOM      3  C   UNL     1     -22.982  21.060 -32.765  1.00  0.00    -0.003 C 
ATOM      4  C   UNL     1     -22.489  20.392 -31.482  1.00  0.00     0.004 C 
ENDBRANCH   2   3
ENDBRANCH   1   2
BRANCH   1   5
ATOM      5  C   UNL     1     -25.646  19.630 -33.102  1.00  0.00     0.080 C 
BRANCH   5   6
ATOM      6  C   UNL     1     -27.104  19.730 -33.450  1.00  0.00     0.155 C 
ATOM      7  O   UNL     1     -27.809  18.686 -33.466  1.00  0.00    -0.295 OA
BRANCH   6   8
ATOM      8  C   UNL     1     -27.693  21.039 -33.795  1.00  0.00     0.039 C 
ATOM      9  C   UNL     1     -27.483  22.132 -33.064  1.00  0.00     0.012 C 
ENDBRANCH   6   8
ENDBRANCH   5   6
ENDBRANCH   1   5
TORSDOF 5
ENDMDL
MODEL 4
REMARK VINA RESULT:    -4.351      1.480      1.627
REMARK INTER + INTRA:          -5.890
REMARK INTER:                  -5.641
REMARK INTRA:                  -0.249
REMARK UNBOUND:                -0.268
REMARK SMILES C=CC(=O)CCCCC
REMARK SMILES IDX 6 1 7 2 8 3 9 4 5 5 3 6 4 7 2 8 1 9
REMARK H PARENT
REMARK Flexibility Score: inf
ROOT
ATOM      1  C   UNL     1     -26.696  18.946 -32.712  1.00  0.00     0.008 C 
ENDROOT
BRANCH   1   2
ATOM      2  C   UNL     1     -27.762  19.850 -33.354  1.00  0.00     0.000 C 
BRANCH   2   3
ATOM      3  C   UNL     1     -27.185  21.186 -33.847  1.00  0.00    -0.003 C 
ATOM      4  C   UNL     1     -27.590  22.368 -32.967  1.00  0.00     0.004 C 
ENDBRANCH   2   3
ENDBRANCH   1   2
BRANCH   1   5
ATOM      5  C   UNL     1     -25.275  19.323 -33.153  1.00  0.00     0.080 C 
BRANCH   5   6
ATOM      6  C   UNL     1     -24.245  18.936 -32.130  1.00  0.00     0.155 C 
ATOM      7  O   UNL     1     -24.462  17.948 -31.377  1.00  0.00    -0.295 OA
BRANCH   6   8
ATOM      8  C   UNL     1     -23.006  19.725 -31.995  1.00  0.00     0.039 C 
ATOM      9  C   UNL     1     -22.795  20.849 -32.677  1.00  0.00     0.012 C 
ENDBRANCH   6   8
ENDBRANCH   5   6
ENDBRANCH   1   5
TORSDOF 5
ENDMDL
MODEL 5
REMARK VINA RESULT:    -4.150      8.695      9.608
REMARK INTER + INTRA:          -5.631
REMARK INTER:                  -5.116
REMARK INTRA:                  -0.515
REMARK UNBOUND:                -0.268
REMARK SMILES C=CC(=O)CCCCC
REMARK SMILES IDX 6 1 7 2 8 3 9 4 5 5 3 6 4 7 2 8 1 9
REMARK H PARENT
REMARK Flexibility Score: inf
ROOT
ATOM      1  C   UNL     1     -26.827  11.704 -28.563  1.00  0.00     0.008 C 
ENDROOT
BRANCH   1   2
ATOM      2  C   UNL     1     -28.034  12.569 -28.165  1.00  0.00     0.000 C 
BRANCH   2   3
ATOM      3  C   UNL     1     -29.376  11.898 -28.497  1.00  0.00    -0.003 C 
ATOM      4  C   UNL     1     -29.879  12.239 -29.899  1.00  0.00     0.004 C 
ENDBRANCH   2   3
ENDBRANCH   1   2
BRANCH   1   5
ATOM      5  C   UNL     1     -25.834  12.466 -29.450  1.00  0.00     0.080 C 
BRANCH   5   6
ATOM      6  C   UNL     1     -26.164  12.333 -30.910  1.00  0.00     0.155 C 
ATOM      7  O   UNL     1     -26.151  13.358 -31.644  1.00  0.00    -0.295 OA
BRANCH   6   8
ATOM      8  C   UNL     1     -26.523  11.015 -31.468  1.00  0.00     0.039 C 
ATOM      9  C   UNL     1     -27.236  10.881 -32.585  1.00  0.00     0.012 C 
ENDBRANCH   6   8
ENDBRANCH   5   6
ENDBRANCH   1   5
TORSDOF 5
ENDMDL
MODEL 6
REMARK VINA RESULT:    -4.113      8.187      9.182
REMARK INTER + INTRA:          -5.584
REMARK INTER:                  -4.966
REMARK INTRA:                  -0.617
REMARK UNBOUND:                -0.268
REMARK SMILES C=CC(=O)CCCCC
REMARK SMILES IDX 6 1 7 2 8 3 9 4 5 5 3 6 4 7 2 8 1 9
REMARK H PARENT
REMARK Flexibility Score: inf
ROOT
ATOM      1  C   UNL     1     -28.072  10.709 -30.301  1.00  0.00     0.008 C 
ENDROOT
BRANCH   1   2
ATOM      2  C   UNL     1     -29.354  11.485 -30.650  1.00  0.00     0.000 C 
BRANCH   2   3
ATOM      3  C   UNL     1     -29.746  12.496 -29.561  1.00  0.00    -0.003 C 
ATOM      4  C   UNL     1     -29.012  12.260 -28.241  1.00  0.00     0.004 C 
ENDBRANCH   2   3
ENDBRANCH   1   2
BRANCH   1   5
ATOM      5  C   UNL     1     -26.988  10.868 -31.376  1.00  0.00     0.080 C 
BRANCH   5   6
ATOM      6  C   UNL     1     -26.378  12.241 -31.364  1.00  0.00     0.155 C 
ATOM      7  O   UNL     1     -26.379  12.928 -32.420  1.00  0.00    -0.295 OA
BRANCH   6   8
ATOM      8  C   UNL     1     -25.762  12.764 -30.129  1.00  0.00     0.039 C 
ATOM      9  C   UNL     1     -25.931  14.021 -29.722  1.00  0.00     0.012 C 
ENDBRANCH   6   8
ENDBRANCH   5   6
ENDBRANCH   1   5
TORSDOF 5
ENDMDL
MODEL 7
REMARK VINA RESULT:    -3.969      8.377      9.530
REMARK INTER + INTRA:          -5.397
REMARK INTER:                  -4.834
REMARK INTRA:                  -0.564
REMARK UNBOUND:                -0.268
REMARK SMILES C=CC(=O)CCCCC
REMARK SMILES IDX 6 1 7 2 8 3 9 4 5 5 3 6 4 7 2 8 1 9
REMARK H PARENT
REMARK Flexibility Score: inf
ROOT
ATOM      1  C   UNL     1     -28.108  12.541 -29.293  1.00  0.00     0.008 C 
ENDROOT
BRANCH   1   2
ATOM      2  C   UNL     1     -27.884  11.798 -27.964  1.00  0.00     0.000 C 
BRANCH   2   3
ATOM      3  C   UNL     1     -27.055  10.516 -28.138  1.00  0.00    -0.003 C 
ATOM      4  C   UNL     1     -25.746  10.545 -27.349  1.00  0.00     0.004 C 
ENDBRANCH   2   3
ENDBRANCH   1   2
BRANCH   1   5
ATOM      5  C   UNL     1     -27.355  11.884 -30.458  1.00  0.00     0.080 C 
BRANCH   5   6
ATOM      6  C   UNL     1     -26.392  12.833 -31.113  1.00  0.00     0.155 C 
ATOM      7  O   UNL     1     -26.345  12.897 -32.371  1.00  0.00    -0.295 OA
BRANCH   6   8
ATOM      8  C   UNL     1     -25.494  13.662 -30.285  1.00  0.00     0.039 C 
ATOM      9  C   UNL     1     -24.426  13.160 -29.668  1.00  0.00     0.012 C 
ENDBRANCH   6   8
ENDBRANCH   5   6
ENDBRANCH   1   5
TORSDOF 5
ENDMDL
MODEL 8
REMARK VINA RESULT:    -3.965      2.034      2.638
REMARK INTER + INTRA:          -5.391
REMARK INTER:                  -5.109
REMARK INTRA:                  -0.282
REMARK UNBOUND:                -0.268
REMARK SMILES C=CC(=O)CCCCC
REMARK SMILES IDX 6 1 7 2 8 3 9 4 5 5 3 6 4 7 2 8 1 9
REMARK H PARENT
REMARK Flexibility Score: inf
ROOT
ATOM      1  C   UNL     1     -24.934  20.391 -33.109  1.00  0.00     0.008 C 
ENDROOT
BRANCH   1   2
ATOM      2  C   UNL     1     -25.947  20.311 -34.263  1.00  0.00     0.000 C 
BRANCH   2   3
ATOM      3  C   UNL     1     -27.382  20.627 -33.811  1.00  0.00    -0.003 C 
ATOM      4  C   UNL     1     -27.501  21.988 -33.125  1.00  0.00     0.004 C 
ENDBRANCH   2   3
ENDBRANCH   1   2
BRANCH   1   5
ATOM      5  C   UNL     1     -23.895  19.263 -33.170  1.00  0.00     0.080 C 
BRANCH   5   6
ATOM      6  C   UNL     1     -24.012  18.325 -32.002  1.00  0.00     0.155 C 
ATOM      7  O   UNL     1     -23.005  17.658 -31.640  1.00  0.00    -0.295 OA
BRANCH   6   8
ATOM      8  C   UNL     1     -25.304  18.170 -31.305  1.00  0.00     0.039 C 
ATOM      9  C   UNL     1     -25.565  17.141 -30.502  1.00  0.00     0.012 C 
ENDBRANCH   6   8
ENDBRANCH   5   6
ENDBRANCH   1   5
TORSDOF 5
ENDMDL
MODEL 9
REMARK VINA RESULT:    -3.885      8.898     10.316
REMARK INTER + INTRA:          -5.289
REMARK INTER:                  -4.712
REMARK INTRA:                  -0.577
REMARK UNBOUND:                -0.268
REMARK SMILES C=CC(=O)CCCCC
REMARK SMILES IDX 6 1 7 2 8 3 9 4 5 5 3 6 4 7 2 8 1 9
REMARK H PARENT
REMARK Flexibility Score: inf
ROOT
ATOM      1  C   UNL     1     -26.219  10.834 -30.052  1.00  0.00     0.008 C 
ENDROOT
BRANCH   1   2
ATOM      2  C   UNL     1     -26.442  11.896 -31.142  1.00  0.00     0.000 C 
BRANCH   2   3
ATOM      3  C   UNL     1     -25.905  13.278 -30.737  1.00  0.00    -0.003 C 
ATOM      4  C   UNL     1     -24.867  13.207 -29.617  1.00  0.00     0.004 C 
ENDBRANCH   2   3
ENDBRANCH   1   2
BRANCH   1   5
ATOM      5  C   UNL     1     -27.522  10.460 -29.332  1.00  0.00     0.080 C 
BRANCH   5   6
ATOM      6  C   UNL     1     -27.822  11.390 -28.191  1.00  0.00     0.155 C 
ATOM      7  O   UNL     1     -27.101  11.354 -27.158  1.00  0.00    -0.295 OA
BRANCH   6   8
ATOM      8  C   UNL     1     -28.968  12.315 -28.274  1.00  0.00     0.039 C 
ATOM      9  C   UNL     1     -29.662  12.495 -29.397  1.00  0.00     0.012 C 
ENDBRANCH   6   8
ENDBRANCH   5   6
ENDBRANCH   1   5
TORSDOF 5
ENDMDL
