MODEL 1
REMARK VINA RESULT:    -3.785      0.000      0.000
REMARK INTER + INTRA:          -4.559
REMARK INTER:                  -4.449
REMARK INTRA:                  -0.110
REMARK UNBOUND:                -0.110
REMARK SMILES O=C([O-])CCC(=O)[O-]
REMARK SMILES IDX 4 1 2 2 1 3 3 4 5 5 6 6 7 7 8 8
REMARK H PARENT
REMARK Flexibility Score: inf
ROOT
ATOM      1  C   UNL     1       0.906  56.957  22.783  1.00  0.00     0.059 C 
ENDROOT
BRANCH   1   2
ATOM      2  C   UNL     1       2.105  57.011  21.890  1.00  0.00     0.042 C 
ATOM      3  O   UNL     1       2.977  57.905  22.052  1.00  0.00    -0.550 OA
ATOM      4  O   UNL     1       2.235  56.104  20.845  1.00  0.00    -0.550 OA
ENDBRANCH   1   2
BRANCH   1   5
ATOM      5  C   UNL     1       0.717  58.290  23.507  1.00  0.00     0.059 C 
BRANCH   5   6
ATOM      6  C   UNL     1       0.773  58.093  24.989  1.00  0.00     0.042 C 
ATOM      7  O   UNL     1      -0.098  58.616  25.732  1.00  0.00    -0.550 OA
ATOM      8  O   UNL     1       1.817  57.371  25.555  1.00  0.00    -0.550 OA
ENDBRANCH   5   6
ENDBRANCH   1   5
TORSDOF 3
ENDMDL
MODEL 2
REMARK VINA RESULT:    -3.653      1.821      3.383
REMARK INTER + INTRA:          -4.404
REMARK INTER:                  -4.234
REMARK INTRA:                  -0.170
REMARK UNBOUND:                -0.110
REMARK SMILES O=C([O-])CCC(=O)[O-]
REMARK SMILES IDX 4 1 2 2 1 3 3 4 5 5 6 6 7 7 8 8
REMARK H PARENT
REMARK Flexibility Score: inf
ROOT
ATOM      1  C   UNL     1       0.595  57.417  23.340  1.00  0.00     0.059 C 
ENDROOT
BRANCH   1   2
ATOM      2  C   UNL     1       0.501  58.537  24.327  1.00  0.00     0.042 C 
ATOM      3  O   UNL     1       0.065  58.323  25.489  1.00  0.00    -0.550 OA
ATOM      4  O   UNL     1       0.847  59.828  23.949  1.00  0.00    -0.550 OA
ENDBRANCH   1   2
BRANCH   1   5
ATOM      5  C   UNL     1       2.012  57.322  22.772  1.00  0.00     0.059 C 
BRANCH   5   6
ATOM      6  C   UNL     1       2.994  57.030  23.862  1.00  0.00     0.042 C 
ATOM      7  O   UNL     1       3.888  57.868  24.151  1.00  0.00    -0.550 OA
ATOM      8  O   UNL     1       2.952  55.810  24.526  1.00  0.00    -0.550 OA
ENDBRANCH   5   6
ENDBRANCH   1   5
TORSDOF 3
ENDMDL
MODEL 3
REMARK VINA RESULT:    -3.648      1.789      2.107
REMARK INTER + INTRA:          -4.397
REMARK INTER:                  -4.239
REMARK INTRA:                  -0.158
REMARK UNBOUND:                -0.110
REMARK SMILES O=C([O-])CCC(=O)[O-]
REMARK SMILES IDX 4 1 2 2 1 3 3 4 5 5 6 6 7 7 8 8
REMARK H PARENT
REMARK Flexibility Score: inf
ROOT
ATOM      1  C   UNL     1       2.018  57.315  22.720  1.00  0.00     0.059 C 
ENDROOT
BRANCH   1   2
ATOM      2  C   UNL     1       2.992  57.002  23.811  1.00  0.00     0.042 C 
ATOM      3  O   UNL     1       3.897  57.825  24.109  1.00  0.00    -0.550 OA
ATOM      4  O   UNL     1       2.931  55.777  24.466  1.00  0.00    -0.550 OA
ENDBRANCH   1   2
BRANCH   1   5
ATOM      5  C   UNL     1       0.602  57.440  23.285  1.00  0.00     0.059 C 
BRANCH   5   6
ATOM      6  C   UNL     1       0.544  58.523  24.315  1.00  0.00     0.042 C 
ATOM      7  O   UNL     1       0.096  58.279  25.467  1.00  0.00    -0.550 OA
ATOM      8  O   UNL     1       0.939  59.815  23.990  1.00  0.00    -0.550 OA
ENDBRANCH   5   6
ENDBRANCH   1   5
TORSDOF 3
ENDMDL
MODEL 4
REMARK VINA RESULT:    -3.645      2.195      2.618
REMARK INTER + INTRA:          -4.394
REMARK INTER:                  -4.225
REMARK INTRA:                  -0.169
REMARK UNBOUND:                -0.110
REMARK SMILES O=C([O-])CCC(=O)[O-]
REMARK SMILES IDX 4 1 2 2 1 3 3 4 5 5 6 6 7 7 8 8
REMARK H PARENT
REMARK Flexibility Score: inf
ROOT
ATOM      1  C   UNL     1       2.268  58.405  23.698  1.00  0.00     0.059 C 
ENDROOT
BRANCH   1   2
ATOM      2  C   UNL     1       1.375  57.565  22.843  1.00  0.00     0.042 C 
ATOM      3  O   UNL     1       0.208  57.287  23.225  1.00  0.00    -0.550 OA
ATOM      4  O   UNL     1       1.848  57.046  21.643  1.00  0.00    -0.550 OA
ENDBRANCH   1   2
BRANCH   1   5
ATOM      5  C   UNL     1       3.499  57.608  24.132  1.00  0.00     0.059 C 
BRANCH   5   6
ATOM      6  C   UNL     1       3.091  56.395  24.906  1.00  0.00     0.042 C 
ATOM      7  O   UNL     1       2.581  56.516  26.051  1.00  0.00    -0.550 OA
ATOM      8  O   UNL     1       3.318  55.127  24.383  1.00  0.00    -0.550 OA
ENDBRANCH   5   6
ENDBRANCH   1   5
TORSDOF 3
ENDMDL
MODEL 5
REMARK VINA RESULT:    -3.645      1.810      3.330
REMARK INTER + INTRA:          -4.394
REMARK INTER:                  -4.229
REMARK INTRA:                  -0.164
REMARK UNBOUND:                -0.110
REMARK SMILES O=C([O-])CCC(=O)[O-]
REMARK SMILES IDX 4 1 2 2 1 3 3 4 5 5 6 6 7 7 8 8
REMARK H PARENT
REMARK Flexibility Score: inf
ROOT
ATOM      1  C   UNL     1       0.602  57.421  23.291  1.00  0.00     0.059 C 
ENDROOT
BRANCH   1   2
ATOM      2  C   UNL     1       0.552  58.612  24.195  1.00  0.00     0.042 C 
ATOM      3  O   UNL     1       0.874  59.750  23.762  1.00  0.00    -0.550 OA
ATOM      4  O   UNL     1       0.198  58.457  25.530  1.00  0.00    -0.550 OA
ENDBRANCH   1   2
BRANCH   1   5
ATOM      5  C   UNL     1       2.013  57.229  22.735  1.00  0.00     0.059 C 
BRANCH   5   6
ATOM      6  C   UNL     1       2.983  56.975  23.846  1.00  0.00     0.042 C 
ATOM      7  O   UNL     1       2.924  55.906  24.508  1.00  0.00    -0.550 OA
ATOM      8  O   UNL     1       3.922  57.942  24.183  1.00  0.00    -0.550 OA
ENDBRANCH   5   6
ENDBRANCH   1   5
TORSDOF 3
ENDMDL
MODEL 6
REMARK VINA RESULT:    -3.630      2.215      2.985
REMARK INTER + INTRA:          -4.377
REMARK INTER:                  -4.222
REMARK INTRA:                  -0.155
REMARK UNBOUND:                -0.110
REMARK SMILES O=C([O-])CCC(=O)[O-]
REMARK SMILES IDX 4 1 2 2 1 3 3 4 5 5 6 6 7 7 8 8
REMARK H PARENT
REMARK Flexibility Score: inf
ROOT
ATOM      1  C   UNL     1       3.483  57.724  24.040  1.00  0.00     0.059 C 
ENDROOT
BRANCH   1   2
ATOM      2  C   UNL     1       3.040  56.505  24.785  1.00  0.00     0.042 C 
ATOM      3  O   UNL     1       2.711  56.588  25.998  1.00  0.00    -0.550 OA
ATOM      4  O   UNL     1       3.036  55.267  24.153  1.00  0.00    -0.550 OA
ENDBRANCH   1   2
BRANCH   1   5
ATOM      5  C   UNL     1       2.565  57.985  22.845  1.00  0.00     0.059 C 
BRANCH   5   6
ATOM      6  C   UNL     1       1.153  58.175  23.303  1.00  0.00     0.042 C 
ATOM      7  O   UNL     1       0.267  57.338  22.990  1.00  0.00    -0.550 OA
ATOM      8  O   UNL     1       0.806  59.304  24.035  1.00  0.00    -0.550 OA
ENDBRANCH   5   6
ENDBRANCH   1   5
TORSDOF 3
ENDMDL
MODEL 7
REMARK VINA RESULT:    -3.624      1.760      2.317
REMARK INTER + INTRA:          -4.370
REMARK INTER:                  -4.200
REMARK INTRA:                  -0.170
REMARK UNBOUND:                -0.110
REMARK SMILES O=C([O-])CCC(=O)[O-]
REMARK SMILES IDX 4 1 2 2 1 3 3 4 5 5 6 6 7 7 8 8
REMARK H PARENT
REMARK Flexibility Score: inf
ROOT
ATOM      1  C   UNL     1       1.933  57.212  22.673  1.00  0.00     0.059 C 
ENDROOT
BRANCH   1   2
ATOM      2  C   UNL     1       2.927  56.930  23.753  1.00  0.00     0.042 C 
ATOM      3  O   UNL     1       2.874  55.849  24.398  1.00  0.00    -0.550 OA
ATOM      4  O   UNL     1       3.884  57.883  24.083  1.00  0.00    -0.550 OA
ENDBRANCH   1   2
BRANCH   1   5
ATOM      5  C   UNL     1       0.533  57.385  23.264  1.00  0.00     0.059 C 
BRANCH   5   6
ATOM      6  C   UNL     1       0.496  58.564  24.184  1.00  0.00     0.042 C 
ATOM      7  O   UNL     1       0.815  59.707  23.763  1.00  0.00    -0.550 OA
ATOM      8  O   UNL     1       0.156  58.392  25.521  1.00  0.00    -0.550 OA
ENDBRANCH   5   6
ENDBRANCH   1   5
TORSDOF 3
ENDMDL
MODEL 8
REMARK VINA RESULT:    -3.591      1.804      2.359
REMARK INTER + INTRA:          -4.331
REMARK INTER:                  -4.219
REMARK INTRA:                  -0.111
REMARK UNBOUND:                -0.110
REMARK SMILES O=C([O-])CCC(=O)[O-]
REMARK SMILES IDX 4 1 2 2 1 3 3 4 5 5 6 6 7 7 8 8
REMARK H PARENT
REMARK Flexibility Score: inf
ROOT
ATOM      1  C   UNL     1       0.495  57.343  23.280  1.00  0.00     0.059 C 
ENDROOT
BRANCH   1   2
ATOM      2  C   UNL     1       1.681  56.617  22.729  1.00  0.00     0.042 C 
ATOM      3  O   UNL     1       2.374  55.876  23.475  1.00  0.00    -0.550 OA
ATOM      4  O   UNL     1       2.051  56.797  21.401  1.00  0.00    -0.550 OA
ENDBRANCH   1   2
BRANCH   1   5
ATOM      5  C   UNL     1       0.930  58.345  24.350  1.00  0.00     0.059 C 
BRANCH   5   6
ATOM      6  C   UNL     1       1.210  59.680  23.733  1.00  0.00     0.042 C 
ATOM      7  O   UNL     1       2.368  59.959  23.325  1.00  0.00    -0.550 OA
ATOM      8  O   UNL     1       0.203  60.634  23.654  1.00  0.00    -0.550 OA
ENDBRANCH   5   6
ENDBRANCH   1   5
TORSDOF 3
ENDMDL
MODEL 9
REMARK VINA RESULT:    -3.566      1.820      3.566
REMARK INTER + INTRA:          -4.301
REMARK INTER:                  -4.194
REMARK INTRA:                  -0.107
REMARK UNBOUND:                -0.110
REMARK SMILES O=C([O-])CCC(=O)[O-]
REMARK SMILES IDX 4 1 2 2 1 3 3 4 5 5 6 6 7 7 8 8
REMARK H PARENT
REMARK Flexibility Score: inf
ROOT
ATOM      1  C   UNL     1       0.920  58.430  24.323  1.00  0.00     0.059 C 
ENDROOT
BRANCH   1   2
ATOM      2  C   UNL     1       1.161  59.786  23.742  1.00  0.00     0.042 C 
ATOM      3  O   UNL     1       2.312  60.113  23.350  1.00  0.00    -0.550 OA
ATOM      4  O   UNL     1       0.124  60.710  23.679  1.00  0.00    -0.550 OA
ENDBRANCH   1   2
BRANCH   1   5
ATOM      5  C   UNL     1       0.540  57.436  23.224  1.00  0.00     0.059 C 
BRANCH   5   6
ATOM      6  C   UNL     1       1.751  56.706  22.737  1.00  0.00     0.042 C 
ATOM      7  O   UNL     1       2.496  56.100  23.552  1.00  0.00    -0.550 OA
ATOM      8  O   UNL     1       2.084  56.733  21.389  1.00  0.00    -0.550 OA
ENDBRANCH   5   6
ENDBRANCH   1   5
TORSDOF 3
ENDMDL
