MODEL 1
REMARK VINA RESULT:    -6.356      0.000      0.000
REMARK INTER + INTRA:          -6.356
REMARK INTER:                  -6.356
REMARK INTRA:                   0.000
REMARK UNBOUND:                 0.000
REMARK SMILES C=C1CCC[C@]2(C)CC(=O)C(=C(C)C)C[C@H]12
REMARK SMILES IDX 13 1 12 2 11 3 15 4 16 5 2 6 1 7 3 8 4 9 5 10 6 11 8 12 9 13
REMARK SMILES IDX 10 14 7 15 14 16
REMARK H PARENT
REMARK Flexibility Score: inf
ROOT
ATOM      1  C   UNL     1      12.638  18.390  22.962  1.00  0.00     0.039 C 
ATOM      2  C   UNL     1      14.113  18.100  22.796  1.00  0.00    -0.070 C 
ATOM      3  C   UNL     1      14.754  17.197  23.591  1.00  0.00    -0.006 C 
ATOM      4  C   UNL     1      16.239  16.919  23.460  1.00  0.00     0.047 C 
ATOM      5  C   UNL     1      16.926  16.598  24.813  1.00  0.00     0.025 C 
ATOM      6  C   UNL     1      18.338  16.104  24.536  1.00  0.00    -0.073 C 
ATOM      7  C   UNL     1      19.383  16.939  24.631  1.00  0.00     0.008 C 
ATOM      8  C   UNL     1      18.525  14.700  23.998  1.00  0.00     0.031 C 
ATOM      9  C   UNL     1      17.695  13.678  24.786  1.00  0.00     0.005 C 
ATOM     10  C   UNL     1      16.245  14.140  25.020  1.00  0.00     0.008 C 
ATOM     11  C   UNL     1      16.158  15.549  25.679  1.00  0.00    -0.018 C 
ATOM     12  C   UNL     1      14.673  15.971  25.844  1.00  0.00     0.088 C 
ATOM     13  C   UNL     1      14.029  16.326  24.543  1.00  0.00     0.159 C 
ATOM     14  O   UNL     1      12.881  15.877  24.277  1.00  0.00    -0.295 OA
ATOM     15  C   UNL     1      16.770  15.502  27.105  1.00  0.00     0.012 C 
ATOM     16  C   UNL     1      14.855  18.881  21.737  1.00  0.00     0.039 C 
ENDROOT
TORSDOF 0
ENDMDL
MODEL 2
REMARK VINA RESULT:    -6.347      1.640      4.948
REMARK INTER + INTRA:          -6.347
REMARK INTER:                  -6.347
REMARK INTRA:                   0.000
REMARK UNBOUND:                 0.000
REMARK SMILES C=C1CCC[C@]2(C)CC(=O)C(=C(C)C)C[C@H]12
REMARK SMILES IDX 13 1 12 2 11 3 15 4 16 5 2 6 1 7 3 8 4 9 5 10 6 11 8 12 9 13
REMARK SMILES IDX 10 14 7 15 14 16
REMARK H PARENT
REMARK Flexibility Score: inf
ROOT
ATOM      1  C   UNL     1      18.623  15.554  24.896  1.00  0.00     0.039 C 
ATOM      2  C   UNL     1      18.056  16.627  23.993  1.00  0.00    -0.070 C 
ATOM      3  C   UNL     1      16.723  16.912  23.976  1.00  0.00    -0.006 C 
ATOM      4  C   UNL     1      16.133  17.959  23.053  1.00  0.00     0.047 C 
ATOM      5  C   UNL     1      14.709  17.606  22.551  1.00  0.00     0.025 C 
ATOM      6  C   UNL     1      14.128  18.820  21.842  1.00  0.00    -0.073 C 
ATOM      7  C   UNL     1      14.170  18.912  20.504  1.00  0.00     0.008 C 
ATOM      8  C   UNL     1      13.648  19.989  22.676  1.00  0.00     0.031 C 
ATOM      9  C   UNL     1      12.772  19.526  23.848  1.00  0.00     0.005 C 
ATOM     10  C   UNL     1      13.379  18.335  24.612  1.00  0.00     0.008 C 
ATOM     11  C   UNL     1      13.738  17.138  23.682  1.00  0.00    -0.018 C 
ATOM     12  C   UNL     1      14.385  15.995  24.509  1.00  0.00     0.088 C 
ATOM     13  C   UNL     1      15.776  16.321  24.949  1.00  0.00     0.159 C 
ATOM     14  O   UNL     1      16.118  16.090  26.140  1.00  0.00    -0.295 OA
ATOM     15  C   UNL     1      12.444  16.557  23.051  1.00  0.00     0.012 C 
ATOM     16  C   UNL     1      19.024  17.343  23.080  1.00  0.00     0.039 C 
ENDROOT
TORSDOF 0
ENDMDL
MODEL 3
REMARK VINA RESULT:    -6.127      2.579      4.518
REMARK INTER + INTRA:          -6.127
REMARK INTER:                  -6.127
REMARK INTRA:                   0.000
REMARK UNBOUND:                 0.000
REMARK SMILES C=C1CCC[C@]2(C)CC(=O)C(=C(C)C)C[C@H]12
REMARK SMILES IDX 13 1 12 2 11 3 15 4 16 5 2 6 1 7 3 8 4 9 5 10 6 11 8 12 9 13
REMARK SMILES IDX 10 14 7 15 14 16
REMARK H PARENT
REMARK Flexibility Score: inf
ROOT
ATOM      1  C   UNL     1      16.217  17.855  23.005  1.00  0.00     0.039 C 
ATOM      2  C   UNL     1      16.459  16.645  23.880  1.00  0.00    -0.070 C 
ATOM      3  C   UNL     1      17.714  16.152  24.081  1.00  0.00    -0.006 C 
ATOM      4  C   UNL     1      17.971  14.921  24.927  1.00  0.00     0.047 C 
ATOM      5  C   UNL     1      19.154  14.058  24.415  1.00  0.00     0.025 C 
ATOM      6  C   UNL     1      19.472  13.000  25.459  1.00  0.00    -0.073 C 
ATOM      7  C   UNL     1      18.997  11.752  25.332  1.00  0.00     0.008 C 
ATOM      8  C   UNL     1      20.199  13.418  26.721  1.00  0.00     0.031 C 
ATOM      9  C   UNL     1      21.408  14.308  26.408  1.00  0.00     0.005 C 
ATOM     10  C   UNL     1      21.083  15.423  25.396  1.00  0.00     0.008 C 
ATOM     11  C   UNL     1      20.440  14.880  24.084  1.00  0.00    -0.018 C 
ATOM     12  C   UNL     1      20.097  16.058  23.133  1.00  0.00     0.088 C 
ATOM     13  C   UNL     1      18.926  16.857  23.606  1.00  0.00     0.159 C 
ATOM     14  O   UNL     1      18.991  18.116  23.594  1.00  0.00    -0.295 OA
ATOM     15  C   UNL     1      21.457  13.980  23.334  1.00  0.00     0.012 C 
ATOM     16  C   UNL     1      15.247  15.980  24.490  1.00  0.00     0.039 C 
ENDROOT
TORSDOF 0
ENDMDL
MODEL 4
REMARK VINA RESULT:    -5.978      1.608      2.377
REMARK INTER + INTRA:          -5.978
REMARK INTER:                  -5.978
REMARK INTRA:                   0.000
REMARK UNBOUND:                 0.000
REMARK SMILES C=C1CCC[C@]2(C)CC(=O)C(=C(C)C)C[C@H]12
REMARK SMILES IDX 13 1 12 2 11 3 15 4 16 5 2 6 1 7 3 8 4 9 5 10 6 11 8 12 9 13
REMARK SMILES IDX 10 14 7 15 14 16
REMARK H PARENT
REMARK Flexibility Score: inf
ROOT
ATOM      1  C   UNL     1      14.085  17.024  24.637  1.00  0.00     0.039 C 
ATOM      2  C   UNL     1      15.472  16.992  24.036  1.00  0.00    -0.070 C 
ATOM      3  C   UNL     1      16.393  16.062  24.420  1.00  0.00    -0.006 C 
ATOM      4  C   UNL     1      17.798  16.036  23.852  1.00  0.00     0.047 C 
ATOM      5  C   UNL     1      18.867  15.574  24.876  1.00  0.00     0.025 C 
ATOM      6  C   UNL     1      20.181  15.355  24.142  1.00  0.00    -0.073 C 
ATOM      7  C   UNL     1      21.130  16.303  24.145  1.00  0.00     0.008 C 
ATOM      8  C   UNL     1      20.336  14.120  23.280  1.00  0.00     0.031 C 
ATOM      9  C   UNL     1      19.860  12.857  24.011  1.00  0.00     0.005 C 
ATOM     10  C   UNL     1      18.500  13.048  24.708  1.00  0.00     0.008 C 
ATOM     11  C   UNL     1      18.476  14.281  25.660  1.00  0.00    -0.018 C 
ATOM     12  C   UNL     1      17.066  14.440  26.291  1.00  0.00     0.088 C 
ATOM     13  C   UNL     1      16.050  14.932  25.311  1.00  0.00     0.159 C 
ATOM     14  O   UNL     1      14.920  14.374  25.260  1.00  0.00    -0.295 OA
ATOM     15  C   UNL     1      19.469  14.060  26.832  1.00  0.00     0.012 C 
ATOM     16  C   UNL     1      15.809  18.058  23.019  1.00  0.00     0.039 C 
ENDROOT
TORSDOF 0
ENDMDL
MODEL 5
REMARK VINA RESULT:    -5.554      2.121      3.451
REMARK INTER + INTRA:          -5.554
REMARK INTER:                  -5.554
REMARK INTRA:                   0.000
REMARK UNBOUND:                 0.000
REMARK SMILES C=C1CCC[C@]2(C)CC(=O)C(=C(C)C)C[C@H]12
REMARK SMILES IDX 13 1 12 2 11 3 15 4 16 5 2 6 1 7 3 8 4 9 5 10 6 11 8 12 9 13
REMARK SMILES IDX 10 14 7 15 14 16
REMARK H PARENT
REMARK Flexibility Score: inf
ROOT
ATOM      1  C   UNL     1      14.731  16.917  24.521  1.00  0.00     0.039 C 
ATOM      2  C   UNL     1      15.900  17.345  23.664  1.00  0.00    -0.070 C 
ATOM      3  C   UNL     1      17.156  16.862  23.881  1.00  0.00    -0.006 C 
ATOM      4  C   UNL     1      18.346  17.307  23.053  1.00  0.00     0.047 C 
ATOM      5  C   UNL     1      19.669  17.369  23.861  1.00  0.00     0.025 C 
ATOM      6  C   UNL     1      20.820  17.587  22.891  1.00  0.00    -0.073 C 
ATOM      7  C   UNL     1      21.321  18.814  22.692  1.00  0.00     0.008 C 
ATOM      8  C   UNL     1      21.284  16.422  22.040  1.00  0.00     0.031 C 
ATOM      9  C   UNL     1      21.458  15.146  22.874  1.00  0.00     0.005 C 
ATOM     10  C   UNL     1      20.269  14.883  23.817  1.00  0.00     0.008 C 
ATOM     11  C   UNL     1      19.940  16.101  24.730  1.00  0.00    -0.018 C 
ATOM     12  C   UNL     1      18.707  15.783  25.619  1.00  0.00     0.088 C 
ATOM     13  C   UNL     1      17.429  15.772  24.844  1.00  0.00     0.159 C 
ATOM     14  O   UNL     1      16.606  14.833  25.023  1.00  0.00    -0.295 OA
ATOM     15  C   UNL     1      21.127  16.372  25.693  1.00  0.00     0.012 C 
ATOM     16  C   UNL     1      15.626  18.362  22.580  1.00  0.00     0.039 C 
ENDROOT
TORSDOF 0
ENDMDL
MODEL 6
REMARK VINA RESULT:    -5.536      3.353      4.994
REMARK INTER + INTRA:          -5.536
REMARK INTER:                  -5.536
REMARK INTRA:                   0.000
REMARK UNBOUND:                 0.000
REMARK SMILES C=C1CCC[C@]2(C)CC(=O)C(=C(C)C)C[C@H]12
REMARK SMILES IDX 13 1 12 2 11 3 15 4 16 5 2 6 1 7 3 8 4 9 5 10 6 11 8 12 9 13
REMARK SMILES IDX 10 14 7 15 14 16
REMARK H PARENT
REMARK Flexibility Score: inf
ROOT
ATOM      1  C   UNL     1      21.138  18.713  22.626  1.00  0.00     0.039 C 
ATOM      2  C   UNL     1      21.464  17.375  23.249  1.00  0.00    -0.070 C 
ATOM      3  C   UNL     1      20.494  16.594  23.805  1.00  0.00    -0.006 C 
ATOM      4  C   UNL     1      20.808  15.266  24.464  1.00  0.00     0.047 C 
ATOM      5  C   UNL     1      19.894  14.949  25.677  1.00  0.00     0.025 C 
ATOM      6  C   UNL     1      20.132  13.509  26.102  1.00  0.00    -0.073 C 
ATOM      7  C   UNL     1      20.953  13.226  27.124  1.00  0.00     0.008 C 
ATOM      8  C   UNL     1      19.553  12.395  25.254  1.00  0.00     0.031 C 
ATOM      9  C   UNL     1      18.085  12.661  24.896  1.00  0.00     0.005 C 
ATOM     10  C   UNL     1      17.842  14.101  24.406  1.00  0.00     0.008 C 
ATOM     11  C   UNL     1      18.374  15.176  25.400  1.00  0.00    -0.018 C 
ATOM     12  C   UNL     1      18.138  16.598  24.823  1.00  0.00     0.088 C 
ATOM     13  C   UNL     1      19.054  16.916  23.686  1.00  0.00     0.159 C 
ATOM     14  O   UNL     1      18.585  17.451  22.645  1.00  0.00    -0.295 OA
ATOM     15  C   UNL     1      17.583  15.097  26.733  1.00  0.00     0.012 C 
ATOM     16  C   UNL     1      22.916  16.956  23.266  1.00  0.00     0.039 C 
ENDROOT
TORSDOF 0
ENDMDL
MODEL 7
REMARK VINA RESULT:    -5.536      2.681      5.337
REMARK INTER + INTRA:          -5.536
REMARK INTER:                  -5.536
REMARK INTRA:                   0.000
REMARK UNBOUND:                 0.000
REMARK SMILES C=C1CCC[C@]2(C)CC(=O)C(=C(C)C)C[C@H]12
REMARK SMILES IDX 13 1 12 2 11 3 15 4 16 5 2 6 1 7 3 8 4 9 5 10 6 11 8 12 9 13
REMARK SMILES IDX 10 14 7 15 14 16
REMARK H PARENT
REMARK Flexibility Score: inf
ROOT
ATOM      1  C   UNL     1       9.966  13.685  24.645  1.00  0.00     0.039 C 
ATOM      2  C   UNL     1      11.174  14.540  24.954  1.00  0.00    -0.070 C 
ATOM      3  C   UNL     1      11.618  15.488  24.080  1.00  0.00    -0.006 C 
ATOM      4  C   UNL     1      12.847  16.330  24.359  1.00  0.00     0.047 C 
ATOM      5  C   UNL     1      13.655  16.681  23.082  1.00  0.00     0.025 C 
ATOM      6  C   UNL     1      14.711  17.714  23.444  1.00  0.00    -0.073 C 
ATOM      7  C   UNL     1      15.976  17.339  23.688  1.00  0.00     0.008 C 
ATOM      8  C   UNL     1      14.278  19.146  23.679  1.00  0.00     0.031 C 
ATOM      9  C   UNL     1      13.335  19.640  22.573  1.00  0.00     0.005 C 
ATOM     10  C   UNL     1      12.224  18.627  22.240  1.00  0.00     0.008 C 
ATOM     11  C   UNL     1      12.777  17.210  21.904  1.00  0.00    -0.018 C 
ATOM     12  C   UNL     1      11.605  16.233  21.624  1.00  0.00     0.088 C 
ATOM     13  C   UNL     1      10.859  15.859  22.864  1.00  0.00     0.159 C 
ATOM     14  O   UNL     1       9.599  15.869  22.855  1.00  0.00    -0.295 OA
ATOM     15  C   UNL     1      13.628  17.272  20.606  1.00  0.00     0.012 C 
ATOM     16  C   UNL     1      11.894  14.273  26.255  1.00  0.00     0.039 C 
ENDROOT
TORSDOF 0
ENDMDL
MODEL 8
REMARK VINA RESULT:    -5.298      2.841      5.320
REMARK INTER + INTRA:          -5.298
REMARK INTER:                  -5.298
REMARK INTRA:                   0.000
REMARK UNBOUND:                 0.000
REMARK SMILES C=C1CCC[C@]2(C)CC(=O)C(=C(C)C)C[C@H]12
REMARK SMILES IDX 13 1 12 2 11 3 15 4 16 5 2 6 1 7 3 8 4 9 5 10 6 11 8 12 9 13
REMARK SMILES IDX 10 14 7 15 14 16
REMARK H PARENT
REMARK Flexibility Score: inf
ROOT
ATOM      1  C   UNL     1      22.645  17.063  23.807  1.00  0.00     0.039 C 
ATOM      2  C   UNL     1      21.167  17.382  23.803  1.00  0.00    -0.070 C 
ATOM      3  C   UNL     1      20.263  16.571  24.424  1.00  0.00    -0.006 C 
ATOM      4  C   UNL     1      18.774  16.857  24.401  1.00  0.00     0.047 C 
ATOM      5  C   UNL     1      17.902  15.575  24.369  1.00  0.00     0.025 C 
ATOM      6  C   UNL     1      16.450  15.969  24.591  1.00  0.00    -0.073 C 
ATOM      7  C   UNL     1      15.615  16.112  23.551  1.00  0.00     0.008 C 
ATOM      8  C   UNL     1      16.006  16.350  25.988  1.00  0.00     0.031 C 
ATOM      9  C   UNL     1      16.502  15.343  27.034  1.00  0.00     0.005 C 
ATOM     10  C   UNL     1      17.989  14.982  26.856  1.00  0.00     0.008 C 
ATOM     11  C   UNL     1      18.325  14.495  25.415  1.00  0.00    -0.018 C 
ATOM     12  C   UNL     1      19.842  14.193  25.294  1.00  0.00     0.088 C 
ATOM     13  C   UNL     1      20.675  15.434  25.277  1.00  0.00     0.159 C 
ATOM     14  O   UNL     1      21.713  15.493  25.991  1.00  0.00    -0.295 OA
ATOM     15  C   UNL     1      17.579  13.165  25.122  1.00  0.00     0.012 C 
ATOM     16  C   UNL     1      20.727  18.615  23.049  1.00  0.00     0.039 C 
ENDROOT
TORSDOF 0
ENDMDL
