MODEL 1
REMARK VINA RESULT:    -6.006      0.000      0.000
REMARK INTER + INTRA:         -11.534
REMARK INTER:                 -10.571
REMARK INTRA:                  -0.964
REMARK UNBOUND:                -0.964
REMARK SMILES CCCCCCC=CCCCCCCCC(=O)[O-]
REMARK SMILES IDX 10 1 11 2 12 3 13 4 14 5 15 6 16 7 17 8 18 9 9 10 8 11 7 12
REMARK SMILES IDX 6 13 5 14 4 15 3 16 2 17 1 18
REMARK H PARENT
REMARK Flexibility Score: inf
ROOT
ATOM      1  C   UNL     1     -12.080  10.437   7.540  1.00  0.00     0.004 C 
ENDROOT
BRANCH   1   2
ATOM      2  C   UNL     1     -12.144  10.372   6.009  1.00  0.00     0.000 C 
BRANCH   2   3
ATOM      3  C   UNL     1     -11.273  11.462   5.375  1.00  0.00     0.000 C 
BRANCH   3   4
ATOM      4  C   UNL     1     -10.899  11.098   3.931  1.00  0.00     0.000 C 
BRANCH   4   5
ATOM      5  C   UNL     1     -10.525  12.324   3.077  1.00  0.00     0.006 C 
BRANCH   5   6
ATOM      6  C   UNL     1      -9.464  13.234   3.721  1.00  0.00     0.053 C 
BRANCH   6   7
ATOM      7  C   UNL     1      -8.808  14.147   2.730  1.00  0.00     0.041 C 
ATOM      8  O   UNL     1      -9.471  15.060   2.171  1.00  0.00    -0.550 OA
ATOM      9  O   UNL     1      -7.470  13.969   2.400  1.00  0.00    -0.550 OA
ENDBRANCH   6   7
ENDBRANCH   5   6
ENDBRANCH   4   5
ENDBRANCH   3   4
ENDBRANCH   2   3
ENDBRANCH   1   2
BRANCH   1  10
ATOM     10  C   UNL     1     -13.089  11.451   8.091  1.00  0.00     0.027 C 
BRANCH  10  11
ATOM     11  C   UNL     1     -12.391  12.637   8.698  1.00  0.00    -0.031 C 
ATOM     12  C   UNL     1     -11.058  12.668   8.845  1.00  0.00    -0.031 C 
BRANCH  12  13
ATOM     13  C   UNL     1     -10.359  13.853   9.453  1.00  0.00     0.027 C 
BRANCH  13  14
ATOM     14  C   UNL     1      -9.111  14.235   8.644  1.00  0.00     0.004 C 
BRANCH  14  15
ATOM     15  C   UNL     1      -7.924  14.628   9.540  1.00  0.00     0.000 C 
BRANCH  15  16
ATOM     16  C   UNL     1      -8.367  15.352  10.823  1.00  0.00    -0.000 C 
BRANCH  16  17
ATOM     17  C   UNL     1      -7.949  14.600  12.096  1.00  0.00    -0.003 C 
ATOM     18  C   UNL     1      -7.543  13.153  11.820  1.00  0.00     0.004 C 
ENDBRANCH  16  17
ENDBRANCH  15  16
ENDBRANCH  14  15
ENDBRANCH  13  14
ENDBRANCH  12  13
ENDBRANCH  10  11
ENDBRANCH   1  10
TORSDOF 13
ENDMDL
MODEL 2
REMARK VINA RESULT:    -5.760      3.548      6.699
REMARK INTER + INTRA:         -11.102
REMARK INTER:                 -10.155
REMARK INTRA:                  -0.946
REMARK UNBOUND:                -0.964
REMARK SMILES CCCCCCC=CCCCCCCCC(=O)[O-]
REMARK SMILES IDX 10 1 11 2 12 3 13 4 14 5 15 6 16 7 17 8 18 9 9 10 8 11 7 12
REMARK SMILES IDX 6 13 5 14 4 15 3 16 2 17 1 18
REMARK H PARENT
REMARK Flexibility Score: inf
ROOT
ATOM      1  C   UNL     1     -11.961  11.168   7.535  1.00  0.00     0.004 C 
ENDROOT
BRANCH   1   2
ATOM      2  C   UNL     1     -10.846  12.185   7.813  1.00  0.00     0.000 C 
BRANCH   2   3
ATOM      3  C   UNL     1     -10.831  12.596   9.289  1.00  0.00     0.000 C 
BRANCH   3   4
ATOM      4  C   UNL     1     -10.484  14.085   9.442  1.00  0.00     0.000 C 
BRANCH   4   5
ATOM      5  C   UNL     1      -9.039  14.414   9.025  1.00  0.00     0.006 C 
BRANCH   5   6
ATOM      6  C   UNL     1      -8.008  14.244  10.156  1.00  0.00     0.053 C 
BRANCH   6   7
ATOM      7  C   UNL     1      -7.909  15.454  11.034  1.00  0.00     0.041 C 
ATOM      8  O   UNL     1      -7.593  15.334  12.247  1.00  0.00    -0.550 OA
ATOM      9  O   UNL     1      -8.199  16.712  10.522  1.00  0.00    -0.550 OA
ENDBRANCH   6   7
ENDBRANCH   5   6
ENDBRANCH   4   5
ENDBRANCH   3   4
ENDBRANCH   2   3
ENDBRANCH   1   2
BRANCH   1  10
ATOM     10  C   UNL     1     -11.867  10.628   6.103  1.00  0.00     0.027 C 
BRANCH  10  11
ATOM     11  C   UNL     1     -11.135  11.588   5.207  1.00  0.00    -0.031 C 
ATOM     12  C   UNL     1     -10.701  11.224   3.991  1.00  0.00    -0.031 C 
BRANCH  12  13
ATOM     13  C   UNL     1      -9.968  12.184   3.094  1.00  0.00     0.027 C 
BRANCH  13  14
ATOM     14  C   UNL     1      -9.180  13.215   3.915  1.00  0.00     0.004 C 
BRANCH  14  15
ATOM     15  C   UNL     1      -7.727  13.366   3.435  1.00  0.00     0.000 C 
BRANCH  15  16
ATOM     16  C   UNL     1      -7.183  12.082   2.785  1.00  0.00    -0.000 C 
BRANCH  16  17
ATOM     17  C   UNL     1      -5.902  11.576   3.468  1.00  0.00    -0.003 C 
ATOM     18  C   UNL     1      -5.583  10.122   3.118  1.00  0.00     0.004 C 
ENDBRANCH  16  17
ENDBRANCH  15  16
ENDBRANCH  14  15
ENDBRANCH  13  14
ENDBRANCH  12  13
ENDBRANCH  10  11
ENDBRANCH   1  10
TORSDOF 13
ENDMDL
MODEL 3
REMARK VINA RESULT:    -5.729      4.714      5.968
REMARK INTER + INTRA:         -11.046
REMARK INTER:                  -9.958
REMARK INTRA:                  -1.088
REMARK UNBOUND:                -0.964
REMARK SMILES CCCCCCC=CCCCCCCCC(=O)[O-]
REMARK SMILES IDX 10 1 11 2 12 3 13 4 14 5 15 6 16 7 17 8 18 9 9 10 8 11 7 12
REMARK SMILES IDX 6 13 5 14 4 15 3 16 2 17 1 18
REMARK H PARENT
REMARK Flexibility Score: inf
ROOT
ATOM      1  C   UNL     1     -11.557  11.497   8.468  1.00  0.00     0.004 C 
ENDROOT
BRANCH   1   2
ATOM      2  C   UNL     1     -11.770  11.341   6.957  1.00  0.00     0.000 C 
BRANCH   2   3
ATOM      3  C   UNL     1     -12.357   9.966   6.622  1.00  0.00     0.000 C 
BRANCH   3   4
ATOM      4  C   UNL     1     -12.749   9.208   7.900  1.00  0.00     0.000 C 
BRANCH   4   5
ATOM      5  C   UNL     1     -14.033   8.373   7.736  1.00  0.00     0.006 C 
BRANCH   5   6
ATOM      6  C   UNL     1     -13.823   7.045   6.987  1.00  0.00     0.053 C 
BRANCH   6   7
ATOM      7  C   UNL     1     -14.364   5.866   7.737  1.00  0.00     0.041 C 
ATOM      8  O   UNL     1     -14.042   5.676   8.940  1.00  0.00    -0.550 OA
ATOM      9  O   UNL     1     -15.197   4.957   7.098  1.00  0.00    -0.550 OA
ENDBRANCH   6   7
ENDBRANCH   5   6
ENDBRANCH   4   5
ENDBRANCH   3   4
ENDBRANCH   2   3
ENDBRANCH   1   2
BRANCH   1  10
ATOM     10  C   UNL     1     -11.565  12.975   8.875  1.00  0.00     0.027 C 
BRANCH  10  11
ATOM     11  C   UNL     1     -10.239  13.387   9.452  1.00  0.00    -0.031 C 
ATOM     12  C   UNL     1      -9.384  14.161   8.766  1.00  0.00    -0.031 C 
BRANCH  12  13
ATOM     13  C   UNL     1      -8.056  14.573   9.342  1.00  0.00     0.027 C 
BRANCH  13  14
ATOM     14  C   UNL     1      -8.242  15.426  10.605  1.00  0.00     0.004 C 
BRANCH  14  15
ATOM     15  C   UNL     1      -7.492  14.854  11.819  1.00  0.00     0.000 C 
BRANCH  15  16
ATOM     16  C   UNL     1      -7.397  13.319  11.785  1.00  0.00    -0.000 C 
BRANCH  16  17
ATOM     17  C   UNL     1      -8.258  12.654  12.871  1.00  0.00    -0.003 C 
ATOM     18  C   UNL     1      -8.989  11.410  12.363  1.00  0.00     0.004 C 
ENDBRANCH  16  17
ENDBRANCH  15  16
ENDBRANCH  14  15
ENDBRANCH  13  14
ENDBRANCH  12  13
ENDBRANCH  10  11
ENDBRANCH   1  10
TORSDOF 13
ENDMDL
MODEL 4
REMARK VINA RESULT:    -5.710      1.095      1.825
REMARK INTER + INTRA:         -11.013
REMARK INTER:                  -9.802
REMARK INTRA:                  -1.211
REMARK UNBOUND:                -0.964
REMARK SMILES CCCCCCC=CCCCCCCCC(=O)[O-]
REMARK SMILES IDX 10 1 11 2 12 3 13 4 14 5 15 6 16 7 17 8 18 9 9 10 8 11 7 12
REMARK SMILES IDX 6 13 5 14 4 15 3 16 2 17 1 18
REMARK H PARENT
REMARK Flexibility Score: inf
ROOT
ATOM      1  C   UNL     1     -12.536  12.075   8.391  1.00  0.00     0.004 C 
ENDROOT
BRANCH   1   2
ATOM      2  C   UNL     1     -12.818  11.608   6.958  1.00  0.00     0.000 C 
BRANCH   2   3
ATOM      3  C   UNL     1     -11.602  10.888   6.364  1.00  0.00     0.000 C 
BRANCH   3   4
ATOM      4  C   UNL     1     -11.338  11.350   4.924  1.00  0.00     0.000 C 
BRANCH   4   5
ATOM      5  C   UNL     1     -10.162  12.339   4.814  1.00  0.00     0.006 C 
BRANCH   5   6
ATOM      6  C   UNL     1      -9.365  12.219   3.502  1.00  0.00     0.053 C 
BRANCH   6   7
ATOM      7  C   UNL     1      -8.941  13.550   2.960  1.00  0.00     0.041 C 
ATOM      8  O   UNL     1      -9.803  14.396   2.605  1.00  0.00    -0.550 OA
ATOM      9  O   UNL     1      -7.591  13.844   2.816  1.00  0.00    -0.550 OA
ENDBRANCH   6   7
ENDBRANCH   5   6
ENDBRANCH   4   5
ENDBRANCH   3   4
ENDBRANCH   2   3
ENDBRANCH   1   2
BRANCH   1  10
ATOM     10  C   UNL     1     -11.030  12.230   8.633  1.00  0.00     0.027 C 
BRANCH  10  11
ATOM     11  C   UNL     1     -10.734  13.468   9.435  1.00  0.00    -0.031 C 
ATOM     12  C   UNL     1      -9.683  14.253   9.153  1.00  0.00    -0.031 C 
BRANCH  12  13
ATOM     13  C   UNL     1      -9.386  15.490   9.956  1.00  0.00     0.027 C 
BRANCH  13  14
ATOM     14  C   UNL     1      -7.964  15.445  10.536  1.00  0.00     0.004 C 
BRANCH  14  15
ATOM     15  C   UNL     1      -7.520  14.018  10.898  1.00  0.00     0.000 C 
BRANCH  15  16
ATOM     16  C   UNL     1      -8.097  13.543  12.243  1.00  0.00    -0.000 C 
BRANCH  16  17
ATOM     17  C   UNL     1      -7.990  12.021  12.422  1.00  0.00    -0.003 C 
ATOM     18  C   UNL     1      -9.339  11.314  12.286  1.00  0.00     0.004 C 
ENDBRANCH  16  17
ENDBRANCH  15  16
ENDBRANCH  14  15
ENDBRANCH  13  14
ENDBRANCH  12  13
ENDBRANCH  10  11
ENDBRANCH   1  10
TORSDOF 13
ENDMDL
MODEL 5
REMARK VINA RESULT:    -5.629      1.512      2.487
REMARK INTER + INTRA:         -10.871
REMARK INTER:                  -9.910
REMARK INTRA:                  -0.960
REMARK UNBOUND:                -0.964
REMARK SMILES CCCCCCC=CCCCCCCCC(=O)[O-]
REMARK SMILES IDX 10 1 11 2 12 3 13 4 14 5 15 6 16 7 17 8 18 9 9 10 8 11 7 12
REMARK SMILES IDX 6 13 5 14 4 15 3 16 2 17 1 18
REMARK H PARENT
REMARK Flexibility Score: inf
ROOT
ATOM      1  C   UNL     1     -10.905  11.621   5.199  1.00  0.00     0.004 C 
ENDROOT
BRANCH   1   2
ATOM      2  C   UNL     1     -10.957  11.104   3.756  1.00  0.00     0.000 C 
BRANCH   2   3
ATOM      3  C   UNL     1     -10.596  12.212   2.760  1.00  0.00     0.000 C 
BRANCH   3   4
ATOM      4  C   UNL     1      -9.709  13.278   3.420  1.00  0.00     0.000 C 
BRANCH   4   5
ATOM      5  C   UNL     1      -8.273  13.296   2.865  1.00  0.00     0.006 C 
BRANCH   5   6
ATOM      6  C   UNL     1      -7.539  11.949   2.986  1.00  0.00     0.053 C 
BRANCH   6   7
ATOM      7  C   UNL     1      -6.066  12.068   2.734  1.00  0.00     0.041 C 
ATOM      8  O   UNL     1      -5.637  12.803   1.807  1.00  0.00    -0.550 OA
ATOM      9  O   UNL     1      -5.168  11.340   3.504  1.00  0.00    -0.550 OA
ENDBRANCH   6   7
ENDBRANCH   5   6
ENDBRANCH   4   5
ENDBRANCH   3   4
ENDBRANCH   2   3
ENDBRANCH   1   2
BRANCH   1  10
ATOM     10  C   UNL     1     -11.865  10.835   6.099  1.00  0.00     0.027 C 
BRANCH  10  11
ATOM     11  C   UNL     1     -11.732  11.259   7.536  1.00  0.00    -0.031 C 
ATOM     12  C   UNL     1     -10.903  12.248   7.903  1.00  0.00    -0.031 C 
BRANCH  12  13
ATOM     13  C   UNL     1     -10.768  12.672   9.340  1.00  0.00     0.027 C 
BRANCH  13  14
ATOM     14  C   UNL     1     -10.525  14.184   9.451  1.00  0.00     0.004 C 
BRANCH  14  15
ATOM     15  C   UNL     1      -9.272  14.637   8.684  1.00  0.00     0.000 C 
BRANCH  15  16
ATOM     16  C   UNL     1      -7.975  14.400   9.477  1.00  0.00    -0.000 C 
BRANCH  16  17
ATOM     17  C   UNL     1      -7.873  15.300  10.719  1.00  0.00    -0.003 C 
ATOM     18  C   UNL     1      -7.491  14.524  11.980  1.00  0.00     0.004 C 
ENDBRANCH  16  17
ENDBRANCH  15  16
ENDBRANCH  14  15
ENDBRANCH  13  14
ENDBRANCH  12  13
ENDBRANCH  10  11
ENDBRANCH   1  10
TORSDOF 13
ENDMDL
MODEL 6
REMARK VINA RESULT:    -5.627      3.047      6.629
REMARK INTER + INTRA:         -10.866
REMARK INTER:                  -9.731
REMARK INTRA:                  -1.135
REMARK UNBOUND:                -0.964
REMARK SMILES CCCCCCC=CCCCCCCCC(=O)[O-]
REMARK SMILES IDX 10 1 11 2 12 3 13 4 14 5 15 6 16 7 17 8 18 9 9 10 8 11 7 12
REMARK SMILES IDX 6 13 5 14 4 15 3 16 2 17 1 18
REMARK H PARENT
REMARK Flexibility Score: inf
ROOT
ATOM      1  C   UNL     1     -10.793  11.568   5.021  1.00  0.00     0.004 C 
ENDROOT
BRANCH   1   2
ATOM      2  C   UNL     1     -11.881  10.807   5.789  1.00  0.00     0.000 C 
BRANCH   2   3
ATOM      3  C   UNL     1     -11.687  10.947   7.303  1.00  0.00     0.000 C 
BRANCH   3   4
ATOM      4  C   UNL     1     -10.818  12.169   7.636  1.00  0.00     0.000 C 
BRANCH   4   5
ATOM      5  C   UNL     1     -11.183  12.820   8.983  1.00  0.00     0.006 C 
BRANCH   5   6
ATOM      6  C   UNL     1      -9.990  13.467   9.708  1.00  0.00     0.053 C 
BRANCH   6   7
ATOM      7  C   UNL     1     -10.025  14.964   9.657  1.00  0.00     0.041 C 
ATOM      8  O   UNL     1     -11.042  15.561   9.214  1.00  0.00    -0.550 OA
ATOM      9  O   UNL     1      -8.922  15.701  10.069  1.00  0.00    -0.550 OA
ENDBRANCH   6   7
ENDBRANCH   5   6
ENDBRANCH   4   5
ENDBRANCH   3   4
ENDBRANCH   2   3
ENDBRANCH   1   2
BRANCH   1  10
ATOM     10  C   UNL     1     -10.798  11.185   3.536  1.00  0.00     0.027 C 
BRANCH  10  11
ATOM     11  C   UNL     1     -10.273  12.308   2.684  1.00  0.00    -0.031 C 
ATOM     12  C   UNL     1      -9.922  13.488   3.215  1.00  0.00    -0.031 C 
BRANCH  12  13
ATOM     13  C   UNL     1      -9.398  14.612   2.363  1.00  0.00     0.027 C 
BRANCH  13  14
ATOM     14  C   UNL     1      -8.430  14.089   1.292  1.00  0.00     0.004 C 
BRANCH  14  15
ATOM     15  C   UNL     1      -6.960  14.173   1.733  1.00  0.00     0.000 C 
BRANCH  15  16
ATOM     16  C   UNL     1      -6.295  12.789   1.839  1.00  0.00    -0.000 C 
BRANCH  16  17
ATOM     17  C   UNL     1      -6.571  12.106   3.187  1.00  0.00    -0.003 C 
ATOM     18  C   UNL     1      -5.477  11.114   3.581  1.00  0.00     0.004 C 
ENDBRANCH  16  17
ENDBRANCH  15  16
ENDBRANCH  14  15
ENDBRANCH  13  14
ENDBRANCH  12  13
ENDBRANCH  10  11
ENDBRANCH   1  10
TORSDOF 13
ENDMDL
MODEL 7
REMARK VINA RESULT:    -5.615      4.855      6.998
REMARK INTER + INTRA:         -10.845
REMARK INTER:                  -9.611
REMARK INTRA:                  -1.234
REMARK UNBOUND:                -0.964
REMARK SMILES CCCCCCC=CCCCCCCCC(=O)[O-]
REMARK SMILES IDX 10 1 11 2 12 3 13 4 14 5 15 6 16 7 17 8 18 9 9 10 8 11 7 12
REMARK SMILES IDX 6 13 5 14 4 15 3 16 2 17 1 18
REMARK H PARENT
REMARK Flexibility Score: inf
ROOT
ATOM      1  C   UNL     1      -7.812  13.183   3.856  1.00  0.00     0.004 C 
ENDROOT
BRANCH   1   2
ATOM      2  C   UNL     1      -9.307  13.411   3.600  1.00  0.00     0.000 C 
BRANCH   2   3
ATOM      3  C   UNL     1      -9.895  12.288   2.738  1.00  0.00     0.000 C 
BRANCH   3   4
ATOM      4  C   UNL     1     -10.511  11.187   3.613  1.00  0.00     0.000 C 
BRANCH   4   5
ATOM      5  C   UNL     1     -10.870  11.672   5.030  1.00  0.00     0.006 C 
BRANCH   5   6
ATOM      6  C   UNL     1     -11.795  10.715   5.803  1.00  0.00     0.053 C 
BRANCH   6   7
ATOM      7  C   UNL     1     -11.748  10.936   7.284  1.00  0.00     0.041 C 
ATOM      8  O   UNL     1     -10.994  11.819   7.772  1.00  0.00    -0.550 OA
ATOM      9  O   UNL     1     -12.513  10.144   8.131  1.00  0.00    -0.550 OA
ENDBRANCH   6   7
ENDBRANCH   5   6
ENDBRANCH   4   5
ENDBRANCH   3   4
ENDBRANCH   2   3
ENDBRANCH   1   2
BRANCH   1  10
ATOM     10  C   UNL     1      -7.148  12.493   2.659  1.00  0.00     0.027 C 
BRANCH  10  11
ATOM     11  C   UNL     1      -6.307  11.327   3.103  1.00  0.00    -0.031 C 
ATOM     12  C   UNL     1      -6.728  10.061   2.956  1.00  0.00    -0.031 C 
BRANCH  12  13
ATOM     13  C   UNL     1      -5.888   8.895   3.401  1.00  0.00     0.027 C 
BRANCH  13  14
ATOM     14  C   UNL     1      -4.463   9.343   3.757  1.00  0.00     0.004 C 
BRANCH  14  15
ATOM     15  C   UNL     1      -4.036   8.889   5.163  1.00  0.00     0.000 C 
BRANCH  15  16
ATOM     16  C   UNL     1      -4.900   7.734   5.699  1.00  0.00    -0.000 C 
BRANCH  16  17
ATOM     17  C   UNL     1      -5.261   7.910   7.182  1.00  0.00    -0.003 C 
ATOM     18  C   UNL     1      -4.216   8.720   7.951  1.00  0.00     0.004 C 
ENDBRANCH  16  17
ENDBRANCH  15  16
ENDBRANCH  14  15
ENDBRANCH  13  14
ENDBRANCH  12  13
ENDBRANCH  10  11
ENDBRANCH   1  10
TORSDOF 13
ENDMDL
MODEL 8
REMARK VINA RESULT:    -5.600      2.646      4.766
REMARK INTER + INTRA:         -10.820
REMARK INTER:                  -9.523
REMARK INTRA:                  -1.297
REMARK UNBOUND:                -0.964
REMARK SMILES CCCCCCC=CCCCCCCCC(=O)[O-]
REMARK SMILES IDX 10 1 11 2 12 3 13 4 14 5 15 6 16 7 17 8 18 9 9 10 8 11 7 12
REMARK SMILES IDX 6 13 5 14 4 15 3 16 2 17 1 18
REMARK H PARENT
REMARK Flexibility Score: inf
ROOT
ATOM      1  C   UNL     1      -9.973  13.168   3.443  1.00  0.00     0.004 C 
ENDROOT
BRANCH   1   2
ATOM      2  C   UNL     1      -9.045  13.379   4.646  1.00  0.00     0.000 C 
BRANCH   2   3
ATOM      3  C   UNL     1      -7.573  13.331   4.221  1.00  0.00     0.000 C 
BRANCH   3   4
ATOM      4  C   UNL     1      -7.444  13.106   2.707  1.00  0.00     0.000 C 
BRANCH   4   5
ATOM      5  C   UNL     1      -6.638  11.843   2.351  1.00  0.00     0.006 C 
BRANCH   5   6
ATOM      6  C   UNL     1      -5.677  11.381   3.462  1.00  0.00     0.053 C 
BRANCH   6   7
ATOM      7  C   UNL     1      -5.190   9.979   3.258  1.00  0.00     0.041 C 
ATOM      8  O   UNL     1      -4.390   9.458   4.080  1.00  0.00    -0.550 OA
ATOM      9  O   UNL     1      -5.592   9.257   2.142  1.00  0.00    -0.550 OA
ENDBRANCH   6   7
ENDBRANCH   5   6
ENDBRANCH   4   5
ENDBRANCH   3   4
ENDBRANCH   2   3
ENDBRANCH   1   2
BRANCH   1  10
ATOM     10  C   UNL     1     -10.874  11.945   3.652  1.00  0.00     0.027 C 
BRANCH  10  11
ATOM     11  C   UNL     1     -11.326  11.842   5.083  1.00  0.00    -0.031 C 
ATOM     12  C   UNL     1     -11.606  10.658   5.648  1.00  0.00    -0.031 C 
BRANCH  12  13
ATOM     13  C   UNL     1     -12.060  10.554   7.079  1.00  0.00     0.027 C 
BRANCH  13  14
ATOM     14  C   UNL     1     -13.017  11.699   7.440  1.00  0.00     0.004 C 
BRANCH  14  15
ATOM     15  C   UNL     1     -12.539  12.505   8.659  1.00  0.00     0.000 C 
BRANCH  15  16
ATOM     16  C   UNL     1     -11.028  12.361   8.908  1.00  0.00    -0.000 C 
BRANCH  16  17
ATOM     17  C   UNL     1     -10.385  13.671   9.390  1.00  0.00    -0.003 C 
ATOM     18  C   UNL     1      -9.290  14.172   8.447  1.00  0.00     0.004 C 
ENDBRANCH  16  17
ENDBRANCH  15  16
ENDBRANCH  14  15
ENDBRANCH  13  14
ENDBRANCH  12  13
ENDBRANCH  10  11
ENDBRANCH   1  10
TORSDOF 13
ENDMDL
MODEL 9
REMARK VINA RESULT:    -5.433      5.427      8.156
REMARK INTER + INTRA:         -10.526
REMARK INTER:                  -9.673
REMARK INTRA:                  -0.852
REMARK UNBOUND:                -0.964
REMARK SMILES CCCCCCC=CCCCCCCCC(=O)[O-]
REMARK SMILES IDX 10 1 11 2 12 3 13 4 14 5 15 6 16 7 17 8 18 9 9 10 8 11 7 12
REMARK SMILES IDX 6 13 5 14 4 15 3 16 2 17 1 18
REMARK H PARENT
REMARK Flexibility Score: inf
ROOT
ATOM      1  C   UNL     1     -11.243  11.537   7.214  1.00  0.00     0.004 C 
ENDROOT
BRANCH   1   2
ATOM      2  C   UNL     1     -12.059  10.749   8.247  1.00  0.00     0.000 C 
BRANCH   2   3
ATOM      3  C   UNL     1     -13.113   9.871   7.563  1.00  0.00     0.000 C 
BRANCH   3   4
ATOM      4  C   UNL     1     -13.191   8.488   8.227  1.00  0.00     0.000 C 
BRANCH   4   5
ATOM      5  C   UNL     1     -13.986   7.465   7.395  1.00  0.00     0.006 C 
BRANCH   5   6
ATOM      6  C   UNL     1     -13.710   6.000   7.777  1.00  0.00     0.053 C 
BRANCH   6   7
ATOM      7  C   UNL     1     -14.955   5.165   7.806  1.00  0.00     0.041 C 
ATOM      8  O   UNL     1     -14.939   3.985   7.368  1.00  0.00    -0.550 OA
ATOM      9  O   UNL     1     -16.141   5.702   8.289  1.00  0.00    -0.550 OA
ENDBRANCH   6   7
ENDBRANCH   5   6
ENDBRANCH   4   5
ENDBRANCH   3   4
ENDBRANCH   2   3
ENDBRANCH   1   2
BRANCH   1  10
ATOM     10  C   UNL     1     -11.597  11.102   5.787  1.00  0.00     0.027 C 
BRANCH  10  11
ATOM     11  C   UNL     1     -10.797  11.870   4.771  1.00  0.00    -0.031 C 
ATOM     12  C   UNL     1     -10.457  11.331   3.590  1.00  0.00    -0.031 C 
BRANCH  12  13
ATOM     13  C   UNL     1      -9.655  12.099   2.574  1.00  0.00     0.027 C 
BRANCH  13  14
ATOM     14  C   UNL     1      -9.048  13.367   3.192  1.00  0.00     0.004 C 
BRANCH  14  15
ATOM     15  C   UNL     1      -7.592  13.164   3.643  1.00  0.00     0.000 C 
BRANCH  15  16
ATOM     16  C   UNL     1      -6.794  12.269   2.679  1.00  0.00    -0.000 C 
BRANCH  16  17
ATOM     17  C   UNL     1      -6.143  13.067   1.539  1.00  0.00    -0.003 C 
ATOM     18  C   UNL     1      -6.786  12.786   0.180  1.00  0.00     0.004 C 
ENDBRANCH  16  17
ENDBRANCH  15  16
ENDBRANCH  14  15
ENDBRANCH  13  14
ENDBRANCH  12  13
ENDBRANCH  10  11
ENDBRANCH   1  10
TORSDOF 13
ENDMDL
