MODEL 1
REMARK VINA RESULT:    -3.254      0.000      0.000
REMARK INTER + INTRA:          -5.243
REMARK INTER:                  -4.681
REMARK INTRA:                  -0.562
REMARK UNBOUND:                -0.562
REMARK SMILES CCCCCCCCCO
REMARK SMILES IDX 6 1 5 2 4 3 3 4 2 5 1 6 7 7 8 8 9 9 10 10
REMARK H PARENT 10 11
REMARK Flexibility Score: inf
ROOT
ATOM      1  C   UNL     1     128.408 143.399 119.573  1.00  0.00     0.000 C 
ENDROOT
BRANCH   1   2
ATOM      2  C   UNL     1     128.029 144.463 118.535  1.00  0.00     0.000 C 
BRANCH   2   3
ATOM      3  C   UNL     1     127.219 145.594 119.177  1.00  0.00    -0.000 C 
BRANCH   3   4
ATOM      4  C   UNL     1     127.923 146.133 120.431  1.00  0.00    -0.000 C 
BRANCH   4   5
ATOM      5  C   UNL     1     127.009 146.140 121.665  1.00  0.00    -0.003 C 
ATOM      6  C   UNL     1     127.675 145.530 122.898  1.00  0.00     0.004 C 
ENDBRANCH   4   5
ENDBRANCH   3   4
ENDBRANCH   2   3
ENDBRANCH   1   2
BRANCH   1   7
ATOM      7  C   UNL     1     127.163 142.670 120.094  1.00  0.00     0.002 C 
BRANCH   7   8
ATOM      8  C   UNL     1     127.491 141.849 121.349  1.00  0.00     0.028 C 
BRANCH   8   9
ATOM      9  C   UNL     1     127.746 140.376 121.013  1.00  0.00     0.156 C 
BRANCH   9  10
ATOM     10  O   UNL     1     126.875 139.540 121.727  1.00  0.00    -0.396 OA
ATOM     11  H   UNL     1     126.016 139.533 121.229  1.00  0.00     0.210 HD
ENDBRANCH   9  10
ENDBRANCH   8   9
ENDBRANCH   7   8
ENDBRANCH   1   7
TORSDOF 8
ENDMDL
MODEL 2
REMARK VINA RESULT:    -3.109      3.506      4.648
REMARK INTER + INTRA:          -5.034
REMARK INTER:                  -4.493
REMARK INTRA:                  -0.541
REMARK UNBOUND:                -0.562
REMARK SMILES CCCCCCCCCO
REMARK SMILES IDX 6 1 5 2 4 3 3 4 2 5 1 6 7 7 8 8 9 9 10 10
REMARK H PARENT 10 11
REMARK Flexibility Score: inf
ROOT
ATOM      1  C   UNL     1     127.213 145.583 121.344  1.00  0.00     0.000 C 
ENDROOT
BRANCH   1   2
ATOM      2  C   UNL     1     127.157 145.979 119.864  1.00  0.00     0.000 C 
BRANCH   2   3
ATOM      3  C   UNL     1     128.097 145.105 119.025  1.00  0.00    -0.000 C 
BRANCH   3   4
ATOM      4  C   UNL     1     129.484 145.006 119.676  1.00  0.00    -0.000 C 
BRANCH   4   5
ATOM      5  C   UNL     1     130.269 146.325 119.596  1.00  0.00    -0.003 C 
ATOM      6  C   UNL     1     131.734 146.167 120.000  1.00  0.00     0.004 C 
ENDBRANCH   4   5
ENDBRANCH   3   4
ENDBRANCH   2   3
ENDBRANCH   1   2
BRANCH   1   7
ATOM      7  C   UNL     1     126.878 146.778 122.246  1.00  0.00     0.002 C 
BRANCH   7   8
ATOM      8  C   UNL     1     127.880 146.892 123.403  1.00  0.00     0.028 C 
BRANCH   8   9
ATOM      9  C   UNL     1     129.122 146.024 123.166  1.00  0.00     0.156 C 
BRANCH   9  10
ATOM     10  O   UNL     1     130.290 146.800 123.201  1.00  0.00    -0.396 OA
ATOM     11  H   UNL     1     130.091 147.588 123.772  1.00  0.00     0.210 HD
ENDBRANCH   9  10
ENDBRANCH   8   9
ENDBRANCH   7   8
ENDBRANCH   1   7
TORSDOF 8
ENDMDL
MODEL 3
REMARK VINA RESULT:    -3.070      1.463      2.028
REMARK INTER + INTRA:          -4.978
REMARK INTER:                  -4.326
REMARK INTRA:                  -0.652
REMARK UNBOUND:                -0.562
REMARK SMILES CCCCCCCCCO
REMARK SMILES IDX 6 1 5 2 4 3 3 4 2 5 1 6 7 7 8 8 9 9 10 10
REMARK H PARENT 10 11
REMARK Flexibility Score: inf
ROOT
ATOM      1  C   UNL     1     127.759 144.832 118.821  1.00  0.00     0.000 C 
ENDROOT
BRANCH   1   2
ATOM      2  C   UNL     1     128.021 145.937 119.851  1.00  0.00     0.000 C 
BRANCH   2   3
ATOM      3  C   UNL     1     129.501 145.979 120.249  1.00  0.00    -0.000 C 
BRANCH   3   4
ATOM      4  C   UNL     1     129.659 146.029 121.776  1.00  0.00    -0.000 C 
BRANCH   4   5
ATOM      5  C   UNL     1     128.314 145.931 122.512  1.00  0.00    -0.003 C 
ATOM      6  C   UNL     1     128.155 146.996 123.598  1.00  0.00     0.004 C 
ENDBRANCH   4   5
ENDBRANCH   3   4
ENDBRANCH   2   3
ENDBRANCH   1   2
BRANCH   1   7
ATOM      7  C   UNL     1     128.260 143.475 119.330  1.00  0.00     0.002 C 
BRANCH   7   8
ATOM      8  C   UNL     1     127.345 142.929 120.435  1.00  0.00     0.028 C 
BRANCH   8   9
ATOM      9  C   UNL     1     128.149 142.329 121.593  1.00  0.00     0.156 C 
BRANCH   9  10
ATOM     10  O   UNL     1     127.374 142.263 122.761  1.00  0.00    -0.396 OA
ATOM     11  H   UNL     1     127.081 141.319 122.854  1.00  0.00     0.210 HD
ENDBRANCH   9  10
ENDBRANCH   8   9
ENDBRANCH   7   8
ENDBRANCH   1   7
TORSDOF 8
ENDMDL
MODEL 4
REMARK VINA RESULT:    -3.065      2.831      4.579
REMARK INTER + INTRA:          -4.972
REMARK INTER:                  -4.381
REMARK INTRA:                  -0.591
REMARK UNBOUND:                -0.562
REMARK SMILES CCCCCCCCCO
REMARK SMILES IDX 6 1 5 2 4 3 3 4 2 5 1 6 7 7 8 8 9 9 10 10
REMARK H PARENT 10 11
REMARK Flexibility Score: inf
ROOT
ATOM      1  C   UNL     1     127.832 146.300 120.264  1.00  0.00     0.000 C 
ENDROOT
BRANCH   1   2
ATOM      2  C   UNL     1     127.149 145.610 119.077  1.00  0.00     0.000 C 
BRANCH   2   3
ATOM      3  C   UNL     1     127.907 144.343 118.666  1.00  0.00    -0.000 C 
BRANCH   3   4
ATOM      4  C   UNL     1     127.742 143.237 119.719  1.00  0.00    -0.000 C 
BRANCH   4   5
ATOM      5  C   UNL     1     129.088 142.727 120.257  1.00  0.00    -0.003 C 
ATOM      6  C   UNL     1     130.285 143.337 119.526  1.00  0.00     0.004 C 
ENDBRANCH   4   5
ENDBRANCH   3   4
ENDBRANCH   2   3
ENDBRANCH   1   2
BRANCH   1   7
ATOM      7  C   UNL     1     126.909 146.331 121.489  1.00  0.00     0.002 C 
BRANCH   7   8
ATOM      8  C   UNL     1     127.583 145.678 122.704  1.00  0.00     0.028 C 
BRANCH   8   9
ATOM      9  C   UNL     1     127.989 146.718 123.754  1.00  0.00     0.156 C 
BRANCH   9  10
ATOM     10  O   UNL     1     129.345 147.053 123.632  1.00  0.00    -0.396 OA
ATOM     11  H   UNL     1     129.796 146.715 124.450  1.00  0.00     0.210 HD
ENDBRANCH   9  10
ENDBRANCH   8   9
ENDBRANCH   7   8
ENDBRANCH   1   7
TORSDOF 8
ENDMDL
MODEL 5
REMARK VINA RESULT:    -3.063     16.302     16.925
REMARK INTER + INTRA:          -4.968
REMARK INTER:                  -4.578
REMARK INTRA:                  -0.390
REMARK UNBOUND:                -0.562
REMARK SMILES CCCCCCCCCO
REMARK SMILES IDX 6 1 5 2 4 3 3 4 2 5 1 6 7 7 8 8 9 9 10 10
REMARK H PARENT 10 11
REMARK Flexibility Score: inf
ROOT
ATOM      1  C   UNL     1     144.613 143.282 120.097  1.00  0.00     0.000 C 
ENDROOT
BRANCH   1   2
ATOM      2  C   UNL     1     144.963 144.745 119.800  1.00  0.00     0.000 C 
BRANCH   2   3
ATOM      3  C   UNL     1     144.028 145.698 120.552  1.00  0.00    -0.000 C 
BRANCH   3   4
ATOM      4  C   UNL     1     143.132 146.474 119.575  1.00  0.00    -0.000 C 
BRANCH   4   5
ATOM      5  C   UNL     1     141.636 146.229 119.823  1.00  0.00    -0.003 C 
ATOM      6  C   UNL     1     141.203 144.808 119.464  1.00  0.00     0.004 C 
ENDBRANCH   4   5
ENDBRANCH   3   4
ENDBRANCH   2   3
ENDBRANCH   1   2
BRANCH   1   7
ATOM      7  C   UNL     1     145.054 142.366 118.948  1.00  0.00     0.002 C 
BRANCH   7   8
ATOM      8  C   UNL     1     145.853 141.166 119.475  1.00  0.00     0.028 C 
BRANCH   8   9
ATOM      9  C   UNL     1     145.630 140.952 120.976  1.00  0.00     0.156 C 
BRANCH   9  10
ATOM     10  O   UNL     1     146.853 140.886 121.661  1.00  0.00    -0.396 OA
ATOM     11  H   UNL     1     147.427 140.253 121.155  1.00  0.00     0.210 HD
ENDBRANCH   9  10
ENDBRANCH   8   9
ENDBRANCH   7   8
ENDBRANCH   1   7
TORSDOF 8
ENDMDL
MODEL 6
REMARK VINA RESULT:    -3.059      1.871      2.439
REMARK INTER + INTRA:          -4.963
REMARK INTER:                  -4.297
REMARK INTRA:                  -0.666
REMARK UNBOUND:                -0.562
REMARK SMILES CCCCCCCCCO
REMARK SMILES IDX 6 1 5 2 4 3 3 4 2 5 1 6 7 7 8 8 9 9 10 10
REMARK H PARENT 10 11
REMARK Flexibility Score: inf
ROOT
ATOM      1  C   UNL     1     127.299 143.080 120.057  1.00  0.00     0.000 C 
ENDROOT
BRANCH   1   2
ATOM      2  C   UNL     1     127.646 144.116 118.982  1.00  0.00     0.000 C 
BRANCH   2   3
ATOM      3  C   UNL     1     127.277 145.531 119.441  1.00  0.00    -0.000 C 
BRANCH   3   4
ATOM      4  C   UNL     1     128.414 146.157 120.262  1.00  0.00    -0.000 C 
BRANCH   4   5
ATOM      5  C   UNL     1     129.802 145.849 119.679  1.00  0.00    -0.003 C 
ATOM      6  C   UNL     1     130.930 146.550 120.436  1.00  0.00     0.004 C 
ENDBRANCH   4   5
ENDBRANCH   3   4
ENDBRANCH   2   3
ENDBRANCH   1   2
BRANCH   1   7
ATOM      7  C   UNL     1     128.501 142.175 120.358  1.00  0.00     0.002 C 
BRANCH   7   8
ATOM      8  C   UNL     1     129.160 142.559 121.690  1.00  0.00     0.028 C 
BRANCH   8   9
ATOM      9  C   UNL     1     128.165 143.234 122.641  1.00  0.00     0.156 C 
BRANCH   9  10
ATOM     10  O   UNL     1     127.548 142.289 123.474  1.00  0.00    -0.396 OA
ATOM     11  H   UNL     1     128.105 142.225 124.293  1.00  0.00     0.210 HD
ENDBRANCH   9  10
ENDBRANCH   8   9
ENDBRANCH   7   8
ENDBRANCH   1   7
TORSDOF 8
ENDMDL
MODEL 7
REMARK VINA RESULT:    -3.047      4.182      5.313
REMARK INTER + INTRA:          -4.946
REMARK INTER:                  -4.480
REMARK INTRA:                  -0.465
REMARK UNBOUND:                -0.562
REMARK SMILES CCCCCCCCCO
REMARK SMILES IDX 6 1 5 2 4 3 3 4 2 5 1 6 7 7 8 8 9 9 10 10
REMARK H PARENT 10 11
REMARK Flexibility Score: inf
ROOT
ATOM      1  C   UNL     1     131.002 144.183 120.418  1.00  0.00     0.000 C 
ENDROOT
BRANCH   1   2
ATOM      2  C   UNL     1     130.185 143.441 119.353  1.00  0.00     0.000 C 
BRANCH   2   3
ATOM      3  C   UNL     1     128.683 143.532 119.648  1.00  0.00    -0.000 C 
BRANCH   3   4
ATOM      4  C   UNL     1     127.968 144.400 118.602  1.00  0.00    -0.000 C 
BRANCH   4   5
ATOM      5  C   UNL     1     127.225 145.589 119.230  1.00  0.00    -0.003 C 
ATOM      6  C   UNL     1     127.201 145.532 120.758  1.00  0.00     0.004 C 
ENDBRANCH   4   5
ENDBRANCH   3   4
ENDBRANCH   2   3
ENDBRANCH   1   2
BRANCH   1   7
ATOM      7  C   UNL     1     131.049 145.688 120.126  1.00  0.00     0.002 C 
BRANCH   7   8
ATOM      8  C   UNL     1     132.462 146.247 120.345  1.00  0.00     0.028 C 
BRANCH   8   9
ATOM      9  C   UNL     1     132.602 146.915 121.717  1.00  0.00     0.156 C 
BRANCH   9  10
ATOM     10  O   UNL     1     133.952 147.125 122.037  1.00  0.00    -0.396 OA
ATOM     11  H   UNL     1     134.329 146.237 122.275  1.00  0.00     0.210 HD
ENDBRANCH   9  10
ENDBRANCH   8   9
ENDBRANCH   7   8
ENDBRANCH   1   7
TORSDOF 8
ENDMDL
MODEL 8
REMARK VINA RESULT:    -3.042      3.184      4.351
REMARK INTER + INTRA:          -4.939
REMARK INTER:                  -4.155
REMARK INTRA:                  -0.783
REMARK UNBOUND:                -0.562
REMARK SMILES CCCCCCCCCO
REMARK SMILES IDX 6 1 5 2 4 3 3 4 2 5 1 6 7 7 8 8 9 9 10 10
REMARK H PARENT 10 11
REMARK Flexibility Score: inf
ROOT
ATOM      1  C   UNL     1     130.950 144.247 120.085  1.00  0.00     0.000 C 
ENDROOT
BRANCH   1   2
ATOM      2  C   UNL     1     129.826 143.347 119.557  1.00  0.00     0.000 C 
BRANCH   2   3
ATOM      3  C   UNL     1     128.694 144.182 118.947  1.00  0.00    -0.000 C 
BRANCH   3   4
ATOM      4  C   UNL     1     127.375 143.955 119.701  1.00  0.00    -0.000 C 
BRANCH   4   5
ATOM      5  C   UNL     1     127.213 144.896 120.904  1.00  0.00    -0.003 C 
ATOM      6  C   UNL     1     126.906 146.336 120.491  1.00  0.00     0.004 C 
ENDBRANCH   4   5
ENDBRANCH   3   4
ENDBRANCH   2   3
ENDBRANCH   1   2
BRANCH   1   7
ATOM      7  C   UNL     1     130.671 145.721 119.767  1.00  0.00     0.002 C 
BRANCH   7   8
ATOM      8  C   UNL     1     130.985 146.614 120.975  1.00  0.00     0.028 C 
BRANCH   8   9
ATOM      9  C   UNL     1     130.530 145.971 122.290  1.00  0.00     0.156 C 
BRANCH   9  10
ATOM     10  O   UNL     1     129.506 146.721 122.887  1.00  0.00    -0.396 OA
ATOM     11  H   UNL     1     129.878 147.086 123.733  1.00  0.00     0.210 HD
ENDBRANCH   9  10
ENDBRANCH   8   9
ENDBRANCH   7   8
ENDBRANCH   1   7
TORSDOF 8
ENDMDL
MODEL 9
REMARK VINA RESULT:    -2.996      1.943      3.423
REMARK INTER + INTRA:          -4.872
REMARK INTER:                  -4.069
REMARK INTRA:                  -0.804
REMARK UNBOUND:                -0.562
REMARK SMILES CCCCCCCCCO
REMARK SMILES IDX 6 1 5 2 4 3 3 4 2 5 1 6 7 7 8 8 9 9 10 10
REMARK H PARENT 10 11
REMARK Flexibility Score: inf
ROOT
ATOM      1  C   UNL     1     127.191 145.542 121.972  1.00  0.00     0.000 C 
ENDROOT
BRANCH   1   2
ATOM      2  C   UNL     1     127.113 146.352 120.672  1.00  0.00     0.000 C 
BRANCH   2   3
ATOM      3  C   UNL     1     128.201 145.914 119.685  1.00  0.00    -0.000 C 
BRANCH   3   4
ATOM      4  C   UNL     1     127.813 144.602 118.986  1.00  0.00    -0.000 C 
BRANCH   4   5
ATOM      5  C   UNL     1     128.819 143.471 119.253  1.00  0.00    -0.003 C 
ATOM      6  C   UNL     1     130.193 143.990 119.676  1.00  0.00     0.004 C 
ENDBRANCH   4   5
ENDBRANCH   3   4
ENDBRANCH   2   3
ENDBRANCH   1   2
BRANCH   1   7
ATOM      7  C   UNL     1     128.576 145.670 122.619  1.00  0.00     0.002 C 
BRANCH   7   8
ATOM      8  C   UNL     1     128.956 144.383 123.364  1.00  0.00     0.028 C 
BRANCH   8   9
ATOM      9  C   UNL     1     128.169 143.174 122.846  1.00  0.00     0.156 C 
BRANCH   9  10
ATOM     10  O   UNL     1     127.541 142.495 123.901  1.00  0.00    -0.396 OA
ATOM     11  H   UNL     1     127.122 143.188 124.475  1.00  0.00     0.210 HD
ENDBRANCH   9  10
ENDBRANCH   8   9
ENDBRANCH   7   8
ENDBRANCH   1   7
TORSDOF 8
ENDMDL
