MODEL 1
REMARK VINA RESULT:    -3.774      0.000      0.000
REMARK INTER + INTRA:          -8.302
REMARK INTER:                  -7.084
REMARK INTRA:                  -1.219
REMARK UNBOUND:                -1.219
REMARK SMILES O=C([O-])CCCCCCCCCCCCCCC(=O)[O-]
REMARK SMILES IDX 10 1 9 2 8 3 7 4 6 5 5 6 4 7 2 8 1 9 3 10 11 11 12 12 13 13
REMARK SMILES IDX 14 14 15 15 16 16 17 17 18 18 19 19 20 20
REMARK H PARENT
REMARK Flexibility Score: inf
ROOT
ATOM      1  C   UNL     1      14.566  -8.509   6.675  1.00  0.00     0.000 C 
ENDROOT
BRANCH   1   2
ATOM      2  C   UNL     1      13.994  -9.160   5.402  1.00  0.00     0.000 C 
BRANCH   2   3
ATOM      3  C   UNL     1      12.723  -8.501   4.835  1.00  0.00     0.000 C 
BRANCH   3   4
ATOM      4  C   UNL     1      11.603  -8.360   5.880  1.00  0.00     0.000 C 
BRANCH   4   5
ATOM      5  C   UNL     1      10.307  -7.767   5.294  1.00  0.00     0.000 C 
BRANCH   5   6
ATOM      6  C   UNL     1       9.037  -8.606   5.524  1.00  0.00     0.006 C 
BRANCH   6   7
ATOM      7  C   UNL     1       9.036  -9.336   6.873  1.00  0.00     0.053 C 
BRANCH   7   8
ATOM      8  C   UNL     1       7.795  -9.006   7.644  1.00  0.00     0.041 C 
ATOM      9  O   UNL     1       7.142  -7.964   7.376  1.00  0.00    -0.550 OA
ATOM     10  O   UNL     1       7.388  -9.825   8.689  1.00  0.00    -0.550 OA
ENDBRANCH   7   8
ENDBRANCH   6   7
ENDBRANCH   5   6
ENDBRANCH   4   5
ENDBRANCH   3   4
ENDBRANCH   2   3
ENDBRANCH   1   2
BRANCH   1  11
ATOM     11  C   UNL     1      15.961  -7.898   6.462  1.00  0.00     0.000 C 
BRANCH  11  12
ATOM     12  C   UNL     1      15.950  -6.741   5.450  1.00  0.00     0.000 C 
BRANCH  12  13
ATOM     13  C   UNL     1      16.694  -7.081   4.151  1.00  0.00     0.000 C 
BRANCH  13  14
ATOM     14  C   UNL     1      17.997  -7.839   4.443  1.00  0.00     0.000 C 
BRANCH  14  15
ATOM     15  C   UNL     1      19.205  -6.887   4.562  1.00  0.00     0.000 C 
BRANCH  15  16
ATOM     16  C   UNL     1      20.054  -7.112   5.827  1.00  0.00     0.006 C 
BRANCH  16  17
ATOM     17  C   UNL     1      19.609  -8.315   6.680  1.00  0.00     0.053 C 
BRANCH  17  18
ATOM     18  C   UNL     1      19.329  -7.951   8.109  1.00  0.00     0.041 C 
ATOM     19  O   UNL     1      18.717  -6.885   8.387  1.00  0.00    -0.550 OA
ATOM     20  O   UNL     1      19.682  -8.822   9.131  1.00  0.00    -0.550 OA
ENDBRANCH  17  18
ENDBRANCH  16  17
ENDBRANCH  15  16
ENDBRANCH  14  15
ENDBRANCH  13  14
ENDBRANCH  12  13
ENDBRANCH  11  12
ENDBRANCH   1  11
TORSDOF 15
ENDMDL
MODEL 2
REMARK VINA RESULT:    -3.581      1.067      9.281
REMARK INTER + INTRA:          -7.940
REMARK INTER:                  -6.712
REMARK INTRA:                  -1.227
REMARK UNBOUND:                -1.219
REMARK SMILES O=C([O-])CCCCCCCCCCCCCCC(=O)[O-]
REMARK SMILES IDX 10 1 9 2 8 3 7 4 6 5 5 6 4 7 2 8 1 9 3 10 11 11 12 12 13 13
REMARK SMILES IDX 14 14 15 15 16 16 17 17 18 18 19 19 20 20
REMARK H PARENT
REMARK Flexibility Score: inf
ROOT
ATOM      1  C   UNL     1      15.421  -9.066   6.178  1.00  0.00     0.000 C 
ENDROOT
BRANCH   1   2
ATOM      2  C   UNL     1      15.758  -7.601   6.516  1.00  0.00     0.000 C 
BRANCH   2   3
ATOM      3  C   UNL     1      16.354  -6.776   5.361  1.00  0.00     0.000 C 
BRANCH   3   4
ATOM      4  C   UNL     1      17.025  -7.647   4.284  1.00  0.00     0.000 C 
BRANCH   4   5
ATOM      5  C   UNL     1      18.563  -7.604   4.350  1.00  0.00     0.000 C 
BRANCH   5   6
ATOM      6  C   UNL     1      19.150  -7.108   5.684  1.00  0.00     0.006 C 
BRANCH   6   7
ATOM      7  C   UNL     1      19.667  -8.246   6.574  1.00  0.00     0.053 C 
BRANCH   7   8
ATOM      8  C   UNL     1      19.319  -7.988   8.006  1.00  0.00     0.041 C 
ATOM      9  O   UNL     1      18.740  -6.919   8.335  1.00  0.00    -0.550 OA
ATOM     10  O   UNL     1      19.677  -8.906   8.985  1.00  0.00    -0.550 OA
ENDBRANCH   7   8
ENDBRANCH   6   7
ENDBRANCH   5   6
ENDBRANCH   4   5
ENDBRANCH   3   4
ENDBRANCH   2   3
ENDBRANCH   1   2
BRANCH   1  11
ATOM     11  C   UNL     1      13.927  -9.286   5.885  1.00  0.00     0.000 C 
BRANCH  11  12
ATOM     12  C   UNL     1      13.017  -8.622   6.931  1.00  0.00     0.000 C 
BRANCH  12  13
ATOM     13  C   UNL     1      11.756  -8.001   6.312  1.00  0.00     0.000 C 
BRANCH  13  14
ATOM     14  C   UNL     1      11.180  -8.902   5.209  1.00  0.00     0.000 C 
BRANCH  14  15
ATOM     15  C   UNL     1       9.638  -8.926   5.231  1.00  0.00     0.000 C 
BRANCH  15  16
ATOM     16  C   UNL     1       9.043  -9.638   6.461  1.00  0.00     0.006 C 
BRANCH  16  17
ATOM     17  C   UNL     1       8.116  -8.752   7.315  1.00  0.00     0.053 C 
BRANCH  17  18
ATOM     18  C   UNL     1       6.921  -8.251   6.558  1.00  0.00     0.041 C 
ATOM     19  O   UNL     1       6.606  -7.032   6.597  1.00  0.00    -0.550 OA
ATOM     20  O   UNL     1       6.194  -9.118   5.751  1.00  0.00    -0.550 OA
ENDBRANCH  17  18
ENDBRANCH  16  17
ENDBRANCH  15  16
ENDBRANCH  14  15
ENDBRANCH  13  14
ENDBRANCH  12  13
ENDBRANCH  11  12
ENDBRANCH   1  11
TORSDOF 15
ENDMDL
MODEL 3
REMARK VINA RESULT:    -3.489      1.463      2.508
REMARK INTER + INTRA:          -7.768
REMARK INTER:                  -6.792
REMARK INTRA:                  -0.976
REMARK UNBOUND:                -1.219
REMARK SMILES O=C([O-])CCCCCCCCCCCCCCC(=O)[O-]
REMARK SMILES IDX 10 1 9 2 8 3 7 4 6 5 5 6 4 7 2 8 1 9 3 10 11 11 12 12 13 13
REMARK SMILES IDX 14 14 15 15 16 16 17 17 18 18 19 19 20 20
REMARK H PARENT
REMARK Flexibility Score: inf
ROOT
ATOM      1  C   UNL     1      12.451  -8.275   6.460  1.00  0.00     0.000 C 
ENDROOT
BRANCH   1   2
ATOM      2  C   UNL     1      10.965  -8.044   6.124  1.00  0.00     0.000 C 
BRANCH   2   3
ATOM      3  C   UNL     1      10.339  -9.066   5.157  1.00  0.00     0.000 C 
BRANCH   3   4
ATOM      4  C   UNL     1       9.243  -9.921   5.814  1.00  0.00     0.000 C 
BRANCH   4   5
ATOM      5  C   UNL     1       8.941  -9.499   7.265  1.00  0.00     0.000 C 
BRANCH   5   6
ATOM      6  C   UNL     1       7.505  -9.006   7.522  1.00  0.00     0.006 C 
BRANCH   6   7
ATOM      7  C   UNL     1       6.696  -8.818   6.232  1.00  0.00     0.053 C 
BRANCH   7   8
ATOM      8  C   UNL     1       6.583  -7.365   5.895  1.00  0.00     0.041 C 
ATOM      9  O   UNL     1       6.765  -6.973   4.712  1.00  0.00    -0.550 OA
ATOM     10  O   UNL     1       6.324  -6.437   6.895  1.00  0.00    -0.550 OA
ENDBRANCH   7   8
ENDBRANCH   6   7
ENDBRANCH   5   6
ENDBRANCH   4   5
ENDBRANCH   3   4
ENDBRANCH   2   3
ENDBRANCH   1   2
BRANCH   1  11
ATOM     11  C   UNL     1      13.266  -8.781   5.258  1.00  0.00     0.000 C 
BRANCH  11  12
ATOM     12  C   UNL     1      13.785  -7.637   4.373  1.00  0.00     0.000 C 
BRANCH  12  13
ATOM     13  C   UNL     1      15.260  -7.813   3.980  1.00  0.00     0.000 C 
BRANCH  13  14
ATOM     14  C   UNL     1      16.156  -6.825   4.741  1.00  0.00     0.000 C 
BRANCH  14  15
ATOM     15  C   UNL     1      17.626  -6.906   4.279  1.00  0.00     0.000 C 
BRANCH  15  16
ATOM     16  C   UNL     1      18.503  -7.828   5.146  1.00  0.00     0.006 C 
BRANCH  16  17
ATOM     17  C   UNL     1      17.986  -8.021   6.585  1.00  0.00     0.053 C 
BRANCH  17  18
ATOM     18  C   UNL     1      19.054  -7.835   7.622  1.00  0.00     0.041 C 
ATOM     19  O   UNL     1      19.740  -8.816   8.014  1.00  0.00    -0.550 OA
ATOM     20  O   UNL     1      19.341  -6.565   8.106  1.00  0.00    -0.550 OA
ENDBRANCH  17  18
ENDBRANCH  16  17
ENDBRANCH  15  16
ENDBRANCH  14  15
ENDBRANCH  13  14
ENDBRANCH  12  13
ENDBRANCH  11  12
ENDBRANCH   1  11
TORSDOF 15
ENDMDL
MODEL 4
REMARK VINA RESULT:    -3.419      2.239     10.096
REMARK INTER + INTRA:          -7.635
REMARK INTER:                  -6.707
REMARK INTRA:                  -0.928
REMARK UNBOUND:                -1.219
REMARK SMILES O=C([O-])CCCCCCCCCCCCCCC(=O)[O-]
REMARK SMILES IDX 10 1 9 2 8 3 7 4 6 5 5 6 4 7 2 8 1 9 3 10 11 11 12 12 13 13
REMARK SMILES IDX 14 14 15 15 16 16 17 17 18 18 19 19 20 20
REMARK H PARENT
REMARK Flexibility Score: inf
ROOT
ATOM      1  C   UNL     1      15.204  -7.910   6.757  1.00  0.00     0.000 C 
ENDROOT
BRANCH   1   2
ATOM      2  C   UNL     1      16.006  -7.034   5.776  1.00  0.00     0.000 C 
BRANCH   2   3
ATOM      3  C   UNL     1      16.609  -7.774   4.568  1.00  0.00     0.000 C 
BRANCH   3   4
ATOM      4  C   UNL     1      17.765  -7.004   3.908  1.00  0.00     0.000 C 
BRANCH   4   5
ATOM      5  C   UNL     1      19.081  -7.804   3.883  1.00  0.00     0.000 C 
BRANCH   5   6
ATOM      6  C   UNL     1      19.863  -7.827   5.209  1.00  0.00     0.006 C 
BRANCH   6   7
ATOM      7  C   UNL     1      20.181  -6.424   5.743  1.00  0.00     0.053 C 
BRANCH   7   8
ATOM      8  C   UNL     1      21.253  -5.782   4.919  1.00  0.00     0.041 C 
ATOM      9  O   UNL     1      21.075  -4.635   4.431  1.00  0.00    -0.550 OA
ATOM     10  O   UNL     1      22.428  -6.471   4.649  1.00  0.00    -0.550 OA
ENDBRANCH   7   8
ENDBRANCH   6   7
ENDBRANCH   5   6
ENDBRANCH   4   5
ENDBRANCH   3   4
ENDBRANCH   2   3
ENDBRANCH   1   2
BRANCH   1  11
ATOM     11  C   UNL     1      14.096  -8.724   6.067  1.00  0.00     0.000 C 
BRANCH  11  12
ATOM     12  C   UNL     1      12.687  -8.238   6.440  1.00  0.00     0.000 C 
BRANCH  12  13
ATOM     13  C   UNL     1      11.913  -7.682   5.236  1.00  0.00     0.000 C 
BRANCH  13  14
ATOM     14  C   UNL     1      10.486  -8.248   5.187  1.00  0.00     0.000 C 
BRANCH  14  15
ATOM     15  C   UNL     1      10.105  -8.967   6.498  1.00  0.00     0.000 C 
BRANCH  15  16
ATOM     16  C   UNL     1       8.650  -9.470   6.534  1.00  0.00     0.006 C 
BRANCH  16  17
ATOM     17  C   UNL     1       7.683  -8.546   7.300  1.00  0.00     0.053 C 
BRANCH  17  18
ATOM     18  C   UNL     1       6.890  -7.648   6.396  1.00  0.00     0.041 C 
ATOM     19  O   UNL     1       6.640  -7.995   5.211  1.00  0.00    -0.550 OA
ATOM     20  O   UNL     1       6.365  -6.458   6.884  1.00  0.00    -0.550 OA
ENDBRANCH  17  18
ENDBRANCH  16  17
ENDBRANCH  15  16
ENDBRANCH  14  15
ENDBRANCH  13  14
ENDBRANCH  12  13
ENDBRANCH  11  12
ENDBRANCH   1  11
TORSDOF 15
ENDMDL
MODEL 5
REMARK VINA RESULT:    -3.410      1.332      1.849
REMARK INTER + INTRA:          -7.618
REMARK INTER:                  -6.807
REMARK INTRA:                  -0.811
REMARK UNBOUND:                -1.219
REMARK SMILES O=C([O-])CCCCCCCCCCCCCCC(=O)[O-]
REMARK SMILES IDX 10 1 9 2 8 3 7 4 6 5 5 6 4 7 2 8 1 9 3 10 11 11 12 12 13 13
REMARK SMILES IDX 14 14 15 15 16 16 17 17 18 18 19 19 20 20
REMARK H PARENT
REMARK Flexibility Score: inf
ROOT
ATOM      1  C   UNL     1      14.020  -8.145   6.013  1.00  0.00     0.000 C 
ENDROOT
BRANCH   1   2
ATOM      2  C   UNL     1      12.506  -8.423   6.090  1.00  0.00     0.000 C 
BRANCH   2   3
ATOM      3  C   UNL     1      11.634  -7.617   5.110  1.00  0.00     0.000 C 
BRANCH   3   4
ATOM      4  C   UNL     1      10.149  -8.016   5.160  1.00  0.00     0.000 C 
BRANCH   4   5
ATOM      5  C   UNL     1       9.790  -8.834   6.415  1.00  0.00     0.000 C 
BRANCH   5   6
ATOM      6  C   UNL     1       8.363  -9.412   6.437  1.00  0.00     0.006 C 
BRANCH   6   7
ATOM      7  C   UNL     1       7.398  -8.597   7.307  1.00  0.00     0.053 C 
BRANCH   7   8
ATOM      8  C   UNL     1       6.622  -7.634   6.465  1.00  0.00     0.041 C 
ATOM      9  O   UNL     1       6.454  -6.448   6.851  1.00  0.00    -0.550 OA
ATOM     10  O   UNL     1       6.042  -8.061   5.277  1.00  0.00    -0.550 OA
ENDBRANCH   7   8
ENDBRANCH   6   7
ENDBRANCH   5   6
ENDBRANCH   4   5
ENDBRANCH   3   4
ENDBRANCH   2   3
ENDBRANCH   1   2
BRANCH   1  11
ATOM     11  C   UNL     1      14.487  -7.754   4.601  1.00  0.00     0.000 C 
BRANCH  11  12
ATOM     12  C   UNL     1      15.506  -8.748   4.021  1.00  0.00     0.000 C 
BRANCH  12  13
ATOM     13  C   UNL     1      16.816  -8.789   4.821  1.00  0.00     0.000 C 
BRANCH  13  14
ATOM     14  C   UNL     1      17.385  -7.377   5.023  1.00  0.00     0.000 C 
BRANCH  14  15
ATOM     15  C   UNL     1      18.869  -7.287   4.610  1.00  0.00     0.000 C 
BRANCH  15  16
ATOM     16  C   UNL     1      19.842  -7.175   5.799  1.00  0.00     0.006 C 
BRANCH  16  17
ATOM     17  C   UNL     1      19.880  -8.422   6.702  1.00  0.00     0.053 C 
BRANCH  17  18
ATOM     18  C   UNL     1      19.415  -8.147   8.102  1.00  0.00     0.041 C 
ATOM     19  O   UNL     1      19.707  -8.938   9.039  1.00  0.00    -0.550 OA
ATOM     20  O   UNL     1      18.717  -6.980   8.388  1.00  0.00    -0.550 OA
ENDBRANCH  17  18
ENDBRANCH  16  17
ENDBRANCH  15  16
ENDBRANCH  14  15
ENDBRANCH  13  14
ENDBRANCH  12  13
ENDBRANCH  11  12
ENDBRANCH   1  11
TORSDOF 15
ENDMDL
MODEL 6
REMARK VINA RESULT:    -3.359      1.996      9.838
REMARK INTER + INTRA:          -7.524
REMARK INTER:                  -6.615
REMARK INTRA:                  -0.909
REMARK UNBOUND:                -1.219
REMARK SMILES O=C([O-])CCCCCCCCCCCCCCC(=O)[O-]
REMARK SMILES IDX 10 1 9 2 8 3 7 4 6 5 5 6 4 7 2 8 1 9 3 10 11 11 12 12 13 13
REMARK SMILES IDX 14 14 15 15 16 16 17 17 18 18 19 19 20 20
REMARK H PARENT
REMARK Flexibility Score: inf
ROOT
ATOM      1  C   UNL     1      16.499  -7.201   5.021  1.00  0.00     0.000 C 
ENDROOT
BRANCH   1   2
ATOM      2  C   UNL     1      16.915  -8.138   6.171  1.00  0.00     0.000 C 
BRANCH   2   3
ATOM      3  C   UNL     1      17.634  -9.431   5.743  1.00  0.00     0.000 C 
BRANCH   3   4
ATOM      4  C   UNL     1      18.972  -9.643   6.472  1.00  0.00     0.000 C 
BRANCH   4   5
ATOM      5  C   UNL     1      19.779  -8.340   6.635  1.00  0.00     0.000 C 
BRANCH   5   6
ATOM      6  C   UNL     1      20.537  -7.875   5.377  1.00  0.00     0.006 C 
BRANCH   6   7
ATOM      7  C   UNL     1      20.114  -6.478   4.904  1.00  0.00     0.053 C 
BRANCH   7   8
ATOM      8  C   UNL     1      21.317  -5.630   4.640  1.00  0.00     0.041 C 
ATOM      9  O   UNL     1      21.182  -4.413   4.346  1.00  0.00    -0.550 OA
ATOM     10  O   UNL     1      22.586  -6.194   4.670  1.00  0.00    -0.550 OA
ENDBRANCH   7   8
ENDBRANCH   6   7
ENDBRANCH   5   6
ENDBRANCH   4   5
ENDBRANCH   3   4
ENDBRANCH   2   3
ENDBRANCH   1   2
BRANCH   1  11
ATOM     11  C   UNL     1      15.010  -7.324   4.656  1.00  0.00     0.000 C 
BRANCH  11  12
ATOM     12  C   UNL     1      14.235  -8.221   5.634  1.00  0.00     0.000 C 
BRANCH  12  13
ATOM     13  C   UNL     1      12.998  -8.868   4.993  1.00  0.00     0.000 C 
BRANCH  13  14
ATOM     14  C   UNL     1      11.801  -7.906   5.007  1.00  0.00     0.000 C 
BRANCH  14  15
ATOM     15  C   UNL     1      10.956  -8.055   6.289  1.00  0.00     0.000 C 
BRANCH  15  16
ATOM     16  C   UNL     1       9.569  -8.682   6.054  1.00  0.00     0.006 C 
BRANCH  16  17
ATOM     17  C   UNL     1       9.137  -9.683   7.142  1.00  0.00     0.053 C 
BRANCH  17  18
ATOM     18  C   UNL     1       7.849  -9.303   7.812  1.00  0.00     0.041 C 
ATOM     19  O   UNL     1       7.345 -10.048   8.694  1.00  0.00    -0.550 OA
ATOM     20  O   UNL     1       7.242  -8.089   7.515  1.00  0.00    -0.550 OA
ENDBRANCH  17  18
ENDBRANCH  16  17
ENDBRANCH  15  16
ENDBRANCH  14  15
ENDBRANCH  13  14
ENDBRANCH  12  13
ENDBRANCH  11  12
ENDBRANCH   1  11
TORSDOF 15
ENDMDL
MODEL 7
REMARK VINA RESULT:    -3.343      2.330      3.872
REMARK INTER + INTRA:          -7.493
REMARK INTER:                  -6.815
REMARK INTRA:                  -0.678
REMARK UNBOUND:                -1.219
REMARK SMILES O=C([O-])CCCCCCCCCCCCCCC(=O)[O-]
REMARK SMILES IDX 10 1 9 2 8 3 7 4 6 5 5 6 4 7 2 8 1 9 3 10 11 11 12 12 13 13
REMARK SMILES IDX 14 14 15 15 16 16 17 17 18 18 19 19 20 20
REMARK H PARENT
REMARK Flexibility Score: inf
ROOT
ATOM      1  C   UNL     1      10.760  -7.837   4.607  1.00  0.00     0.000 C 
ENDROOT
BRANCH   1   2
ATOM      2  C   UNL     1       9.371  -8.291   5.096  1.00  0.00     0.000 C 
BRANCH   2   3
ATOM      3  C   UNL     1       9.347  -8.977   6.474  1.00  0.00     0.000 C 
BRANCH   3   4
ATOM      4  C   UNL     1       7.928  -9.104   7.056  1.00  0.00     0.000 C 
BRANCH   4   5
ATOM      5  C   UNL     1       7.041  -7.884   6.745  1.00  0.00     0.000 C 
BRANCH   5   6
ATOM      6  C   UNL     1       5.973  -8.107   5.659  1.00  0.00     0.006 C 
BRANCH   6   7
ATOM      7  C   UNL     1       5.855  -6.930   4.682  1.00  0.00     0.053 C 
BRANCH   7   8
ATOM      8  C   UNL     1       4.422  -6.540   4.504  1.00  0.00     0.041 C 
ATOM      9  O   UNL     1       4.103  -5.326   4.404  1.00  0.00    -0.550 OA
ATOM     10  O   UNL     1       3.432  -7.514   4.498  1.00  0.00    -0.550 OA
ENDBRANCH   7   8
ENDBRANCH   6   7
ENDBRANCH   5   6
ENDBRANCH   4   5
ENDBRANCH   3   4
ENDBRANCH   2   3
ENDBRANCH   1   2
BRANCH   1  11
ATOM     11  C   UNL     1      11.743  -7.569   5.759  1.00  0.00     0.000 C 
BRANCH  11  12
ATOM     12  C   UNL     1      13.155  -8.100   5.465  1.00  0.00     0.000 C 
BRANCH  12  13
ATOM     13  C   UNL     1      13.883  -8.581   6.729  1.00  0.00     0.000 C 
BRANCH  13  14
ATOM     14  C   UNL     1      15.133  -9.398   6.370  1.00  0.00     0.000 C 
BRANCH  14  15
ATOM     15  C   UNL     1      16.187  -8.547   5.631  1.00  0.00     0.000 C 
BRANCH  15  16
ATOM     16  C   UNL     1      16.944  -7.562   6.541  1.00  0.00     0.006 C 
BRANCH  16  17
ATOM     17  C   UNL     1      18.478  -7.674   6.454  1.00  0.00     0.053 C 
BRANCH  17  18
ATOM     18  C   UNL     1      19.140  -7.722   7.800  1.00  0.00     0.041 C 
ATOM     19  O   UNL     1      19.770  -8.750   8.165  1.00  0.00    -0.550 OA
ATOM     20  O   UNL     1      19.122  -6.604   8.625  1.00  0.00    -0.550 OA
ENDBRANCH  17  18
ENDBRANCH  16  17
ENDBRANCH  15  16
ENDBRANCH  14  15
ENDBRANCH  13  14
ENDBRANCH  12  13
ENDBRANCH  11  12
ENDBRANCH   1  11
TORSDOF 15
ENDMDL
MODEL 8
REMARK VINA RESULT:    -3.297      1.397      9.434
REMARK INTER + INTRA:          -7.407
REMARK INTER:                  -6.518
REMARK INTRA:                  -0.890
REMARK UNBOUND:                -1.219
REMARK SMILES O=C([O-])CCCCCCCCCCCCCCC(=O)[O-]
REMARK SMILES IDX 10 1 9 2 8 3 7 4 6 5 5 6 4 7 2 8 1 9 3 10 11 11 12 12 13 13
REMARK SMILES IDX 14 14 15 15 16 16 17 17 18 18 19 19 20 20
REMARK H PARENT
REMARK Flexibility Score: inf
ROOT
ATOM      1  C   UNL     1      12.274  -8.763   5.308  1.00  0.00     0.000 C 
ENDROOT
BRANCH   1   2
ATOM      2  C   UNL     1      13.491  -8.550   6.230  1.00  0.00     0.000 C 
BRANCH   2   3
ATOM      3  C   UNL     1      14.645  -7.731   5.623  1.00  0.00     0.000 C 
BRANCH   3   4
ATOM      4  C   UNL     1      16.031  -8.219   6.077  1.00  0.00     0.000 C 
BRANCH   4   5
ATOM      5  C   UNL     1      17.180  -7.338   5.551  1.00  0.00     0.000 C 
BRANCH   5   6
ATOM      6  C   UNL     1      18.554  -8.028   5.469  1.00  0.00     0.006 C 
BRANCH   6   7
ATOM      7  C   UNL     1      19.598  -7.399   6.400  1.00  0.00     0.053 C 
BRANCH   7   8
ATOM      8  C   UNL     1      19.315  -7.762   7.824  1.00  0.00     0.041 C 
ATOM      9  O   UNL     1      19.731  -8.854   8.294  1.00  0.00    -0.550 OA
ATOM     10  O   UNL     1      18.549  -6.918   8.618  1.00  0.00    -0.550 OA
ENDBRANCH   7   8
ENDBRANCH   6   7
ENDBRANCH   5   6
ENDBRANCH   4   5
ENDBRANCH   3   4
ENDBRANCH   2   3
ENDBRANCH   1   2
BRANCH   1  11
ATOM     11  C   UNL     1      11.581  -7.447   4.916  1.00  0.00     0.000 C 
BRANCH  11  12
ATOM     12  C   UNL     1      10.235  -7.676   4.211  1.00  0.00     0.000 C 
BRANCH  12  13
ATOM     13  C   UNL     1       9.307  -6.455   4.291  1.00  0.00     0.000 C 
BRANCH  13  14
ATOM     14  C   UNL     1       7.833  -6.875   4.203  1.00  0.00     0.000 C 
BRANCH  14  15
ATOM     15  C   UNL     1       7.677  -8.394   3.986  1.00  0.00     0.000 C 
BRANCH  15  16
ATOM     16  C   UNL     1       6.926  -9.113   5.122  1.00  0.00     0.006 C 
BRANCH  16  17
ATOM     17  C   UNL     1       7.049  -8.423   6.494  1.00  0.00     0.053 C 
BRANCH  17  18
ATOM     18  C   UNL     1       7.927  -9.173   7.452  1.00  0.00     0.041 C 
ATOM     19  O   UNL     1       7.485  -9.532   8.576  1.00  0.00    -0.550 OA
ATOM     20  O   UNL     1       9.214  -9.538   7.077  1.00  0.00    -0.550 OA
ENDBRANCH  17  18
ENDBRANCH  16  17
ENDBRANCH  15  16
ENDBRANCH  14  15
ENDBRANCH  13  14
ENDBRANCH  12  13
ENDBRANCH  11  12
ENDBRANCH   1  11
TORSDOF 15
ENDMDL
MODEL 9
REMARK VINA RESULT:    -3.021      2.212      2.866
REMARK INTER + INTRA:          -6.888
REMARK INTER:                  -5.880
REMARK INTRA:                  -1.009
REMARK UNBOUND:                -1.219
REMARK SMILES O=C([O-])CCCCCCCCCCCCCCC(=O)[O-]
REMARK SMILES IDX 10 1 9 2 8 3 7 4 6 5 5 6 4 7 2 8 1 9 3 10 11 11 12 12 13 13
REMARK SMILES IDX 14 14 15 15 16 16 17 17 18 18 19 19 20 20
REMARK H PARENT
REMARK Flexibility Score: inf
ROOT
ATOM      1  C   UNL     1      14.918  -7.517   5.076  1.00  0.00     0.000 C 
ENDROOT
BRANCH   1   2
ATOM      2  C   UNL     1      13.817  -7.599   4.002  1.00  0.00     0.000 C 
BRANCH   2   3
ATOM      3  C   UNL     1      12.481  -8.207   4.469  1.00  0.00     0.000 C 
BRANCH   3   4
ATOM      4  C   UNL     1      12.374  -8.317   5.999  1.00  0.00     0.000 C 
BRANCH   4   5
ATOM      5  C   UNL     1      10.917  -8.327   6.499  1.00  0.00     0.000 C 
BRANCH   5   6
ATOM      6  C   UNL     1       9.897  -8.968   5.540  1.00  0.00     0.006 C 
BRANCH   6   7
ATOM      7  C   UNL     1       8.494  -8.360   5.662  1.00  0.00     0.053 C 
BRANCH   7   8
ATOM      8  C   UNL     1       7.678  -9.124   6.657  1.00  0.00     0.041 C 
ATOM      9  O   UNL     1       6.866 -10.003   6.268  1.00  0.00    -0.550 OA
ATOM     10  O   UNL     1       7.780  -8.831   8.011  1.00  0.00    -0.550 OA
ENDBRANCH   7   8
ENDBRANCH   6   7
ENDBRANCH   5   6
ENDBRANCH   4   5
ENDBRANCH   3   4
ENDBRANCH   2   3
ENDBRANCH   1   2
BRANCH   1  11
ATOM     11  C   UNL     1      16.336  -7.624   4.490  1.00  0.00     0.000 C 
BRANCH  11  12
ATOM     12  C   UNL     1      16.945  -9.024   4.670  1.00  0.00     0.000 C 
BRANCH  12  13
ATOM     13  C   UNL     1      17.627  -9.203   6.035  1.00  0.00     0.000 C 
BRANCH  13  14
ATOM     14  C   UNL     1      18.304  -7.903   6.490  1.00  0.00     0.000 C 
BRANCH  14  15
ATOM     15  C   UNL     1      19.843  -7.997   6.416  1.00  0.00     0.000 C 
BRANCH  15  16
ATOM     16  C   UNL     1      20.414  -7.777   5.004  1.00  0.00     0.006 C 
BRANCH  16  17
ATOM     17  C   UNL     1      20.116  -6.386   4.412  1.00  0.00     0.053 C 
BRANCH  17  18
ATOM     18  C   UNL     1      21.311  -5.478   4.415  1.00  0.00     0.041 C 
ATOM     19  O   UNL     1      22.475  -5.955   4.485  1.00  0.00    -0.550 OA
ATOM     20  O   UNL     1      21.144  -4.106   4.269  1.00  0.00    -0.550 OA
ENDBRANCH  17  18
ENDBRANCH  16  17
ENDBRANCH  15  16
ENDBRANCH  14  15
ENDBRANCH  13  14
ENDBRANCH  12  13
ENDBRANCH  11  12
ENDBRANCH   1  11
TORSDOF 15
ENDMDL
