MODEL 1
REMARK VINA RESULT:    -4.850      0.000      0.000
REMARK INTER + INTRA:          -6.537
REMARK INTER:                  -6.552
REMARK INTRA:                   0.015
REMARK UNBOUND:                 0.015
REMARK SMILES [NH3+]CCCC[C@@H]([NH3+])C(=O)[O-]
REMARK SMILES IDX 4 1 3 2 2 3 1 4 5 8 6 9 7 10 8 14 9 15 10 16
REMARK H PARENT 1 5 1 6 1 7 7 11 7 12 7 13
REMARK Flexibility Score: inf
ROOT
ATOM      1  C   UNL     1     -19.697  68.534  -0.460  1.00  0.00     0.012 C 
ENDROOT
BRANCH   1   2
ATOM      2  C   UNL     1     -19.037  67.242  -0.956  1.00  0.00     0.061 C 
BRANCH   2   3
ATOM      3  C   UNL     1     -19.972  66.472  -1.900  1.00  0.00     0.258 C 
BRANCH   3   4
ATOM      4  N   UNL     1     -19.444  65.138  -2.185  1.00  0.00    -0.358 N 
ATOM      5  H   UNL     1     -20.089  64.422  -1.780  1.00  0.00     0.344 HD
ATOM      6  H   UNL     1     -19.382  64.990  -3.219  1.00  0.00     0.344 HD
ATOM      7  H   UNL     1     -18.499  65.026  -1.753  1.00  0.00     0.344 HD
ENDBRANCH   3   4
ENDBRANCH   2   3
ENDBRANCH   1   2
BRANCH   1   8
ATOM      8  C   UNL     1     -21.030  68.783  -1.188  1.00  0.00     0.072 C 
BRANCH   8   9
ATOM      9  C   UNL     1     -22.206  69.146  -0.253  1.00  0.00     0.227 C 
BRANCH   9  10
ATOM     10  N   UNL     1     -23.174  68.047  -0.129  1.00  0.00    -0.350 N 
ATOM     11  H   UNL     1     -24.122  68.399   0.134  1.00  0.00     0.345 HD
ATOM     12  H   UNL     1     -22.848  67.366   0.595  1.00  0.00     0.345 HD
ATOM     13  H   UNL     1     -23.247  67.542  -1.042  1.00  0.00     0.345 HD
ENDBRANCH   9  10
BRANCH   9  14
ATOM     14  C   UNL     1     -21.721  69.613   1.096  1.00  0.00     0.099 C 
ATOM     15  O   UNL     1     -21.603  70.840   1.354  1.00  0.00    -0.544 OA
ATOM     16  O   UNL     1     -21.447  68.679   2.088  1.00  0.00    -0.544 OA
ENDBRANCH   9  14
ENDBRANCH   8   9
ENDBRANCH   1   8
TORSDOF 7
ENDMDL
MODEL 2
REMARK VINA RESULT:    -4.801      2.510      4.359
REMARK INTER + INTRA:          -6.471
REMARK INTER:                  -6.254
REMARK INTRA:                  -0.216
REMARK UNBOUND:                 0.015
REMARK SMILES [NH3+]CCCC[C@@H]([NH3+])C(=O)[O-]
REMARK SMILES IDX 4 1 3 2 2 3 1 4 5 8 6 9 7 10 8 14 9 15 10 16
REMARK H PARENT 1 5 1 6 1 7 7 11 7 12 7 13
REMARK Flexibility Score: inf
ROOT
ATOM      1  C   UNL     1     -22.235  68.423  -0.120  1.00  0.00     0.012 C 
ENDROOT
BRANCH   1   2
ATOM      2  C   UNL     1     -21.904  69.257   1.124  1.00  0.00     0.061 C 
BRANCH   2   3
ATOM      3  C   UNL     1     -21.422  70.662   0.736  1.00  0.00     0.258 C 
BRANCH   3   4
ATOM      4  N   UNL     1     -21.631  71.608   1.831  1.00  0.00    -0.358 N 
ATOM      5  H   UNL     1     -22.210  71.151   2.572  1.00  0.00     0.344 HD
ATOM      6  H   UNL     1     -20.711  71.886   2.246  1.00  0.00     0.344 HD
ATOM      7  H   UNL     1     -22.133  72.456   1.483  1.00  0.00     0.344 HD
ENDBRANCH   3   4
ENDBRANCH   2   3
ENDBRANCH   1   2
BRANCH   1   8
ATOM      8  C   UNL     1     -21.099  68.511  -1.155  1.00  0.00     0.072 C 
BRANCH   8   9
ATOM      9  C   UNL     1     -19.900  67.581  -0.863  1.00  0.00     0.227 C 
BRANCH   9  10
ATOM     10  N   UNL     1     -19.762  66.522  -1.873  1.00  0.00    -0.350 N 
ATOM     11  H   UNL     1     -19.417  65.631  -1.449  1.00  0.00     0.345 HD
ATOM     12  H   UNL     1     -19.095  66.827  -2.620  1.00  0.00     0.345 HD
ATOM     13  H   UNL     1     -20.691  66.342  -2.319  1.00  0.00     0.345 HD
ENDBRANCH   9  10
BRANCH   9  14
ATOM     14  C   UNL     1     -18.620  68.360  -0.698  1.00  0.00     0.099 C 
ATOM     15  O   UNL     1     -18.518  69.540  -1.130  1.00  0.00    -0.544 OA
ATOM     16  O   UNL     1     -17.551  67.790  -0.016  1.00  0.00    -0.544 OA
ENDBRANCH   9  14
ENDBRANCH   8   9
ENDBRANCH   1   8
TORSDOF 7
ENDMDL
MODEL 3
REMARK VINA RESULT:    -4.743      1.526      2.019
REMARK INTER + INTRA:          -6.392
REMARK INTER:                  -6.297
REMARK INTRA:                  -0.095
REMARK UNBOUND:                 0.015
REMARK SMILES [NH3+]CCCC[C@@H]([NH3+])C(=O)[O-]
REMARK SMILES IDX 4 1 3 2 2 3 1 4 5 8 6 9 7 10 8 14 9 15 10 16
REMARK H PARENT 1 5 1 6 1 7 7 11 7 12 7 13
REMARK Flexibility Score: inf
ROOT
ATOM      1  C   UNL     1     -20.836  67.488  -1.513  1.00  0.00     0.012 C 
ENDROOT
BRANCH   1   2
ATOM      2  C   UNL     1     -19.329  67.206  -1.458  1.00  0.00     0.061 C 
BRANCH   2   3
ATOM      3  C   UNL     1     -18.651  68.039  -0.362  1.00  0.00     0.258 C 
BRANCH   3   4
ATOM      4  N   UNL     1     -17.839  69.107  -0.944  1.00  0.00    -0.358 N 
ATOM      5  H   UNL     1     -17.997  69.989  -0.404  1.00  0.00     0.344 HD
ATOM      6  H   UNL     1     -16.825  68.856  -0.893  1.00  0.00     0.344 HD
ATOM      7  H   UNL     1     -18.115  69.266  -1.940  1.00  0.00     0.344 HD
ENDBRANCH   3   4
ENDBRANCH   2   3
ENDBRANCH   1   2
BRANCH   1   8
ATOM      8  C   UNL     1     -21.127  68.969  -1.210  1.00  0.00     0.072 C 
BRANCH   8   9
ATOM      9  C   UNL     1     -22.276  69.197  -0.201  1.00  0.00     0.227 C 
BRANCH   9  10
ATOM     10  N   UNL     1     -23.179  68.041  -0.120  1.00  0.00    -0.350 N 
ATOM     11  H   UNL     1     -24.163  68.305  -0.357  1.00  0.00     0.345 HD
ATOM     12  H   UNL     1     -23.156  67.637   0.844  1.00  0.00     0.345 HD
ATOM     13  H   UNL     1     -22.862  67.302  -0.791  1.00  0.00     0.345 HD
ENDBRANCH   9  10
BRANCH   9  14
ATOM     14  C   UNL     1     -21.753  69.588   1.158  1.00  0.00     0.099 C 
ATOM     15  O   UNL     1     -21.366  68.714   1.979  1.00  0.00    -0.544 OA
ATOM     16  O   UNL     1     -21.648  70.933   1.493  1.00  0.00    -0.544 OA
ENDBRANCH   9  14
ENDBRANCH   8   9
ENDBRANCH   1   8
TORSDOF 7
ENDMDL
MODEL 4
REMARK VINA RESULT:    -4.683      1.601      1.813
REMARK INTER + INTRA:          -6.310
REMARK INTER:                  -6.170
REMARK INTRA:                  -0.140
REMARK UNBOUND:                 0.015
REMARK SMILES [NH3+]CCCC[C@@H]([NH3+])C(=O)[O-]
REMARK SMILES IDX 4 1 3 2 2 3 1 4 5 8 6 9 7 10 8 14 9 15 10 16
REMARK H PARENT 1 5 1 6 1 7 7 11 7 12 7 13
REMARK Flexibility Score: inf
ROOT
ATOM      1  C   UNL     1     -20.709  67.457  -1.385  1.00  0.00     0.012 C 
ENDROOT
BRANCH   1   2
ATOM      2  C   UNL     1     -19.181  67.365  -1.480  1.00  0.00     0.061 C 
BRANCH   2   3
ATOM      3  C   UNL     1     -18.507  68.245  -0.417  1.00  0.00     0.258 C 
BRANCH   3   4
ATOM      4  N   UNL     1     -17.828  69.383  -1.035  1.00  0.00    -0.358 N 
ATOM      5  H   UNL     1     -17.390  69.966  -0.286  1.00  0.00     0.344 HD
ATOM      6  H   UNL     1     -17.078  69.045  -1.681  1.00  0.00     0.344 HD
ATOM      7  H   UNL     1     -18.514  69.968  -1.563  1.00  0.00     0.344 HD
ENDBRANCH   3   4
ENDBRANCH   2   3
ENDBRANCH   1   2
BRANCH   1   8
ATOM      8  C   UNL     1     -21.164  68.924  -1.282  1.00  0.00     0.072 C 
BRANCH   8   9
ATOM      9  C   UNL     1     -22.285  69.170  -0.247  1.00  0.00     0.227 C 
BRANCH   9  10
ATOM     10  N   UNL     1     -23.173  68.007  -0.105  1.00  0.00    -0.350 N 
ATOM     11  H   UNL     1     -23.523  67.677  -1.033  1.00  0.00     0.345 HD
ATOM     12  H   UNL     1     -23.989  68.254   0.502  1.00  0.00     0.345 HD
ATOM     13  H   UNL     1     -22.652  67.224   0.353  1.00  0.00     0.345 HD
ENDBRANCH   9  10
BRANCH   9  14
ATOM     14  C   UNL     1     -21.727  69.606   1.084  1.00  0.00     0.099 C 
ATOM     15  O   UNL     1     -21.663  70.827   1.392  1.00  0.00    -0.544 OA
ATOM     16  O   UNL     1     -21.323  68.649   2.007  1.00  0.00    -0.544 OA
ENDBRANCH   9  14
ENDBRANCH   8   9
ENDBRANCH   1   8
TORSDOF 7
ENDMDL
MODEL 5
REMARK VINA RESULT:    -4.566      3.019      4.784
REMARK INTER + INTRA:          -6.152
REMARK INTER:                  -5.946
REMARK INTRA:                  -0.206
REMARK UNBOUND:                 0.015
REMARK SMILES [NH3+]CCCC[C@@H]([NH3+])C(=O)[O-]
REMARK SMILES IDX 4 1 3 2 2 3 1 4 5 8 6 9 7 10 8 14 9 15 10 16
REMARK H PARENT 1 5 1 6 1 7 7 11 7 12 7 13
REMARK Flexibility Score: inf
ROOT
ATOM      1  C   UNL     1     -21.243  68.812   1.140  1.00  0.00     0.012 C 
ENDROOT
BRANCH   1   2
ATOM      2  C   UNL     1     -21.637  69.821   0.054  1.00  0.00     0.061 C 
BRANCH   2   3
ATOM      3  C   UNL     1     -21.233  71.247   0.453  1.00  0.00     0.258 C 
BRANCH   3   4
ATOM      4  N   UNL     1     -21.624  71.535   1.832  1.00  0.00    -0.358 N 
ATOM      5  H   UNL     1     -22.584  71.947   1.836  1.00  0.00     0.344 HD
ATOM      6  H   UNL     1     -21.633  70.652   2.394  1.00  0.00     0.344 HD
ATOM      7  H   UNL     1     -20.959  72.219   2.259  1.00  0.00     0.344 HD
ENDBRANCH   3   4
ENDBRANCH   2   3
ENDBRANCH   1   2
BRANCH   1   8
ATOM      8  C   UNL     1     -20.025  67.981   0.699  1.00  0.00     0.072 C 
BRANCH   8   9
ATOM      9  C   UNL     1     -19.581  68.230  -0.761  1.00  0.00     0.227 C 
BRANCH   9  10
ATOM     10  N   UNL     1     -18.174  68.645  -0.849  1.00  0.00    -0.350 N 
ATOM     11  H   UNL     1     -17.533  67.911  -0.471  1.00  0.00     0.345 HD
ATOM     12  H   UNL     1     -18.031  69.533  -0.315  1.00  0.00     0.345 HD
ATOM     13  H   UNL     1     -17.925  68.823  -1.850  1.00  0.00     0.345 HD
ENDBRANCH   9  10
BRANCH   9  14
ATOM     14  C   UNL     1     -19.862  67.036  -1.638  1.00  0.00     0.099 C 
ATOM     15  O   UNL     1     -19.010  66.118  -1.776  1.00  0.00    -0.544 OA
ATOM     16  O   UNL     1     -21.098  66.918  -2.264  1.00  0.00    -0.544 OA
ENDBRANCH   9  14
ENDBRANCH   8   9
ENDBRANCH   1   8
TORSDOF 7
ENDMDL
MODEL 6
REMARK VINA RESULT:    -4.449      2.618      4.290
REMARK INTER + INTRA:          -5.995
REMARK INTER:                  -5.564
REMARK INTRA:                  -0.430
REMARK UNBOUND:                 0.015
REMARK SMILES [NH3+]CCCC[C@@H]([NH3+])C(=O)[O-]
REMARK SMILES IDX 4 1 3 2 2 3 1 4 5 8 6 9 7 10 8 14 9 15 10 16
REMARK H PARENT 1 5 1 6 1 7 7 11 7 12 7 13
REMARK Flexibility Score: inf
ROOT
ATOM      1  C   UNL     1     -20.900  69.919   0.037  1.00  0.00     0.012 C 
ENDROOT
BRANCH   1   2
ATOM      2  C   UNL     1     -22.241  69.781   0.769  1.00  0.00     0.061 C 
BRANCH   2   3
ATOM      3  C   UNL     1     -22.759  68.338   0.705  1.00  0.00     0.258 C 
BRANCH   3   4
ATOM      4  N   UNL     1     -23.417  68.075  -0.575  1.00  0.00    -0.358 N 
ATOM      5  H   UNL     1     -23.603  68.984  -1.056  1.00  0.00     0.344 HD
ATOM      6  H   UNL     1     -22.798  67.491  -1.183  1.00  0.00     0.344 HD
ATOM      7  H   UNL     1     -24.325  67.583  -0.417  1.00  0.00     0.344 HD
ENDBRANCH   3   4
ENDBRANCH   2   3
ENDBRANCH   1   2
BRANCH   1   8
ATOM      8  C   UNL     1     -20.085  68.618   0.138  1.00  0.00     0.072 C 
BRANCH   8   9
ATOM      9  C   UNL     1     -19.381  68.206  -1.175  1.00  0.00     0.227 C 
BRANCH   9  10
ATOM     10  N   UNL     1     -17.928  68.066  -1.004  1.00  0.00    -0.350 N 
ATOM     11  H   UNL     1     -17.469  68.992  -0.853  1.00  0.00     0.345 HD
ATOM     12  H   UNL     1     -17.512  67.610  -1.849  1.00  0.00     0.345 HD
ATOM     13  H   UNL     1     -17.731  67.457  -0.175  1.00  0.00     0.345 HD
ENDBRANCH   9  10
BRANCH   9  14
ATOM     14  C   UNL     1     -19.992  66.960  -1.766  1.00  0.00     0.099 C 
ATOM     15  O   UNL     1     -21.170  66.965  -2.214  1.00  0.00    -0.544 OA
ATOM     16  O   UNL     1     -19.230  65.802  -1.867  1.00  0.00    -0.544 OA
ENDBRANCH   9  14
ENDBRANCH   8   9
ENDBRANCH   1   8
TORSDOF 7
ENDMDL
MODEL 7
REMARK VINA RESULT:    -4.197      1.800      2.020
REMARK INTER + INTRA:          -5.654
REMARK INTER:                  -5.337
REMARK INTRA:                  -0.317
REMARK UNBOUND:                 0.015
REMARK SMILES [NH3+]CCCC[C@@H]([NH3+])C(=O)[O-]
REMARK SMILES IDX 4 1 3 2 2 3 1 4 5 8 6 9 7 10 8 14 9 15 10 16
REMARK H PARENT 1 5 1 6 1 7 7 11 7 12 7 13
REMARK Flexibility Score: inf
ROOT
ATOM      1  C   UNL     1     -19.136  68.882  -0.743  1.00  0.00     0.012 C 
ENDROOT
BRANCH   1   2
ATOM      2  C   UNL     1     -19.331  67.399  -0.400  1.00  0.00     0.061 C 
BRANCH   2   3
ATOM      3  C   UNL     1     -19.362  66.538  -1.671  1.00  0.00     0.258 C 
BRANCH   3   4
ATOM      4  N   UNL     1     -20.699  66.527  -2.262  1.00  0.00    -0.358 N 
ATOM      5  H   UNL     1     -20.965  65.541  -2.486  1.00  0.00     0.344 HD
ATOM      6  H   UNL     1     -21.394  66.919  -1.586  1.00  0.00     0.344 HD
ATOM      7  H   UNL     1     -20.706  67.088  -3.144  1.00  0.00     0.344 HD
ENDBRANCH   3   4
ENDBRANCH   2   3
ENDBRANCH   1   2
BRANCH   1   8
ATOM      8  C   UNL     1     -20.474  69.639  -0.675  1.00  0.00     0.072 C 
BRANCH   8   9
ATOM      9  C   UNL     1     -21.214  69.502   0.675  1.00  0.00     0.227 C 
BRANCH   9  10
ATOM     10  N   UNL     1     -21.605  70.808   1.226  1.00  0.00    -0.350 N 
ATOM     11  H   UNL     1     -20.829  71.239   1.777  1.00  0.00     0.345 HD
ATOM     12  H   UNL     1     -22.443  70.697   1.844  1.00  0.00     0.345 HD
ATOM     13  H   UNL     1     -21.860  71.455   0.444  1.00  0.00     0.345 HD
ENDBRANCH   9  10
BRANCH   9  14
ATOM     14  C   UNL     1     -22.394  68.569   0.570  1.00  0.00     0.099 C 
ATOM     15  O   UNL     1     -23.021  68.199   1.599  1.00  0.00    -0.544 OA
ATOM     16  O   UNL     1     -22.830  68.150  -0.681  1.00  0.00    -0.544 OA
ENDBRANCH   9  14
ENDBRANCH   8   9
ENDBRANCH   1   8
TORSDOF 7
ENDMDL
MODEL 8
REMARK VINA RESULT:    -3.663      2.895      4.829
REMARK INTER + INTRA:          -4.933
REMARK INTER:                  -4.982
REMARK INTRA:                   0.049
REMARK UNBOUND:                 0.015
REMARK SMILES [NH3+]CCCC[C@@H]([NH3+])C(=O)[O-]
REMARK SMILES IDX 4 1 3 2 2 3 1 4 5 8 6 9 7 10 8 14 9 15 10 16
REMARK H PARENT 1 5 1 6 1 7 7 11 7 12 7 13
REMARK Flexibility Score: inf
ROOT
ATOM      1  C   UNL     1     -21.190  70.946   0.261  1.00  0.00     0.012 C 
ENDROOT
BRANCH   1   2
ATOM      2  C   UNL     1     -21.625  71.090   1.726  1.00  0.00     0.061 C 
BRANCH   2   3
ATOM      3  C   UNL     1     -22.033  72.536   2.041  1.00  0.00     0.258 C 
BRANCH   3   4
ATOM      4  N   UNL     1     -21.685  72.889   3.416  1.00  0.00    -0.358 N 
ATOM      5  H   UNL     1     -21.269  73.848   3.428  1.00  0.00     0.344 HD
ATOM      6  H   UNL     1     -22.543  72.886   4.016  1.00  0.00     0.344 HD
ATOM      7  H   UNL     1     -20.986  72.211   3.796  1.00  0.00     0.344 HD
ENDBRANCH   3   4
ENDBRANCH   2   3
ENDBRANCH   1   2
BRANCH   1   8
ATOM      8  C   UNL     1     -20.562  69.564   0.010  1.00  0.00     0.072 C 
BRANCH   8   9
ATOM      9  C   UNL     1     -21.362  68.670  -0.964  1.00  0.00     0.227 C 
BRANCH   9  10
ATOM     10  N   UNL     1     -20.548  67.568  -1.499  1.00  0.00    -0.350 N 
ATOM     11  H   UNL     1     -20.948  66.637  -1.241  1.00  0.00     0.345 HD
ATOM     12  H   UNL     1     -19.571  67.636  -1.132  1.00  0.00     0.345 HD
ATOM     13  H   UNL     1     -20.510  67.637  -2.542  1.00  0.00     0.345 HD
ENDBRANCH   9  10
BRANCH   9  14
ATOM     14  C   UNL     1     -22.635  68.164  -0.336  1.00  0.00     0.099 C 
ATOM     15  O   UNL     1     -22.779  68.148   0.916  1.00  0.00    -0.544 OA
ATOM     16  O   UNL     1     -23.687  67.756  -1.148  1.00  0.00    -0.544 OA
ENDBRANCH   9  14
ENDBRANCH   8   9
ENDBRANCH   1   8
TORSDOF 7
ENDMDL
MODEL 9
REMARK VINA RESULT:    -3.127      2.488      3.923
REMARK INTER + INTRA:          -4.208
REMARK INTER:                  -4.460
REMARK INTRA:                   0.252
REMARK UNBOUND:                 0.015
REMARK SMILES [NH3+]CCCC[C@@H]([NH3+])C(=O)[O-]
REMARK SMILES IDX 4 1 3 2 2 3 1 4 5 8 6 9 7 10 8 14 9 15 10 16
REMARK H PARENT 1 5 1 6 1 7 7 11 7 12 7 13
REMARK Flexibility Score: inf
ROOT
ATOM      1  C   UNL     1     -21.226  69.114   0.305  1.00  0.00     0.012 C 
ENDROOT
BRANCH   1   2
ATOM      2  C   UNL     1     -22.681  68.625   0.288  1.00  0.00     0.061 C 
BRANCH   2   3
ATOM      3  C   UNL     1     -23.012  67.921  -1.035  1.00  0.00     0.258 C 
BRANCH   3   4
ATOM      4  N   UNL     1     -24.431  67.577  -1.103  1.00  0.00    -0.358 N 
ATOM      5  H   UNL     1     -24.918  67.970  -0.266  1.00  0.00     0.344 HD
ATOM      6  H   UNL     1     -24.859  67.986  -1.966  1.00  0.00     0.344 HD
ATOM      7  H   UNL     1     -24.549  66.538  -1.107  1.00  0.00     0.344 HD
ENDBRANCH   3   4
ENDBRANCH   2   3
ENDBRANCH   1   2
BRANCH   1   8
ATOM      8  C   UNL     1     -20.269  67.970   0.686  1.00  0.00     0.072 C 
BRANCH   8   9
ATOM      9  C   UNL     1     -19.357  67.494  -0.467  1.00  0.00     0.227 C 
BRANCH   9  10
ATOM     10  N   UNL     1     -20.113  67.237  -1.701  1.00  0.00    -0.350 N 
ATOM     11  H   UNL     1     -19.816  66.342  -2.152  1.00  0.00     0.345 HD
ATOM     12  H   UNL     1     -19.973  68.024  -2.375  1.00  0.00     0.345 HD
ATOM     13  H   UNL     1     -21.134  67.175  -1.478  1.00  0.00     0.345 HD
ENDBRANCH   9  10
BRANCH   9  14
ATOM     14  C   UNL     1     -18.217  68.452  -0.705  1.00  0.00     0.099 C 
ATOM     15  O   UNL     1     -18.345  69.431  -1.489  1.00  0.00    -0.544 OA
ATOM     16  O   UNL     1     -17.023  68.286  -0.013  1.00  0.00    -0.544 OA
ENDBRANCH   9  14
ENDBRANCH   8   9
ENDBRANCH   1   8
TORSDOF 7
ENDMDL
