MODEL 1
REMARK VINA RESULT:    -4.502      0.000      0.000
REMARK INTER + INTRA:          -7.811
REMARK INTER:                  -7.134
REMARK INTRA:                  -0.677
REMARK UNBOUND:                -0.677
REMARK SMILES CCCCCCCCCCCC(=O)[O-]
REMARK SMILES IDX 7 1 8 2 9 3 10 4 11 5 12 6 13 7 14 8 6 9 5 10 4 11 3 12 2 13
REMARK SMILES IDX 1 14
REMARK H PARENT
REMARK Flexibility Score: inf
ROOT
ATOM      1  C   UNL     1      39.431 116.992  13.930  1.00  0.00     0.000 C 
ENDROOT
BRANCH   1   2
ATOM      2  C   UNL     1      39.975 118.027  12.931  1.00  0.00     0.000 C 
BRANCH   2   3
ATOM      3  C   UNL     1      40.029 117.489  11.490  1.00  0.00     0.000 C 
BRANCH   3   4
ATOM      4  C   UNL     1      41.295 117.934  10.741  1.00  0.00     0.006 C 
BRANCH   4   5
ATOM      5  C   UNL     1      42.428 116.904  10.838  1.00  0.00     0.053 C 
BRANCH   5   6
ATOM      6  C   UNL     1      43.144 116.790   9.529  1.00  0.00     0.041 C 
ATOM      7  O   UNL     1      42.561 117.102   8.458  1.00  0.00    -0.550 OA
ATOM      8  O   UNL     1      44.474 116.387   9.497  1.00  0.00    -0.550 OA
ENDBRANCH   5   6
ENDBRANCH   4   5
ENDBRANCH   3   4
ENDBRANCH   2   3
ENDBRANCH   1   2
BRANCH   1   9
ATOM      9  C   UNL     1      38.052 117.379  14.489  1.00  0.00     0.000 C 
BRANCH   9  10
ATOM     10  C   UNL     1      36.937 117.275  13.438  1.00  0.00    -0.000 C 
BRANCH  10  11
ATOM     11  C   UNL     1      36.313 118.639  13.091  1.00  0.00    -0.000 C 
BRANCH  11  12
ATOM     12  C   UNL     1      36.309 119.600  14.299  1.00  0.00    -0.000 C 
BRANCH  12  13
ATOM     13  C   UNL     1      37.092 120.901  14.052  1.00  0.00    -0.003 C 
ATOM     14  C   UNL     1      36.997 121.887  15.214  1.00  0.00     0.004 C 
ENDBRANCH  12  13
ENDBRANCH  11  12
ENDBRANCH  10  11
ENDBRANCH   9  10
ENDBRANCH   1   9
TORSDOF 10
ENDMDL
MODEL 2
REMARK VINA RESULT:    -4.469      4.206      7.449
REMARK INTER + INTRA:          -7.759
REMARK INTER:                  -7.179
REMARK INTRA:                  -0.580
REMARK UNBOUND:                -0.677
REMARK SMILES CCCCCCCCCCCC(=O)[O-]
REMARK SMILES IDX 7 1 8 2 9 3 10 4 11 5 12 6 13 7 14 8 6 9 5 10 4 11 3 12 2 13
REMARK SMILES IDX 1 14
REMARK H PARENT
REMARK Flexibility Score: inf
ROOT
ATOM      1  C   UNL     1      40.046 118.825  12.600  1.00  0.00     0.000 C 
ENDROOT
BRANCH   1   2
ATOM      2  C   UNL     1      38.975 118.669  13.691  1.00  0.00     0.000 C 
BRANCH   2   3
ATOM      3  C   UNL     1      37.582 118.356  13.116  1.00  0.00     0.000 C 
BRANCH   3   4
ATOM      4  C   UNL     1      36.571 119.485  13.371  1.00  0.00     0.006 C 
BRANCH   4   5
ATOM      5  C   UNL     1      37.197 120.685  14.092  1.00  0.00     0.053 C 
BRANCH   5   6
ATOM      6  C   UNL     1      36.600 120.848  15.454  1.00  0.00     0.041 C 
ATOM      7  O   UNL     1      36.074 119.864  16.037  1.00  0.00    -0.550 OA
ATOM      8  O   UNL     1      36.670 122.075  16.102  1.00  0.00    -0.550 OA
ENDBRANCH   5   6
ENDBRANCH   4   5
ENDBRANCH   3   4
ENDBRANCH   2   3
ENDBRANCH   1   2
BRANCH   1   9
ATOM      9  C   UNL     1      40.170 117.575  11.711  1.00  0.00     0.000 C 
BRANCH   9  10
ATOM     10  C   UNL     1      41.422 116.743  12.031  1.00  0.00    -0.000 C 
BRANCH  10  11
ATOM     11  C   UNL     1      42.571 116.987  11.037  1.00  0.00    -0.000 C 
BRANCH  11  12
ATOM     12  C   UNL     1      42.084 117.669   9.741  1.00  0.00    -0.000 C 
BRANCH  12  13
ATOM     13  C   UNL     1      42.571 116.972   8.460  1.00  0.00    -0.003 C 
ATOM     14  C   UNL     1      43.792 116.082   8.689  1.00  0.00     0.004 C 
ENDBRANCH  12  13
ENDBRANCH  11  12
ENDBRANCH  10  11
ENDBRANCH   9  10
ENDBRANCH   1   9
TORSDOF 10
ENDMDL
MODEL 3
REMARK VINA RESULT:    -4.462      1.981      3.353
REMARK INTER + INTRA:          -7.748
REMARK INTER:                  -7.427
REMARK INTRA:                  -0.320
REMARK UNBOUND:                -0.677
REMARK SMILES CCCCCCCCCCCC(=O)[O-]
REMARK SMILES IDX 7 1 8 2 9 3 10 4 11 5 12 6 13 7 14 8 6 9 5 10 4 11 3 12 2 13
REMARK SMILES IDX 1 14
REMARK H PARENT
REMARK Flexibility Score: inf
ROOT
ATOM      1  C   UNL     1      41.013 117.879  10.701  1.00  0.00     0.000 C 
ENDROOT
BRANCH   1   2
ATOM      2  C   UNL     1      42.332 117.093  10.614  1.00  0.00     0.000 C 
BRANCH   2   3
ATOM      3  C   UNL     1      42.949 117.124   9.205  1.00  0.00     0.000 C 
BRANCH   3   4
ATOM      4  C   UNL     1      43.548 115.769   8.793  1.00  0.00     0.006 C 
BRANCH   4   5
ATOM      5  C   UNL     1      44.806 115.413   9.594  1.00  0.00     0.053 C 
BRANCH   5   6
ATOM      6  C   UNL     1      44.779 113.974  10.000  1.00  0.00     0.041 C 
ATOM      7  O   UNL     1      43.977 113.581  10.888  1.00  0.00    -0.550 OA
ATOM      8  O   UNL     1      45.603 113.055   9.362  1.00  0.00    -0.550 OA
ENDBRANCH   5   6
ENDBRANCH   4   5
ENDBRANCH   3   4
ENDBRANCH   2   3
ENDBRANCH   1   2
BRANCH   1   9
ATOM      9  C   UNL     1      40.314 117.710  12.060  1.00  0.00     0.000 C 
BRANCH   9  10
ATOM     10  C   UNL     1      39.893 119.051  12.680  1.00  0.00    -0.000 C 
BRANCH  10  11
ATOM     11  C   UNL     1      38.696 118.917  13.638  1.00  0.00    -0.000 C 
BRANCH  11  12
ATOM     12  C   UNL     1      37.694 120.081  13.485  1.00  0.00    -0.000 C 
BRANCH  12  13
ATOM     13  C   UNL     1      36.247 119.697  13.839  1.00  0.00    -0.003 C 
ATOM     14  C   UNL     1      35.511 119.012  12.688  1.00  0.00     0.004 C 
ENDBRANCH  12  13
ENDBRANCH  11  12
ENDBRANCH  10  11
ENDBRANCH   9  10
ENDBRANCH   1   9
TORSDOF 10
ENDMDL
MODEL 4
REMARK VINA RESULT:    -4.458      1.433      2.213
REMARK INTER + INTRA:          -7.741
REMARK INTER:                  -7.186
REMARK INTRA:                  -0.556
REMARK UNBOUND:                -0.677
REMARK SMILES CCCCCCCCCCCC(=O)[O-]
REMARK SMILES IDX 7 1 8 2 9 3 10 4 11 5 12 6 13 7 14 8 6 9 5 10 4 11 3 12 2 13
REMARK SMILES IDX 1 14
REMARK H PARENT
REMARK Flexibility Score: inf
ROOT
ATOM      1  C   UNL     1      39.982 117.180  12.525  1.00  0.00     0.000 C 
ENDROOT
BRANCH   1   2
ATOM      2  C   UNL     1      40.750 118.246  11.727  1.00  0.00     0.000 C 
BRANCH   2   3
ATOM      3  C   UNL     1      41.142 117.765  10.318  1.00  0.00     0.000 C 
BRANCH   3   4
ATOM      4  C   UNL     1      42.560 117.174  10.270  1.00  0.00     0.006 C 
BRANCH   4   5
ATOM      5  C   UNL     1      43.010 116.839   8.842  1.00  0.00     0.053 C 
BRANCH   5   6
ATOM      6  C   UNL     1      43.997 115.716   8.855  1.00  0.00     0.041 C 
ATOM      7  O   UNL     1      45.093 115.828   8.244  1.00  0.00    -0.550 OA
ATOM      8  O   UNL     1      43.731 114.564   9.584  1.00  0.00    -0.550 OA
ENDBRANCH   5   6
ENDBRANCH   4   5
ENDBRANCH   3   4
ENDBRANCH   2   3
ENDBRANCH   1   2
BRANCH   1   9
ATOM      9  C   UNL     1      38.966 117.794  13.503  1.00  0.00     0.000 C 
BRANCH   9  10
ATOM     10  C   UNL     1      39.072 119.324  13.584  1.00  0.00    -0.000 C 
BRANCH  10  11
ATOM     11  C   UNL     1      37.721 120.029  13.363  1.00  0.00    -0.000 C 
BRANCH  11  12
ATOM     12  C   UNL     1      36.743 119.792  14.533  1.00  0.00    -0.000 C 
BRANCH  12  13
ATOM     13  C   UNL     1      35.485 119.003  14.131  1.00  0.00    -0.003 C 
ATOM     14  C   UNL     1      35.407 118.725  12.631  1.00  0.00     0.004 C 
ENDBRANCH  12  13
ENDBRANCH  11  12
ENDBRANCH  10  11
ENDBRANCH   9  10
ENDBRANCH   1   9
TORSDOF 10
ENDMDL
MODEL 5
REMARK VINA RESULT:    -4.452      3.403      7.347
REMARK INTER + INTRA:          -7.731
REMARK INTER:                  -7.225
REMARK INTRA:                  -0.506
REMARK UNBOUND:                -0.677
REMARK SMILES CCCCCCCCCCCC(=O)[O-]
REMARK SMILES IDX 7 1 8 2 9 3 10 4 11 5 12 6 13 7 14 8 6 9 5 10 4 11 3 12 2 13
REMARK SMILES IDX 1 14
REMARK H PARENT
REMARK Flexibility Score: inf
ROOT
ATOM      1  C   UNL     1      40.653 117.028  12.483  1.00  0.00     0.000 C 
ENDROOT
BRANCH   1   2
ATOM      2  C   UNL     1      40.088 117.808  13.682  1.00  0.00     0.000 C 
BRANCH   2   3
ATOM      3  C   UNL     1      39.252 119.028  13.256  1.00  0.00     0.000 C 
BRANCH   3   4
ATOM      4  C   UNL     1      38.011 119.230  14.139  1.00  0.00     0.006 C 
BRANCH   4   5
ATOM      5  C   UNL     1      36.812 119.778  13.355  1.00  0.00     0.053 C 
BRANCH   5   6
ATOM      6  C   UNL     1      35.888 118.667  12.968  1.00  0.00     0.041 C 
ATOM      7  O   UNL     1      34.707 118.919  12.613  1.00  0.00    -0.550 OA
ATOM      8  O   UNL     1      36.347 117.355  12.951  1.00  0.00    -0.550 OA
ENDBRANCH   5   6
ENDBRANCH   4   5
ENDBRANCH   3   4
ENDBRANCH   2   3
ENDBRANCH   1   2
BRANCH   1   9
ATOM      9  C   UNL     1      40.672 117.863  11.192  1.00  0.00     0.000 C 
BRANCH   9  10
ATOM     10  C   UNL     1      41.921 117.602  10.337  1.00  0.00    -0.000 C 
BRANCH  10  11
ATOM     11  C   UNL     1      42.985 116.767  11.073  1.00  0.00    -0.000 C 
BRANCH  11  12
ATOM     12  C   UNL     1      44.243 116.536  10.210  1.00  0.00    -0.000 C 
BRANCH  12  13
ATOM     13  C   UNL     1      43.930 116.029   8.792  1.00  0.00    -0.003 C 
ATOM     14  C   UNL     1      44.541 114.660   8.496  1.00  0.00     0.004 C 
ENDBRANCH  12  13
ENDBRANCH  11  12
ENDBRANCH  10  11
ENDBRANCH   9  10
ENDBRANCH   1   9
TORSDOF 10
ENDMDL
MODEL 6
REMARK VINA RESULT:    -4.402      6.087     10.856
REMARK INTER + INTRA:          -7.653
REMARK INTER:                  -7.099
REMARK INTRA:                  -0.553
REMARK UNBOUND:                -0.677
REMARK SMILES CCCCCCCCCCCC(=O)[O-]
REMARK SMILES IDX 7 1 8 2 9 3 10 4 11 5 12 6 13 7 14 8 6 9 5 10 4 11 3 12 2 13
REMARK SMILES IDX 1 14
REMARK H PARENT
REMARK Flexibility Score: inf
ROOT
ATOM      1  C   UNL     1      45.517 112.675   6.919  1.00  0.00     0.000 C 
ENDROOT
BRANCH   1   2
ATOM      2  C   UNL     1      45.956 112.763   8.390  1.00  0.00     0.000 C 
BRANCH   2   3
ATOM      3  C   UNL     1      45.082 113.725   9.214  1.00  0.00     0.000 C 
BRANCH   3   4
ATOM      4  C   UNL     1      44.781 115.035   8.468  1.00  0.00     0.006 C 
BRANCH   4   5
ATOM      5  C   UNL     1      43.446 115.660   8.892  1.00  0.00     0.053 C 
BRANCH   5   6
ATOM      6  C   UNL     1      43.580 116.327  10.224  1.00  0.00     0.041 C 
ATOM      7  O   UNL     1      44.653 116.905  10.539  1.00  0.00    -0.550 OA
ATOM      8  O   UNL     1      42.502 116.354  11.099  1.00  0.00    -0.550 OA
ENDBRANCH   5   6
ENDBRANCH   4   5
ENDBRANCH   3   4
ENDBRANCH   2   3
ENDBRANCH   1   2
BRANCH   1   9
ATOM      9  C   UNL     1      46.662 112.991   5.942  1.00  0.00     0.000 C 
BRANCH   9  10
ATOM     10  C   UNL     1      46.694 114.470   5.528  1.00  0.00    -0.000 C 
BRANCH  10  11
ATOM     11  C   UNL     1      47.889 114.809   4.618  1.00  0.00    -0.000 C 
BRANCH  11  12
ATOM     12  C   UNL     1      47.486 114.873   3.129  1.00  0.00    -0.000 C 
BRANCH  12  13
ATOM     13  C   UNL     1      46.279 115.787   2.858  1.00  0.00    -0.003 C 
ATOM     14  C   UNL     1      46.026 116.020   1.370  1.00  0.00     0.004 C 
ENDBRANCH  12  13
ENDBRANCH  11  12
ENDBRANCH  10  11
ENDBRANCH   9  10
ENDBRANCH   1   9
TORSDOF 10
ENDMDL
MODEL 7
REMARK VINA RESULT:    -4.383      3.434      7.494
REMARK INTER + INTRA:          -7.622
REMARK INTER:                  -6.677
REMARK INTRA:                  -0.945
REMARK UNBOUND:                -0.677
REMARK SMILES CCCCCCCCCCCC(=O)[O-]
REMARK SMILES IDX 7 1 8 2 9 3 10 4 11 5 12 6 13 7 14 8 6 9 5 10 4 11 3 12 2 13
REMARK SMILES IDX 1 14
REMARK H PARENT
REMARK Flexibility Score: inf
ROOT
ATOM      1  C   UNL     1      41.846 117.519   9.717  1.00  0.00     0.000 C 
ENDROOT
BRANCH   1   2
ATOM      2  C   UNL     1      42.405 117.097  11.086  1.00  0.00     0.000 C 
BRANCH   2   3
ATOM      3  C   UNL     1      41.300 116.717  12.087  1.00  0.00     0.000 C 
BRANCH   3   4
ATOM      4  C   UNL     1      39.992 117.486  11.842  1.00  0.00     0.006 C 
BRANCH   4   5
ATOM      5  C   UNL     1      39.931 118.808  12.617  1.00  0.00     0.053 C 
BRANCH   5   6
ATOM      6  C   UNL     1      38.649 118.909  13.379  1.00  0.00     0.041 C 
ATOM      7  O   UNL     1      38.247 117.941  14.077  1.00  0.00    -0.550 OA
ATOM      8  O   UNL     1      37.920 120.092  13.361  1.00  0.00    -0.550 OA
ENDBRANCH   5   6
ENDBRANCH   4   5
ENDBRANCH   3   4
ENDBRANCH   2   3
ENDBRANCH   1   2
BRANCH   1   9
ATOM      9  C   UNL     1      42.659 116.946   8.545  1.00  0.00     0.000 C 
BRANCH   9  10
ATOM     10  C   UNL     1      44.001 116.347   8.992  1.00  0.00    -0.000 C 
BRANCH  10  11
ATOM     11  C   UNL     1      44.093 114.831   8.738  1.00  0.00    -0.000 C 
BRANCH  11  12
ATOM     12  C   UNL     1      44.796 114.089   9.894  1.00  0.00    -0.000 C 
BRANCH  12  13
ATOM     13  C   UNL     1      43.837 113.646  11.012  1.00  0.00    -0.003 C 
ATOM     14  C   UNL     1      44.270 114.124  12.396  1.00  0.00     0.004 C 
ENDBRANCH  12  13
ENDBRANCH  11  12
ENDBRANCH  10  11
ENDBRANCH   9  10
ENDBRANCH   1   9
TORSDOF 10
ENDMDL
MODEL 8
REMARK VINA RESULT:    -4.332      3.644      7.594
REMARK INTER + INTRA:          -7.541
REMARK INTER:                  -7.084
REMARK INTRA:                  -0.457
REMARK UNBOUND:                -0.677
REMARK SMILES CCCCCCCCCCCC(=O)[O-]
REMARK SMILES IDX 7 1 8 2 9 3 10 4 11 5 12 6 13 7 14 8 6 9 5 10 4 11 3 12 2 13
REMARK SMILES IDX 1 14
REMARK H PARENT
REMARK Flexibility Score: inf
ROOT
ATOM      1  C   UNL     1      40.973 117.786  10.707  1.00  0.00     0.000 C 
ENDROOT
BRANCH   1   2
ATOM      2  C   UNL     1      40.681 117.169  12.085  1.00  0.00     0.000 C 
BRANCH   2   3
ATOM      3  C   UNL     1      39.269 117.503  12.598  1.00  0.00     0.000 C 
BRANCH   3   4
ATOM      4  C   UNL     1      39.232 118.801  13.421  1.00  0.00     0.006 C 
BRANCH   4   5
ATOM      5  C   UNL     1      37.957 118.928  14.264  1.00  0.00     0.053 C 
BRANCH   5   6
ATOM      6  C   UNL     1      37.075 120.006  13.719  1.00  0.00     0.041 C 
ATOM      7  O   UNL     1      36.091 119.713  12.991  1.00  0.00    -0.550 OA
ATOM      8  O   UNL     1      37.310 121.334  14.057  1.00  0.00    -0.550 OA
ENDBRANCH   5   6
ENDBRANCH   4   5
ENDBRANCH   3   4
ENDBRANCH   2   3
ENDBRANCH   1   2
BRANCH   1   9
ATOM      9  C   UNL     1      42.445 117.629  10.290  1.00  0.00     0.000 C 
BRANCH   9  10
ATOM     10  C   UNL     1      42.600 117.080   8.864  1.00  0.00    -0.000 C 
BRANCH  10  11
ATOM     11  C   UNL     1      43.878 116.241   8.683  1.00  0.00    -0.000 C 
BRANCH  11  12
ATOM     12  C   UNL     1      43.723 114.815   9.253  1.00  0.00    -0.000 C 
BRANCH  12  13
ATOM     13  C   UNL     1      44.456 114.605  10.589  1.00  0.00    -0.003 C 
ATOM     14  C   UNL     1      43.804 113.540  11.468  1.00  0.00     0.004 C 
ENDBRANCH  12  13
ENDBRANCH  11  12
ENDBRANCH  10  11
ENDBRANCH   9  10
ENDBRANCH   1   9
TORSDOF 10
ENDMDL
MODEL 9
REMARK VINA RESULT:    -4.204      5.664     10.799
REMARK INTER + INTRA:          -7.338
REMARK INTER:                  -6.629
REMARK INTRA:                  -0.710
REMARK UNBOUND:                -0.677
REMARK SMILES CCCCCCCCCCCC(=O)[O-]
REMARK SMILES IDX 7 1 8 2 9 3 10 4 11 5 12 6 13 7 14 8 6 9 5 10 4 11 3 12 2 13
REMARK SMILES IDX 1 14
REMARK H PARENT
REMARK Flexibility Score: inf
ROOT
ATOM      1  C   UNL     1      46.404 112.601   8.166  1.00  0.00     0.000 C 
ENDROOT
BRANCH   1   2
ATOM      2  C   UNL     1      45.598 113.491   9.127  1.00  0.00     0.000 C 
BRANCH   2   3
ATOM      3  C   UNL     1      44.477 114.269   8.415  1.00  0.00     0.000 C 
BRANCH   3   4
ATOM      4  C   UNL     1      44.651 115.792   8.531  1.00  0.00     0.006 C 
BRANCH   4   5
ATOM      5  C   UNL     1      43.317 116.544   8.449  1.00  0.00     0.053 C 
BRANCH   5   6
ATOM      6  C   UNL     1      42.927 117.065   9.797  1.00  0.00     0.041 C 
ATOM      7  O   UNL     1      41.894 117.772   9.929  1.00  0.00    -0.550 OA
ATOM      8  O   UNL     1      43.677 116.726  10.916  1.00  0.00    -0.550 OA
ENDBRANCH   5   6
ENDBRANCH   4   5
ENDBRANCH   3   4
ENDBRANCH   2   3
ENDBRANCH   1   2
BRANCH   1   9
ATOM      9  C   UNL     1      46.050 112.853   6.691  1.00  0.00     0.000 C 
BRANCH   9  10
ATOM     10  C   UNL     1      47.192 113.527   5.915  1.00  0.00    -0.000 C 
BRANCH  10  11
ATOM     11  C   UNL     1      46.704 114.677   5.015  1.00  0.00    -0.000 C 
BRANCH  11  12
ATOM     12  C   UNL     1      47.875 115.495   4.430  1.00  0.00    -0.000 C 
BRANCH  12  13
ATOM     13  C   UNL     1      49.256 114.884   4.721  1.00  0.00    -0.003 C 
ATOM     14  C   UNL     1      49.955 114.359   3.468  1.00  0.00     0.004 C 
ENDBRANCH  12  13
ENDBRANCH  11  12
ENDBRANCH  10  11
ENDBRANCH   9  10
ENDBRANCH   1   9
TORSDOF 10
ENDMDL
