MODEL 1
REMARK VINA RESULT:    -3.364      0.000      0.000
REMARK INTER + INTRA:          -8.831
REMARK INTER:                  -6.314
REMARK INTRA:                  -2.517
REMARK UNBOUND:                -2.517
REMARK SMILES CCCCCCCCC=CCCCCCCCC(=O)[O-]
REMARK SMILES IDX 10 1 9 2 11 3 12 4 13 5 14 6 15 7 16 8 17 9 18 10 19 11
REMARK SMILES IDX 20 12 8 13 7 14 6 15 5 16 4 17 3 18 2 19 1 20
REMARK H PARENT
REMARK Flexibility Score: inf
ROOT
ATOM      1  C   UNL     1      56.159  28.633  51.526  1.00  0.00    -0.031 C 
ATOM      2  C   UNL     1      54.823  28.793  51.520  1.00  0.00    -0.031 C 
ENDROOT
BRANCH   1   3
ATOM      3  C   UNL     1      56.981  28.129  50.362  1.00  0.00     0.027 C 
BRANCH   3   4
ATOM      4  C   UNL     1      58.430  28.625  50.447  1.00  0.00     0.004 C 
BRANCH   4   5
ATOM      5  C   UNL     1      59.382  27.777  49.584  1.00  0.00     0.000 C 
BRANCH   5   6
ATOM      6  C   UNL     1      59.148  26.267  49.751  1.00  0.00     0.000 C 
BRANCH   6   7
ATOM      7  C   UNL     1      60.372  25.542  50.333  1.00  0.00     0.000 C 
BRANCH   7   8
ATOM      8  C   UNL     1      61.617  26.445  50.412  1.00  0.00     0.006 C 
BRANCH   8   9
ATOM      9  C   UNL     1      62.942  25.726  50.110  1.00  0.00     0.053 C 
BRANCH   9  10
ATOM     10  C   UNL     1      63.904  26.607  49.372  1.00  0.00     0.041 C 
ATOM     11  O   UNL     1      63.497  27.350  48.442  1.00  0.00    -0.550 OA
ATOM     12  O   UNL     1      65.245  26.628  49.733  1.00  0.00    -0.550 OA
ENDBRANCH   9  10
ENDBRANCH   8   9
ENDBRANCH   7   8
ENDBRANCH   6   7
ENDBRANCH   5   6
ENDBRANCH   4   5
ENDBRANCH   3   4
ENDBRANCH   1   3
BRANCH   2  13
ATOM     13  C   UNL     1      53.913  28.433  50.372  1.00  0.00     0.027 C 
BRANCH  13  14
ATOM     14  C   UNL     1      53.340  27.011  50.500  1.00  0.00     0.004 C 
BRANCH  14  15
ATOM     15  C   UNL     1      54.172  25.931  49.786  1.00  0.00     0.000 C 
BRANCH  15  16
ATOM     16  C   UNL     1      54.908  25.000  50.764  1.00  0.00     0.000 C 
BRANCH  16  17
ATOM     17  C   UNL     1      54.417  25.160  52.212  1.00  0.00    -0.000 C 
BRANCH  17  18
ATOM     18  C   UNL     1      55.576  25.259  53.220  1.00  0.00    -0.000 C 
BRANCH  18  19
ATOM     19  C   UNL     1      56.951  25.130  52.548  1.00  0.00    -0.003 C 
ATOM     20  C   UNL     1      58.044  25.897  53.292  1.00  0.00     0.004 C 
ENDBRANCH  18  19
ENDBRANCH  17  18
ENDBRANCH  16  17
ENDBRANCH  15  16
ENDBRANCH  14  15
ENDBRANCH  13  14
ENDBRANCH   2  13
TORSDOF 15
ENDMDL
MODEL 2
REMARK VINA RESULT:    -3.355      4.148      7.274
REMARK INTER + INTRA:          -8.813
REMARK INTER:                  -6.293
REMARK INTRA:                  -2.521
REMARK UNBOUND:                -2.517
REMARK SMILES CCCCCCCCC=CCCCCCCCC(=O)[O-]
REMARK SMILES IDX 10 1 9 2 11 3 12 4 13 5 14 6 15 7 16 8 17 9 18 10 19 11
REMARK SMILES IDX 20 12 8 13 7 14 6 15 5 16 4 17 3 18 2 19 1 20
REMARK H PARENT
REMARK Flexibility Score: inf
ROOT
ATOM      1  C   UNL     1      57.494  25.110  51.411  1.00  0.00    -0.031 C 
ATOM      2  C   UNL     1      58.822  25.017  51.214  1.00  0.00    -0.031 C 
ENDROOT
BRANCH   1   3
ATOM      3  C   UNL     1      56.491  25.580  50.382  1.00  0.00     0.027 C 
BRANCH   3   4
ATOM      4  C   UNL     1      55.507  26.590  50.985  1.00  0.00     0.004 C 
BRANCH   4   5
ATOM      5  C   UNL     1      54.183  26.645  50.201  1.00  0.00     0.000 C 
BRANCH   5   6
ATOM      6  C   UNL     1      53.561  28.050  50.186  1.00  0.00     0.000 C 
BRANCH   6   7
ATOM      7  C   UNL     1      54.494  29.115  50.785  1.00  0.00     0.000 C 
BRANCH   7   8
ATOM      8  C   UNL     1      53.738  30.173  51.610  1.00  0.00     0.006 C 
BRANCH   8   9
ATOM      9  C   UNL     1      53.916  30.039  53.131  1.00  0.00     0.053 C 
BRANCH   9  10
ATOM     10  C   UNL     1      54.143  31.366  53.789  1.00  0.00     0.041 C 
ATOM     11  O   UNL     1      54.723  32.291  53.165  1.00  0.00    -0.550 OA
ATOM     12  O   UNL     1      53.687  31.587  55.081  1.00  0.00    -0.550 OA
ENDBRANCH   9  10
ENDBRANCH   8   9
ENDBRANCH   7   8
ENDBRANCH   6   7
ENDBRANCH   5   6
ENDBRANCH   4   5
ENDBRANCH   3   4
ENDBRANCH   1   3
BRANCH   2  13
ATOM     13  C   UNL     1      59.541  25.429  49.953  1.00  0.00     0.027 C 
BRANCH  13  14
ATOM     14  C   UNL     1      60.056  26.877  50.017  1.00  0.00     0.004 C 
BRANCH  14  15
ATOM     15  C   UNL     1      59.212  27.881  49.210  1.00  0.00     0.000 C 
BRANCH  15  16
ATOM     16  C   UNL     1      58.378  28.814  50.104  1.00  0.00     0.000 C 
BRANCH  16  17
ATOM     17  C   UNL     1      58.980  28.977  51.509  1.00  0.00    -0.000 C 
BRANCH  17  18
ATOM     18  C   UNL     1      57.955  28.700  52.624  1.00  0.00    -0.000 C 
BRANCH  18  19
ATOM     19  C   UNL     1      57.509  29.981  53.343  1.00  0.00    -0.003 C 
ATOM     20  C   UNL     1      58.513  31.123  53.191  1.00  0.00     0.004 C 
ENDBRANCH  18  19
ENDBRANCH  17  18
ENDBRANCH  16  17
ENDBRANCH  15  16
ENDBRANCH  14  15
ENDBRANCH  13  14
ENDBRANCH   2  13
TORSDOF 15
ENDMDL
MODEL 3
REMARK VINA RESULT:    -3.317      3.281      4.770
REMARK INTER + INTRA:          -8.742
REMARK INTER:                  -6.479
REMARK INTRA:                  -2.262
REMARK UNBOUND:                -2.517
REMARK SMILES CCCCCCCCC=CCCCCCCCC(=O)[O-]
REMARK SMILES IDX 10 1 9 2 11 3 12 4 13 5 14 6 15 7 16 8 17 9 18 10 19 11
REMARK SMILES IDX 20 12 8 13 7 14 6 15 5 16 4 17 3 18 2 19 1 20
REMARK H PARENT
REMARK Flexibility Score: inf
ROOT
ATOM      1  C   UNL     1      58.454  28.962  50.165  1.00  0.00    -0.031 C 
ATOM      2  C   UNL     1      59.035  28.054  49.359  1.00  0.00    -0.031 C 
ENDROOT
BRANCH   1   3
ATOM      3  C   UNL     1      58.483  28.930  51.676  1.00  0.00     0.027 C 
BRANCH   3   4
ATOM      4  C   UNL     1      59.730  29.635  52.224  1.00  0.00     0.004 C 
BRANCH   4   5
ATOM      5  C   UNL     1      60.740  28.638  52.821  1.00  0.00     0.000 C 
BRANCH   5   6
ATOM      6  C   UNL     1      62.138  28.766  52.199  1.00  0.00     0.000 C 
BRANCH   6   7
ATOM      7  C   UNL     1      62.127  29.561  50.883  1.00  0.00     0.000 C 
BRANCH   7   8
ATOM      8  C   UNL     1      63.030  30.808  50.933  1.00  0.00     0.006 C 
BRANCH   8   9
ATOM      9  C   UNL     1      63.127  31.576  49.604  1.00  0.00     0.053 C 
BRANCH   9  10
ATOM     10  C   UNL     1      62.477  32.923  49.686  1.00  0.00     0.041 C 
ATOM     11  O   UNL     1      62.257  33.454  50.805  1.00  0.00    -0.550 OA
ATOM     12  O   UNL     1      62.140  33.604  48.523  1.00  0.00    -0.550 OA
ENDBRANCH   9  10
ENDBRANCH   8   9
ENDBRANCH   7   8
ENDBRANCH   6   7
ENDBRANCH   5   6
ENDBRANCH   4   5
ENDBRANCH   3   4
ENDBRANCH   1   3
BRANCH   2  13
ATOM     13  C   UNL     1      59.756  26.815  49.829  1.00  0.00     0.027 C 
BRANCH  13  14
ATOM     14  C   UNL     1      58.816  25.604  49.964  1.00  0.00     0.004 C 
BRANCH  14  15
ATOM     15  C   UNL     1      58.300  25.366  51.395  1.00  0.00     0.000 C 
BRANCH  15  16
ATOM     16  C   UNL     1      56.767  25.256  51.465  1.00  0.00     0.000 C 
BRANCH  16  17
ATOM     17  C   UNL     1      56.088  25.635  50.140  1.00  0.00    -0.000 C 
BRANCH  17  18
ATOM     18  C   UNL     1      54.782  26.422  50.352  1.00  0.00    -0.000 C 
BRANCH  18  19
ATOM     19  C   UNL     1      55.033  27.864  50.818  1.00  0.00    -0.003 C 
ATOM     20  C   UNL     1      53.880  28.805  50.470  1.00  0.00     0.004 C 
ENDBRANCH  18  19
ENDBRANCH  17  18
ENDBRANCH  16  17
ENDBRANCH  15  16
ENDBRANCH  14  15
ENDBRANCH  13  14
ENDBRANCH   2  13
TORSDOF 15
ENDMDL
MODEL 4
REMARK VINA RESULT:    -3.303      3.952      6.566
REMARK INTER + INTRA:          -8.715
REMARK INTER:                  -6.060
REMARK INTRA:                  -2.656
REMARK UNBOUND:                -2.517
REMARK SMILES CCCCCCCCC=CCCCCCCCC(=O)[O-]
REMARK SMILES IDX 10 1 9 2 11 3 12 4 13 5 14 6 15 7 16 8 17 9 18 10 19 11
REMARK SMILES IDX 20 12 8 13 7 14 6 15 5 16 4 17 3 18 2 19 1 20
REMARK H PARENT
REMARK Flexibility Score: inf
ROOT
ATOM      1  C   UNL     1      56.963  28.049  53.377  1.00  0.00    -0.031 C 
ATOM      2  C   UNL     1      57.407  29.063  52.612  1.00  0.00    -0.031 C 
ENDROOT
BRANCH   1   3
ATOM      3  C   UNL     1      57.560  26.661  53.417  1.00  0.00     0.027 C 
BRANCH   3   4
ATOM      4  C   UNL     1      56.469  25.584  53.358  1.00  0.00     0.004 C 
BRANCH   4   5
ATOM      5  C   UNL     1      56.362  24.946  51.962  1.00  0.00     0.000 C 
BRANCH   5   6
ATOM      6  C   UNL     1      55.065  25.329  51.233  1.00  0.00     0.000 C 
BRANCH   6   7
ATOM      7  C   UNL     1      55.246  26.540  50.303  1.00  0.00     0.000 C 
BRANCH   7   8
ATOM      8  C   UNL     1      54.014  27.464  50.282  1.00  0.00     0.006 C 
BRANCH   8   9
ATOM      9  C   UNL     1      54.327  28.946  50.548  1.00  0.00     0.053 C 
BRANCH   9  10
ATOM     10  C   UNL     1      53.787  29.404  51.868  1.00  0.00     0.041 C 
ATOM     11  O   UNL     1      53.362  28.567  52.705  1.00  0.00    -0.550 OA
ATOM     12  O   UNL     1      53.780  30.757  52.184  1.00  0.00    -0.550 OA
ENDBRANCH   9  10
ENDBRANCH   8   9
ENDBRANCH   7   8
ENDBRANCH   6   7
ENDBRANCH   5   6
ENDBRANCH   4   5
ENDBRANCH   3   4
ENDBRANCH   1   3
BRANCH   2  13
ATOM     13  C   UNL     1      58.536  28.966  51.616  1.00  0.00     0.027 C 
BRANCH  13  14
ATOM     14  C   UNL     1      58.037  28.684  50.188  1.00  0.00     0.004 C 
BRANCH  14  15
ATOM     15  C   UNL     1      59.133  28.194  49.224  1.00  0.00     0.000 C 
BRANCH  15  16
ATOM     16  C   UNL     1      60.009  27.085  49.831  1.00  0.00     0.000 C 
BRANCH  16  17
ATOM     17  C   UNL     1      59.290  25.728  49.882  1.00  0.00    -0.000 C 
BRANCH  17  18
ATOM     18  C   UNL     1      59.825  24.820  51.004  1.00  0.00    -0.000 C 
BRANCH  18  19
ATOM     19  C   UNL     1      60.502  23.553  50.461  1.00  0.00    -0.003 C 
ATOM     20  C   UNL     1      62.019  23.567  50.652  1.00  0.00     0.004 C 
ENDBRANCH  18  19
ENDBRANCH  17  18
ENDBRANCH  16  17
ENDBRANCH  15  16
ENDBRANCH  14  15
ENDBRANCH  13  14
ENDBRANCH   2  13
TORSDOF 15
ENDMDL
MODEL 5
REMARK VINA RESULT:    -3.301      2.094      4.411
REMARK INTER + INTRA:          -8.712
REMARK INTER:                  -6.039
REMARK INTRA:                  -2.673
REMARK UNBOUND:                -2.517
REMARK SMILES CCCCCCCCC=CCCCCCCCC(=O)[O-]
REMARK SMILES IDX 10 1 9 2 11 3 12 4 13 5 14 6 15 7 16 8 17 9 18 10 19 11
REMARK SMILES IDX 20 12 8 13 7 14 6 15 5 16 4 17 3 18 2 19 1 20
REMARK H PARENT
REMARK Flexibility Score: inf
ROOT
ATOM      1  C   UNL     1      53.777  28.795  50.399  1.00  0.00    -0.031 C 
ATOM      2  C   UNL     1      54.112  29.582  51.437  1.00  0.00    -0.031 C 
ENDROOT
BRANCH   1   3
ATOM      3  C   UNL     1      53.371  27.343  50.501  1.00  0.00     0.027 C 
BRANCH   3   4
ATOM      4  C   UNL     1      54.476  26.417  49.976  1.00  0.00     0.004 C 
BRANCH   4   5
ATOM      5  C   UNL     1      54.991  25.458  51.065  1.00  0.00     0.000 C 
BRANCH   5   6
ATOM      6  C   UNL     1      56.487  25.140  50.916  1.00  0.00     0.000 C 
BRANCH   6   7
ATOM      7  C   UNL     1      57.196  24.990  52.272  1.00  0.00     0.000 C 
BRANCH   7   8
ATOM      8  C   UNL     1      58.603  24.379  52.143  1.00  0.00     0.006 C 
BRANCH   8   9
ATOM      9  C   UNL     1      59.209  24.472  50.733  1.00  0.00     0.053 C 
BRANCH   9  10
ATOM     10  C   UNL     1      60.449  23.641  50.600  1.00  0.00     0.041 C 
ATOM     11  O   UNL     1      61.556  24.085  51.002  1.00  0.00    -0.550 OA
ATOM     12  O   UNL     1      60.376  22.366  50.057  1.00  0.00    -0.550 OA
ENDBRANCH   9  10
ENDBRANCH   8   9
ENDBRANCH   7   8
ENDBRANCH   6   7
ENDBRANCH   5   6
ENDBRANCH   4   5
ENDBRANCH   3   4
ENDBRANCH   1   3
BRANCH   2  13
ATOM     13  C   UNL     1      54.202  29.128  52.874  1.00  0.00     0.027 C 
BRANCH  13  14
ATOM     14  C   UNL     1      55.584  28.544  53.219  1.00  0.00     0.004 C 
BRANCH  14  15
ATOM     15  C   UNL     1      56.768  29.370  52.684  1.00  0.00     0.000 C 
BRANCH  15  16
ATOM     16  C   UNL     1      57.813  28.510  51.954  1.00  0.00     0.000 C 
BRANCH  16  17
ATOM     17  C   UNL     1      57.586  28.469  50.435  1.00  0.00    -0.000 C 
BRANCH  17  18
ATOM     18  C   UNL     1      58.898  28.598  49.640  1.00  0.00    -0.000 C 
BRANCH  18  19
ATOM     19  C   UNL     1      60.129  28.207  50.470  1.00  0.00    -0.003 C 
ATOM     20  C   UNL     1      61.134  27.372  49.676  1.00  0.00     0.004 C 
ENDBRANCH  18  19
ENDBRANCH  17  18
ENDBRANCH  16  17
ENDBRANCH  15  16
ENDBRANCH  14  15
ENDBRANCH  13  14
ENDBRANCH   2  13
TORSDOF 15
ENDMDL
MODEL 6
REMARK VINA RESULT:    -3.299     11.002     13.105
REMARK INTER + INTRA:          -8.708
REMARK INTER:                  -5.843
REMARK INTRA:                  -2.865
REMARK UNBOUND:                -2.517
REMARK SMILES CCCCCCCCC=CCCCCCCCC(=O)[O-]
REMARK SMILES IDX 10 1 9 2 11 3 12 4 13 5 14 6 15 7 16 8 17 9 18 10 19 11
REMARK SMILES IDX 20 12 8 13 7 14 6 15 5 16 4 17 3 18 2 19 1 20
REMARK H PARENT
REMARK Flexibility Score: inf
ROOT
ATOM      1  C   UNL     1      63.663  32.561  58.369  1.00  0.00    -0.031 C 
ATOM      2  C   UNL     1      64.070  31.296  58.161  1.00  0.00    -0.031 C 
ENDROOT
BRANCH   1   3
ATOM      3  C   UNL     1      64.535  33.686  58.878  1.00  0.00     0.027 C 
BRANCH   3   4
ATOM      4  C   UNL     1      64.568  33.716  60.411  1.00  0.00     0.004 C 
BRANCH   4   5
ATOM      5  C   UNL     1      63.165  33.905  61.014  1.00  0.00     0.000 C 
BRANCH   5   6
ATOM      6  C   UNL     1      62.798  35.385  61.210  1.00  0.00     0.000 C 
BRANCH   6   7
ATOM      7  C   UNL     1      61.426  35.736  60.611  1.00  0.00     0.000 C 
BRANCH   7   8
ATOM      8  C   UNL     1      60.568  34.492  60.318  1.00  0.00     0.006 C 
BRANCH   8   9
ATOM      9  C   UNL     1      60.116  34.363  58.854  1.00  0.00     0.053 C 
BRANCH   9  10
ATOM     10  C   UNL     1      58.750  33.759  58.740  1.00  0.00     0.041 C 
ATOM     11  O   UNL     1      58.617  32.518  58.581  1.00  0.00    -0.550 OA
ATOM     12  O   UNL     1      57.623  34.565  58.837  1.00  0.00    -0.550 OA
ENDBRANCH   9  10
ENDBRANCH   8   9
ENDBRANCH   7   8
ENDBRANCH   6   7
ENDBRANCH   5   6
ENDBRANCH   4   5
ENDBRANCH   3   4
ENDBRANCH   1   3
BRANCH   2  13
ATOM     13  C   UNL     1      65.453  30.772  58.462  1.00  0.00     0.027 C 
BRANCH  13  14
ATOM     14  C   UNL     1      65.555  30.160  59.871  1.00  0.00     0.004 C 
BRANCH  14  15
ATOM     15  C   UNL     1      64.920  28.764  59.998  1.00  0.00     0.000 C 
BRANCH  15  16
ATOM     16  C   UNL     1      63.870  28.685  61.119  1.00  0.00     0.000 C 
BRANCH  16  17
ATOM     17  C   UNL     1      63.408  30.073  61.591  1.00  0.00    -0.000 C 
BRANCH  17  18
ATOM     18  C   UNL     1      61.885  30.145  61.803  1.00  0.00    -0.000 C 
BRANCH  18  19
ATOM     19  C   UNL     1      61.171  30.906  60.676  1.00  0.00    -0.003 C 
ATOM     20  C   UNL     1      60.833  30.012  59.483  1.00  0.00     0.004 C 
ENDBRANCH  18  19
ENDBRANCH  17  18
ENDBRANCH  16  17
ENDBRANCH  15  16
ENDBRANCH  14  15
ENDBRANCH  13  14
ENDBRANCH   2  13
TORSDOF 15
ENDMDL
MODEL 7
REMARK VINA RESULT:    -3.288     11.375     12.768
REMARK INTER + INTRA:          -8.688
REMARK INTER:                  -6.155
REMARK INTRA:                  -2.533
REMARK UNBOUND:                -2.517
REMARK SMILES CCCCCCCCC=CCCCCCCCC(=O)[O-]
REMARK SMILES IDX 10 1 9 2 11 3 12 4 13 5 14 6 15 7 16 8 17 9 18 10 19 11
REMARK SMILES IDX 20 12 8 13 7 14 6 15 5 16 4 17 3 18 2 19 1 20
REMARK H PARENT
REMARK Flexibility Score: inf
ROOT
ATOM      1  C   UNL     1      64.807  34.474  61.139  1.00  0.00    -0.031 C 
ATOM      2  C   UNL     1      64.047  35.570  61.318  1.00  0.00    -0.031 C 
ENDROOT
BRANCH   1   3
ATOM      3  C   UNL     1      64.285  33.096  60.801  1.00  0.00     0.027 C 
BRANCH   3   4
ATOM      4  C   UNL     1      64.179  32.899  59.283  1.00  0.00     0.004 C 
BRANCH   4   5
ATOM      5  C   UNL     1      65.288  31.978  58.742  1.00  0.00     0.000 C 
BRANCH   5   6
ATOM      6  C   UNL     1      64.734  30.695  58.105  1.00  0.00     0.000 C 
BRANCH   6   7
ATOM      7  C   UNL     1      65.023  29.444  58.951  1.00  0.00     0.000 C 
BRANCH   7   8
ATOM      8  C   UNL     1      65.922  29.742  60.166  1.00  0.00     0.006 C 
BRANCH   8   9
ATOM      9  C   UNL     1      66.427  28.491  60.904  1.00  0.00     0.053 C 
BRANCH   9  10
ATOM     10  C   UNL     1      67.922  28.401  60.896  1.00  0.00     0.041 C 
ATOM     11  O   UNL     1      68.575  28.605  61.952  1.00  0.00    -0.550 OA
ATOM     12  O   UNL     1      68.592  28.063  59.727  1.00  0.00    -0.550 OA
ENDBRANCH   9  10
ENDBRANCH   8   9
ENDBRANCH   7   8
ENDBRANCH   6   7
ENDBRANCH   5   6
ENDBRANCH   4   5
ENDBRANCH   3   4
ENDBRANCH   1   3
BRANCH   2  13
ATOM     13  C   UNL     1      62.539  35.593  61.275  1.00  0.00     0.027 C 
BRANCH  13  14
ATOM     14  C   UNL     1      61.997  35.966  59.884  1.00  0.00     0.004 C 
BRANCH  14  15
ATOM     15  C   UNL     1      61.004  34.944  59.301  1.00  0.00     0.000 C 
BRANCH  15  16
ATOM     16  C   UNL     1      60.513  33.928  60.345  1.00  0.00     0.000 C 
BRANCH  16  17
ATOM     17  C   UNL     1      60.704  32.473  59.887  1.00  0.00    -0.000 C 
BRANCH  17  18
ATOM     18  C   UNL     1      60.988  31.518  61.060  1.00  0.00    -0.000 C 
BRANCH  18  19
ATOM     19  C   UNL     1      61.745  30.257  60.621  1.00  0.00    -0.003 C 
ATOM     20  C   UNL     1      62.606  29.667  61.739  1.00  0.00     0.004 C 
ENDBRANCH  18  19
ENDBRANCH  17  18
ENDBRANCH  16  17
ENDBRANCH  15  16
ENDBRANCH  14  15
ENDBRANCH  13  14
ENDBRANCH   2  13
TORSDOF 15
ENDMDL
MODEL 8
REMARK VINA RESULT:    -3.259     10.609     12.457
REMARK INTER + INTRA:          -8.634
REMARK INTER:                  -5.781
REMARK INTRA:                  -2.853
REMARK UNBOUND:                -2.517
REMARK SMILES CCCCCCCCC=CCCCCCCCC(=O)[O-]
REMARK SMILES IDX 10 1 9 2 11 3 12 4 13 5 14 6 15 7 16 8 17 9 18 10 19 11
REMARK SMILES IDX 20 12 8 13 7 14 6 15 5 16 4 17 3 18 2 19 1 20
REMARK H PARENT
REMARK Flexibility Score: inf
ROOT
ATOM      1  C   UNL     1      60.916  31.984  59.800  1.00  0.00    -0.031 C 
ATOM      2  C   UNL     1      60.323  33.156  59.507  1.00  0.00    -0.031 C 
ENDROOT
BRANCH   1   3
ATOM      3  C   UNL     1      61.487  31.609  61.148  1.00  0.00     0.027 C 
BRANCH   3   4
ATOM      4  C   UNL     1      61.150  30.157  61.511  1.00  0.00     0.004 C 
BRANCH   4   5
ATOM      5  C   UNL     1      62.415  29.318  61.766  1.00  0.00     0.000 C 
BRANCH   5   6
ATOM      6  C   UNL     1      63.710  30.114  61.541  1.00  0.00     0.000 C 
BRANCH   6   7
ATOM      7  C   UNL     1      64.589  29.508  60.433  1.00  0.00     0.000 C 
BRANCH   7   8
ATOM      8  C   UNL     1      64.266  28.027  60.160  1.00  0.00     0.006 C 
BRANCH   8   9
ATOM      9  C   UNL     1      63.994  27.699  58.683  1.00  0.00     0.053 C 
BRANCH   9  10
ATOM     10  C   UNL     1      62.535  27.777  58.350  1.00  0.00     0.041 C 
ATOM     11  O   UNL     1      61.855  26.725  58.235  1.00  0.00    -0.550 OA
ATOM     12  O   UNL     1      61.922  29.013  58.195  1.00  0.00    -0.550 OA
ENDBRANCH   9  10
ENDBRANCH   8   9
ENDBRANCH   7   8
ENDBRANCH   6   7
ENDBRANCH   5   6
ENDBRANCH   4   5
ENDBRANCH   3   4
ENDBRANCH   1   3
BRANCH   2  13
ATOM     13  C   UNL     1      60.188  34.319  60.459  1.00  0.00     0.027 C 
BRANCH  13  14
ATOM     14  C   UNL     1      61.142  35.476  60.111  1.00  0.00     0.004 C 
BRANCH  14  15
ATOM     15  C   UNL     1      62.206  35.759  61.187  1.00  0.00     0.000 C 
BRANCH  15  16
ATOM     16  C   UNL     1      63.636  35.466  60.703  1.00  0.00     0.000 C 
BRANCH  16  17
ATOM     17  C   UNL     1      64.168  34.119  61.219  1.00  0.00    -0.000 C 
BRANCH  17  18
ATOM     18  C   UNL     1      64.699  33.223  60.086  1.00  0.00    -0.000 C 
BRANCH  18  19
ATOM     19  C   UNL     1      64.073  33.562  58.726  1.00  0.00    -0.003 C 
ATOM     20  C   UNL     1      63.895  32.332  57.835  1.00  0.00     0.004 C 
ENDBRANCH  18  19
ENDBRANCH  17  18
ENDBRANCH  16  17
ENDBRANCH  15  16
ENDBRANCH  14  15
ENDBRANCH  13  14
ENDBRANCH   2  13
TORSDOF 15
ENDMDL
MODEL 9
REMARK VINA RESULT:    -3.254     10.918     12.299
REMARK INTER + INTRA:          -8.624
REMARK INTER:                  -6.303
REMARK INTRA:                  -2.321
REMARK UNBOUND:                -2.517
REMARK SMILES CCCCCCCCC=CCCCCCCCC(=O)[O-]
REMARK SMILES IDX 10 1 9 2 11 3 12 4 13 5 14 6 15 7 16 8 17 9 18 10 19 11
REMARK SMILES IDX 20 12 8 13 7 14 6 15 5 16 4 17 3 18 2 19 1 20
REMARK H PARENT
REMARK Flexibility Score: inf
ROOT
ATOM      1  C   UNL     1      62.590  36.104  61.138  1.00  0.00    -0.031 C 
ATOM      2  C   UNL     1      61.397  35.592  60.783  1.00  0.00    -0.031 C 
ENDROOT
BRANCH   1   3
ATOM      3  C   UNL     1      63.931  35.598  60.660  1.00  0.00     0.027 C 
BRANCH   3   4
ATOM      4  C   UNL     1      64.544  34.613  61.664  1.00  0.00     0.004 C 
BRANCH   4   5
ATOM      5  C   UNL     1      64.500  33.163  61.149  1.00  0.00     0.000 C 
BRANCH   5   6
ATOM      6  C   UNL     1      64.707  33.066  59.630  1.00  0.00     0.000 C 
BRANCH   6   7
ATOM      7  C   UNL     1      64.732  31.613  59.129  1.00  0.00     0.000 C 
BRANCH   7   8
ATOM      8  C   UNL     1      64.851  30.590  60.275  1.00  0.00     0.006 C 
BRANCH   8   9
ATOM      9  C   UNL     1      64.779  29.122  59.826  1.00  0.00     0.053 C 
BRANCH   9  10
ATOM     10  C   UNL     1      65.757  28.261  60.564  1.00  0.00     0.041 C 
ATOM     11  O   UNL     1      65.548  27.027  60.688  1.00  0.00    -0.550 OA
ATOM     12  O   UNL     1      66.915  28.819  61.091  1.00  0.00    -0.550 OA
ENDBRANCH   9  10
ENDBRANCH   8   9
ENDBRANCH   7   8
ENDBRANCH   6   7
ENDBRANCH   5   6
ENDBRANCH   4   5
ENDBRANCH   3   4
ENDBRANCH   1   3
BRANCH   2  13
ATOM     13  C   UNL     1      61.200  34.384  59.901  1.00  0.00     0.027 C 
BRANCH  13  14
ATOM     14  C   UNL     1      60.552  33.207  60.652  1.00  0.00     0.004 C 
BRANCH  14  15
ATOM     15  C   UNL     1      61.159  31.834  60.313  1.00  0.00     0.000 C 
BRANCH  15  16
ATOM     16  C   UNL     1      61.249  30.903  61.534  1.00  0.00     0.000 C 
BRANCH  16  17
ATOM     17  C   UNL     1      61.383  29.424  61.139  1.00  0.00    -0.000 C 
BRANCH  17  18
ATOM     18  C   UNL     1      60.771  29.125  59.759  1.00  0.00    -0.000 C 
BRANCH  18  19
ATOM     19  C   UNL     1      60.344  27.657  59.611  1.00  0.00    -0.003 C 
ATOM     20  C   UNL     1      58.836  27.499  59.414  1.00  0.00     0.004 C 
ENDBRANCH  18  19
ENDBRANCH  17  18
ENDBRANCH  16  17
ENDBRANCH  15  16
ENDBRANCH  14  15
ENDBRANCH  13  14
ENDBRANCH   2  13
TORSDOF 15
ENDMDL
