MODEL 1
REMARK VINA RESULT:    -3.017      0.000      0.000
REMARK INTER + INTRA:          -7.524
REMARK INTER:                  -5.486
REMARK INTRA:                  -2.038
REMARK UNBOUND:                -2.038
REMARK SMILES CCCCCCCCCCCCCCCC(=O)[O-]
REMARK SMILES IDX 9 1 10 2 11 3 12 4 13 5 14 6 15 7 16 8 17 9 18 10 8 11 7 12
REMARK SMILES IDX 6 13 5 14 4 15 3 16 2 17 1 18
REMARK H PARENT
REMARK Flexibility Score: inf
ROOT
ATOM      1  C   UNL     1     -10.212 -17.019  13.364  1.00  0.00     0.000 C 
ENDROOT
BRANCH   1   2
ATOM      2  C   UNL     1     -11.179 -16.712  14.517  1.00  0.00     0.000 C 
BRANCH   2   3
ATOM      3  C   UNL     1     -10.808 -17.445  15.817  1.00  0.00     0.000 C 
BRANCH   3   4
ATOM      4  C   UNL     1     -11.652 -18.699  16.120  1.00  0.00     0.000 C 
BRANCH   4   5
ATOM      5  C   UNL     1     -11.102 -19.991  15.481  1.00  0.00     0.000 C 
BRANCH   5   6
ATOM      6  C   UNL     1     -12.124 -21.137  15.506  1.00  0.00     0.006 C 
BRANCH   6   7
ATOM      7  C   UNL     1     -11.615 -22.347  14.717  1.00  0.00     0.053 C 
BRANCH   7   8
ATOM      8  C   UNL     1     -12.351 -22.475  13.421  1.00  0.00     0.041 C 
ATOM      9  O   UNL     1     -13.565 -22.808  13.411  1.00  0.00    -0.550 OA
ATOM     10  O   UNL     1     -11.707 -22.187  12.223  1.00  0.00    -0.550 OA
ENDBRANCH   7   8
ENDBRANCH   6   7
ENDBRANCH   5   6
ENDBRANCH   4   5
ENDBRANCH   3   4
ENDBRANCH   2   3
ENDBRANCH   1   2
BRANCH   1  11
ATOM     11  C   UNL     1      -8.835 -17.435  13.902  1.00  0.00     0.000 C 
BRANCH  11  12
ATOM     12  C   UNL     1      -8.339 -18.759  13.298  1.00  0.00    -0.000 C 
BRANCH  12  13
ATOM     13  C   UNL     1      -9.406 -19.453  12.439  1.00  0.00    -0.000 C 
BRANCH  13  14
ATOM     14  C   UNL     1      -8.761 -20.213  11.273  1.00  0.00    -0.000 C 
BRANCH  14  15
ATOM     15  C   UNL     1      -8.713 -19.346  10.009  1.00  0.00    -0.000 C 
BRANCH  15  16
ATOM     16  C   UNL     1      -9.877 -18.343   9.986  1.00  0.00    -0.000 C 
BRANCH  16  17
ATOM     17  C   UNL     1      -9.413 -16.911   9.681  1.00  0.00    -0.003 C 
ATOM     18  C   UNL     1      -7.959 -16.663  10.081  1.00  0.00     0.004 C 
ENDBRANCH  16  17
ENDBRANCH  15  16
ENDBRANCH  14  15
ENDBRANCH  13  14
ENDBRANCH  12  13
ENDBRANCH  11  12
ENDBRANCH   1  11
TORSDOF 14
ENDMDL
MODEL 2
REMARK VINA RESULT:    -2.725      2.426      4.263
REMARK INTER + INTRA:          -6.994
REMARK INTER:                  -5.470
REMARK INTRA:                  -1.524
REMARK UNBOUND:                -2.038
REMARK SMILES CCCCCCCCCCCCCCCC(=O)[O-]
REMARK SMILES IDX 9 1 10 2 11 3 12 4 13 5 14 6 15 7 16 8 17 9 18 10 8 11 7 12
REMARK SMILES IDX 6 13 5 14 4 15 3 16 2 17 1 18
REMARK H PARENT
REMARK Flexibility Score: inf
ROOT
ATOM      1  C   UNL     1     -12.573 -22.860  12.620  1.00  0.00     0.000 C 
ENDROOT
BRANCH   1   2
ATOM      2  C   UNL     1     -12.908 -22.927  14.117  1.00  0.00     0.000 C 
BRANCH   2   3
ATOM      3  C   UNL     1     -13.858 -21.804  14.566  1.00  0.00     0.000 C 
BRANCH   3   4
ATOM      4  C   UNL     1     -13.315 -20.907  15.696  1.00  0.00     0.000 C 
BRANCH   4   5
ATOM      5  C   UNL     1     -11.822 -20.550  15.547  1.00  0.00     0.000 C 
BRANCH   5   6
ATOM      6  C   UNL     1     -11.540 -19.072  15.853  1.00  0.00     0.006 C 
BRANCH   6   7
ATOM      7  C   UNL     1     -10.249 -18.605  15.174  1.00  0.00     0.053 C 
BRANCH   7   8
ATOM      8  C   UNL     1     -10.367 -17.175  14.751  1.00  0.00     0.041 C 
ATOM      9  O   UNL     1     -11.498 -16.629  14.671  1.00  0.00    -0.550 OA
ATOM     10  O   UNL     1      -9.224 -16.432  14.484  1.00  0.00    -0.550 OA
ENDBRANCH   7   8
ENDBRANCH   6   7
ENDBRANCH   5   6
ENDBRANCH   4   5
ENDBRANCH   3   4
ENDBRANCH   2   3
ENDBRANCH   1   2
BRANCH   1  11
ATOM     11  C   UNL     1     -11.052 -22.830  12.402  1.00  0.00     0.000 C 
BRANCH  11  12
ATOM     12  C   UNL     1     -10.512 -21.407  12.193  1.00  0.00    -0.000 C 
BRANCH  12  13
ATOM     13  C   UNL     1      -9.130 -21.199  12.831  1.00  0.00    -0.000 C 
BRANCH  13  14
ATOM     14  C   UNL     1      -8.393 -20.026  12.173  1.00  0.00    -0.000 C 
BRANCH  14  15
ATOM     15  C   UNL     1      -8.046 -20.342  10.713  1.00  0.00    -0.000 C 
BRANCH  15  16
ATOM     16  C   UNL     1      -8.360 -19.145   9.802  1.00  0.00    -0.000 C 
BRANCH  16  17
ATOM     17  C   UNL     1      -9.471 -18.249  10.369  1.00  0.00    -0.003 C 
ATOM     18  C   UNL     1      -9.570 -16.904   9.650  1.00  0.00     0.004 C 
ENDBRANCH  16  17
ENDBRANCH  15  16
ENDBRANCH  14  15
ENDBRANCH  13  14
ENDBRANCH  12  13
ENDBRANCH  11  12
ENDBRANCH   1  11
TORSDOF 14
ENDMDL
MODEL 3
REMARK VINA RESULT:    -2.580      1.517      3.042
REMARK INTER + INTRA:          -6.730
REMARK INTER:                  -4.487
REMARK INTRA:                  -2.243
REMARK UNBOUND:                -2.038
REMARK SMILES CCCCCCCCCCCCCCCC(=O)[O-]
REMARK SMILES IDX 9 1 10 2 11 3 12 4 13 5 14 6 15 7 16 8 17 9 18 10 8 11 7 12
REMARK SMILES IDX 6 13 5 14 4 15 3 16 2 17 1 18
REMARK H PARENT
REMARK Flexibility Score: inf
ROOT
ATOM      1  C   UNL     1     -11.437 -18.953  15.452  1.00  0.00     0.000 C 
ENDROOT
BRANCH   1   2
ATOM      2  C   UNL     1     -11.056 -20.414  15.733  1.00  0.00     0.000 C 
BRANCH   2   3
ATOM      3  C   UNL     1      -9.535 -20.636  15.770  1.00  0.00     0.000 C 
BRANCH   3   4
ATOM      4  C   UNL     1      -9.021 -21.766  14.856  1.00  0.00     0.000 C 
BRANCH   4   5
ATOM      5  C   UNL     1      -8.665 -21.302  13.428  1.00  0.00     0.000 C 
BRANCH   5   6
ATOM      6  C   UNL     1      -9.470 -22.047  12.353  1.00  0.00     0.006 C 
BRANCH   6   7
ATOM      7  C   UNL     1     -10.887 -21.477  12.231  1.00  0.00     0.053 C 
BRANCH   7   8
ATOM      8  C   UNL     1     -11.904 -22.549  12.463  1.00  0.00     0.041 C 
ATOM      9  O   UNL     1     -12.622 -22.958  11.513  1.00  0.00    -0.550 OA
ATOM     10  O   UNL     1     -12.034 -23.125  13.721  1.00  0.00    -0.550 OA
ENDBRANCH   7   8
ENDBRANCH   6   7
ENDBRANCH   5   6
ENDBRANCH   4   5
ENDBRANCH   3   4
ENDBRANCH   2   3
ENDBRANCH   1   2
BRANCH   1  11
ATOM     11  C   UNL     1     -10.394 -17.993  16.043  1.00  0.00     0.000 C 
BRANCH  11  12
ATOM     12  C   UNL     1      -9.897 -16.957  15.023  1.00  0.00    -0.000 C 
BRANCH  12  13
ATOM     13  C   UNL     1     -10.825 -16.834  13.805  1.00  0.00    -0.000 C 
BRANCH  13  14
ATOM     14  C   UNL     1     -10.123 -17.317  12.530  1.00  0.00    -0.000 C 
BRANCH  14  15
ATOM     15  C   UNL     1      -8.674 -17.727  12.819  1.00  0.00    -0.000 C 
BRANCH  15  16
ATOM     16  C   UNL     1      -7.919 -18.034  11.517  1.00  0.00    -0.000 C 
BRANCH  16  17
ATOM     17  C   UNL     1      -8.865 -18.308  10.338  1.00  0.00    -0.003 C 
ATOM     18  C   UNL     1      -8.335 -19.388   9.395  1.00  0.00     0.004 C 
ENDBRANCH  16  17
ENDBRANCH  15  16
ENDBRANCH  14  15
ENDBRANCH  13  14
ENDBRANCH  12  13
ENDBRANCH  11  12
ENDBRANCH   1  11
TORSDOF 14
ENDMDL
MODEL 4
REMARK VINA RESULT:    -2.538      2.376      5.361
REMARK INTER + INTRA:          -6.653
REMARK INTER:                  -4.884
REMARK INTRA:                  -1.769
REMARK UNBOUND:                -2.038
REMARK SMILES CCCCCCCCCCCCCCCC(=O)[O-]
REMARK SMILES IDX 9 1 10 2 11 3 12 4 13 5 14 6 15 7 16 8 17 9 18 10 8 11 7 12
REMARK SMILES IDX 6 13 5 14 4 15 3 16 2 17 1 18
REMARK H PARENT
REMARK Flexibility Score: inf
ROOT
ATOM      1  C   UNL     1     -10.830 -17.126  14.538  1.00  0.00     0.000 C 
ENDROOT
BRANCH   1   2
ATOM      2  C   UNL     1      -9.372 -16.726  14.268  1.00  0.00     0.000 C 
BRANCH   2   3
ATOM      3  C   UNL     1      -8.361 -17.695  14.904  1.00  0.00     0.000 C 
BRANCH   3   4
ATOM      4  C   UNL     1      -7.911 -18.854  13.993  1.00  0.00     0.000 C 
BRANCH   4   5
ATOM      5  C   UNL     1      -8.238 -18.639  12.501  1.00  0.00     0.000 C 
BRANCH   5   6
ATOM      6  C   UNL     1      -9.239 -19.674  11.966  1.00  0.00     0.006 C 
BRANCH   6   7
ATOM      7  C   UNL     1     -10.185 -19.047  10.938  1.00  0.00     0.053 C 
BRANCH   7   8
ATOM      8  C   UNL     1      -9.407 -18.404   9.834  1.00  0.00     0.041 C 
ATOM      9  O   UNL     1      -8.652 -19.097   9.103  1.00  0.00    -0.550 OA
ATOM     10  O   UNL     1      -9.546 -17.044   9.585  1.00  0.00    -0.550 OA
ENDBRANCH   7   8
ENDBRANCH   6   7
ENDBRANCH   5   6
ENDBRANCH   4   5
ENDBRANCH   3   4
ENDBRANCH   2   3
ENDBRANCH   1   2
BRANCH   1  11
ATOM     11  C   UNL     1     -10.976 -17.750  15.934  1.00  0.00     0.000 C 
BRANCH  11  12
ATOM     12  C   UNL     1     -11.783 -19.057  15.916  1.00  0.00    -0.000 C 
BRANCH  12  13
ATOM     13  C   UNL     1     -10.917 -20.284  15.591  1.00  0.00    -0.000 C 
BRANCH  13  14
ATOM     14  C   UNL     1     -11.753 -21.569  15.621  1.00  0.00    -0.000 C 
BRANCH  14  15
ATOM     15  C   UNL     1     -13.160 -21.325  15.063  1.00  0.00    -0.000 C 
BRANCH  15  16
ATOM     16  C   UNL     1     -13.552 -22.420  14.060  1.00  0.00    -0.000 C 
BRANCH  16  17
ATOM     17  C   UNL     1     -12.330 -23.123  13.450  1.00  0.00    -0.003 C 
ATOM     18  C   UNL     1     -12.093 -22.734  11.991  1.00  0.00     0.004 C 
ENDBRANCH  16  17
ENDBRANCH  15  16
ENDBRANCH  14  15
ENDBRANCH  13  14
ENDBRANCH  12  13
ENDBRANCH  11  12
ENDBRANCH   1  11
TORSDOF 14
ENDMDL
MODEL 5
REMARK VINA RESULT:    -2.508      1.887      4.503
REMARK INTER + INTRA:          -6.599
REMARK INTER:                  -4.871
REMARK INTRA:                  -1.728
REMARK UNBOUND:                -2.038
REMARK SMILES CCCCCCCCCCCCCCCC(=O)[O-]
REMARK SMILES IDX 9 1 10 2 11 3 12 4 13 5 14 6 15 7 16 8 17 9 18 10 8 11 7 12
REMARK SMILES IDX 6 13 5 14 4 15 3 16 2 17 1 18
REMARK H PARENT
REMARK Flexibility Score: inf
ROOT
ATOM      1  C   UNL     1      -9.501 -17.677  11.088  1.00  0.00     0.000 C 
ENDROOT
BRANCH   1   2
ATOM      2  C   UNL     1      -8.435 -17.520  12.182  1.00  0.00     0.000 C 
BRANCH   2   3
ATOM      3  C   UNL     1      -9.042 -17.327  13.582  1.00  0.00     0.000 C 
BRANCH   3   4
ATOM      4  C   UNL     1     -10.506 -16.847  13.595  1.00  0.00     0.000 C 
BRANCH   4   5
ATOM      5  C   UNL     1     -11.287 -17.260  14.859  1.00  0.00     0.000 C 
BRANCH   5   6
ATOM      6  C   UNL     1     -10.470 -18.180  15.778  1.00  0.00     0.006 C 
BRANCH   6   7
ATOM      7  C   UNL     1     -11.052 -19.596  15.799  1.00  0.00     0.053 C 
BRANCH   7   8
ATOM      8  C   UNL     1      -9.956 -20.614  15.788  1.00  0.00     0.041 C 
ATOM      9  O   UNL     1      -8.777 -20.272  15.509  1.00  0.00    -0.550 OA
ATOM     10  O   UNL     1     -10.228 -21.934  16.125  1.00  0.00    -0.550 OA
ENDBRANCH   7   8
ENDBRANCH   6   7
ENDBRANCH   5   6
ENDBRANCH   4   5
ENDBRANCH   3   4
ENDBRANCH   2   3
ENDBRANCH   1   2
BRANCH   1  11
ATOM     11  C   UNL     1      -9.570 -19.131  10.597  1.00  0.00     0.000 C 
BRANCH  11  12
ATOM     12  C   UNL     1      -8.335 -19.951  11.000  1.00  0.00    -0.000 C 
BRANCH  12  13
ATOM     13  C   UNL     1      -8.679 -21.119  11.936  1.00  0.00    -0.000 C 
BRANCH  13  14
ATOM     14  C   UNL     1     -10.190 -21.187  12.195  1.00  0.00    -0.000 C 
BRANCH  14  15
ATOM     15  C   UNL     1     -10.642 -22.629  12.453  1.00  0.00    -0.000 C 
BRANCH  15  16
ATOM     16  C   UNL     1     -12.175 -22.729  12.473  1.00  0.00    -0.000 C 
BRANCH  16  17
ATOM     17  C   UNL     1     -12.770 -22.368  13.841  1.00  0.00    -0.003 C 
ATOM     18  C   UNL     1     -14.185 -22.913  14.031  1.00  0.00     0.004 C 
ENDBRANCH  16  17
ENDBRANCH  15  16
ENDBRANCH  14  15
ENDBRANCH  13  14
ENDBRANCH  12  13
ENDBRANCH  11  12
ENDBRANCH   1  11
TORSDOF 14
ENDMDL
MODEL 6
REMARK VINA RESULT:    -2.470      2.479      5.236
REMARK INTER + INTRA:          -6.529
REMARK INTER:                  -4.304
REMARK INTRA:                  -2.225
REMARK UNBOUND:                -2.038
REMARK SMILES CCCCCCCCCCCCCCCC(=O)[O-]
REMARK SMILES IDX 9 1 10 2 11 3 12 4 13 5 14 6 15 7 16 8 17 9 18 10 8 11 7 12
REMARK SMILES IDX 6 13 5 14 4 15 3 16 2 17 1 18
REMARK H PARENT
REMARK Flexibility Score: inf
ROOT
ATOM      1  C   UNL     1     -12.184 -19.655  16.121  1.00  0.00     0.000 C 
ENDROOT
BRANCH   1   2
ATOM      2  C   UNL     1     -10.713 -19.703  15.684  1.00  0.00     0.000 C 
BRANCH   2   3
ATOM      3  C   UNL     1     -10.202 -18.349  15.163  1.00  0.00     0.000 C 
BRANCH   3   4
ATOM      4  C   UNL     1      -8.739 -18.350  14.677  1.00  0.00     0.000 C 
BRANCH   4   5
ATOM      5  C   UNL     1      -8.418 -17.234  13.662  1.00  0.00     0.000 C 
BRANCH   5   6
ATOM      6  C   UNL     1      -8.363 -17.755  12.218  1.00  0.00     0.006 C 
BRANCH   6   7
ATOM      7  C   UNL     1      -9.709 -17.563  11.511  1.00  0.00     0.053 C 
BRANCH   7   8
ATOM      8  C   UNL     1      -9.524 -17.552  10.027  1.00  0.00     0.041 C 
ATOM      9  O   UNL     1      -9.751 -16.504   9.368  1.00  0.00    -0.550 OA
ATOM     10  O   UNL     1      -9.063 -18.689   9.374  1.00  0.00    -0.550 OA
ENDBRANCH   7   8
ENDBRANCH   6   7
ENDBRANCH   5   6
ENDBRANCH   4   5
ENDBRANCH   3   4
ENDBRANCH   2   3
ENDBRANCH   1   2
BRANCH   1  11
ATOM     11  C   UNL     1     -12.845 -21.034  15.964  1.00  0.00     0.000 C 
BRANCH  11  12
ATOM     12  C   UNL     1     -11.827 -22.149  15.681  1.00  0.00    -0.000 C 
BRANCH  12  13
ATOM     13  C   UNL     1     -12.306 -23.125  14.595  1.00  0.00    -0.000 C 
BRANCH  13  14
ATOM     14  C   UNL     1     -12.456 -22.412  13.245  1.00  0.00    -0.000 C 
BRANCH  14  15
ATOM     15  C   UNL     1     -11.186 -22.560  12.399  1.00  0.00    -0.000 C 
BRANCH  15  16
ATOM     16  C   UNL     1     -10.456 -21.215  12.263  1.00  0.00    -0.000 C 
BRANCH  16  17
ATOM     17  C   UNL     1      -8.944 -21.339  12.498  1.00  0.00    -0.003 C 
ATOM     18  C   UNL     1      -8.605 -22.140  13.755  1.00  0.00     0.004 C 
ENDBRANCH  16  17
ENDBRANCH  15  16
ENDBRANCH  14  15
ENDBRANCH  13  14
ENDBRANCH  12  13
ENDBRANCH  11  12
ENDBRANCH   1  11
TORSDOF 14
ENDMDL
MODEL 7
REMARK VINA RESULT:    -2.295      2.351      6.012
REMARK INTER + INTRA:          -6.212
REMARK INTER:                  -4.716
REMARK INTRA:                  -1.496
REMARK UNBOUND:                -2.038
REMARK SMILES CCCCCCCCCCCCCCCC(=O)[O-]
REMARK SMILES IDX 9 1 10 2 11 3 12 4 13 5 14 6 15 7 16 8 17 9 18 10 8 11 7 12
REMARK SMILES IDX 6 13 5 14 4 15 3 16 2 17 1 18
REMARK H PARENT
REMARK Flexibility Score: inf
ROOT
ATOM      1  C   UNL     1      -8.346 -21.195  11.692  1.00  0.00     0.000 C 
ENDROOT
BRANCH   1   2
ATOM      2  C   UNL     1      -8.583 -19.984  10.779  1.00  0.00     0.000 C 
BRANCH   2   3
ATOM      3  C   UNL     1      -9.853 -19.199  11.147  1.00  0.00     0.000 C 
BRANCH   3   4
ATOM      4  C   UNL     1      -9.621 -17.717  11.505  1.00  0.00     0.000 C 
BRANCH   4   5
ATOM      5  C   UNL     1      -8.323 -17.463  12.300  1.00  0.00     0.000 C 
BRANCH   5   6
ATOM      6  C   UNL     1      -8.558 -17.460  13.818  1.00  0.00     0.006 C 
BRANCH   6   7
ATOM      7  C   UNL     1      -9.902 -16.814  14.166  1.00  0.00     0.053 C 
BRANCH   7   8
ATOM      8  C   UNL     1     -10.670 -17.682  15.113  1.00  0.00     0.041 C 
ATOM      9  O   UNL     1     -11.879 -17.433  15.361  1.00  0.00    -0.550 OA
ATOM     10  O   UNL     1     -10.063 -18.789  15.690  1.00  0.00    -0.550 OA
ENDBRANCH   7   8
ENDBRANCH   6   7
ENDBRANCH   5   6
ENDBRANCH   4   5
ENDBRANCH   3   4
ENDBRANCH   2   3
ENDBRANCH   1   2
BRANCH   1  11
ATOM     11  C   UNL     1      -9.181 -21.082  12.977  1.00  0.00     0.000 C 
BRANCH  11  12
ATOM     12  C   UNL     1     -10.032 -22.333  13.243  1.00  0.00    -0.000 C 
BRANCH  12  13
ATOM     13  C   UNL     1     -11.160 -22.511  12.216  1.00  0.00    -0.000 C 
BRANCH  13  14
ATOM     14  C   UNL     1     -12.518 -22.657  12.913  1.00  0.00    -0.000 C 
BRANCH  14  15
ATOM     15  C   UNL     1     -12.362 -22.623  14.438  1.00  0.00    -0.000 C 
BRANCH  15  16
ATOM     16  C   UNL     1     -13.153 -21.455  15.045  1.00  0.00    -0.000 C 
BRANCH  16  17
ATOM     17  C   UNL     1     -14.153 -21.914  16.116  1.00  0.00    -0.003 C 
ATOM     18  C   UNL     1     -15.059 -23.045  15.632  1.00  0.00     0.004 C 
ENDBRANCH  16  17
ENDBRANCH  15  16
ENDBRANCH  14  15
ENDBRANCH  13  14
ENDBRANCH  12  13
ENDBRANCH  11  12
ENDBRANCH   1  11
TORSDOF 14
ENDMDL
MODEL 8
REMARK VINA RESULT:    -2.123      1.450      2.878
REMARK INTER + INTRA:          -5.899
REMARK INTER:                  -4.185
REMARK INTRA:                  -1.713
REMARK UNBOUND:                -2.038
REMARK SMILES CCCCCCCCCCCCCCCC(=O)[O-]
REMARK SMILES IDX 9 1 10 2 11 3 12 4 13 5 14 6 15 7 16 8 17 9 18 10 8 11 7 12
REMARK SMILES IDX 6 13 5 14 4 15 3 16 2 17 1 18
REMARK H PARENT
REMARK Flexibility Score: inf
ROOT
ATOM      1  C   UNL     1     -10.791 -16.710  12.225  1.00  0.00     0.000 C 
ENDROOT
BRANCH   1   2
ATOM      2  C   UNL     1     -10.917 -16.764  13.754  1.00  0.00     0.000 C 
BRANCH   2   3
ATOM      3  C   UNL     1      -9.686 -17.385  14.434  1.00  0.00     0.000 C 
BRANCH   3   4
ATOM      4  C   UNL     1      -9.999 -18.325  15.614  1.00  0.00     0.000 C 
BRANCH   4   5
ATOM      5  C   UNL     1     -11.480 -18.749  15.698  1.00  0.00     0.000 C 
BRANCH   5   6
ATOM      6  C   UNL     1     -11.646 -20.215  16.124  1.00  0.00     0.006 C 
BRANCH   6   7
ATOM      7  C   UNL     1     -13.109 -20.655  16.027  1.00  0.00     0.053 C 
BRANCH   7   8
ATOM      8  C   UNL     1     -13.240 -21.845  15.129  1.00  0.00     0.041 C 
ATOM      9  O   UNL     1     -14.296 -22.027  14.468  1.00  0.00    -0.550 OA
ATOM     10  O   UNL     1     -12.180 -22.733  14.991  1.00  0.00    -0.550 OA
ENDBRANCH   7   8
ENDBRANCH   6   7
ENDBRANCH   5   6
ENDBRANCH   4   5
ENDBRANCH   3   4
ENDBRANCH   2   3
ENDBRANCH   1   2
BRANCH   1  11
ATOM     11  C   UNL     1      -9.542 -17.471  11.754  1.00  0.00     0.000 C 
BRANCH  11  12
ATOM     12  C   UNL     1      -9.499 -17.652  10.229  1.00  0.00    -0.000 C 
BRANCH  12  13
ATOM     13  C   UNL     1      -8.874 -18.991   9.809  1.00  0.00    -0.000 C 
BRANCH  13  14
ATOM     14  C   UNL     1      -7.924 -19.516  10.892  1.00  0.00    -0.000 C 
BRANCH  14  15
ATOM     15  C   UNL     1      -8.228 -20.981  11.229  1.00  0.00    -0.000 C 
BRANCH  15  16
ATOM     16  C   UNL     1      -9.573 -21.109  11.960  1.00  0.00    -0.000 C 
BRANCH  16  17
ATOM     17  C   UNL     1      -9.424 -21.032  13.486  1.00  0.00    -0.003 C 
ATOM     18  C   UNL     1      -8.251 -21.862  14.008  1.00  0.00     0.004 C 
ENDBRANCH  16  17
ENDBRANCH  15  16
ENDBRANCH  14  15
ENDBRANCH  13  14
ENDBRANCH  12  13
ENDBRANCH  11  12
ENDBRANCH   1  11
TORSDOF 14
ENDMDL
MODEL 9
REMARK VINA RESULT:    -2.119      2.133      4.920
REMARK INTER + INTRA:          -5.892
REMARK INTER:                  -4.332
REMARK INTRA:                  -1.560
REMARK UNBOUND:                -2.038
REMARK SMILES CCCCCCCCCCCCCCCC(=O)[O-]
REMARK SMILES IDX 9 1 10 2 11 3 12 4 13 5 14 6 15 7 16 8 17 9 18 10 8 11 7 12
REMARK SMILES IDX 6 13 5 14 4 15 3 16 2 17 1 18
REMARK H PARENT
REMARK Flexibility Score: inf
ROOT
ATOM      1  C   UNL     1      -9.811 -18.892  10.567  1.00  0.00     0.000 C 
ENDROOT
BRANCH   1   2
ATOM      2  C   UNL     1      -9.657 -17.613  11.404  1.00  0.00     0.000 C 
BRANCH   2   3
ATOM      3  C   UNL     1      -8.241 -17.445  11.981  1.00  0.00     0.000 C 
BRANCH   3   4
ATOM      4  C   UNL     1      -8.185 -17.193  13.501  1.00  0.00     0.000 C 
BRANCH   4   5
ATOM      5  C   UNL     1      -8.351 -18.469  14.351  1.00  0.00     0.000 C 
BRANCH   5   6
ATOM      6  C   UNL     1      -8.986 -18.182  15.720  1.00  0.00     0.006 C 
BRANCH   6   7
ATOM      7  C   UNL     1     -10.010 -19.259  16.090  1.00  0.00     0.053 C 
BRANCH   7   8
ATOM      8  C   UNL     1     -11.385 -18.839  15.676  1.00  0.00     0.041 C 
ATOM      9  O   UNL     1     -12.347 -19.648  15.760  1.00  0.00    -0.550 OA
ATOM     10  O   UNL     1     -11.614 -17.542  15.235  1.00  0.00    -0.550 OA
ENDBRANCH   7   8
ENDBRANCH   6   7
ENDBRANCH   5   6
ENDBRANCH   4   5
ENDBRANCH   3   4
ENDBRANCH   2   3
ENDBRANCH   1   2
BRANCH   1  11
ATOM     11  C   UNL     1      -9.830 -20.136  11.468  1.00  0.00     0.000 C 
BRANCH  11  12
ATOM     12  C   UNL     1      -8.488 -20.884  11.473  1.00  0.00    -0.000 C 
BRANCH  12  13
ATOM     13  C   UNL     1      -8.516 -22.142  12.353  1.00  0.00    -0.000 C 
BRANCH  13  14
ATOM     14  C   UNL     1      -9.957 -22.535  12.703  1.00  0.00    -0.000 C 
BRANCH  14  15
ATOM     15  C   UNL     1     -10.223 -22.374  14.205  1.00  0.00    -0.000 C 
BRANCH  15  16
ATOM     16  C   UNL     1     -11.610 -22.919  14.578  1.00  0.00    -0.000 C 
BRANCH  16  17
ATOM     17  C   UNL     1     -12.712 -22.427  13.628  1.00  0.00    -0.003 C 
ATOM     18  C   UNL     1     -14.093 -22.414  14.281  1.00  0.00     0.004 C 
ENDBRANCH  16  17
ENDBRANCH  15  16
ENDBRANCH  14  15
ENDBRANCH  13  14
ENDBRANCH  12  13
ENDBRANCH  11  12
ENDBRANCH   1  11
TORSDOF 14
ENDMDL
