MODEL 1
REMARK VINA RESULT:    -4.112      0.000      0.000
REMARK INTER + INTRA:          -6.871
REMARK INTER:                  -6.035
REMARK INTRA:                  -0.836
REMARK UNBOUND:                -0.836
REMARK SMILES O=C([O-])CCCCCCCC(=O)[O-]
REMARK SMILES IDX 7 1 6 2 5 3 4 4 2 5 1 6 3 7 8 8 9 9 10 10 11 11 12 12 13 13
REMARK H PARENT
REMARK Flexibility Score: inf
ROOT
ATOM      1  C   UNL     1      -4.929 -48.721  17.774  1.00  0.00     0.000 C 
ENDROOT
BRANCH   1   2
ATOM      2  C   UNL     1      -3.771 -49.043  16.821  1.00  0.00     0.000 C 
BRANCH   2   3
ATOM      3  C   UNL     1      -2.417 -48.840  17.513  1.00  0.00     0.006 C 
BRANCH   3   4
ATOM      4  C   UNL     1      -1.626 -47.708  16.851  1.00  0.00     0.053 C 
BRANCH   4   5
ATOM      5  C   UNL     1      -1.749 -46.447  17.647  1.00  0.00     0.041 C 
ATOM      6  O   UNL     1      -1.641 -46.478  18.901  1.00  0.00    -0.550 OA
ATOM      7  O   UNL     1      -1.932 -45.232  17.001  1.00  0.00    -0.550 OA
ENDBRANCH   4   5
ENDBRANCH   3   4
ENDBRANCH   2   3
ENDBRANCH   1   2
BRANCH   1   8
ATOM      8  C   UNL     1      -4.460 -48.750  19.237  1.00  0.00     0.000 C 
BRANCH   8   9
ATOM      9  C   UNL     1      -4.693 -47.413  19.964  1.00  0.00     0.006 C 
BRANCH   9  10
ATOM     10  C   UNL     1      -5.207 -46.282  19.058  1.00  0.00     0.053 C 
BRANCH  10  11
ATOM     11  C   UNL     1      -5.028 -44.934  19.686  1.00  0.00     0.041 C 
ATOM     12  O   UNL     1      -4.108 -44.168  19.292  1.00  0.00    -0.550 OA
ATOM     13  O   UNL     1      -5.898 -44.508  20.683  1.00  0.00    -0.550 OA
ENDBRANCH  10  11
ENDBRANCH   9  10
ENDBRANCH   8   9
ENDBRANCH   1   8
TORSDOF 8
ENDMDL
MODEL 2
REMARK VINA RESULT:    -4.110      0.160      3.903
REMARK INTER + INTRA:          -6.868
REMARK INTER:                  -5.987
REMARK INTRA:                  -0.881
REMARK UNBOUND:                -0.836
REMARK SMILES O=C([O-])CCCCCCCC(=O)[O-]
REMARK SMILES IDX 7 1 6 2 5 3 4 4 2 5 1 6 3 7 8 8 9 9 10 10 11 11 12 12 13 13
REMARK H PARENT
REMARK Flexibility Score: inf
ROOT
ATOM      1  C   UNL     1      -4.875 -48.639  17.840  1.00  0.00     0.000 C 
ENDROOT
BRANCH   1   2
ATOM      2  C   UNL     1      -4.343 -48.719  19.277  1.00  0.00     0.000 C 
BRANCH   2   3
ATOM      3  C   UNL     1      -4.664 -47.436  20.054  1.00  0.00     0.006 C 
BRANCH   3   4
ATOM      4  C   UNL     1      -5.147 -46.330  19.111  1.00  0.00     0.053 C 
BRANCH   4   5
ATOM      5  C   UNL     1      -4.960 -44.986  19.741  1.00  0.00     0.041 C 
ATOM      6  O   UNL     1      -3.992 -44.257  19.401  1.00  0.00    -0.550 OA
ATOM      7  O   UNL     1      -5.882 -44.519  20.669  1.00  0.00    -0.550 OA
ENDBRANCH   4   5
ENDBRANCH   3   4
ENDBRANCH   2   3
ENDBRANCH   1   2
BRANCH   1   8
ATOM      8  C   UNL     1      -3.767 -48.963  16.826  1.00  0.00     0.000 C 
BRANCH   8   9
ATOM      9  C   UNL     1      -2.368 -49.009  17.467  1.00  0.00     0.006 C 
BRANCH   9  10
ATOM     10  C   UNL     1      -1.421 -47.892  16.999  1.00  0.00     0.053 C 
BRANCH  10  11
ATOM     11  C   UNL     1      -1.671 -46.604  17.721  1.00  0.00     0.041 C 
ATOM     12  O   UNL     1      -1.574 -46.551  18.976  1.00  0.00    -0.550 OA
ATOM     13  O   UNL     1      -1.978 -45.452  17.005  1.00  0.00    -0.550 OA
ENDBRANCH  10  11
ENDBRANCH   9  10
ENDBRANCH   8   9
ENDBRANCH   1   8
TORSDOF 8
ENDMDL
MODEL 3
REMARK VINA RESULT:    -4.089      2.028      3.083
REMARK INTER + INTRA:          -6.837
REMARK INTER:                  -5.993
REMARK INTRA:                  -0.843
REMARK UNBOUND:                -0.836
REMARK SMILES O=C([O-])CCCCCCCC(=O)[O-]
REMARK SMILES IDX 7 1 6 2 5 3 4 4 2 5 1 6 3 7 8 8 9 9 10 10 11 11 12 12 13 13
REMARK H PARENT
REMARK Flexibility Score: inf
ROOT
ATOM      1  C   UNL     1      -1.559 -47.780  17.412  1.00  0.00     0.000 C 
ENDROOT
BRANCH   1   2
ATOM      2  C   UNL     1      -1.729 -46.706  18.494  1.00  0.00     0.000 C 
BRANCH   2   3
ATOM      3  C   UNL     1      -2.143 -45.365  17.877  1.00  0.00     0.006 C 
BRANCH   3   4
ATOM      4  C   UNL     1      -1.791 -45.313  16.387  1.00  0.00     0.053 C 
BRANCH   4   5
ATOM      5  C   UNL     1      -3.028 -45.162  15.561  1.00  0.00     0.041 C 
ATOM      6  O   UNL     1      -3.454 -46.128  14.875  1.00  0.00    -0.550 OA
ATOM      7  O   UNL     1      -3.740 -43.970  15.587  1.00  0.00    -0.550 OA
ENDBRANCH   4   5
ENDBRANCH   3   4
ENDBRANCH   2   3
ENDBRANCH   1   2
BRANCH   1   8
ATOM      8  C   UNL     1      -2.439 -49.003  17.709  1.00  0.00     0.000 C 
BRANCH   8   9
ATOM      9  C   UNL     1      -3.721 -48.642  18.481  1.00  0.00     0.006 C 
BRANCH   9  10
ATOM     10  C   UNL     1      -4.936 -48.349  17.587  1.00  0.00     0.053 C 
BRANCH  10  11
ATOM     11  C   UNL     1      -5.504 -46.986  17.840  1.00  0.00     0.041 C 
ATOM     12  O   UNL     1      -6.118 -46.375  16.925  1.00  0.00    -0.550 OA
ATOM     13  O   UNL     1      -5.386 -46.404  19.097  1.00  0.00    -0.550 OA
ENDBRANCH  10  11
ENDBRANCH   9  10
ENDBRANCH   8   9
ENDBRANCH   1   8
TORSDOF 8
ENDMDL
MODEL 4
REMARK VINA RESULT:    -4.085      1.736      3.851
REMARK INTER + INTRA:          -6.832
REMARK INTER:                  -6.186
REMARK INTRA:                  -0.646
REMARK UNBOUND:                -0.836
REMARK SMILES O=C([O-])CCCCCCCC(=O)[O-]
REMARK SMILES IDX 7 1 6 2 5 3 4 4 2 5 1 6 3 7 8 8 9 9 10 10 11 11 12 12 13 13
REMARK H PARENT
REMARK Flexibility Score: inf
ROOT
ATOM      1  C   UNL     1      -2.387 -48.857  17.551  1.00  0.00     0.000 C 
ENDROOT
BRANCH   1   2
ATOM      2  C   UNL     1      -3.725 -48.894  16.803  1.00  0.00     0.000 C 
BRANCH   2   3
ATOM      3  C   UNL     1      -4.904 -48.911  17.784  1.00  0.00     0.006 C 
BRANCH   3   4
ATOM      4  C   UNL     1      -4.449 -48.526  19.195  1.00  0.00     0.053 C 
BRANCH   4   5
ATOM      5  C   UNL     1      -4.865 -47.126  19.517  1.00  0.00     0.041 C 
ATOM      6  O   UNL     1      -4.543 -46.606  20.617  1.00  0.00    -0.550 OA
ATOM      7  O   UNL     1      -5.567 -46.377  18.581  1.00  0.00    -0.550 OA
ENDBRANCH   4   5
ENDBRANCH   3   4
ENDBRANCH   2   3
ENDBRANCH   1   2
BRANCH   1   8
ATOM      8  C   UNL     1      -1.480 -47.748  16.999  1.00  0.00     0.000 C 
BRANCH   8   9
ATOM      9  C   UNL     1      -1.962 -46.337  17.383  1.00  0.00     0.006 C 
BRANCH   9  10
ATOM     10  C   UNL     1      -1.626 -45.250  16.349  1.00  0.00     0.053 C 
BRANCH  10  11
ATOM     11  C   UNL     1      -2.840 -44.789  15.604  1.00  0.00     0.041 C 
ATOM     12  O   UNL     1      -2.788 -43.760  14.881  1.00  0.00    -0.550 OA
ATOM     13  O   UNL     1      -4.022 -45.518  15.680  1.00  0.00    -0.550 OA
ENDBRANCH  10  11
ENDBRANCH   9  10
ENDBRANCH   8   9
ENDBRANCH   1   8
TORSDOF 8
ENDMDL
MODEL 5
REMARK VINA RESULT:    -4.010      2.535      5.229
REMARK INTER + INTRA:          -6.722
REMARK INTER:                  -6.173
REMARK INTRA:                  -0.549
REMARK UNBOUND:                -0.836
REMARK SMILES O=C([O-])CCCCCCCC(=O)[O-]
REMARK SMILES IDX 7 1 6 2 5 3 4 4 2 5 1 6 3 7 8 8 9 9 10 10 11 11 12 12 13 13
REMARK H PARENT
REMARK Flexibility Score: inf
ROOT
ATOM      1  C   UNL     1      -3.750 -48.884  17.116  1.00  0.00     0.000 C 
ENDROOT
BRANCH   1   2
ATOM      2  C   UNL     1      -4.943 -48.593  18.035  1.00  0.00     0.000 C 
BRANCH   2   3
ATOM      3  C   UNL     1      -4.471 -48.208  19.443  1.00  0.00     0.006 C 
BRANCH   3   4
ATOM      4  C   UNL     1      -4.904 -46.782  19.796  1.00  0.00     0.053 C 
BRANCH   4   5
ATOM      5  C   UNL     1      -3.887 -45.793  19.321  1.00  0.00     0.041 C 
ATOM      6  O   UNL     1      -2.750 -45.745  19.861  1.00  0.00    -0.550 OA
ATOM      7  O   UNL     1      -4.176 -44.959  18.250  1.00  0.00    -0.550 OA
ENDBRANCH   4   5
ENDBRANCH   3   4
ENDBRANCH   2   3
ENDBRANCH   1   2
BRANCH   1   8
ATOM      8  C   UNL     1      -2.434 -48.884  17.908  1.00  0.00     0.000 C 
BRANCH   8   9
ATOM      9  C   UNL     1      -1.191 -48.876  17.000  1.00  0.00     0.006 C 
BRANCH   9  10
ATOM     10  C   UNL     1      -1.093 -50.080  16.050  1.00  0.00     0.053 C 
BRANCH  10  11
ATOM     11  C   UNL     1      -0.860 -49.660  14.632  1.00  0.00     0.041 C 
ATOM     12  O   UNL     1      -1.777 -49.096  13.979  1.00  0.00    -0.550 OA
ATOM     13  O   UNL     1       0.383 -49.859  14.042  1.00  0.00    -0.550 OA
ENDBRANCH  10  11
ENDBRANCH   9  10
ENDBRANCH   8   9
ENDBRANCH   1   8
TORSDOF 8
ENDMDL
MODEL 6
REMARK VINA RESULT:    -3.993      1.189      1.929
REMARK INTER + INTRA:          -6.696
REMARK INTER:                  -5.739
REMARK INTRA:                  -0.957
REMARK UNBOUND:                -0.836
REMARK SMILES O=C([O-])CCCCCCCC(=O)[O-]
REMARK SMILES IDX 7 1 6 2 5 3 4 4 2 5 1 6 3 7 8 8 9 9 10 10 11 11 12 12 13 13
REMARK H PARENT
REMARK Flexibility Score: inf
ROOT
ATOM      1  C   UNL     1      -3.741 -48.983  17.287  1.00  0.00     0.000 C 
ENDROOT
BRANCH   1   2
ATOM      2  C   UNL     1      -2.284 -48.954  17.768  1.00  0.00     0.000 C 
BRANCH   2   3
ATOM      3  C   UNL     1      -1.533 -47.757  17.171  1.00  0.00     0.006 C 
BRANCH   3   4
ATOM      4  C   UNL     1      -2.207 -47.271  15.885  1.00  0.00     0.053 C 
BRANCH   4   5
ATOM      5  C   UNL     1      -2.493 -45.805  15.965  1.00  0.00     0.041 C 
ATOM      6  O   UNL     1      -3.664 -45.377  15.785  1.00  0.00    -0.550 OA
ATOM      7  O   UNL     1      -1.477 -44.915  16.287  1.00  0.00    -0.550 OA
ENDBRANCH   4   5
ENDBRANCH   3   4
ENDBRANCH   2   3
ENDBRANCH   1   2
BRANCH   1   8
ATOM      8  C   UNL     1      -4.707 -48.691  18.445  1.00  0.00     0.000 C 
BRANCH   8   9
ATOM      9  C   UNL     1      -4.987 -47.188  18.624  1.00  0.00     0.006 C 
BRANCH   9  10
ATOM     10  C   UNL     1      -4.380 -46.578  19.898  1.00  0.00     0.053 C 
BRANCH  10  11
ATOM     11  C   UNL     1      -3.403 -45.486  19.588  1.00  0.00     0.041 C 
ATOM     12  O   UNL     1      -2.178 -45.644  19.833  1.00  0.00    -0.550 OA
ATOM     13  O   UNL     1      -3.841 -44.307  18.996  1.00  0.00    -0.550 OA
ENDBRANCH  10  11
ENDBRANCH   9  10
ENDBRANCH   8   9
ENDBRANCH   1   8
TORSDOF 8
ENDMDL
MODEL 7
REMARK VINA RESULT:    -3.893      1.988      3.048
REMARK INTER + INTRA:          -6.550
REMARK INTER:                  -5.703
REMARK INTRA:                  -0.847
REMARK UNBOUND:                -0.836
REMARK SMILES O=C([O-])CCCCCCCC(=O)[O-]
REMARK SMILES IDX 7 1 6 2 5 3 4 4 2 5 1 6 3 7 8 8 9 9 10 10 11 11 12 12 13 13
REMARK H PARENT
REMARK Flexibility Score: inf
ROOT
ATOM      1  C   UNL     1      -1.632 -46.709  18.388  1.00  0.00     0.000 C 
ENDROOT
BRANCH   1   2
ATOM      2  C   UNL     1      -1.426 -47.871  17.408  1.00  0.00     0.000 C 
BRANCH   2   3
ATOM      3  C   UNL     1      -2.361 -49.041  17.739  1.00  0.00     0.006 C 
BRANCH   3   4
ATOM      4  C   UNL     1      -3.705 -48.889  17.020  1.00  0.00     0.053 C 
BRANCH   4   5
ATOM      5  C   UNL     1      -4.762 -48.435  17.977  1.00  0.00     0.041 C 
ATOM      6  O   UNL     1      -4.707 -48.773  19.188  1.00  0.00    -0.550 OA
ATOM      7  O   UNL     1      -5.781 -47.598  17.541  1.00  0.00    -0.550 OA
ENDBRANCH   4   5
ENDBRANCH   3   4
ENDBRANCH   2   3
ENDBRANCH   1   2
BRANCH   1   8
ATOM      8  C   UNL     1      -2.066 -45.437  17.646  1.00  0.00     0.000 C 
BRANCH   8   9
ATOM      9  C   UNL     1      -3.461 -44.945  18.072  1.00  0.00     0.006 C 
BRANCH   9  10
ATOM     10  C   UNL     1      -3.755 -45.097  19.574  1.00  0.00     0.053 C 
BRANCH  10  11
ATOM     11  C   UNL     1      -5.222 -45.036  19.869  1.00  0.00     0.041 C 
ATOM     12  O   UNL     1      -5.752 -45.887  20.630  1.00  0.00    -0.550 OA
ATOM     13  O   UNL     1      -5.998 -44.016  19.331  1.00  0.00    -0.550 OA
ENDBRANCH  10  11
ENDBRANCH   9  10
ENDBRANCH   8   9
ENDBRANCH   1   8
TORSDOF 8
ENDMDL
MODEL 8
REMARK VINA RESULT:    -3.868      1.945      2.582
REMARK INTER + INTRA:          -6.512
REMARK INTER:                  -5.665
REMARK INTRA:                  -0.847
REMARK UNBOUND:                -0.836
REMARK SMILES O=C([O-])CCCCCCCC(=O)[O-]
REMARK SMILES IDX 7 1 6 2 5 3 4 4 2 5 1 6 3 7 8 8 9 9 10 10 11 11 12 12 13 13
REMARK H PARENT
REMARK Flexibility Score: inf
ROOT
ATOM      1  C   UNL     1      -3.770 -48.657  18.686  1.00  0.00     0.000 C 
ENDROOT
BRANCH   1   2
ATOM      2  C   UNL     1      -2.490 -48.931  17.887  1.00  0.00     0.000 C 
BRANCH   2   3
ATOM      3  C   UNL     1      -1.706 -47.635  17.643  1.00  0.00     0.006 C 
BRANCH   3   4
ATOM      4  C   UNL     1      -1.922 -46.640  18.788  1.00  0.00     0.053 C 
BRANCH   4   5
ATOM      5  C   UNL     1      -2.260 -45.286  18.248  1.00  0.00     0.041 C 
ATOM      6  O   UNL     1      -1.888 -44.954  17.092  1.00  0.00    -0.550 OA
ATOM      7  O   UNL     1      -3.028 -44.408  19.002  1.00  0.00    -0.550 OA
ENDBRANCH   4   5
ENDBRANCH   3   4
ENDBRANCH   2   3
ENDBRANCH   1   2
BRANCH   1   8
ATOM      8  C   UNL     1      -4.994 -48.603  17.760  1.00  0.00     0.000 C 
BRANCH   8   9
ATOM      9  C   UNL     1      -5.637 -47.206  17.702  1.00  0.00     0.006 C 
BRANCH   9  10
ATOM     10  C   UNL     1      -5.189 -46.352  16.505  1.00  0.00     0.053 C 
BRANCH  10  11
ATOM     11  C   UNL     1      -5.801 -44.986  16.529  1.00  0.00     0.041 C 
ATOM     12  O   UNL     1      -7.027 -44.844  16.778  1.00  0.00    -0.550 OA
ATOM     13  O   UNL     1      -5.009 -43.864  16.312  1.00  0.00    -0.550 OA
ENDBRANCH  10  11
ENDBRANCH   9  10
ENDBRANCH   8   9
ENDBRANCH   1   8
TORSDOF 8
ENDMDL
MODEL 9
REMARK VINA RESULT:    -3.831      2.186      4.487
REMARK INTER + INTRA:          -6.459
REMARK INTER:                  -5.562
REMARK INTRA:                  -0.897
REMARK UNBOUND:                -0.836
REMARK SMILES O=C([O-])CCCCCCCC(=O)[O-]
REMARK SMILES IDX 7 1 6 2 5 3 4 4 2 5 1 6 3 7 8 8 9 9 10 10 11 11 12 12 13 13
REMARK H PARENT
REMARK Flexibility Score: inf
ROOT
ATOM      1  C   UNL     1      -2.176 -45.288  17.303  1.00  0.00     0.000 C 
ENDROOT
BRANCH   1   2
ATOM      2  C   UNL     1      -2.430 -45.147  18.809  1.00  0.00     0.000 C 
BRANCH   2   3
ATOM      3  C   UNL     1      -3.819 -44.555  19.079  1.00  0.00     0.006 C 
BRANCH   3   4
ATOM      4  C   UNL     1      -4.742 -44.746  17.871  1.00  0.00     0.053 C 
BRANCH   4   5
ATOM      5  C   UNL     1      -6.040 -45.356  18.295  1.00  0.00     0.041 C 
ATOM      6  O   UNL     1      -6.763 -45.954  17.455  1.00  0.00    -0.550 OA
ATOM      7  O   UNL     1      -6.429 -45.309  19.627  1.00  0.00    -0.550 OA
ENDBRANCH   4   5
ENDBRANCH   3   4
ENDBRANCH   2   3
ENDBRANCH   1   2
BRANCH   1   8
ATOM      8  C   UNL     1      -1.764 -46.724  16.948  1.00  0.00     0.000 C 
BRANCH   8   9
ATOM      9  C   UNL     1      -1.815 -47.675  18.158  1.00  0.00     0.006 C 
BRANCH   9  10
ATOM     10  C   UNL     1      -2.736 -48.891  17.968  1.00  0.00     0.053 C 
BRANCH  10  11
ATOM     11  C   UNL     1      -4.144 -48.600  18.385  1.00  0.00     0.041 C 
ATOM     12  O   UNL     1      -4.379 -48.088  19.512  1.00  0.00    -0.550 OA
ATOM     13  O   UNL     1      -5.196 -48.861  17.515  1.00  0.00    -0.550 OA
ENDBRANCH  10  11
ENDBRANCH   9  10
ENDBRANCH   8   9
ENDBRANCH   1   8
TORSDOF 8
ENDMDL
