MODEL 1
REMARK VINA RESULT:    -6.103      0.000      0.000
REMARK INTER + INTRA:         -13.253
REMARK INTER:                 -11.811
REMARK INTRA:                  -1.442
REMARK UNBOUND:                -1.442
REMARK SMILES CCCCCC=CCC=CCCCCCCCCOC(C)=O
REMARK SMILES IDX 12 1 11 2 10 3 9 4 8 5 7 6 6 7 5 8 4 9 3 10 2 11 1 12 13 13
REMARK SMILES IDX 14 14 15 15 16 16 17 17 18 18 19 19 20 20 22 21 21 22
REMARK H PARENT
REMARK Flexibility Score: inf
ROOT
ATOM      1  C   UNL     1      28.153   2.450  28.155  1.00  0.00     0.004 C 
ENDROOT
BRANCH   1   2
ATOM      2  C   UNL     1      29.413   2.036  28.931  1.00  0.00     0.027 C 
BRANCH   2   3
ATOM      3  C   UNL     1      30.463   3.114  28.868  1.00  0.00    -0.031 C 
ATOM      4  C   UNL     1      30.910   3.806  29.936  1.00  0.00    -0.027 C 
BRANCH   4   5
ATOM      5  C   UNL     1      30.381   3.650  31.341  1.00  0.00     0.054 C 
BRANCH   5   6
ATOM      6  C   UNL     1      29.607   4.862  31.775  1.00  0.00    -0.027 C 
ATOM      7  C   UNL     1      28.268   4.852  31.850  1.00  0.00    -0.031 C 
BRANCH   7   8
ATOM      8  C   UNL     1      27.501   6.036  32.365  1.00  0.00     0.027 C 
BRANCH   8   9
ATOM      9  C   UNL     1      28.443   7.190  32.743  1.00  0.00     0.004 C 
BRANCH   9  10
ATOM     10  C   UNL     1      27.686   8.500  33.017  1.00  0.00     0.000 C 
BRANCH  10  11
ATOM     11  C   UNL     1      26.477   8.691  32.089  1.00  0.00    -0.003 C 
ATOM     12  C   UNL     1      26.453  10.098  31.497  1.00  0.00     0.004 C 
ENDBRANCH  10  11
ENDBRANCH   9  10
ENDBRANCH   8   9
ENDBRANCH   7   8
ENDBRANCH   5   6
ENDBRANCH   4   5
ENDBRANCH   2   3
ENDBRANCH   1   2
BRANCH   1  13
ATOM     13  C   UNL     1      27.038   2.964  29.078  1.00  0.00     0.000 C 
BRANCH  13  14
ATOM     14  C   UNL     1      25.680   2.297  28.781  1.00  0.00     0.000 C 
BRANCH  14  15
ATOM     15  C   UNL     1      25.800   0.770  28.616  1.00  0.00     0.000 C 
BRANCH  15  16
ATOM     16  C   UNL     1      25.308   0.256  27.242  1.00  0.00     0.003 C 
BRANCH  16  17
ATOM     17  C   UNL     1      24.222   1.141  26.603  1.00  0.00     0.042 C 
BRANCH  17  18
ATOM     18  C   UNL     1      23.706   0.614  25.256  1.00  0.00     0.233 C 
BRANCH  18  19
ATOM     19  O   UNL     1      23.230   1.694  24.452  1.00  0.00    -0.466 OA
BRANCH  19  20
ATOM     20  C   UNL     1      21.897   2.123  24.479  1.00  0.00     0.302 C 
ATOM     21  O   UNL     1      21.051   1.561  25.233  1.00  0.00    -0.253 OA
ATOM     22  C   UNL     1      21.457   3.219  23.564  1.00  0.00     0.139 C 
ENDBRANCH  19  20
ENDBRANCH  18  19
ENDBRANCH  17  18
ENDBRANCH  16  17
ENDBRANCH  15  16
ENDBRANCH  14  15
ENDBRANCH  13  14
ENDBRANCH   1  13
TORSDOF 16
ENDMDL
MODEL 2
REMARK VINA RESULT:    -5.994      3.529      6.631
REMARK INTER + INTRA:         -13.042
REMARK INTER:                 -11.743
REMARK INTRA:                  -1.299
REMARK UNBOUND:                -1.442
REMARK SMILES CCCCCC=CCC=CCCCCCCCCOC(C)=O
REMARK SMILES IDX 12 1 11 2 10 3 9 4 8 5 7 6 6 7 5 8 4 9 3 10 2 11 1 12 13 13
REMARK SMILES IDX 14 14 15 15 16 16 17 17 18 18 19 19 20 20 22 21 21 22
REMARK H PARENT
REMARK Flexibility Score: inf
ROOT
ATOM      1  C   UNL     1      27.246   5.767  31.747  1.00  0.00     0.004 C 
ENDROOT
BRANCH   1   2
ATOM      2  C   UNL     1      27.319   6.791  32.890  1.00  0.00     0.027 C 
BRANCH   2   3
ATOM      3  C   UNL     1      26.970   8.172  32.399  1.00  0.00    -0.031 C 
ATOM      4  C   UNL     1      27.440   9.314  32.941  1.00  0.00    -0.027 C 
BRANCH   4   5
ATOM      5  C   UNL     1      28.333   9.383  34.155  1.00  0.00     0.054 C 
BRANCH   5   6
ATOM      6  C   UNL     1      28.066  10.619  34.966  1.00  0.00    -0.027 C 
ATOM      7  C   UNL     1      28.804  10.928  36.042  1.00  0.00    -0.031 C 
BRANCH   7   8
ATOM      8  C   UNL     1      28.591  12.205  36.802  1.00  0.00     0.027 C 
BRANCH   8   9
ATOM      9  C   UNL     1      27.354  12.959  36.290  1.00  0.00     0.004 C 
BRANCH   9  10
ATOM     10  C   UNL     1      27.701  14.349  35.733  1.00  0.00     0.000 C 
BRANCH  10  11
ATOM     11  C   UNL     1      26.816  14.749  34.543  1.00  0.00    -0.003 C 
ATOM     12  C   UNL     1      26.995  13.784  33.374  1.00  0.00     0.004 C 
ENDBRANCH  10  11
ENDBRANCH   9  10
ENDBRANCH   8   9
ENDBRANCH   7   8
ENDBRANCH   5   6
ENDBRANCH   4   5
ENDBRANCH   2   3
ENDBRANCH   1   2
BRANCH   1  13
ATOM     13  C   UNL     1      28.145   4.546  31.994  1.00  0.00     0.000 C 
BRANCH  13  14
ATOM     14  C   UNL     1      29.631   4.848  31.713  1.00  0.00     0.000 C 
BRANCH  14  15
ATOM     15  C   UNL     1      30.408   3.596  31.262  1.00  0.00     0.000 C 
BRANCH  15  16
ATOM     16  C   UNL     1      31.227   3.809  29.968  1.00  0.00     0.003 C 
BRANCH  16  17
ATOM     17  C   UNL     1      30.604   3.147  28.725  1.00  0.00     0.042 C 
BRANCH  17  18
ATOM     18  C   UNL     1      29.520   2.109  29.052  1.00  0.00     0.233 C 
BRANCH  18  19
ATOM     19  O   UNL     1      28.222   2.660  28.823  1.00  0.00    -0.466 OA
BRANCH  19  20
ATOM     20  C   UNL     1      27.084   2.216  29.508  1.00  0.00     0.302 C 
ATOM     21  O   UNL     1      27.187   1.430  30.494  1.00  0.00    -0.253 OA
ATOM     22  C   UNL     1      25.729   2.631  29.032  1.00  0.00     0.139 C 
ENDBRANCH  19  20
ENDBRANCH  18  19
ENDBRANCH  17  18
ENDBRANCH  16  17
ENDBRANCH  15  16
ENDBRANCH  14  15
ENDBRANCH  13  14
ENDBRANCH   1  13
TORSDOF 16
ENDMDL
MODEL 3
REMARK VINA RESULT:    -5.862      6.164     11.049
REMARK INTER + INTRA:         -12.787
REMARK INTER:                 -11.471
REMARK INTRA:                  -1.317
REMARK UNBOUND:                -1.442
REMARK SMILES CCCCCC=CCC=CCCCCCCCCOC(C)=O
REMARK SMILES IDX 12 1 11 2 10 3 9 4 8 5 7 6 6 7 5 8 4 9 3 10 2 11 1 12 13 13
REMARK SMILES IDX 14 14 15 15 16 16 17 17 18 18 19 19 20 20 22 21 21 22
REMARK H PARENT
REMARK Flexibility Score: inf
ROOT
ATOM      1  C   UNL     1      26.860   7.834  31.960  1.00  0.00     0.004 C 
ENDROOT
BRANCH   1   2
ATOM      2  C   UNL     1      27.927   6.888  32.530  1.00  0.00     0.027 C 
BRANCH   2   3
ATOM      3  C   UNL     1      27.637   5.458  32.153  1.00  0.00    -0.031 C 
ATOM      4  C   UNL     1      28.578   4.554  31.815  1.00  0.00    -0.027 C 
BRANCH   4   5
ATOM      5  C   UNL     1      30.054   4.853  31.701  1.00  0.00     0.054 C 
BRANCH   5   6
ATOM      6  C   UNL     1      30.659   4.189  30.498  1.00  0.00    -0.027 C 
ATOM      7  C   UNL     1      30.034   3.192  29.855  1.00  0.00    -0.031 C 
BRANCH   7   8
ATOM      8  C   UNL     1      30.599   2.586  28.603  1.00  0.00     0.027 C 
BRANCH   8   9
ATOM      9  C   UNL     1      29.488   2.020  27.706  1.00  0.00     0.004 C 
BRANCH   9  10
ATOM     10  C   UNL     1      28.203   2.861  27.760  1.00  0.00     0.000 C 
BRANCH  10  11
ATOM     11  C   UNL     1      26.988   2.056  28.246  1.00  0.00    -0.003 C 
ATOM     12  C   UNL     1      26.226   2.810  29.333  1.00  0.00     0.004 C 
ENDBRANCH  10  11
ENDBRANCH   9  10
ENDBRANCH   8   9
ENDBRANCH   7   8
ENDBRANCH   5   6
ENDBRANCH   4   5
ENDBRANCH   2   3
ENDBRANCH   1   2
BRANCH   1  13
ATOM     13  C   UNL     1      26.896   9.223  32.615  1.00  0.00     0.000 C 
BRANCH  13  14
ATOM     14  C   UNL     1      27.848   9.274  33.826  1.00  0.00     0.000 C 
BRANCH  14  15
ATOM     15  C   UNL     1      27.931  10.680  34.449  1.00  0.00     0.000 C 
BRANCH  15  16
ATOM     16  C   UNL     1      28.656  10.710  35.814  1.00  0.00     0.003 C 
BRANCH  16  17
ATOM     17  C   UNL     1      28.522  12.052  36.558  1.00  0.00     0.042 C 
BRANCH  17  18
ATOM     18  C   UNL     1      27.314  12.889  36.114  1.00  0.00     0.233 C 
BRANCH  18  19
ATOM     19  O   UNL     1      27.596  14.282  36.261  1.00  0.00    -0.466 OA
BRANCH  19  20
ATOM     20  C   UNL     1      28.364  14.996  35.332  1.00  0.00     0.302 C 
ATOM     21  O   UNL     1      29.415  15.602  35.691  1.00  0.00    -0.253 OA
ATOM     22  C   UNL     1      27.904  15.091  33.914  1.00  0.00     0.139 C 
ENDBRANCH  19  20
ENDBRANCH  18  19
ENDBRANCH  17  18
ENDBRANCH  16  17
ENDBRANCH  15  16
ENDBRANCH  14  15
ENDBRANCH  13  14
ENDBRANCH   1  13
TORSDOF 16
ENDMDL
MODEL 4
REMARK VINA RESULT:    -5.840      7.037     11.983
REMARK INTER + INTRA:         -12.744
REMARK INTER:                 -11.736
REMARK INTRA:                  -1.009
REMARK UNBOUND:                -1.442
REMARK SMILES CCCCCC=CCC=CCCCCCCCCOC(C)=O
REMARK SMILES IDX 12 1 11 2 10 3 9 4 8 5 7 6 6 7 5 8 4 9 3 10 2 11 1 12 13 13
REMARK SMILES IDX 14 14 15 15 16 16 17 17 18 18 19 19 20 20 22 21 21 22
REMARK H PARENT
REMARK Flexibility Score: inf
ROOT
ATOM      1  C   UNL     1      27.993  10.535  34.552  1.00  0.00     0.004 C 
ENDROOT
BRANCH   1   2
ATOM      2  C   UNL     1      28.234   9.172  33.887  1.00  0.00     0.027 C 
BRANCH   2   3
ATOM      3  C   UNL     1      27.308   8.973  32.715  1.00  0.00    -0.031 C 
ATOM      4  C   UNL     1      26.827   7.777  32.319  1.00  0.00    -0.027 C 
BRANCH   4   5
ATOM      5  C   UNL     1      27.192   6.455  32.949  1.00  0.00     0.054 C 
BRANCH   5   6
ATOM      6  C   UNL     1      28.230   5.728  32.142  1.00  0.00    -0.027 C 
ATOM      7  C   UNL     1      28.073   4.445  31.786  1.00  0.00    -0.031 C 
BRANCH   7   8
ATOM      8  C   UNL     1      29.070   3.744  30.909  1.00  0.00     0.027 C 
BRANCH   8   9
ATOM      9  C   UNL     1      30.500   3.909  31.448  1.00  0.00     0.004 C 
BRANCH   9  10
ATOM     10  C   UNL     1      31.512   4.236  30.339  1.00  0.00     0.000 C 
BRANCH  10  11
ATOM     11  C   UNL     1      32.383   5.456  30.672  1.00  0.00    -0.003 C 
ATOM     12  C   UNL     1      32.176   5.903  32.118  1.00  0.00     0.004 C 
ENDBRANCH  10  11
ENDBRANCH   9  10
ENDBRANCH   8   9
ENDBRANCH   7   8
ENDBRANCH   5   6
ENDBRANCH   4   5
ENDBRANCH   2   3
ENDBRANCH   1   2
BRANCH   1  13
ATOM     13  C   UNL     1      28.746  10.681  35.883  1.00  0.00     0.000 C 
BRANCH  13  14
ATOM     14  C   UNL     1      28.423  12.009  36.595  1.00  0.00     0.000 C 
BRANCH  14  15
ATOM     15  C   UNL     1      29.514  12.415  37.604  1.00  0.00     0.000 C 
BRANCH  15  16
ATOM     16  C   UNL     1      29.705  13.945  37.726  1.00  0.00     0.003 C 
BRANCH  16  17
ATOM     17  C   UNL     1      28.391  14.742  37.636  1.00  0.00     0.042 C 
BRANCH  17  18
ATOM     18  C   UNL     1      28.245  15.554  36.341  1.00  0.00     0.233 C 
BRANCH  18  19
ATOM     19  O   UNL     1      27.221  14.994  35.518  1.00  0.00    -0.466 OA
BRANCH  19  20
ATOM     20  C   UNL     1      27.133  15.253  34.144  1.00  0.00     0.302 C 
ATOM     21  O   UNL     1      27.651  16.295  33.647  1.00  0.00    -0.253 OA
ATOM     22  C   UNL     1      26.370  14.316  33.266  1.00  0.00     0.139 C 
ENDBRANCH  19  20
ENDBRANCH  18  19
ENDBRANCH  17  18
ENDBRANCH  16  17
ENDBRANCH  15  16
ENDBRANCH  14  15
ENDBRANCH  13  14
ENDBRANCH   1  13
TORSDOF 16
ENDMDL
MODEL 5
REMARK VINA RESULT:    -5.788      2.300      2.933
REMARK INTER + INTRA:         -12.644
REMARK INTER:                 -11.017
REMARK INTRA:                  -1.627
REMARK UNBOUND:                -1.442
REMARK SMILES CCCCCC=CCC=CCCCCCCCCOC(C)=O
REMARK SMILES IDX 12 1 11 2 10 3 9 4 8 5 7 6 6 7 5 8 4 9 3 10 2 11 1 12 13 13
REMARK SMILES IDX 14 14 15 15 16 16 17 17 18 18 19 19 20 20 22 21 21 22
REMARK H PARENT
REMARK Flexibility Score: inf
ROOT
ATOM      1  C   UNL     1      26.877   2.987  28.900  1.00  0.00     0.004 C 
ENDROOT
BRANCH   1   2
ATOM      2  C   UNL     1      28.187   2.203  29.061  1.00  0.00     0.027 C 
BRANCH   2   3
ATOM      3  C   UNL     1      29.370   3.038  28.642  1.00  0.00    -0.031 C 
ATOM      4  C   UNL     1      30.268   3.569  29.496  1.00  0.00    -0.027 C 
BRANCH   4   5
ATOM      5  C   UNL     1      30.190   3.461  30.999  1.00  0.00     0.054 C 
BRANCH   5   6
ATOM      6  C   UNL     1      29.500   4.652  31.602  1.00  0.00    -0.027 C 
ATOM      7  C   UNL     1      28.186   4.643  31.869  1.00  0.00    -0.031 C 
BRANCH   7   8
ATOM      8  C   UNL     1      27.514   5.801  32.548  1.00  0.00     0.027 C 
BRANCH   8   9
ATOM      9  C   UNL     1      28.398   7.057  32.515  1.00  0.00     0.004 C 
BRANCH   9  10
ATOM     10  C   UNL     1      27.637   8.324  32.937  1.00  0.00     0.000 C 
BRANCH  10  11
ATOM     11  C   UNL     1      26.502   8.683  31.966  1.00  0.00    -0.003 C 
ATOM     12  C   UNL     1      26.508  10.175  31.638  1.00  0.00     0.004 C 
ENDBRANCH  10  11
ENDBRANCH   9  10
ENDBRANCH   8   9
ENDBRANCH   7   8
ENDBRANCH   5   6
ENDBRANCH   4   5
ENDBRANCH   2   3
ENDBRANCH   1   2
BRANCH   1  13
ATOM     13  C   UNL     1      25.658   2.066  28.734  1.00  0.00     0.000 C 
BRANCH  13  14
ATOM     14  C   UNL     1      26.062   0.618  28.393  1.00  0.00     0.000 C 
BRANCH  14  15
ATOM     15  C   UNL     1      25.212   0.025  27.253  1.00  0.00     0.000 C 
BRANCH  15  16
ATOM     16  C   UNL     1      25.771   0.328  25.843  1.00  0.00     0.003 C 
BRANCH  16  17
ATOM     17  C   UNL     1      27.309   0.301  25.769  1.00  0.00     0.042 C 
BRANCH  17  18
ATOM     18  C   UNL     1      27.904   1.364  24.834  1.00  0.00     0.233 C 
BRANCH  18  19
ATOM     19  O   UNL     1      26.991   1.658  23.774  1.00  0.00    -0.466 OA
BRANCH  19  20
ATOM     20  C   UNL     1      27.283   1.382  22.432  1.00  0.00     0.302 C 
ATOM     21  O   UNL     1      28.328   0.744  22.114  1.00  0.00    -0.253 OA
ATOM     22  C   UNL     1      26.378   1.899  21.361  1.00  0.00     0.139 C 
ENDBRANCH  19  20
ENDBRANCH  18  19
ENDBRANCH  17  18
ENDBRANCH  16  17
ENDBRANCH  15  16
ENDBRANCH  14  15
ENDBRANCH  13  14
ENDBRANCH   1  13
TORSDOF 16
ENDMDL
MODEL 6
REMARK VINA RESULT:    -5.729      5.806     11.058
REMARK INTER + INTRA:         -12.529
REMARK INTER:                 -11.196
REMARK INTRA:                  -1.334
REMARK UNBOUND:                -1.442
REMARK SMILES CCCCCC=CCC=CCCCCCCCCOC(C)=O
REMARK SMILES IDX 12 1 11 2 10 3 9 4 8 5 7 6 6 7 5 8 4 9 3 10 2 11 1 12 13 13
REMARK SMILES IDX 14 14 15 15 16 16 17 17 18 18 19 19 20 20 22 21 21 22
REMARK H PARENT
REMARK Flexibility Score: inf
ROOT
ATOM      1  C   UNL     1      27.873   9.483  33.420  1.00  0.00     0.004 C 
ENDROOT
BRANCH   1   2
ATOM      2  C   UNL     1      26.702   8.490  33.370  1.00  0.00     0.027 C 
BRANCH   2   3
ATOM      3  C   UNL     1      26.573   7.877  31.999  1.00  0.00    -0.031 C 
ATOM      4  C   UNL     1      26.961   6.624  31.686  1.00  0.00    -0.027 C 
BRANCH   4   5
ATOM      5  C   UNL     1      27.639   5.672  32.641  1.00  0.00     0.054 C 
BRANCH   5   6
ATOM      6  C   UNL     1      28.367   4.582  31.907  1.00  0.00    -0.027 C 
ATOM      7  C   UNL     1      29.631   4.738  31.488  1.00  0.00    -0.031 C 
BRANCH   7   8
ATOM      8  C   UNL     1      30.386   3.620  30.830  1.00  0.00     0.027 C 
BRANCH   8   9
ATOM      9  C   UNL     1      29.906   3.396  29.387  1.00  0.00     0.004 C 
BRANCH   9  10
ATOM     10  C   UNL     1      28.933   2.212  29.268  1.00  0.00     0.000 C 
BRANCH  10  11
ATOM     11  C   UNL     1      27.754   2.506  28.328  1.00  0.00    -0.003 C 
ATOM     12  C   UNL     1      26.536   2.993  29.109  1.00  0.00     0.004 C 
ENDBRANCH  10  11
ENDBRANCH   9  10
ENDBRANCH   8   9
ENDBRANCH   7   8
ENDBRANCH   5   6
ENDBRANCH   4   5
ENDBRANCH   2   3
ENDBRANCH   1   2
BRANCH   1  13
ATOM     13  C   UNL     1      29.080   8.929  34.192  1.00  0.00     0.000 C 
BRANCH  13  14
ATOM     14  C   UNL     1      29.370   9.730  35.477  1.00  0.00     0.000 C 
BRANCH  14  15
ATOM     15  C   UNL     1      28.432  10.942  35.635  1.00  0.00     0.000 C 
BRANCH  15  16
ATOM     16  C   UNL     1      28.858  11.909  36.765  1.00  0.00     0.003 C 
BRANCH  16  17
ATOM     17  C   UNL     1      27.858  13.054  37.010  1.00  0.00     0.042 C 
BRANCH  17  18
ATOM     18  C   UNL     1      26.826  13.227  35.886  1.00  0.00     0.233 C 
BRANCH  18  19
ATOM     19  O   UNL     1      26.864  14.564  35.381  1.00  0.00    -0.466 OA
BRANCH  19  20
ATOM     20  C   UNL     1      26.800  14.854  34.012  1.00  0.00     0.302 C 
ATOM     21  O   UNL     1      25.717  14.720  33.372  1.00  0.00    -0.253 OA
ATOM     22  C   UNL     1      28.039  15.269  33.289  1.00  0.00     0.139 C 
ENDBRANCH  19  20
ENDBRANCH  18  19
ENDBRANCH  17  18
ENDBRANCH  16  17
ENDBRANCH  15  16
ENDBRANCH  14  15
ENDBRANCH  13  14
ENDBRANCH   1  13
TORSDOF 16
ENDMDL
MODEL 7
REMARK VINA RESULT:    -5.626      1.424      2.159
REMARK INTER + INTRA:         -12.330
REMARK INTER:                 -11.459
REMARK INTRA:                  -0.870
REMARK UNBOUND:                -1.442
REMARK SMILES CCCCCC=CCC=CCCCCCCCCOC(C)=O
REMARK SMILES IDX 12 1 11 2 10 3 9 4 8 5 7 6 6 7 5 8 4 9 3 10 2 11 1 12 13 13
REMARK SMILES IDX 14 14 15 15 16 16 17 17 18 18 19 19 20 20 22 21 21 22
REMARK H PARENT
REMARK Flexibility Score: inf
ROOT
ATOM      1  C   UNL     1      26.390   1.907  28.566  1.00  0.00     0.004 C 
ENDROOT
BRANCH   1   2
ATOM      2  C   UNL     1      27.815   1.432  28.247  1.00  0.00     0.027 C 
BRANCH   2   3
ATOM      3  C   UNL     1      28.660   2.570  27.735  1.00  0.00    -0.031 C 
ATOM      4  C   UNL     1      29.514   3.287  28.494  1.00  0.00    -0.027 C 
BRANCH   4   5
ATOM      5  C   UNL     1      29.703   3.100  29.980  1.00  0.00     0.054 C 
BRANCH   5   6
ATOM      6  C   UNL     1      28.594   3.744  30.762  1.00  0.00    -0.027 C 
ATOM      7  C   UNL     1      28.843   4.632  31.735  1.00  0.00    -0.031 C 
BRANCH   7   8
ATOM      8  C   UNL     1      27.733   5.338  32.459  1.00  0.00     0.027 C 
BRANCH   8   9
ATOM      9  C   UNL     1      27.980   6.854  32.515  1.00  0.00     0.004 C 
BRANCH   9  10
ATOM     10  C   UNL     1      26.740   7.667  32.107  1.00  0.00     0.000 C 
BRANCH  10  11
ATOM     11  C   UNL     1      26.816   9.132  32.564  1.00  0.00    -0.003 C 
ATOM     12  C   UNL     1      26.417  10.082  31.437  1.00  0.00     0.004 C 
ENDBRANCH  10  11
ENDBRANCH   9  10
ENDBRANCH   8   9
ENDBRANCH   7   8
ENDBRANCH   5   6
ENDBRANCH   4   5
ENDBRANCH   2   3
ENDBRANCH   1   2
BRANCH   1  13
ATOM     13  C   UNL     1      25.322   1.124  27.787  1.00  0.00     0.000 C 
BRANCH  13  14
ATOM     14  C   UNL     1      25.792   0.746  26.369  1.00  0.00     0.000 C 
BRANCH  14  15
ATOM     15  C   UNL     1      24.625   0.319  25.458  1.00  0.00     0.000 C 
BRANCH  15  16
ATOM     16  C   UNL     1      23.233   0.531  26.097  1.00  0.00     0.003 C 
BRANCH  16  17
ATOM     17  C   UNL     1      22.212   1.192  25.153  1.00  0.00     0.042 C 
BRANCH  17  18
ATOM     18  C   UNL     1      22.838   2.173  24.151  1.00  0.00     0.233 C 
BRANCH  18  19
ATOM     19  O   UNL     1      21.910   2.473  23.106  1.00  0.00    -0.466 OA
BRANCH  19  20
ATOM     20  C   UNL     1      21.752   3.764  22.587  1.00  0.00     0.302 C 
ATOM     21  O   UNL     1      20.626   4.159  22.167  1.00  0.00    -0.253 OA
ATOM     22  C   UNL     1      22.939   4.664  22.475  1.00  0.00     0.139 C 
ENDBRANCH  19  20
ENDBRANCH  18  19
ENDBRANCH  17  18
ENDBRANCH  16  17
ENDBRANCH  15  16
ENDBRANCH  14  15
ENDBRANCH  13  14
ENDBRANCH   1  13
TORSDOF 16
ENDMDL
MODEL 8
REMARK VINA RESULT:    -5.506      2.155      2.515
REMARK INTER + INTRA:         -12.097
REMARK INTER:                 -11.045
REMARK INTRA:                  -1.052
REMARK UNBOUND:                -1.442
REMARK SMILES CCCCCC=CCC=CCCCCCCCCOC(C)=O
REMARK SMILES IDX 12 1 11 2 10 3 9 4 8 5 7 6 6 7 5 8 4 9 3 10 2 11 1 12 13 13
REMARK SMILES IDX 14 14 15 15 16 16 17 17 18 18 19 19 20 20 22 21 21 22
REMARK H PARENT
REMARK Flexibility Score: inf
ROOT
ATOM      1  C   UNL     1      28.052   2.735  27.942  1.00  0.00     0.004 C 
ENDROOT
BRANCH   1   2
ATOM      2  C   UNL     1      29.124   2.361  28.976  1.00  0.00     0.027 C 
BRANCH   2   3
ATOM      3  C   UNL     1      30.365   3.196  28.791  1.00  0.00    -0.031 C 
ATOM      4  C   UNL     1      31.044   3.784  29.798  1.00  0.00    -0.027 C 
BRANCH   4   5
ATOM      5  C   UNL     1      30.628   3.747  31.248  1.00  0.00     0.054 C 
BRANCH   5   6
ATOM      6  C   UNL     1      29.637   4.831  31.565  1.00  0.00    -0.027 C 
ATOM      7  C   UNL     1      28.331   4.568  31.713  1.00  0.00    -0.031 C 
BRANCH   7   8
ATOM      8  C   UNL     1      27.354   5.637  32.111  1.00  0.00     0.027 C 
BRANCH   8   9
ATOM      9  C   UNL     1      28.077   6.928  32.525  1.00  0.00     0.004 C 
BRANCH   9  10
ATOM     10  C   UNL     1      27.123   7.967  33.134  1.00  0.00     0.000 C 
BRANCH  10  11
ATOM     11  C   UNL     1      26.213   8.624  32.085  1.00  0.00    -0.003 C 
ATOM     12  C   UNL     1      26.746   9.994  31.674  1.00  0.00     0.004 C 
ENDBRANCH  10  11
ENDBRANCH   9  10
ENDBRANCH   8   9
ENDBRANCH   7   8
ENDBRANCH   5   6
ENDBRANCH   4   5
ENDBRANCH   2   3
ENDBRANCH   1   2
BRANCH   1  13
ATOM     13  C   UNL     1      28.348   2.151  26.551  1.00  0.00     0.000 C 
BRANCH  13  14
ATOM     14  C   UNL     1      27.561   0.853  26.283  1.00  0.00     0.000 C 
BRANCH  14  15
ATOM     15  C   UNL     1      27.833   0.282  24.878  1.00  0.00     0.000 C 
BRANCH  15  16
ATOM     16  C   UNL     1      27.998   1.368  23.790  1.00  0.00     0.003 C 
BRANCH  16  17
ATOM     17  C   UNL     1      27.310   1.020  22.458  1.00  0.00     0.042 C 
BRANCH  17  18
ATOM     18  C   UNL     1      25.776   1.020  22.533  1.00  0.00     0.233 C 
BRANCH  18  19
ATOM     19  O   UNL     1      25.292   2.346  22.751  1.00  0.00    -0.466 OA
BRANCH  19  20
ATOM     20  C   UNL     1      23.926   2.658  22.753  1.00  0.00     0.302 C 
ATOM     21  O   UNL     1      23.465   3.554  21.988  1.00  0.00    -0.253 OA
ATOM     22  C   UNL     1      23.014   1.965  23.712  1.00  0.00     0.139 C 
ENDBRANCH  19  20
ENDBRANCH  18  19
ENDBRANCH  17  18
ENDBRANCH  16  17
ENDBRANCH  15  16
ENDBRANCH  14  15
ENDBRANCH  13  14
ENDBRANCH   1  13
TORSDOF 16
ENDMDL
MODEL 9
REMARK VINA RESULT:    -5.366      3.676      8.965
REMARK INTER + INTRA:         -11.826
REMARK INTER:                 -10.594
REMARK INTRA:                  -1.232
REMARK UNBOUND:                -1.442
REMARK SMILES CCCCCC=CCC=CCCCCCCCCOC(C)=O
REMARK SMILES IDX 12 1 11 2 10 3 9 4 8 5 7 6 6 7 5 8 4 9 3 10 2 11 1 12 13 13
REMARK SMILES IDX 14 14 15 15 16 16 17 17 18 18 19 19 20 20 22 21 21 22
REMARK H PARENT
REMARK Flexibility Score: inf
ROOT
ATOM      1  C   UNL     1      28.957   1.912  28.485  1.00  0.00     0.004 C 
ENDROOT
BRANCH   1   2
ATOM      2  C   UNL     1      27.834   2.847  28.010  1.00  0.00     0.027 C 
BRANCH   2   3
ATOM      3  C   UNL     1      26.582   2.640  28.821  1.00  0.00    -0.031 C 
ATOM      4  C   UNL     1      25.638   1.718  28.544  1.00  0.00    -0.027 C 
BRANCH   4   5
ATOM      5  C   UNL     1      25.663   0.799  27.346  1.00  0.00     0.054 C 
BRANCH   5   6
ATOM      6  C   UNL     1      24.275   0.494  26.858  1.00  0.00    -0.027 C 
ATOM      7  C   UNL     1      23.514   1.429  26.271  1.00  0.00    -0.031 C 
BRANCH   7   8
ATOM      8  C   UNL     1      22.161   1.102  25.708  1.00  0.00     0.027 C 
BRANCH   8   9
ATOM      9  C   UNL     1      22.085   1.438  24.210  1.00  0.00     0.004 C 
BRANCH   9  10
ATOM     10  C   UNL     1      21.803   2.928  23.956  1.00  0.00     0.000 C 
BRANCH  10  11
ATOM     11  C   UNL     1      22.431   3.434  22.648  1.00  0.00    -0.003 C 
ATOM     12  C   UNL     1      22.554   2.309  21.624  1.00  0.00     0.004 C 
ENDBRANCH  10  11
ENDBRANCH   9  10
ENDBRANCH   8   9
ENDBRANCH   7   8
ENDBRANCH   5   6
ENDBRANCH   4   5
ENDBRANCH   2   3
ENDBRANCH   1   2
BRANCH   1  13
ATOM     13  C   UNL     1      30.336   2.590  28.458  1.00  0.00     0.000 C 
BRANCH  13  14
ATOM     14  C   UNL     1      30.444   3.735  29.484  1.00  0.00     0.000 C 
BRANCH  14  15
ATOM     15  C   UNL     1      29.920   3.328  30.875  1.00  0.00     0.000 C 
BRANCH  15  16
ATOM     16  C   UNL     1      29.501   4.530  31.753  1.00  0.00     0.003 C 
BRANCH  16  17
ATOM     17  C   UNL     1      27.995   4.846  31.692  1.00  0.00     0.042 C 
BRANCH  17  18
ATOM     18  C   UNL     1      27.535   5.879  32.732  1.00  0.00     0.233 C 
BRANCH  18  19
ATOM     19  O   UNL     1      28.176   7.134  32.499  1.00  0.00    -0.466 OA
BRANCH  19  20
ATOM     20  C   UNL     1      27.541   8.360  32.740  1.00  0.00     0.302 C 
ATOM     21  O   UNL     1      28.026   9.189  33.564  1.00  0.00    -0.253 OA
ATOM     22  C   UNL     1      26.247   8.664  32.059  1.00  0.00     0.139 C 
ENDBRANCH  19  20
ENDBRANCH  18  19
ENDBRANCH  17  18
ENDBRANCH  16  17
ENDBRANCH  15  16
ENDBRANCH  14  15
ENDBRANCH  13  14
ENDBRANCH   1  13
TORSDOF 16
ENDMDL
