MODEL 1
REMARK VINA RESULT:    -3.073      0.000      0.000
REMARK INTER + INTRA:          -3.073
REMARK INTER:                  -3.073
REMARK INTRA:                   0.000
REMARK UNBOUND:                 0.000
REMARK SMILES c1cc[nH]c1
REMARK SMILES IDX 1 1 5 2 4 3 3 4 2 5
REMARK H PARENT 4 6
REMARK Flexibility Score: inf
ROOT
ATOM      1  C   UNL     1      22.956  88.302  34.490  1.00  0.00     0.019 A 
ATOM      2  C   UNL     1      22.241  87.125  34.407  1.00  0.00     0.082 A 
ATOM      3  N   UNL     1      23.084  86.077  34.375  1.00  0.00    -0.368 N 
ATOM      4  C   UNL     1      24.332  86.571  34.436  1.00  0.00     0.082 A 
ATOM      5  C   UNL     1      24.290  87.949  34.509  1.00  0.00     0.019 A 
ATOM      6  H   UNL     1      22.818  85.069  34.315  1.00  0.00     0.165 HD
ENDROOT
TORSDOF 0
ENDMDL
MODEL 2
REMARK VINA RESULT:    -3.037      5.167      5.696
REMARK INTER + INTRA:          -3.037
REMARK INTER:                  -3.037
REMARK INTRA:                   0.000
REMARK UNBOUND:                 0.000
REMARK SMILES c1cc[nH]c1
REMARK SMILES IDX 1 1 5 2 4 3 3 4 2 5
REMARK H PARENT 4 6
REMARK Flexibility Score: inf
ROOT
ATOM      1  C   UNL     1      20.354  91.259  37.216  1.00  0.00     0.019 A 
ATOM      2  C   UNL     1      19.015  91.126  37.519  1.00  0.00     0.082 A 
ATOM      3  N   UNL     1      18.708  89.827  37.682  1.00  0.00    -0.368 N 
ATOM      4  C   UNL     1      19.837  89.126  37.486  1.00  0.00     0.082 A 
ATOM      5  C   UNL     1      20.880  89.983  37.194  1.00  0.00     0.019 A 
ATOM      6  H   UNL     1      17.768  89.436  37.917  1.00  0.00     0.165 HD
ENDROOT
TORSDOF 0
ENDMDL
MODEL 3
REMARK VINA RESULT:    -2.903      1.663      2.485
REMARK INTER + INTRA:          -2.903
REMARK INTER:                  -2.903
REMARK INTRA:                   0.000
REMARK UNBOUND:                 0.000
REMARK SMILES c1cc[nH]c1
REMARK SMILES IDX 1 1 5 2 4 3 3 4 2 5
REMARK H PARENT 4 6
REMARK Flexibility Score: inf
ROOT
ATOM      1  C   UNL     1      23.028  87.379  34.460  1.00  0.00     0.019 A 
ATOM      2  C   UNL     1      24.362  87.698  34.610  1.00  0.00     0.082 A 
ATOM      3  N   UNL     1      24.516  89.035  34.619  1.00  0.00    -0.368 N 
ATOM      4  C   UNL     1      23.294  89.575  34.476  1.00  0.00     0.082 A 
ATOM      5  C   UNL     1      22.346  88.576  34.374  1.00  0.00     0.019 A 
ATOM      6  H   UNL     1      25.416  89.555  34.719  1.00  0.00     0.165 HD
ENDROOT
TORSDOF 0
ENDMDL
MODEL 4
REMARK VINA RESULT:    -2.896      1.344      1.794
REMARK INTER + INTRA:          -2.896
REMARK INTER:                  -2.896
REMARK INTRA:                   0.000
REMARK UNBOUND:                 0.000
REMARK SMILES c1cc[nH]c1
REMARK SMILES IDX 1 1 5 2 4 3 3 4 2 5
REMARK H PARENT 4 6
REMARK Flexibility Score: inf
ROOT
ATOM      1  C   UNL     1      24.238  89.059  34.788  1.00  0.00     0.019 A 
ATOM      2  C   UNL     1      22.945  89.408  34.454  1.00  0.00     0.082 A 
ATOM      3  N   UNL     1      22.208  88.301  34.254  1.00  0.00    -0.368 N 
ATOM      4  C   UNL     1      23.016  87.246  34.455  1.00  0.00     0.082 A 
ATOM      5  C   UNL     1      24.284  87.680  34.789  1.00  0.00     0.019 A 
ATOM      6  H   UNL     1      21.198  88.267  33.991  1.00  0.00     0.165 HD
ENDROOT
TORSDOF 0
ENDMDL
MODEL 5
REMARK VINA RESULT:    -2.883      4.913      5.629
REMARK INTER + INTRA:          -2.883
REMARK INTER:                  -2.883
REMARK INTRA:                   0.000
REMARK UNBOUND:                 0.000
REMARK SMILES c1cc[nH]c1
REMARK SMILES IDX 1 1 5 2 4 3 3 4 2 5
REMARK H PARENT 4 6
REMARK Flexibility Score: inf
ROOT
ATOM      1  C   UNL     1      21.169  89.446  37.510  1.00  0.00     0.019 A 
ATOM      2  C   UNL     1      21.976  90.557  37.377  1.00  0.00     0.082 A 
ATOM      3  N   UNL     1      21.220  91.659  37.231  1.00  0.00    -0.368 N 
ATOM      4  C   UNL     1      19.935  91.266  37.269  1.00  0.00     0.082 A 
ATOM      5  C   UNL     1      19.866  89.898  37.441  1.00  0.00     0.019 A 
ATOM      6  H   UNL     1      21.566  92.637  37.112  1.00  0.00     0.165 HD
ENDROOT
TORSDOF 0
ENDMDL
MODEL 6
REMARK VINA RESULT:    -2.876      2.385      3.248
REMARK INTER + INTRA:          -2.876
REMARK INTER:                  -2.876
REMARK INTRA:                   0.000
REMARK UNBOUND:                 0.000
REMARK SMILES c1cc[nH]c1
REMARK SMILES IDX 1 1 5 2 4 3 3 4 2 5
REMARK H PARENT 4 6
REMARK Flexibility Score: inf
ROOT
ATOM      1  C   UNL     1      21.790  87.135  34.575  1.00  0.00     0.019 A 
ATOM      2  C   UNL     1      21.419  86.390  35.676  1.00  0.00     0.082 A 
ATOM      3  N   UNL     1      20.193  86.758  36.088  1.00  0.00    -0.368 N 
ATOM      4  C   UNL     1      19.774  87.732  35.261  1.00  0.00     0.082 A 
ATOM      5  C   UNL     1      20.740  87.991  34.310  1.00  0.00     0.019 A 
ATOM      6  H   UNL     1      19.665  86.362  36.897  1.00  0.00     0.165 HD
ENDROOT
TORSDOF 0
ENDMDL
MODEL 7
REMARK VINA RESULT:    -2.861     15.584     15.790
REMARK INTER + INTRA:          -2.861
REMARK INTER:                  -2.861
REMARK INTRA:                   0.000
REMARK UNBOUND:                 0.000
REMARK SMILES c1cc[nH]c1
REMARK SMILES IDX 1 1 5 2 4 3 3 4 2 5
REMARK H PARENT 4 6
REMARK Flexibility Score: inf
ROOT
ATOM      1  C   UNL     1      11.139  94.210  28.162  1.00  0.00     0.019 A 
ATOM      2  C   UNL     1      11.429  95.392  28.811  1.00  0.00     0.082 A 
ATOM      3  N   UNL     1      10.670  95.508  29.915  1.00  0.00    -0.368 N 
ATOM      4  C   UNL     1       9.896  94.412  29.979  1.00  0.00     0.082 A 
ATOM      5  C   UNL     1      10.160  93.584  28.906  1.00  0.00     0.019 A 
ATOM      6  H   UNL     1      10.681  96.301  30.595  1.00  0.00     0.165 HD
ENDROOT
TORSDOF 0
ENDMDL
MODEL 8
REMARK VINA RESULT:    -2.843      3.734      4.293
REMARK INTER + INTRA:          -2.843
REMARK INTER:                  -2.843
REMARK INTRA:                   0.000
REMARK UNBOUND:                 0.000
REMARK SMILES c1cc[nH]c1
REMARK SMILES IDX 1 1 5 2 4 3 3 4 2 5
REMARK H PARENT 4 6
REMARK Flexibility Score: inf
ROOT
ATOM      1  C   UNL     1      20.507  88.263  37.590  1.00  0.00     0.019 A 
ATOM      2  C   UNL     1      20.919  87.057  37.059  1.00  0.00     0.082 A 
ATOM      3  N   UNL     1      20.215  86.781  35.947  1.00  0.00    -0.368 N 
ATOM      4  C   UNL     1      19.357  87.798  35.759  1.00  0.00     0.082 A 
ATOM      5  C   UNL     1      19.510  88.736  36.761  1.00  0.00     0.019 A 
ATOM      6  H   UNL     1      20.318  85.937  35.342  1.00  0.00     0.165 HD
ENDROOT
TORSDOF 0
ENDMDL
MODEL 9
REMARK VINA RESULT:    -2.785      3.610      3.679
REMARK INTER + INTRA:          -2.785
REMARK INTER:                  -2.785
REMARK INTRA:                   0.000
REMARK UNBOUND:                 0.000
REMARK SMILES c1cc[nH]c1
REMARK SMILES IDX 1 1 5 2 4 3 3 4 2 5
REMARK H PARENT 4 6
REMARK Flexibility Score: inf
ROOT
ATOM      1  C   UNL     1      22.545  87.880  38.632  1.00  0.00     0.019 A 
ATOM      2  C   UNL     1      21.250  87.577  38.266  1.00  0.00     0.082 A 
ATOM      3  N   UNL     1      21.254  86.686  37.258  1.00  0.00    -0.368 N 
ATOM      4  C   UNL     1      22.540  86.417  36.974  1.00  0.00     0.082 A 
ATOM      5  C   UNL     1      23.369  87.140  37.808  1.00  0.00     0.019 A 
ATOM      6  H   UNL     1      20.416  86.281  36.785  1.00  0.00     0.165 HD
ENDROOT
TORSDOF 0
ENDMDL
