MODEL 1
REMARK VINA RESULT:    -4.234      0.000      0.000
REMARK INTER + INTRA:          -6.524
REMARK INTER:                  -6.462
REMARK INTRA:                  -0.062
REMARK UNBOUND:                -0.062
REMARK SMILES CC1=CCC[C@H](C)C(=O)C[C@@H](C(C)C)C(=O)C1
REMARK SMILES IDX 8 1 9 2 6 3 7 4 5 5 4 6 3 7 2 8 1 9 10 11 11 12 15 13 16 14
REMARK SMILES IDX 17 15 12 17 13 18 14 19
REMARK H PARENT
REMARK Flexibility Score: 70.00
ROOT
ATOM      1  C   UNL     1      18.508 -10.259  67.711  1.00  0.00     0.136 C 
ATOM      2  O   UNL     1      18.982  -9.273  68.258  1.00  0.00    -0.299 OA
ENDROOT
BRANCH   1   3
ATOM      3  C   UNL     1      18.913 -11.657  68.153  1.00  0.00     0.053 C 
ATOM      4  C   UNL     1      17.723 -12.620  68.299  1.00  0.00     0.016 C 
BRANCH   3   5
ATOM      5  C   UNL     1      20.067 -12.252  67.306  1.00  0.00     0.015 C 
BRANCH   5   6
ATOM      6  C   UNL     1      21.291 -11.362  67.001  1.00  0.00     0.028 C 
BRANCH   6   7
ATOM      7  C   UNL     1      21.773 -11.291  65.572  1.00  0.00    -0.028 C 
ATOM      8  C   UNL     1      21.415 -10.375  64.645  1.00  0.00    -0.070 CG0
ATOM      9  C   UNL     1      22.254 -10.299  63.390  1.00  0.00     0.039 C 
ATOM     10  G   UNL     1      20.234  -9.431  64.794  1.00  0.00     0.000 G0
ENDBRANCH   6   7
ENDBRANCH   5   6
ENDBRANCH   3   5
ENDBRANCH   1   3
BRANCH   1  11
ATOM     11  C   UNL     1      17.597 -10.082  66.514  1.00  0.00     0.087 C 
BRANCH  11  12
ATOM     12  C   UNL     1      17.998 -10.863  65.228  1.00  0.00     0.066 C 
BRANCH  12  13
ATOM     13  C   UNL     1      18.946 -10.101  64.313  1.00  0.00     0.140 C 
ATOM     14  O   UNL     1      18.617  -9.956  63.144  1.00  0.00    -0.299 OA
BRANCH  13  15
ATOM     15  C   UNL     1      20.221  -9.445  64.799  1.00  0.00     0.106 CG0
ATOM     16  G   UNL     1      21.395 -10.397  64.656  1.00  0.00     0.000 G0
ENDBRANCH  13  15
ENDBRANCH  12  13
BRANCH  12  17
ATOM     17  C   UNL     1      16.748 -11.369  64.443  1.00  0.00    -0.006 C 
ATOM     18  C   UNL     1      17.021 -12.703  63.723  1.00  0.00     0.008 C 
ATOM     19  C   UNL     1      15.528 -11.546  65.367  1.00  0.00     0.008 C 
ENDBRANCH  12  17
ENDBRANCH  11  12
ENDBRANCH   1  11
TORSDOF 1
ENDMDL
MODEL 2
REMARK VINA RESULT:    -3.870     16.119     17.711
REMARK INTER + INTRA:          -5.969
REMARK INTER:                  -5.832
REMARK INTRA:                  -0.137
REMARK UNBOUND:                -0.062
REMARK SMILES CC1=CCC[C@H](C)C(=O)C[C@@H](C(C)C)C(=O)C1
REMARK SMILES IDX 8 1 9 2 6 3 7 4 5 5 4 6 3 7 2 8 1 9 10 11 11 12 15 13 16 14
REMARK SMILES IDX 17 15 12 17 13 18 14 19
REMARK H PARENT
REMARK Flexibility Score: 70.00
ROOT
ATOM      1  C   UNL     1       6.174   3.000  61.534  1.00  0.00     0.136 C 
ATOM      2  O   UNL     1       6.198   2.939  60.313  1.00  0.00    -0.299 OA
ENDROOT
BRANCH   1   3
ATOM      3  C   UNL     1       6.572   4.280  62.252  1.00  0.00     0.053 C 
ATOM      4  C   UNL     1       5.777   4.529  63.544  1.00  0.00     0.016 C 
BRANCH   3   5
ATOM      5  C   UNL     1       8.103   4.413  62.455  1.00  0.00     0.015 C 
BRANCH   5   6
ATOM      6  C   UNL     1       9.041   3.862  61.360  1.00  0.00     0.028 C 
BRANCH   6   7
ATOM      7  C   UNL     1      10.087   2.853  61.769  1.00  0.00    -0.028 C 
ATOM      8  C   UNL     1      10.011   1.510  61.631  1.00  0.00    -0.070 CG0
ATOM      9  C   UNL     1      11.289   0.725  61.808  1.00  0.00     0.039 C 
ATOM     10  G   UNL     1       8.729   0.760  61.310  1.00  0.00     0.000 G0
ENDBRANCH   6   7
ENDBRANCH   5   6
ENDBRANCH   3   5
ENDBRANCH   1   3
BRANCH   1  11
ATOM     11  C   UNL     1       5.851   1.756  62.336  1.00  0.00     0.087 C 
BRANCH  11  12
ATOM     12  C   UNL     1       6.974   1.244  63.285  1.00  0.00     0.066 C 
BRANCH  12  13
ATOM     13  C   UNL     1       8.000   0.352  62.603  1.00  0.00     0.140 C 
ATOM     14  O   UNL     1       8.191  -0.762  63.072  1.00  0.00    -0.299 OA
BRANCH  13  15
ATOM     15  C   UNL     1       8.724   0.741  61.331  1.00  0.00     0.106 CG0
ATOM     16  G   UNL     1      10.002   1.495  61.658  1.00  0.00     0.000 G0
ENDBRANCH  13  15
ENDBRANCH  12  13
BRANCH  12  17
ATOM     17  C   UNL     1       6.389   0.553  64.557  1.00  0.00    -0.006 C 
ATOM     18  C   UNL     1       6.155   1.556  65.701  1.00  0.00     0.008 C 
ATOM     19  C   UNL     1       5.063  -0.170  64.253  1.00  0.00     0.008 C 
ENDBRANCH  12  17
ENDBRANCH  11  12
ENDBRANCH   1  11
TORSDOF 1
ENDMDL
MODEL 3
REMARK VINA RESULT:    -3.869     15.507     17.310
REMARK INTER + INTRA:          -5.967
REMARK INTER:                  -6.022
REMARK INTRA:                   0.055
REMARK UNBOUND:                -0.062
REMARK SMILES CC1=CCC[C@H](C)C(=O)C[C@@H](C(C)C)C(=O)C1
REMARK SMILES IDX 8 1 9 2 6 3 7 4 5 5 4 6 3 7 2 8 1 9 10 11 11 12 15 13 16 14
REMARK SMILES IDX 17 15 12 17 13 18 14 19
REMARK H PARENT
REMARK Flexibility Score: 70.00
ROOT
ATOM      1  C   UNL     1      14.371   2.690  55.699  1.00  0.00     0.136 C 
ATOM      2  O   UNL     1      13.859   2.174  54.716  1.00  0.00    -0.299 OA
ENDROOT
BRANCH   1   3
ATOM      3  C   UNL     1      14.747   4.164  55.692  1.00  0.00     0.053 C 
ATOM      4  C   UNL     1      15.425   4.614  54.387  1.00  0.00     0.016 C 
BRANCH   3   5
ATOM      5  C   UNL     1      13.579   5.092  56.112  1.00  0.00     0.015 C 
BRANCH   5   6
ATOM      6  C   UNL     1      13.081   5.034  57.572  1.00  0.00     0.028 C 
BRANCH   6   7
ATOM      7  C   UNL     1      11.741   4.391  57.836  1.00  0.00    -0.028 C 
ATOM      8  C   UNL     1      11.512   3.268  58.553  1.00  0.00    -0.070 CG0
ATOM      9  C   UNL     1      10.083   2.987  58.956  1.00  0.00     0.039 C 
ATOM     10  G   UNL     1      12.597   2.290  58.971  1.00  0.00     0.000 G0
ENDBRANCH   6   7
ENDBRANCH   5   6
ENDBRANCH   3   5
ENDBRANCH   1   3
BRANCH   1  11
ATOM     11  C   UNL     1      14.733   1.827  56.891  1.00  0.00     0.087 C 
BRANCH  11  12
ATOM     12  C   UNL     1      13.755   0.658  57.211  1.00  0.00     0.066 C 
BRANCH  12  13
ATOM     13  C   UNL     1      12.587   1.055  58.101  1.00  0.00     0.140 C 
ATOM     14  O   UNL     1      11.626   0.301  58.153  1.00  0.00    -0.299 OA
BRANCH  13  15
ATOM     15  C   UNL     1      12.597   2.285  58.986  1.00  0.00     0.106 CG0
ATOM     16  G   UNL     1      11.525   3.265  58.543  1.00  0.00     0.000 G0
ENDBRANCH  13  15
ENDBRANCH  12  13
BRANCH  12  17
ATOM     17  C   UNL     1      14.505  -0.582  57.792  1.00  0.00    -0.006 C 
ATOM     18  C   UNL     1      14.118  -1.881  57.062  1.00  0.00     0.008 C 
ATOM     19  C   UNL     1      16.033  -0.409  57.719  1.00  0.00     0.008 C 
ENDBRANCH  12  17
ENDBRANCH  11  12
ENDBRANCH   1  11
TORSDOF 1
ENDMDL
MODEL 4
REMARK VINA RESULT:    -3.709      9.830     11.821
REMARK INTER + INTRA:          -5.722
REMARK INTER:                  -5.520
REMARK INTRA:                  -0.202
REMARK UNBOUND:                -0.062
REMARK SMILES CC1=CCC[C@H](C)C(=O)C[C@@H](C(C)C)C(=O)C1
REMARK SMILES IDX 8 1 9 2 6 3 7 4 5 5 4 6 3 7 2 8 1 9 10 11 11 12 15 13 16 14
REMARK SMILES IDX 17 15 12 17 13 18 14 19
REMARK H PARENT
REMARK Flexibility Score: 70.00
ROOT
ATOM      1  C   UNL     1      13.004  -8.548  55.200  1.00  0.00     0.136 C 
ATOM      2  O   UNL     1      12.605  -8.180  54.104  1.00  0.00    -0.299 OA
ENDROOT
BRANCH   1   3
ATOM      3  C   UNL     1      14.369  -8.113  55.711  1.00  0.00     0.053 C 
ATOM      4  C   UNL     1      15.443  -8.056  54.611  1.00  0.00     0.016 C 
BRANCH   3   5
ATOM      5  C   UNL     1      14.316  -6.820  56.564  1.00  0.00     0.015 C 
BRANCH   5   6
ATOM      6  C   UNL     1      14.483  -6.941  58.094  1.00  0.00     0.028 C 
BRANCH   6   7
ATOM      7  C   UNL     1      13.286  -6.633  58.961  1.00  0.00    -0.028 C 
ATOM      8  C   UNL     1      12.517  -7.527  59.622  1.00  0.00    -0.070 CG0
ATOM      9  C   UNL     1      11.581  -6.985  60.677  1.00  0.00     0.039 C 
ATOM     10  G   UNL     1      12.545  -9.024  59.368  1.00  0.00     0.000 G0
ENDBRANCH   6   7
ENDBRANCH   5   6
ENDBRANCH   3   5
ENDBRANCH   1   3
BRANCH   1  11
ATOM     11  C   UNL     1      12.179  -9.533  56.002  1.00  0.00     0.087 C 
BRANCH  11  12
ATOM     12  C   UNL     1      11.220  -8.917  57.063  1.00  0.00     0.066 C 
BRANCH  12  13
ATOM     13  C   UNL     1      11.411  -9.471  58.466  1.00  0.00     0.140 C 
ATOM     14  O   UNL     1      10.655 -10.358  58.838  1.00  0.00    -0.299 OA
BRANCH  13  15
ATOM     15  C   UNL     1      12.539  -9.044  59.381  1.00  0.00     0.106 CG0
ATOM     16  G   UNL     1      12.490  -7.545  59.618  1.00  0.00     0.000 G0
ENDBRANCH  13  15
ENDBRANCH  12  13
BRANCH  12  17
ATOM     17  C   UNL     1       9.726  -9.017  56.620  1.00  0.00    -0.006 C 
ATOM     18  C   UNL     1       9.171  -7.658  56.157  1.00  0.00     0.008 C 
ATOM     19  C   UNL     1       9.535 -10.042  55.487  1.00  0.00     0.008 C 
ENDBRANCH  12  17
ENDBRANCH  11  12
ENDBRANCH   1  11
TORSDOF 1
ENDMDL
MODEL 5
REMARK VINA RESULT:    -3.623      8.971     11.153
REMARK INTER + INTRA:          -5.592
REMARK INTER:                  -5.523
REMARK INTRA:                  -0.069
REMARK UNBOUND:                -0.062
REMARK SMILES CC1=CCC[C@H](C)C(=O)C[C@@H](C(C)C)C(=O)C1
REMARK SMILES IDX 8 1 9 2 6 3 7 4 5 5 4 6 3 7 2 8 1 9 10 11 11 12 15 13 16 14
REMARK SMILES IDX 17 15 12 17 13 18 14 19
REMARK H PARENT
REMARK Flexibility Score: 70.00
ROOT
ATOM      1  C   UNL     1      12.018  -7.062  62.882  1.00  0.00     0.136 C 
ATOM      2  O   UNL     1      11.483  -7.301  63.956  1.00  0.00    -0.299 OA
ENDROOT
BRANCH   1   3
ATOM      3  C   UNL     1      12.683  -8.175  62.087  1.00  0.00     0.053 C 
ATOM      4  C   UNL     1      13.732  -8.959  62.893  1.00  0.00     0.016 C 
BRANCH   3   5
ATOM      5  C   UNL     1      11.669  -9.098  61.365  1.00  0.00     0.015 C 
BRANCH   5   6
ATOM      6  C   UNL     1      11.001  -8.588  60.070  1.00  0.00     0.028 C 
BRANCH   6   7
ATOM      7  C   UNL     1       9.627  -7.973  60.179  1.00  0.00    -0.028 C 
ATOM      8  C   UNL     1       9.307  -6.674  59.982  1.00  0.00    -0.070 CG0
ATOM      9  C   UNL     1       7.841  -6.342  59.827  1.00  0.00     0.039 C 
ATOM     10  G   UNL     1      10.325  -5.550  59.905  1.00  0.00     0.000 G0
ENDBRANCH   6   7
ENDBRANCH   5   6
ENDBRANCH   3   5
ENDBRANCH   1   3
BRANCH   1  11
ATOM     11  C   UNL     1      12.113  -5.630  62.398  1.00  0.00     0.087 C 
BRANCH  11  12
ATOM     12  C   UNL     1      10.796  -4.801  62.450  1.00  0.00     0.066 C 
BRANCH  12  13
ATOM     13  C   UNL     1      10.141  -4.595  61.093  1.00  0.00     0.140 C 
ATOM     14  O   UNL     1       9.488  -3.575  60.923  1.00  0.00    -0.299 OA
BRANCH  13  15
ATOM     15  C   UNL     1      10.330  -5.542  59.927  1.00  0.00     0.106 CG0
ATOM     16  G   UNL     1       9.302  -6.658  59.978  1.00  0.00     0.000 G0
ENDBRANCH  13  15
ENDBRANCH  12  13
BRANCH  12  17
ATOM     17  C   UNL     1      10.997  -3.440  63.187  1.00  0.00    -0.006 C 
ATOM     18  C   UNL     1      11.418  -3.637  64.655  1.00  0.00     0.008 C 
ATOM     19  C   UNL     1      12.049  -2.561  62.484  1.00  0.00     0.008 C 
ENDBRANCH  12  17
ENDBRANCH  11  12
ENDBRANCH   1  11
TORSDOF 1
ENDMDL
MODEL 6
REMARK VINA RESULT:    -3.619     16.315     17.812
REMARK INTER + INTRA:          -5.585
REMARK INTER:                  -5.239
REMARK INTRA:                  -0.346
REMARK UNBOUND:                -0.062
REMARK SMILES CC1=CCC[C@H](C)C(=O)C[C@@H](C(C)C)C(=O)C1
REMARK SMILES IDX 8 1 9 2 6 3 7 4 5 5 4 6 3 7 2 8 1 9 10 11 11 12 15 13 16 14
REMARK SMILES IDX 17 15 12 17 13 18 14 19
REMARK H PARENT
REMARK Flexibility Score: 70.00
ROOT
ATOM      1  C   UNL     1       9.200   0.412  62.368  1.00  0.00     0.136 C 
ATOM      2  O   UNL     1       9.167  -0.809  62.317  1.00  0.00    -0.299 OA
ENDROOT
BRANCH   1   3
ATOM      3  C   UNL     1      10.258   1.189  61.598  1.00  0.00     0.053 C 
ATOM      4  C   UNL     1      11.625   0.486  61.560  1.00  0.00     0.016 C 
BRANCH   3   5
ATOM      5  C   UNL     1       9.778   1.643  60.196  1.00  0.00     0.015 C 
BRANCH   5   6
ATOM      6  C   UNL     1       9.258   3.087  60.029  1.00  0.00     0.028 C 
BRANCH   6   7
ATOM      7  C   UNL     1       9.550   4.075  61.133  1.00  0.00    -0.028 C 
ATOM      8  C   UNL     1       8.685   4.512  62.075  1.00  0.00    -0.070 CG0
ATOM      9  C   UNL     1       9.269   5.242  63.262  1.00  0.00     0.039 C 
ATOM     10  G   UNL     1       7.181   4.309  62.008  1.00  0.00     0.000 G0
ENDBRANCH   6   7
ENDBRANCH   5   6
ENDBRANCH   3   5
ENDBRANCH   1   3
BRANCH   1  11
ATOM     11  C   UNL     1       8.252   1.146  63.293  1.00  0.00     0.087 C 
BRANCH  11  12
ATOM     12  C   UNL     1       6.964   1.722  62.635  1.00  0.00     0.066 C 
BRANCH  12  13
ATOM     13  C   UNL     1       6.725   3.195  62.928  1.00  0.00     0.140 C 
ATOM     14  O   UNL     1       6.205   3.489  63.995  1.00  0.00    -0.299 OA
BRANCH  13  15
ATOM     15  C   UNL     1       7.178   4.309  62.007  1.00  0.00     0.106 CG0
ATOM     16  G   UNL     1       8.684   4.485  62.091  1.00  0.00     0.000 G0
ENDBRANCH  13  15
ENDBRANCH  12  13
BRANCH  12  17
ATOM     17  C   UNL     1       5.703   0.870  62.985  1.00  0.00    -0.006 C 
ATOM     18  C   UNL     1       5.229   0.024  61.789  1.00  0.00     0.008 C 
ATOM     19  C   UNL     1       5.962  -0.065  64.182  1.00  0.00     0.008 C 
ENDBRANCH  12  17
ENDBRANCH  11  12
ENDBRANCH   1  11
TORSDOF 1
ENDMDL
MODEL 7
REMARK VINA RESULT:    -3.568     10.150     12.660
REMARK INTER + INTRA:          -5.508
REMARK INTER:                  -5.409
REMARK INTRA:                  -0.099
REMARK UNBOUND:                -0.062
REMARK SMILES CC1=CCC[C@H](C)C(=O)C[C@@H](C(C)C)C(=O)C1
REMARK SMILES IDX 8 1 9 2 6 3 7 4 5 5 4 6 3 7 2 8 1 9 10 11 11 12 15 13 16 14
REMARK SMILES IDX 17 15 12 17 13 18 14 19
REMARK H PARENT
REMARK Flexibility Score: 70.00
ROOT
ATOM      1  C   UNL     1      13.796  -8.294  56.587  1.00  0.00     0.136 C 
ATOM      2  O   UNL     1      14.626  -8.840  57.300  1.00  0.00    -0.299 OA
ENDROOT
BRANCH   1   3
ATOM      3  C   UNL     1      14.020  -8.184  55.087  1.00  0.00     0.053 C 
ATOM      4  C   UNL     1      15.499  -8.288  54.681  1.00  0.00     0.016 C 
BRANCH   3   5
ATOM      5  C   UNL     1      13.105  -9.127  54.264  1.00  0.00     0.015 C 
BRANCH   5   6
ATOM      6  C   UNL     1      11.588  -8.842  54.237  1.00  0.00     0.028 C 
BRANCH   6   7
ATOM      7  C   UNL     1      10.663  -9.884  54.819  1.00  0.00    -0.028 C 
ATOM      8  C   UNL     1       9.779  -9.705  55.826  1.00  0.00    -0.070 CG0
ATOM      9  C   UNL     1       8.739 -10.782  56.029  1.00  0.00     0.039 C 
ATOM     10  G   UNL     1       9.773  -8.498  56.748  1.00  0.00     0.000 G0
ENDBRANCH   6   7
ENDBRANCH   5   6
ENDBRANCH   3   5
ENDBRANCH   1   3
BRANCH   1  11
ATOM     11  C   UNL     1      12.591  -7.627  57.219  1.00  0.00     0.087 C 
BRANCH  11  12
ATOM     12  C   UNL     1      11.901  -8.413  58.373  1.00  0.00     0.066 C 
BRANCH  12  13
ATOM     13  C   UNL     1      10.470  -8.827  58.069  1.00  0.00     0.140 C 
ATOM     14  O   UNL     1       9.839  -9.393  58.951  1.00  0.00    -0.299 OA
BRANCH  13  15
ATOM     15  C   UNL     1       9.767  -8.494  56.769  1.00  0.00     0.106 CG0
ATOM     16  G   UNL     1       9.778  -9.695  55.839  1.00  0.00     0.000 G0
ENDBRANCH  13  15
ENDBRANCH  12  13
BRANCH  12  17
ATOM     17  C   UNL     1      11.986  -7.645  59.729  1.00  0.00    -0.006 C 
ATOM     18  C   UNL     1      13.134  -8.163  60.614  1.00  0.00     0.008 C 
ATOM     19  C   UNL     1      12.170  -6.130  59.515  1.00  0.00     0.008 C 
ENDBRANCH  12  17
ENDBRANCH  11  12
ENDBRANCH   1  11
TORSDOF 1
ENDMDL
MODEL 8
REMARK VINA RESULT:    -3.537     16.106     17.442
REMARK INTER + INTRA:          -5.460
REMARK INTER:                  -5.185
REMARK INTRA:                  -0.275
REMARK UNBOUND:                -0.062
REMARK SMILES CC1=CCC[C@H](C)C(=O)C[C@@H](C(C)C)C(=O)C1
REMARK SMILES IDX 8 1 9 2 6 3 7 4 5 5 4 6 3 7 2 8 1 9 10 11 11 12 15 13 16 14
REMARK SMILES IDX 17 15 12 17 13 18 14 19
REMARK H PARENT
REMARK Flexibility Score: 70.00
ROOT
ATOM      1  C   UNL     1      10.186   0.798  62.082  1.00  0.00     0.136 C 
ATOM      2  O   UNL     1       9.985  -0.257  62.667  1.00  0.00    -0.299 OA
ENDROOT
BRANCH   1   3
ATOM      3  C   UNL     1      11.236   0.885  60.985  1.00  0.00     0.053 C 
ATOM      4  C   UNL     1      12.530   0.125  61.316  1.00  0.00     0.016 C 
BRANCH   3   5
ATOM      5  C   UNL     1      10.678   0.537  59.581  1.00  0.00     0.015 C 
BRANCH   5   6
ATOM      6  C   UNL     1      10.230   1.693  58.660  1.00  0.00     0.028 C 
BRANCH   6   7
ATOM      7  C   UNL     1      10.621   3.098  59.050  1.00  0.00    -0.028 C 
ATOM      8  C   UNL     1       9.832   4.017  59.651  1.00  0.00    -0.070 CG0
ATOM      9  C   UNL     1      10.512   5.233  60.235  1.00  0.00     0.039 C 
ATOM     10  G   UNL     1       8.323   3.894  59.771  1.00  0.00     0.000 G0
ENDBRANCH   6   7
ENDBRANCH   5   6
ENDBRANCH   3   5
ENDBRANCH   1   3
BRANCH   1  11
ATOM     11  C   UNL     1       9.461   2.050  62.531  1.00  0.00     0.087 C 
BRANCH  11  12
ATOM     12  C   UNL     1       8.060   2.294  61.898  1.00  0.00     0.066 C 
BRANCH  12  13
ATOM     13  C   UNL     1       7.916   3.646  61.217  1.00  0.00     0.140 C 
ATOM     14  O   UNL     1       7.525   4.588  61.893  1.00  0.00    -0.299 OA
BRANCH  13  15
ATOM     15  C   UNL     1       8.316   3.899  59.778  1.00  0.00     0.106 CG0
ATOM     16  G   UNL     1       9.827   3.995  59.658  1.00  0.00     0.000 G0
ENDBRANCH  13  15
ENDBRANCH  12  13
BRANCH  12  17
ATOM     17  C   UNL     1       6.909   2.060  62.927  1.00  0.00    -0.006 C 
ATOM     18  C   UNL     1       6.199   0.713  62.699  1.00  0.00     0.008 C 
ATOM     19  C   UNL     1       7.424   2.110  64.377  1.00  0.00     0.008 C 
ENDBRANCH  12  17
ENDBRANCH  11  12
ENDBRANCH   1  11
TORSDOF 1
ENDMDL
MODEL 9
REMARK VINA RESULT:    -3.523     11.193     13.052
REMARK INTER + INTRA:          -5.439
REMARK INTER:                  -5.221
REMARK INTRA:                  -0.218
REMARK UNBOUND:                -0.062
REMARK SMILES CC1=CCC[C@H](C)C(=O)C[C@@H](C(C)C)C(=O)C1
REMARK SMILES IDX 8 1 9 2 6 3 7 4 5 5 4 6 3 7 2 8 1 9 10 11 11 12 15 13 16 14
REMARK SMILES IDX 17 15 12 17 13 18 14 19
REMARK H PARENT
REMARK Flexibility Score: 70.00
ROOT
ATOM      1  C   UNL     1       8.275  -9.220  57.309  1.00  0.00     0.136 C 
ATOM      2  O   UNL     1       7.541  -9.844  58.063  1.00  0.00    -0.299 OA
ENDROOT
BRANCH   1   3
ATOM      3  C   UNL     1       8.225  -7.700  57.265  1.00  0.00     0.053 C 
ATOM      4  C   UNL     1       6.855  -7.123  57.659  1.00  0.00     0.016 C 
BRANCH   3   5
ATOM      5  C   UNL     1       9.399  -7.031  58.023  1.00  0.00     0.015 C 
BRANCH   5   6
ATOM      6  C   UNL     1      10.258  -5.988  57.276  1.00  0.00     0.028 C 
BRANCH   6   7
ATOM      7  C   UNL     1      11.723  -6.294  57.077  1.00  0.00    -0.028 C 
ATOM      8  C   UNL     1      12.264  -7.038  56.085  1.00  0.00    -0.070 CG0
ATOM      9  C   UNL     1      13.760  -6.947  55.894  1.00  0.00     0.039 C 
ATOM     10  G   UNL     1      11.461  -7.941  55.166  1.00  0.00     0.000 G0
ENDBRANCH   6   7
ENDBRANCH   5   6
ENDBRANCH   3   5
ENDBRANCH   1   3
BRANCH   1  11
ATOM     11  C   UNL     1       9.159  -9.972  56.336  1.00  0.00     0.087 C 
BRANCH  11  12
ATOM     12  C   UNL     1      10.678 -10.002  56.674  1.00  0.00     0.066 C 
BRANCH  12  13
ATOM     13  C   UNL     1      11.563  -9.387  55.601  1.00  0.00     0.140 C 
ATOM     14  O   UNL     1      12.350 -10.122  55.019  1.00  0.00    -0.299 OA
BRANCH  13  15
ATOM     15  C   UNL     1      11.453  -7.942  55.161  1.00  0.00     0.106 CG0
ATOM     16  G   UNL     1      12.273  -7.047  56.074  1.00  0.00     0.000 G0
ENDBRANCH  13  15
ENDBRANCH  12  13
BRANCH  12  17
ATOM     17  C   UNL     1      11.163 -11.440  57.043  1.00  0.00    -0.006 C 
ATOM     18  C   UNL     1      11.564 -11.549  58.526  1.00  0.00     0.008 C 
ATOM     19  C   UNL     1      10.085 -12.498  56.742  1.00  0.00     0.008 C 
ENDBRANCH  12  17
ENDBRANCH  11  12
ENDBRANCH   1  11
TORSDOF 1
ENDMDL
