MODEL 1
REMARK VINA RESULT:    -3.723      0.000      0.000
REMARK INTER + INTRA:          -3.832
REMARK INTER:                  -3.832
REMARK INTRA:                   0.000
REMARK UNBOUND:                 0.000
REMARK SMILES Nc1ncnc2nc[nH]c12
REMARK SMILES IDX 8 1 7 2 6 3 5 4 4 5 3 6 2 7 10 8 9 9 1 11
REMARK H PARENT 9 10 1 12 1 13
REMARK Flexibility Score: inf
ROOT
ATOM      1  C   UNL     1      75.486   9.518   7.462  1.00  0.00     0.199 A 
ATOM      2  N   UNL     1      75.367   8.396   6.702  1.00  0.00    -0.217 NA
ATOM      3  C   UNL     1      76.638   8.163   6.334  1.00  0.00     0.182 A 
ATOM      4  N   UNL     1      77.081   7.147   5.555  1.00  0.00    -0.215 NA
ATOM      5  C   UNL     1      78.420   7.075   5.288  1.00  0.00     0.226 A 
ATOM      6  N   UNL     1      79.283   8.012   5.798  1.00  0.00    -0.217 NA
ATOM      7  C   UNL     1      78.838   9.038   6.584  1.00  0.00     0.152 A 
ATOM      8  C   UNL     1      77.472   9.097   6.847  1.00  0.00     0.127 A 
ATOM      9  N   UNL     1      76.762   9.972   7.570  1.00  0.00    -0.340 N 
ATOM     10  H   UNL     1      77.097  10.808   8.096  1.00  0.00     0.168 HD
ENDROOT
BRANCH   7  11
ATOM     11  N   UNL     1      79.755  10.001   7.105  1.00  0.00    -0.382 N 
ATOM     12  H   UNL     1      80.371   9.781   7.918  1.00  0.00     0.158 HD
ATOM     13  H   UNL     1      79.818  10.948   6.671  1.00  0.00     0.158 HD
ENDBRANCH   7  11
TORSDOF 1
ENDMDL
MODEL 2
REMARK VINA RESULT:    -3.670      1.538      2.890
REMARK INTER + INTRA:          -3.777
REMARK INTER:                  -3.777
REMARK INTRA:                   0.000
REMARK UNBOUND:                 0.000
REMARK SMILES Nc1ncnc2nc[nH]c12
REMARK SMILES IDX 8 1 7 2 6 3 5 4 4 5 3 6 2 7 10 8 9 9 1 11
REMARK H PARENT 9 10 1 12 1 13
REMARK Flexibility Score: inf
ROOT
ATOM      1  C   UNL     1      78.833   5.750   7.537  1.00  0.00     0.199 A 
ATOM      2  N   UNL     1      77.483   5.828   7.392  1.00  0.00    -0.217 NA
ATOM      3  C   UNL     1      77.288   7.149   7.238  1.00  0.00     0.182 A 
ATOM      4  N   UNL     1      76.100   7.775   7.054  1.00  0.00    -0.215 NA
ATOM      5  C   UNL     1      76.103   9.135   6.917  1.00  0.00     0.226 A 
ATOM      6  N   UNL     1      77.280   9.838   6.967  1.00  0.00    -0.217 NA
ATOM      7  C   UNL     1      78.478   9.208   7.152  1.00  0.00     0.152 A 
ATOM      8  C   UNL     1      78.460   7.823   7.290  1.00  0.00     0.127 A 
ATOM      9  N   UNL     1      79.460   6.953   7.480  1.00  0.00    -0.340 N 
ATOM     10  H   UNL     1      80.481   7.143   7.566  1.00  0.00     0.168 HD
ENDROOT
BRANCH   7  11
ATOM     11  N   UNL     1      79.691   9.961   7.199  1.00  0.00    -0.382 N 
ATOM     12  H   UNL     1      80.546   9.586   7.666  1.00  0.00     0.158 HD
ATOM     13  H   UNL     1      79.736  10.907   6.762  1.00  0.00     0.158 HD
ENDBRANCH   7  11
TORSDOF 1
ENDMDL
MODEL 3
REMARK VINA RESULT:    -3.489      1.658      3.053
REMARK INTER + INTRA:          -3.591
REMARK INTER:                  -3.591
REMARK INTRA:                   0.000
REMARK UNBOUND:                 0.000
REMARK SMILES Nc1ncnc2nc[nH]c12
REMARK SMILES IDX 8 1 7 2 6 3 5 4 4 5 3 6 2 7 10 8 9 9 1 11
REMARK H PARENT 9 10 1 12 1 13
REMARK Flexibility Score: inf
ROOT
ATOM      1  C   UNL     1      78.832   9.270   4.875  1.00  0.00     0.199 A 
ATOM      2  N   UNL     1      79.212   8.053   5.350  1.00  0.00    -0.217 NA
ATOM      3  C   UNL     1      78.441   7.920   6.443  1.00  0.00     0.182 A 
ATOM      4  N   UNL     1      78.424   6.868   7.297  1.00  0.00    -0.215 NA
ATOM      5  C   UNL     1      77.567   6.914   8.361  1.00  0.00     0.226 A 
ATOM      6  N   UNL     1      76.750   8.000   8.550  1.00  0.00    -0.217 NA
ATOM      7  C   UNL     1      76.766   9.062   7.690  1.00  0.00     0.152 A 
ATOM      8  C   UNL     1      77.644   9.000   6.611  1.00  0.00     0.127 A 
ATOM      9  N   UNL     1      77.875   9.875   5.625  1.00  0.00    -0.340 N 
ATOM     10  H   UNL     1      77.431  10.804   5.460  1.00  0.00     0.168 HD
ENDROOT
BRANCH   7  11
ATOM     11  N   UNL     1      75.906  10.182   7.906  1.00  0.00    -0.382 N 
ATOM     12  H   UNL     1      75.340  10.591   7.131  1.00  0.00     0.158 HD
ATOM     13  H   UNL     1      75.835  10.609   8.856  1.00  0.00     0.158 HD
ENDBRANCH   7  11
TORSDOF 1
ENDMDL
MODEL 4
REMARK VINA RESULT:    -3.440     11.129     11.434
REMARK INTER + INTRA:          -3.541
REMARK INTER:                  -3.541
REMARK INTRA:                   0.000
REMARK UNBOUND:                 0.000
REMARK SMILES Nc1ncnc2nc[nH]c12
REMARK SMILES IDX 8 1 7 2 6 3 5 4 4 5 3 6 2 7 10 8 9 9 1 11
REMARK H PARENT 9 10 1 12 1 13
REMARK Flexibility Score: inf
ROOT
ATOM      1  C   UNL     1      74.909  -0.865  15.825  1.00  0.00     0.199 A 
ATOM      2  N   UNL     1      75.003  -1.390  14.573  1.00  0.00    -0.217 NA
ATOM      3  C   UNL     1      75.702  -0.446  13.920  1.00  0.00     0.182 A 
ATOM      4  N   UNL     1      76.076  -0.474  12.618  1.00  0.00    -0.215 NA
ATOM      5  C   UNL     1      76.788   0.586  12.129  1.00  0.00     0.226 A 
ATOM      6  N   UNL     1      77.110   1.643  12.942  1.00  0.00    -0.217 NA
ATOM      7  C   UNL     1      76.733   1.672  14.256  1.00  0.00     0.152 A 
ATOM      8  C   UNL     1      76.009   0.586  14.739  1.00  0.00     0.127 A 
ATOM      9  N   UNL     1      75.514   0.343  15.959  1.00  0.00    -0.340 N 
ATOM     10  H   UNL     1      75.572   0.933  16.816  1.00  0.00     0.168 HD
ENDROOT
BRANCH   7  11
ATOM     11  N   UNL     1      77.080   2.784  15.083  1.00  0.00    -0.382 N 
ATOM     12  H   UNL     1      78.057   3.147  15.125  1.00  0.00     0.158 HD
ATOM     13  H   UNL     1      76.348   3.250  15.664  1.00  0.00     0.158 HD
ENDBRANCH   7  11
TORSDOF 1
ENDMDL
MODEL 5
REMARK VINA RESULT:    -3.395      9.880     10.273
REMARK INTER + INTRA:          -3.494
REMARK INTER:                  -3.494
REMARK INTRA:                   0.000
REMARK UNBOUND:                 0.000
REMARK SMILES Nc1ncnc2nc[nH]c12
REMARK SMILES IDX 8 1 7 2 6 3 5 4 4 5 3 6 2 7 10 8 9 9 1 11
REMARK H PARENT 9 10 1 12 1 13
REMARK Flexibility Score: inf
ROOT
ATOM      1  C   UNL     1      80.979   3.155  15.799  1.00  0.00     0.199 A 
ATOM      2  N   UNL     1      81.405   2.956  14.522  1.00  0.00    -0.217 NA
ATOM      3  C   UNL     1      80.251   2.747  13.865  1.00  0.00     0.182 A 
ATOM      4  N   UNL     1      80.109   2.494  12.542  1.00  0.00    -0.215 NA
ATOM      5  C   UNL     1      78.845   2.307  12.053  1.00  0.00     0.226 A 
ATOM      6  N   UNL     1      77.759   2.375  12.888  1.00  0.00    -0.217 NA
ATOM      7  C   UNL     1      77.901   2.630  14.223  1.00  0.00     0.152 A 
ATOM      8  C   UNL     1      79.194   2.818  14.706  1.00  0.00     0.127 A 
ATOM      9  N   UNL     1      79.631   3.077  15.944  1.00  0.00    -0.340 N 
ATOM     10  H   UNL     1      79.079   3.193  16.820  1.00  0.00     0.168 HD
ENDROOT
BRANCH   7  11
ATOM     11  N   UNL     1      76.755   2.696  15.073  1.00  0.00    -0.382 N 
ATOM     12  H   UNL     1      76.131   3.532  15.080  1.00  0.00     0.158 HD
ATOM     13  H   UNL     1      76.528   1.897  15.706  1.00  0.00     0.158 HD
ENDBRANCH   7  11
TORSDOF 1
ENDMDL
MODEL 6
REMARK VINA RESULT:    -3.382     15.784     16.401
REMARK INTER + INTRA:          -3.481
REMARK INTER:                  -3.481
REMARK INTRA:                   0.000
REMARK UNBOUND:                 0.000
REMARK SMILES Nc1ncnc2nc[nH]c12
REMARK SMILES IDX 8 1 7 2 6 3 5 4 4 5 3 6 2 7 10 8 9 9 1 11
REMARK H PARENT 9 10 1 12 1 13
REMARK Flexibility Score: inf
ROOT
ATOM      1  C   UNL     1      73.618  -4.760  18.593  1.00  0.00     0.199 A 
ATOM      2  N   UNL     1      72.846  -3.725  19.024  1.00  0.00    -0.217 NA
ATOM      3  C   UNL     1      73.327  -2.693  18.310  1.00  0.00     0.182 A 
ATOM      4  N   UNL     1      72.901  -1.408  18.358  1.00  0.00    -0.215 NA
ATOM      5  C   UNL     1      73.518  -0.493  17.551  1.00  0.00     0.226 A 
ATOM      6  N   UNL     1      74.539  -0.875  16.719  1.00  0.00    -0.217 NA
ATOM      7  C   UNL     1      74.970  -2.171  16.668  1.00  0.00     0.152 A 
ATOM      8  C   UNL     1      74.332  -3.091  17.496  1.00  0.00     0.127 A 
ATOM      9  N   UNL     1      74.537  -4.404  17.659  1.00  0.00    -0.340 N 
ATOM     10  H   UNL     1      75.233  -5.019  17.186  1.00  0.00     0.168 HD
ENDROOT
BRANCH   7  11
ATOM     11  N   UNL     1      76.035  -2.546  15.794  1.00  0.00    -0.382 N 
ATOM     12  H   UNL     1      76.768  -3.227  16.090  1.00  0.00     0.158 HD
ATOM     13  H   UNL     1      76.093  -2.136  14.835  1.00  0.00     0.158 HD
ENDBRANCH   7  11
TORSDOF 1
ENDMDL
MODEL 7
REMARK VINA RESULT:    -3.324     14.642     15.383
REMARK INTER + INTRA:          -3.421
REMARK INTER:                  -3.421
REMARK INTRA:                   0.000
REMARK UNBOUND:                 0.000
REMARK SMILES Nc1ncnc2nc[nH]c12
REMARK SMILES IDX 8 1 7 2 6 3 5 4 4 5 3 6 2 7 10 8 9 9 1 11
REMARK H PARENT 9 10 1 12 1 13
REMARK Flexibility Score: inf
ROOT
ATOM      1  C   UNL     1      75.860  -1.239  14.933  1.00  0.00     0.199 A 
ATOM      2  N   UNL     1      75.067  -0.261  15.452  1.00  0.00    -0.217 NA
ATOM      3  C   UNL     1      74.477  -0.889  16.483  1.00  0.00     0.182 A 
ATOM      4  N   UNL     1      73.578  -0.357  17.345  1.00  0.00    -0.215 NA
ATOM      5  C   UNL     1      73.084  -1.158  18.338  1.00  0.00     0.226 A 
ATOM      6  N   UNL     1      73.494  -2.463  18.449  1.00  0.00    -0.217 NA
ATOM      7  C   UNL     1      74.401  -3.001  17.579  1.00  0.00     0.152 A 
ATOM      8  C   UNL     1      74.895  -2.173  16.574  1.00  0.00     0.127 A 
ATOM      9  N   UNL     1      75.776  -2.420  15.598  1.00  0.00    -0.340 N 
ATOM     10  H   UNL     1      76.285  -3.305  15.386  1.00  0.00     0.168 HD
ENDROOT
BRANCH   7  11
ATOM     11  N   UNL     1      74.814  -4.361  17.714  1.00  0.00    -0.382 N 
ATOM     12  H   UNL     1      74.291  -5.030  18.320  1.00  0.00     0.158 HD
ATOM     13  H   UNL     1      75.656  -4.705  17.201  1.00  0.00     0.158 HD
ENDBRANCH   7  11
TORSDOF 1
ENDMDL
MODEL 8
REMARK VINA RESULT:    -3.321     15.647     16.185
REMARK INTER + INTRA:          -3.418
REMARK INTER:                  -3.418
REMARK INTRA:                   0.000
REMARK UNBOUND:                 0.000
REMARK SMILES Nc1ncnc2nc[nH]c12
REMARK SMILES IDX 8 1 7 2 6 3 5 4 4 5 3 6 2 7 10 8 9 9 1 11
REMARK H PARENT 9 10 1 12 1 13
REMARK Flexibility Score: inf
ROOT
ATOM      1  C   UNL     1      73.404   1.258  20.611  1.00  0.00     0.199 A 
ATOM      2  N   UNL     1      72.418   0.325  20.507  1.00  0.00    -0.217 NA
ATOM      3  C   UNL     1      72.961  -0.571  19.665  1.00  0.00     0.182 A 
ATOM      4  N   UNL     1      72.386  -1.714  19.221  1.00  0.00    -0.215 NA
ATOM      5  C   UNL     1      73.099  -2.504  18.362  1.00  0.00     0.226 A 
ATOM      6  N   UNL     1      74.361  -2.139  17.966  1.00  0.00    -0.217 NA
ATOM      7  C   UNL     1      74.942  -0.986  18.413  1.00  0.00     0.152 A 
ATOM      8  C   UNL     1      74.204  -0.193  19.287  1.00  0.00     0.127 A 
ATOM      9  N   UNL     1      74.509   0.970  19.877  1.00  0.00    -0.340 N 
ATOM     10  H   UNL     1      75.384   1.531  19.798  1.00  0.00     0.168 HD
ENDROOT
BRANCH   7  11
ATOM     11  N   UNL     1      76.258  -0.627  17.987  1.00  0.00    -0.382 N 
ATOM     12  H   UNL     1      76.440   0.267  17.481  1.00  0.00     0.158 HD
ATOM     13  H   UNL     1      77.061  -1.265  18.181  1.00  0.00     0.158 HD
ENDBRANCH   7  11
TORSDOF 1
ENDMDL
MODEL 9
REMARK VINA RESULT:    -3.261     15.622     16.319
REMARK INTER + INTRA:          -3.357
REMARK INTER:                  -3.357
REMARK INTRA:                   0.000
REMARK UNBOUND:                 0.000
REMARK SMILES Nc1ncnc2nc[nH]c12
REMARK SMILES IDX 8 1 7 2 6 3 5 4 4 5 3 6 2 7 10 8 9 9 1 11
REMARK H PARENT 9 10 1 12 1 13
REMARK Flexibility Score: inf
ROOT
ATOM      1  C   UNL     1      74.493  -0.174  16.584  1.00  0.00     0.199 A 
ATOM      2  N   UNL     1      73.393   0.073  17.346  1.00  0.00    -0.217 NA
ATOM      3  C   UNL     1      73.201  -1.106  17.961  1.00  0.00     0.182 A 
ATOM      4  N   UNL     1      72.219  -1.405  18.846  1.00  0.00    -0.215 NA
ATOM      5  C   UNL     1      72.186  -2.668  19.369  1.00  0.00     0.226 A 
ATOM      6  N   UNL     1      73.124  -3.599  19.003  1.00  0.00    -0.217 NA
ATOM      7  C   UNL     1      74.115  -3.298  18.111  1.00  0.00     0.152 A 
ATOM      8  C   UNL     1      74.136  -2.008  17.586  1.00  0.00     0.127 A 
ATOM      9  N   UNL     1      74.971  -1.439  16.709  1.00  0.00    -0.340 N 
ATOM     10  H   UNL     1      75.796  -1.857  16.228  1.00  0.00     0.168 HD
ENDROOT
BRANCH   7  11
ATOM     11  N   UNL     1      75.082  -4.284  17.744  1.00  0.00    -0.382 N 
ATOM     12  H   UNL     1      74.816  -5.126  17.189  1.00  0.00     0.158 HD
ATOM     13  H   UNL     1      76.079  -4.169  18.032  1.00  0.00     0.158 HD
ENDBRANCH   7  11
TORSDOF 1
ENDMDL
