MODEL 1
REMARK VINA RESULT:    -6.581      0.000      0.000
REMARK INTER + INTRA:         -10.719
REMARK INTER:                  -9.659
REMARK INTRA:                  -1.060
REMARK UNBOUND:                -1.060
REMARK SMILES O=c1c(O[C@H]2O[C@@H](CO)[C@H](O)[C@@H](O)[C@H]2O)c(-c2ccc(O)c(O)c2)oc2cc(O)cc(O)c12
REMARK SMILES IDX 4 1 3 2 16 3 25 4 2 5 26 6 1 7 33 8 27 9 31 10 28 11 30 12
REMARK SMILES IDX 17 13 18 14 19 15 20 16 24 17 22 18 21 19 23 21 32 23 29 25
REMARK SMILES IDX 5 27 14 28 6 29 12 30 7 31 10 32 15 33 13 35 8 37 9 38 11 40
REMARK H PARENT 21 20 23 22 32 24 29 26 15 34 13 36 9 39 11 41
REMARK Flexibility Score: inf
ROOT
ATOM      1  O   UNL     1      12.007   1.005   1.568  1.00  0.00    -0.454 OA
ENDROOT
BRANCH   1   2
ATOM      2  C   UNL     1      13.030   0.907   2.535  1.00  0.00     0.214 A 
ATOM      3  C   UNL     1      14.236   1.594   2.285  1.00  0.00     0.180 A 
ATOM      4  O   UNL     1      15.189   1.637   3.208  1.00  0.00    -0.452 OA
ATOM      5  C   UNL     1      12.909   0.197   3.752  1.00  0.00     0.239 A 
ATOM      6  C   UNL     1      15.093   1.031   4.384  1.00  0.00     0.146 A 
ATOM      7  O   UNL     1      11.890  -0.505   3.985  1.00  0.00    -0.285 OA
ATOM      8  C   UNL     1      13.943   0.274   4.711  1.00  0.00     0.111 A 
ATOM      9  C   UNL     1      16.149   1.143   5.294  1.00  0.00     0.094 A 
ATOM     10  C   UNL     1      13.873  -0.355   5.980  1.00  0.00     0.134 A 
ATOM     11  C   UNL     1      16.074   0.519   6.543  1.00  0.00     0.123 A 
ATOM     12  C   UNL     1      14.940  -0.222   6.883  1.00  0.00     0.093 A 
BRANCH   3  13
ATOM     13  C   UNL     1      14.490   2.271   0.995  1.00  0.00     0.025 A 
ATOM     14  C   UNL     1      15.168   3.501   0.947  1.00  0.00     0.016 A 
ATOM     15  C   UNL     1      15.345   4.166  -0.268  1.00  0.00     0.051 A 
ATOM     16  C   UNL     1      14.829   3.620  -1.452  1.00  0.00     0.157 A 
ATOM     17  C   UNL     1      13.966   1.733  -0.192  1.00  0.00     0.062 A 
ATOM     18  C   UNL     1      14.136   2.398  -1.412  1.00  0.00     0.158 A 
BRANCH  16  19
ATOM     19  O   UNL     1      14.999   4.293  -2.662  1.00  0.00    -0.504 OA
ATOM     20  H   UNL     1      15.701   5.015  -2.775  1.00  0.00     0.293 HD
ENDBRANCH  16  19
BRANCH  18  21
ATOM     21  O   UNL     1      13.596   1.838  -2.570  1.00  0.00    -0.504 OA
ATOM     22  H   UNL     1      13.852   0.907  -2.884  1.00  0.00     0.293 HD
ENDBRANCH  18  21
ENDBRANCH   3  13
BRANCH  10  23
ATOM     23  O   UNL     1      12.754  -1.103   6.353  1.00  0.00    -0.507 OA
ATOM     24  H   UNL     1      12.769  -1.716   7.161  1.00  0.00     0.293 HD
ENDBRANCH  10  23
BRANCH  11  25
ATOM     25  O   UNL     1      17.120   0.628   7.455  1.00  0.00    -0.508 OA
ATOM     26  H   UNL     1      17.120   1.344   8.175  1.00  0.00     0.293 HD
ENDBRANCH  11  25
ENDBRANCH   1   2
BRANCH   1  27
ATOM     27  C   UNL     1      10.802   1.772   1.629  1.00  0.00     0.339 C 
ATOM     28  C   UNL     1       9.759   1.156   0.642  1.00  0.00     0.214 C 
ATOM     29  O   UNL     1      11.097   3.131   1.329  1.00  0.00    -0.332 OA
ATOM     30  C   UNL     1       9.611   2.012  -0.635  1.00  0.00     0.180 C 
ATOM     31  C   UNL     1       9.906   3.865   1.111  1.00  0.00     0.179 C 
ATOM     32  C   UNL     1       9.326   3.501  -0.284  1.00  0.00     0.177 C 
BRANCH  28  33
ATOM     33  O   UNL     1      10.097  -0.162   0.288  1.00  0.00    -0.384 OA
ATOM     34  H   UNL     1      11.056  -0.285   0.510  1.00  0.00     0.211 HD
ENDBRANCH  28  33
BRANCH  30  35
ATOM     35  O   UNL     1      10.748   1.888  -1.460  1.00  0.00    -0.387 OA
ATOM     36  H   UNL     1      10.447   1.845  -2.404  1.00  0.00     0.211 HD
ENDBRANCH  30  35
BRANCH  31  37
ATOM     37  C   UNL     1      10.213   5.360   1.229  1.00  0.00     0.191 C 
BRANCH  37  38
ATOM     38  O   UNL     1      10.090   5.981  -0.020  1.00  0.00    -0.394 OA
ATOM     39  H   UNL     1      10.112   6.958   0.156  1.00  0.00     0.210 HD
ENDBRANCH  37  38
ENDBRANCH  31  37
BRANCH  32  40
ATOM     40  O   UNL     1       7.945   3.764  -0.324  1.00  0.00    -0.387 OA
ATOM     41  H   UNL     1       7.822   4.744  -0.231  1.00  0.00     0.211 HD
ENDBRANCH  32  40
ENDBRANCH   1  27
TORSDOF 12
ENDMDL
MODEL 2
REMARK VINA RESULT:    -6.299      2.014      6.860
REMARK INTER + INTRA:         -10.305
REMARK INTER:                  -9.322
REMARK INTRA:                  -0.982
REMARK UNBOUND:                -1.060
REMARK SMILES O=c1c(O[C@H]2O[C@@H](CO)[C@H](O)[C@@H](O)[C@H]2O)c(-c2ccc(O)c(O)c2)oc2cc(O)cc(O)c12
REMARK SMILES IDX 4 1 3 2 16 3 25 4 2 5 26 6 1 7 33 8 27 9 31 10 28 11 30 12
REMARK SMILES IDX 17 13 18 14 19 15 20 16 24 17 22 18 21 19 23 21 32 23 29 25
REMARK SMILES IDX 5 27 14 28 6 29 12 30 7 31 10 32 15 33 13 35 8 37 9 38 11 40
REMARK H PARENT 21 20 23 22 32 24 29 26 15 34 13 36 9 39 11 41
REMARK Flexibility Score: inf
ROOT
ATOM      1  O   UNL     1      12.059   1.275   0.954  1.00  0.00    -0.454 OA
ENDROOT
BRANCH   1   2
ATOM      2  C   UNL     1      11.491   2.368   0.267  1.00  0.00     0.214 A 
ATOM      3  C   UNL     1      12.100   2.774  -0.938  1.00  0.00     0.180 A 
ATOM      4  O   UNL     1      11.544   3.717  -1.689  1.00  0.00    -0.452 OA
ATOM      5  C   UNL     1      10.329   3.057   0.690  1.00  0.00     0.239 A 
ATOM      6  C   UNL     1      10.426   4.349  -1.355  1.00  0.00     0.146 A 
ATOM      7  O   UNL     1       9.799   2.793   1.801  1.00  0.00    -0.285 OA
ATOM      8  C   UNL     1       9.766   4.049  -0.141  1.00  0.00     0.111 A 
ATOM      9  C   UNL     1       9.914   5.323  -2.219  1.00  0.00     0.094 A 
ATOM     10  C   UNL     1       8.570   4.742   0.178  1.00  0.00     0.134 A 
ATOM     11  C   UNL     1       8.735   6.002  -1.896  1.00  0.00     0.123 A 
ATOM     12  C   UNL     1       8.067   5.709  -0.706  1.00  0.00     0.093 A 
BRANCH   3  13
ATOM     13  C   UNL     1      13.375   2.183  -1.400  1.00  0.00     0.025 A 
ATOM     14  C   UNL     1      13.390   0.989  -2.141  1.00  0.00     0.016 A 
ATOM     15  C   UNL     1      14.602   0.403  -2.516  1.00  0.00     0.051 A 
ATOM     16  C   UNL     1      15.816   0.992  -2.137  1.00  0.00     0.157 A 
ATOM     17  C   UNL     1      14.594   2.764  -1.014  1.00  0.00     0.062 A 
ATOM     18  C   UNL     1      15.811   2.178  -1.382  1.00  0.00     0.158 A 
BRANCH  16  19
ATOM     19  O   UNL     1      17.024   0.398  -2.504  1.00  0.00    -0.504 OA
ATOM     20  H   UNL     1      17.117  -0.608  -2.588  1.00  0.00     0.293 HD
ENDBRANCH  16  19
BRANCH  18  21
ATOM     21  O   UNL     1      17.003   2.778  -0.977  1.00  0.00    -0.504 OA
ATOM     22  H   UNL     1      17.602   3.273  -1.629  1.00  0.00     0.293 HD
ENDBRANCH  18  21
ENDBRANCH   3  13
BRANCH  10  23
ATOM     23  O   UNL     1       7.875   4.473   1.360  1.00  0.00    -0.507 OA
ATOM     24  H   UNL     1       8.295   3.942   2.115  1.00  0.00     0.293 HD
ENDBRANCH  10  23
BRANCH  11  25
ATOM     25  O   UNL     1       8.218   6.972  -2.752  1.00  0.00    -0.508 OA
ATOM     26  H   UNL     1       7.558   6.731  -3.484  1.00  0.00     0.293 HD
ENDBRANCH  11  25
ENDBRANCH   1   2
BRANCH   1  27
ATOM     27  C   UNL     1      13.352   1.185   1.558  1.00  0.00     0.339 C 
ATOM     28  C   UNL     1      13.800  -0.312   1.575  1.00  0.00     0.214 C 
ATOM     29  O   UNL     1      13.301   1.752   2.862  1.00  0.00    -0.332 OA
ATOM     30  C   UNL     1      13.683  -0.923   2.989  1.00  0.00     0.180 C 
ATOM     31  C   UNL     1      14.475   1.440   3.589  1.00  0.00     0.179 C 
ATOM     32  C   UNL     1      14.418  -0.045   4.043  1.00  0.00     0.177 C 
BRANCH  28  33
ATOM     33  O   UNL     1      13.057  -1.086   0.667  1.00  0.00    -0.384 OA
ATOM     34  H   UNL     1      12.907  -1.970   1.093  1.00  0.00     0.211 HD
ENDBRANCH  28  33
BRANCH  30  35
ATOM     35  O   UNL     1      12.333  -1.125   3.342  1.00  0.00    -0.387 OA
ATOM     36  H   UNL     1      11.840  -1.427   2.537  1.00  0.00     0.211 HD
ENDBRANCH  30  35
BRANCH  31  37
ATOM     37  C   UNL     1      14.593   2.396   4.778  1.00  0.00     0.191 C 
BRANCH  37  38
ATOM     38  O   UNL     1      15.677   2.032   5.587  1.00  0.00    -0.394 OA
ATOM     39  H   UNL     1      15.386   1.227   6.090  1.00  0.00     0.210 HD
ENDBRANCH  37  38
ENDBRANCH  31  37
BRANCH  32  40
ATOM     40  O   UNL     1      15.716  -0.535   4.278  1.00  0.00    -0.387 OA
ATOM     41  H   UNL     1      15.645  -1.512   4.436  1.00  0.00     0.211 HD
ENDBRANCH  32  40
ENDBRANCH   1  27
TORSDOF 12
ENDMDL
MODEL 3
REMARK VINA RESULT:    -5.877      2.209      7.139
REMARK INTER + INTRA:          -9.685
REMARK INTER:                  -8.102
REMARK INTRA:                  -1.583
REMARK UNBOUND:                -1.060
REMARK SMILES O=c1c(O[C@H]2O[C@@H](CO)[C@H](O)[C@@H](O)[C@H]2O)c(-c2ccc(O)c(O)c2)oc2cc(O)cc(O)c12
REMARK SMILES IDX 4 1 3 2 16 3 25 4 2 5 26 6 1 7 33 8 27 9 31 10 28 11 30 12
REMARK SMILES IDX 17 13 18 14 19 15 20 16 24 17 22 18 21 19 23 21 32 23 29 25
REMARK SMILES IDX 5 27 14 28 6 29 12 30 7 31 10 32 15 33 13 35 8 37 9 38 11 40
REMARK H PARENT 21 20 23 22 32 24 29 26 15 34 13 36 9 39 11 41
REMARK Flexibility Score: inf
ROOT
ATOM      1  O   UNL     1      13.049   1.712  -0.178  1.00  0.00    -0.454 OA
ENDROOT
BRANCH   1   2
ATOM      2  C   UNL     1      12.103   2.661   0.263  1.00  0.00     0.214 A 
ATOM      3  C   UNL     1      12.214   3.130   1.588  1.00  0.00     0.180 A 
ATOM      4  O   UNL     1      11.429   4.108   2.024  1.00  0.00    -0.452 OA
ATOM      5  C   UNL     1      11.077   3.197  -0.549  1.00  0.00     0.239 A 
ATOM      6  C   UNL     1      10.490   4.675   1.278  1.00  0.00     0.146 A 
ATOM      7  O   UNL     1      10.878   2.750  -1.709  1.00  0.00    -0.285 OA
ATOM      8  C   UNL     1      10.267   4.241  -0.050  1.00  0.00     0.111 A 
ATOM      9  C   UNL     1       9.719   5.705   1.825  1.00  0.00     0.094 A 
ATOM     10  C   UNL     1       9.259   4.876  -0.819  1.00  0.00     0.134 A 
ATOM     11  C   UNL     1       8.726   6.326   1.061  1.00  0.00     0.123 A 
ATOM     12  C   UNL     1       8.502   5.915  -0.254  1.00  0.00     0.093 A 
BRANCH   3  13
ATOM     13  C   UNL     1      13.187   2.548   2.538  1.00  0.00     0.025 A 
ATOM     14  C   UNL     1      14.497   3.049   2.627  1.00  0.00     0.016 A 
ATOM     15  C   UNL     1      15.428   2.451   3.479  1.00  0.00     0.051 A 
ATOM     16  C   UNL     1      15.069   1.329   4.239  1.00  0.00     0.157 A 
ATOM     17  C   UNL     1      12.835   1.418   3.295  1.00  0.00     0.062 A 
ATOM     18  C   UNL     1      13.766   0.811   4.146  1.00  0.00     0.158 A 
BRANCH  16  19
ATOM     19  O   UNL     1      16.006   0.728   5.081  1.00  0.00    -0.504 OA
ATOM     20  H   UNL     1      15.732   0.277   5.946  1.00  0.00     0.293 HD
ENDBRANCH  16  19
BRANCH  18  21
ATOM     21  O   UNL     1      13.384  -0.314   4.877  1.00  0.00    -0.504 OA
ATOM     22  H   UNL     1      14.044  -0.825   5.455  1.00  0.00     0.293 HD
ENDBRANCH  18  21
ENDBRANCH   3  13
BRANCH  10  23
ATOM     23  O   UNL     1       9.008   4.491  -2.138  1.00  0.00    -0.507 OA
ATOM     24  H   UNL     1       9.092   5.145  -2.909  1.00  0.00     0.293 HD
ENDBRANCH  10  23
BRANCH  11  25
ATOM     25  O   UNL     1       7.955   7.354   1.599  1.00  0.00    -0.508 OA
ATOM     26  H   UNL     1       8.345   8.011   2.268  1.00  0.00     0.293 HD
ENDBRANCH  11  25
ENDBRANCH   1   2
BRANCH   1  27
ATOM     27  C   UNL     1      14.028   1.853  -1.211  1.00  0.00     0.339 C 
ATOM     28  C   UNL     1      13.867   0.674  -2.226  1.00  0.00     0.214 C 
ATOM     29  O   UNL     1      15.325   1.892  -0.625  1.00  0.00    -0.332 OA
ATOM     30  C   UNL     1      14.979  -0.382  -2.048  1.00  0.00     0.180 C 
ATOM     31  C   UNL     1      16.325   1.755  -1.617  1.00  0.00     0.179 C 
ATOM     32  C   UNL     1      16.390   0.274  -2.082  1.00  0.00     0.177 C 
BRANCH  28  33
ATOM     33  O   UNL     1      12.610   0.058  -2.107  1.00  0.00    -0.384 OA
ATOM     34  H   UNL     1      12.560  -0.638  -2.814  1.00  0.00     0.211 HD
ENDBRANCH  28  33
BRANCH  30  35
ATOM     35  O   UNL     1      14.787  -1.125  -0.864  1.00  0.00    -0.387 OA
ATOM     36  H   UNL     1      15.511  -1.799  -0.796  1.00  0.00     0.211 HD
ENDBRANCH  30  35
BRANCH  31  37
ATOM     37  C   UNL     1      17.662   2.233  -1.045  1.00  0.00     0.191 C 
BRANCH  37  38
ATOM     38  O   UNL     1      18.724   1.713  -1.794  1.00  0.00    -0.394 OA
ATOM     39  H   UNL     1      18.811   2.299  -2.591  1.00  0.00     0.210 HD
ENDBRANCH  37  38
ENDBRANCH  31  37
BRANCH  32  40
ATOM     40  O   UNL     1      16.946   0.189  -3.371  1.00  0.00    -0.387 OA
ATOM     41  H   UNL     1      16.335  -0.359  -3.927  1.00  0.00     0.211 HD
ENDBRANCH  32  40
ENDBRANCH   1  27
TORSDOF 12
ENDMDL
MODEL 4
REMARK VINA RESULT:    -5.648      2.104      5.342
REMARK INTER + INTRA:          -9.349
REMARK INTER:                  -7.656
REMARK INTRA:                  -1.693
REMARK UNBOUND:                -1.060
REMARK SMILES O=c1c(O[C@H]2O[C@@H](CO)[C@H](O)[C@@H](O)[C@H]2O)c(-c2ccc(O)c(O)c2)oc2cc(O)cc(O)c12
REMARK SMILES IDX 4 1 3 2 16 3 25 4 2 5 26 6 1 7 33 8 27 9 31 10 28 11 30 12
REMARK SMILES IDX 17 13 18 14 19 15 20 16 24 17 22 18 21 19 23 21 32 23 29 25
REMARK SMILES IDX 5 27 14 28 6 29 12 30 7 31 10 32 15 33 13 35 8 37 9 38 11 40
REMARK H PARENT 21 20 23 22 32 24 29 26 15 34 13 36 9 39 11 41
REMARK Flexibility Score: inf
ROOT
ATOM      1  O   UNL     1      13.311   1.678   1.540  1.00  0.00    -0.454 OA
ENDROOT
BRANCH   1   2
ATOM      2  C   UNL     1      12.818   1.212   2.778  1.00  0.00     0.214 A 
ATOM      3  C   UNL     1      11.651   0.421   2.764  1.00  0.00     0.180 A 
ATOM      4  O   UNL     1      11.207  -0.143   3.880  1.00  0.00    -0.452 OA
ATOM      5  C   UNL     1      13.442   1.456   4.024  1.00  0.00     0.239 A 
ATOM      6  C   UNL     1      11.793   0.016   5.059  1.00  0.00     0.146 A 
ATOM      7  O   UNL     1      14.434   2.226   4.104  1.00  0.00    -0.285 OA
ATOM      8  C   UNL     1      12.943   0.831   5.188  1.00  0.00     0.111 A 
ATOM      9  C   UNL     1      11.254  -0.629   6.177  1.00  0.00     0.094 A 
ATOM     10  C   UNL     1      13.545   0.971   6.464  1.00  0.00     0.134 A 
ATOM     11  C   UNL     1      11.853  -0.485   7.433  1.00  0.00     0.123 A 
ATOM     12  C   UNL     1      12.994   0.308   7.572  1.00  0.00     0.093 A 
BRANCH   3  13
ATOM     13  C   UNL     1      10.875   0.206   1.523  1.00  0.00     0.025 A 
ATOM     14  C   UNL     1      11.140  -0.893   0.688  1.00  0.00     0.016 A 
ATOM     15  C   UNL     1      10.449  -1.052  -0.515  1.00  0.00     0.051 A 
ATOM     16  C   UNL     1       9.496  -0.103  -0.911  1.00  0.00     0.157 A 
ATOM     17  C   UNL     1       9.927   1.159   1.117  1.00  0.00     0.062 A 
ATOM     18  C   UNL     1       9.235   1.008  -0.090  1.00  0.00     0.158 A 
BRANCH  16  19
ATOM     19  O   UNL     1       8.815  -0.261  -2.118  1.00  0.00    -0.504 OA
ATOM     20  H   UNL     1       8.093   0.387  -2.410  1.00  0.00     0.293 HD
ENDBRANCH  16  19
BRANCH  18  21
ATOM     21  O   UNL     1       8.305   1.977  -0.465  1.00  0.00    -0.504 OA
ATOM     22  H   UNL     1       7.878   1.981  -1.386  1.00  0.00     0.293 HD
ENDBRANCH  18  21
ENDBRANCH   3  13
BRANCH  10  23
ATOM     23  O   UNL     1      14.687   1.755   6.639  1.00  0.00    -0.507 OA
ATOM     24  H   UNL     1      14.842   2.289   7.488  1.00  0.00     0.293 HD
ENDBRANCH  10  23
BRANCH  11  25
ATOM     25  O   UNL     1      11.322  -1.125   8.550  1.00  0.00    -0.508 OA
ATOM     26  H   UNL     1      10.586  -0.697   9.103  1.00  0.00     0.293 HD
ENDBRANCH  11  25
ENDBRANCH   1   2
BRANCH   1  27
ATOM     27  C   UNL     1      14.494   1.270   0.849  1.00  0.00     0.339 C 
ATOM     28  C   UNL     1      15.440   2.505   0.693  1.00  0.00     0.214 C 
ATOM     29  O   UNL     1      14.131   0.702  -0.405  1.00  0.00    -0.332 OA
ATOM     30  C   UNL     1      15.424   3.053  -0.751  1.00  0.00     0.180 C 
ATOM     31  C   UNL     1      15.271   0.539  -1.228  1.00  0.00     0.179 C 
ATOM     32  C   UNL     1      15.705   1.924  -1.784  1.00  0.00     0.177 C 
BRANCH  28  33
ATOM     33  O   UNL     1      15.102   3.533   1.589  1.00  0.00    -0.384 OA
ATOM     34  H   UNL     1      14.800   4.306   1.043  1.00  0.00     0.211 HD
ENDBRANCH  28  33
BRANCH  30  35
ATOM     35  O   UNL     1      14.208   3.710  -1.029  1.00  0.00    -0.387 OA
ATOM     36  H   UNL     1      14.358   4.688  -0.962  1.00  0.00     0.211 HD
ENDBRANCH  30  35
BRANCH  31  37
ATOM     37  C   UNL     1      14.938  -0.448  -2.350  1.00  0.00     0.191 C 
BRANCH  37  38
ATOM     38  O   UNL     1      15.924  -0.403  -3.343  1.00  0.00    -0.394 OA
ATOM     39  H   UNL     1      16.647   0.177  -2.987  1.00  0.00     0.210 HD
ENDBRANCH  37  38
ENDBRANCH  31  37
BRANCH  32  40
ATOM     40  O   UNL     1      17.066   1.904  -2.140  1.00  0.00    -0.387 OA
ATOM     41  H   UNL     1      17.566   1.482  -1.394  1.00  0.00     0.211 HD
ENDBRANCH  32  40
ENDBRANCH   1  27
TORSDOF 12
ENDMDL
MODEL 5
REMARK VINA RESULT:    -5.622     17.177     20.120
REMARK INTER + INTRA:          -9.312
REMARK INTER:                  -8.492
REMARK INTRA:                  -0.820
REMARK UNBOUND:                -1.060
REMARK SMILES O=c1c(O[C@H]2O[C@@H](CO)[C@H](O)[C@@H](O)[C@H]2O)c(-c2ccc(O)c(O)c2)oc2cc(O)cc(O)c12
REMARK SMILES IDX 4 1 3 2 16 3 25 4 2 5 26 6 1 7 33 8 27 9 31 10 28 11 30 12
REMARK SMILES IDX 17 13 18 14 19 15 20 16 24 17 22 18 21 19 23 21 32 23 29 25
REMARK SMILES IDX 5 27 14 28 6 29 12 30 7 31 10 32 15 33 13 35 8 37 9 38 11 40
REMARK H PARENT 21 20 23 22 32 24 29 26 15 34 13 36 9 39 11 41
REMARK Flexibility Score: inf
ROOT
ATOM      1  O   UNL     1      27.448  14.574   7.814  1.00  0.00    -0.454 OA
ENDROOT
BRANCH   1   2
ATOM      2  C   UNL     1      27.070  14.882   9.138  1.00  0.00     0.214 A 
ATOM      3  C   UNL     1      26.934  13.813  10.047  1.00  0.00     0.180 A 
ATOM      4  O   UNL     1      26.696  14.049  11.332  1.00  0.00    -0.452 OA
ATOM      5  C   UNL     1      26.857  16.196   9.618  1.00  0.00     0.239 A 
ATOM      6  C   UNL     1      26.544  15.268  11.833  1.00  0.00     0.146 A 
ATOM      7  O   UNL     1      26.879  17.177   8.830  1.00  0.00    -0.285 OA
ATOM      8  C   UNL     1      26.613  16.405  10.993  1.00  0.00     0.111 A 
ATOM      9  C   UNL     1      26.305  15.413  13.203  1.00  0.00     0.094 A 
ATOM     10  C   UNL     1      26.452  17.691  11.566  1.00  0.00     0.134 A 
ATOM     11  C   UNL     1      26.145  16.685  13.761  1.00  0.00     0.123 A 
ATOM     12  C   UNL     1      26.223  17.817  12.946  1.00  0.00     0.093 A 
BRANCH   3  13
ATOM     13  C   UNL     1      27.032  12.404   9.608  1.00  0.00     0.025 A 
ATOM     14  C   UNL     1      28.050  11.991   8.733  1.00  0.00     0.016 A 
ATOM     15  C   UNL     1      28.096  10.673   8.271  1.00  0.00     0.051 A 
ATOM     16  C   UNL     1      27.112   9.755   8.661  1.00  0.00     0.157 A 
ATOM     17  C   UNL     1      26.042  11.483   9.989  1.00  0.00     0.062 A 
ATOM     18  C   UNL     1      26.080  10.163   9.525  1.00  0.00     0.158 A 
BRANCH  16  19
ATOM     19  O   UNL     1      27.156   8.443   8.189  1.00  0.00    -0.504 OA
ATOM     20  H   UNL     1      27.843   8.147   7.505  1.00  0.00     0.293 HD
ENDBRANCH  16  19
BRANCH  18  21
ATOM     21  O   UNL     1      25.078   9.277   9.917  1.00  0.00    -0.504 OA
ATOM     22  H   UNL     1      25.263   8.505  10.550  1.00  0.00     0.293 HD
ENDBRANCH  18  21
ENDBRANCH   3  13
BRANCH  10  23
ATOM     23  O   UNL     1      26.524  18.844  10.781  1.00  0.00    -0.507 OA
ATOM     24  H   UNL     1      26.764  19.746  11.180  1.00  0.00     0.293 HD
ENDBRANCH  10  23
BRANCH  11  25
ATOM     25  O   UNL     1      25.909  16.838  15.125  1.00  0.00    -0.508 OA
ATOM     26  H   UNL     1      24.968  16.952  15.487  1.00  0.00     0.293 HD
ENDBRANCH  11  25
ENDBRANCH   1   2
BRANCH   1  27
ATOM     27  C   UNL     1      26.604  14.274   6.700  1.00  0.00     0.339 C 
ATOM     28  C   UNL     1      26.607  15.493   5.720  1.00  0.00     0.214 C 
ATOM     29  O   UNL     1      25.298  13.961   7.172  1.00  0.00    -0.332 OA
ATOM     30  C   UNL     1      25.296  16.303   5.818  1.00  0.00     0.180 C 
ATOM     31  C   UNL     1      24.374  13.929   6.101  1.00  0.00     0.179 C 
ATOM     32  C   UNL     1      24.053  15.382   5.654  1.00  0.00     0.177 C 
BRANCH  28  33
ATOM     33  O   UNL     1      27.703  16.342   5.954  1.00  0.00    -0.384 OA
ATOM     34  H   UNL     1      27.349  17.269   5.990  1.00  0.00     0.211 HD
ENDBRANCH  28  33
BRANCH  30  35
ATOM     35  O   UNL     1      25.240  17.031   7.024  1.00  0.00    -0.387 OA
ATOM     36  H   UNL     1      24.341  16.908   7.423  1.00  0.00     0.211 HD
ENDBRANCH  30  35
BRANCH  31  37
ATOM     37  C   UNL     1      23.117  13.178   6.550  1.00  0.00     0.191 C 
BRANCH  37  38
ATOM     38  O   UNL     1      22.004  14.027   6.506  1.00  0.00    -0.394 OA
ATOM     39  H   UNL     1      21.391  13.713   7.222  1.00  0.00     0.210 HD
ENDBRANCH  37  38
ENDBRANCH  31  37
BRANCH  32  40
ATOM     40  O   UNL     1      23.596  15.396   4.324  1.00  0.00    -0.387 OA
ATOM     41  H   UNL     1      24.032  16.159   3.864  1.00  0.00     0.211 HD
ENDBRANCH  32  40
ENDBRANCH   1  27
TORSDOF 12
ENDMDL
MODEL 6
REMARK VINA RESULT:    -5.596      1.348      2.419
REMARK INTER + INTRA:          -9.273
REMARK INTER:                  -7.946
REMARK INTRA:                  -1.326
REMARK UNBOUND:                -1.060
REMARK SMILES O=c1c(O[C@H]2O[C@@H](CO)[C@H](O)[C@@H](O)[C@H]2O)c(-c2ccc(O)c(O)c2)oc2cc(O)cc(O)c12
REMARK SMILES IDX 4 1 3 2 16 3 25 4 2 5 26 6 1 7 33 8 27 9 31 10 28 11 30 12
REMARK SMILES IDX 17 13 18 14 19 15 20 16 24 17 22 18 21 19 23 21 32 23 29 25
REMARK SMILES IDX 5 27 14 28 6 29 12 30 7 31 10 32 15 33 13 35 8 37 9 38 11 40
REMARK H PARENT 21 20 23 22 32 24 29 26 15 34 13 36 9 39 11 41
REMARK Flexibility Score: inf
ROOT
ATOM      1  O   UNL     1      12.012   1.684   2.361  1.00  0.00    -0.454 OA
ENDROOT
BRANCH   1   2
ATOM      2  C   UNL     1      13.044   1.127   3.147  1.00  0.00     0.214 A 
ATOM      3  C   UNL     1      14.375   1.391   2.764  1.00  0.00     0.180 A 
ATOM      4  O   UNL     1      15.386   0.994   3.528  1.00  0.00    -0.452 OA
ATOM      5  C   UNL     1      12.827   0.356   4.313  1.00  0.00     0.239 A 
ATOM      6  C   UNL     1      15.224   0.316   4.656  1.00  0.00     0.146 A 
ATOM      7  O   UNL     1      11.662   0.018   4.649  1.00  0.00    -0.285 OA
ATOM      8  C   UNL     1      13.929  -0.041   5.102  1.00  0.00     0.111 A 
ATOM      9  C   UNL     1      16.353  -0.049   5.397  1.00  0.00     0.094 A 
ATOM     10  C   UNL     1      13.795  -0.760   6.316  1.00  0.00     0.134 A 
ATOM     11  C   UNL     1      16.213  -0.760   6.593  1.00  0.00     0.123 A 
ATOM     12  C   UNL     1      14.941  -1.108   7.050  1.00  0.00     0.093 A 
BRANCH   3  13
ATOM     13  C   UNL     1      14.694   2.095   1.503  1.00  0.00     0.025 A 
ATOM     14  C   UNL     1      14.947   3.478   1.494  1.00  0.00     0.016 A 
ATOM     15  C   UNL     1      15.182   4.147   0.290  1.00  0.00     0.051 A 
ATOM     16  C   UNL     1      15.147   3.447  -0.924  1.00  0.00     0.157 A 
ATOM     17  C   UNL     1      14.651   1.400   0.284  1.00  0.00     0.062 A 
ATOM     18  C   UNL     1      14.880   2.067  -0.926  1.00  0.00     0.158 A 
BRANCH  16  19
ATOM     19  O   UNL     1      15.372   4.121  -2.124  1.00  0.00    -0.504 OA
ATOM     20  H   UNL     1      14.625   4.292  -2.786  1.00  0.00     0.293 HD
ENDBRANCH  16  19
BRANCH  18  21
ATOM     21  O   UNL     1      14.823   1.347  -2.119  1.00  0.00    -0.504 OA
ATOM     22  H   UNL     1      14.097   0.659  -2.294  1.00  0.00     0.293 HD
ENDBRANCH  18  21
ENDBRANCH   3  13
BRANCH  10  23
ATOM     23  O   UNL     1      12.539  -1.125   6.803  1.00  0.00    -0.507 OA
ATOM     24  H   UNL     1      12.068  -1.966   6.487  1.00  0.00     0.293 HD
ENDBRANCH  10  23
BRANCH  11  25
ATOM     25  O   UNL     1      17.333  -1.125   7.336  1.00  0.00    -0.508 OA
ATOM     26  H   UNL     1      17.296  -1.888   8.004  1.00  0.00     0.293 HD
ENDBRANCH  11  25
ENDBRANCH   1   2
BRANCH   1  27
ATOM     27  C   UNL     1      11.279   1.068   1.299  1.00  0.00     0.339 C 
ATOM     28  C   UNL     1      10.849   2.169   0.276  1.00  0.00     0.214 C 
ATOM     29  O   UNL     1      10.166   0.368   1.843  1.00  0.00    -0.332 OA
ATOM     30  C   UNL     1       9.347   2.507   0.405  1.00  0.00     0.180 C 
ATOM     31  C   UNL     1       9.271  -0.021   0.819  1.00  0.00     0.179 C 
ATOM     32  C   UNL     1       8.473   1.222   0.334  1.00  0.00     0.177 C 
BRANCH  28  33
ATOM     33  O   UNL     1      11.608   3.342   0.428  1.00  0.00    -0.384 OA
ATOM     34  H   UNL     1      12.485   3.072   0.808  1.00  0.00     0.211 HD
ENDBRANCH  28  33
BRANCH  30  35
ATOM     35  O   UNL     1       9.092   3.236   1.586  1.00  0.00    -0.387 OA
ATOM     36  H   UNL     1       9.671   2.877   2.307  1.00  0.00     0.211 HD
ENDBRANCH  30  35
BRANCH  31  37
ATOM     37  C   UNL     1       8.348  -1.119   1.353  1.00  0.00     0.191 C 
BRANCH  37  38
ATOM     38  O   UNL     1       8.031  -0.876   2.696  1.00  0.00    -0.394 OA
ATOM     39  H   UNL     1       7.046  -0.978   2.768  1.00  0.00     0.210 HD
ENDBRANCH  37  38
ENDBRANCH  31  37
BRANCH  32  40
ATOM     40  O   UNL     1       7.995   1.018  -0.973  1.00  0.00    -0.387 OA
ATOM     41  H   UNL     1       7.770   1.906  -1.353  1.00  0.00     0.211 HD
ENDBRANCH  32  40
ENDBRANCH   1  27
TORSDOF 12
ENDMDL
MODEL 7
REMARK VINA RESULT:    -5.583      1.995      6.869
REMARK INTER + INTRA:          -9.254
REMARK INTER:                  -9.744
REMARK INTRA:                   0.491
REMARK UNBOUND:                -1.060
REMARK SMILES O=c1c(O[C@H]2O[C@@H](CO)[C@H](O)[C@@H](O)[C@H]2O)c(-c2ccc(O)c(O)c2)oc2cc(O)cc(O)c12
REMARK SMILES IDX 4 1 3 2 16 3 25 4 2 5 26 6 1 7 33 8 27 9 31 10 28 11 30 12
REMARK SMILES IDX 17 13 18 14 19 15 20 16 24 17 22 18 21 19 23 21 32 23 29 25
REMARK SMILES IDX 5 27 14 28 6 29 12 30 7 31 10 32 15 33 13 35 8 37 9 38 11 40
REMARK H PARENT 21 20 23 22 32 24 29 26 15 34 13 36 9 39 11 41
REMARK Flexibility Score: inf
ROOT
ATOM      1  O   UNL     1      12.502   1.233   1.266  1.00  0.00    -0.454 OA
ENDROOT
BRANCH   1   2
ATOM      2  C   UNL     1      11.871   2.245   0.511  1.00  0.00     0.214 A 
ATOM      3  C   UNL     1      12.486   2.645  -0.693  1.00  0.00     0.180 A 
ATOM      4  O   UNL     1      11.882   3.505  -1.503  1.00  0.00    -0.452 OA
ATOM      5  C   UNL     1      10.644   2.854   0.866  1.00  0.00     0.239 A 
ATOM      6  C   UNL     1      10.707   4.057  -1.234  1.00  0.00     0.146 A 
ATOM      7  O   UNL     1      10.099   2.597   1.971  1.00  0.00    -0.285 OA
ATOM      8  C   UNL     1      10.031   3.759  -0.027  1.00  0.00     0.111 A 
ATOM      9  C   UNL     1      10.147   4.947  -2.158  1.00  0.00     0.094 A 
ATOM     10  C   UNL     1       8.773   4.364   0.222  1.00  0.00     0.134 A 
ATOM     11  C   UNL     1       8.907   5.541  -1.904  1.00  0.00     0.123 A 
ATOM     12  C   UNL     1       8.224   5.246  -0.722  1.00  0.00     0.093 A 
BRANCH   3  13
ATOM     13  C   UNL     1      13.820   2.141  -1.087  1.00  0.00     0.025 A 
ATOM     14  C   UNL     1      14.961   2.953  -0.972  1.00  0.00     0.016 A 
ATOM     15  C   UNL     1      16.205   2.493  -1.409  1.00  0.00     0.051 A 
ATOM     16  C   UNL     1      16.323   1.221  -1.987  1.00  0.00     0.157 A 
ATOM     17  C   UNL     1      13.941   0.871  -1.676  1.00  0.00     0.062 A 
ATOM     18  C   UNL     1      15.185   0.407  -2.120  1.00  0.00     0.158 A 
BRANCH  16  19
ATOM     19  O   UNL     1      17.566   0.770  -2.431  1.00  0.00    -0.504 OA
ATOM     20  H   UNL     1      18.082   1.259  -3.153  1.00  0.00     0.293 HD
ENDBRANCH  16  19
BRANCH  18  21
ATOM     21  O   UNL     1      15.268  -0.855  -2.706  1.00  0.00    -0.504 OA
ATOM     22  H   UNL     1      16.084  -1.148  -3.234  1.00  0.00     0.293 HD
ENDBRANCH  18  21
ENDBRANCH   3  13
BRANCH  10  23
ATOM     23  O   UNL     1       8.062   4.092   1.393  1.00  0.00    -0.507 OA
ATOM     24  H   UNL     1       7.762   3.152   1.627  1.00  0.00     0.293 HD
ENDBRANCH  10  23
BRANCH  11  25
ATOM     25  O   UNL     1       8.344   6.426  -2.819  1.00  0.00    -0.508 OA
ATOM     26  H   UNL     1       8.832   6.685  -3.671  1.00  0.00     0.293 HD
ENDBRANCH  11  25
ENDBRANCH   1   2
BRANCH   1  27
ATOM     27  C   UNL     1      12.807   1.233   2.663  1.00  0.00     0.339 C 
ATOM     28  C   UNL     1      13.464   2.600   3.039  1.00  0.00     0.214 C 
ATOM     29  O   UNL     1      13.651   0.125   2.958  1.00  0.00    -0.332 OA
ATOM     30  C   UNL     1      14.988   2.459   3.247  1.00  0.00     0.180 C 
ATOM     31  C   UNL     1      14.193   0.243   4.260  1.00  0.00     0.179 C 
ATOM     32  C   UNL     1      15.314   1.319   4.255  1.00  0.00     0.177 C 
BRANCH  28  33
ATOM     33  O   UNL     1      13.213   3.581   2.063  1.00  0.00    -0.384 OA
ATOM     34  H   UNL     1      13.488   4.452   2.450  1.00  0.00     0.211 HD
ENDBRANCH  28  33
BRANCH  30  35
ATOM     35  O   UNL     1      15.650   2.262   2.018  1.00  0.00    -0.387 OA
ATOM     36  H   UNL     1      16.594   2.550   2.121  1.00  0.00     0.211 HD
ENDBRANCH  30  35
BRANCH  31  37
ATOM     37  C   UNL     1      14.716  -1.125   4.707  1.00  0.00     0.191 C 
BRANCH  37  38
ATOM     38  O   UNL     1      16.098  -1.068   4.926  1.00  0.00    -0.394 OA
ATOM     39  H   UNL     1      16.521  -1.127   4.030  1.00  0.00     0.210 HD
ENDBRANCH  37  38
ENDBRANCH  31  37
BRANCH  32  40
ATOM     40  O   UNL     1      15.500   1.838   5.549  1.00  0.00    -0.387 OA
ATOM     41  H   UNL     1      14.622   1.819   6.010  1.00  0.00     0.211 HD
ENDBRANCH  32  40
ENDBRANCH   1  27
TORSDOF 12
ENDMDL
MODEL 8
REMARK VINA RESULT:    -5.123      2.555      5.417
REMARK INTER + INTRA:          -8.579
REMARK INTER:                  -7.747
REMARK INTRA:                  -0.831
REMARK UNBOUND:                -1.060
REMARK SMILES O=c1c(O[C@H]2O[C@@H](CO)[C@H](O)[C@@H](O)[C@H]2O)c(-c2ccc(O)c(O)c2)oc2cc(O)cc(O)c12
REMARK SMILES IDX 4 1 3 2 16 3 25 4 2 5 26 6 1 7 33 8 27 9 31 10 28 11 30 12
REMARK SMILES IDX 17 13 18 14 19 15 20 16 24 17 22 18 21 19 23 21 32 23 29 25
REMARK SMILES IDX 5 27 14 28 6 29 12 30 7 31 10 32 15 33 13 35 8 37 9 38 11 40
REMARK H PARENT 21 20 23 22 32 24 29 26 15 34 13 36 9 39 11 41
REMARK Flexibility Score: inf
ROOT
ATOM      1  O   UNL     1      13.529   0.631   3.704  1.00  0.00    -0.454 OA
ENDROOT
BRANCH   1   2
ATOM      2  C   UNL     1      12.952   0.234   4.929  1.00  0.00     0.214 A 
ATOM      3  C   UNL     1      13.751   0.319   6.087  1.00  0.00     0.180 A 
ATOM      4  O   UNL     1      13.231   0.072   7.283  1.00  0.00    -0.452 OA
ATOM      5  C   UNL     1      11.615  -0.206   5.073  1.00  0.00     0.239 A 
ATOM      6  C   UNL     1      11.968  -0.290   7.467  1.00  0.00     0.146 A 
ATOM      7  O   UNL     1      10.888  -0.384   4.062  1.00  0.00    -0.285 OA
ATOM      8  C   UNL     1      11.098  -0.452   6.364  1.00  0.00     0.111 A 
ATOM      9  C   UNL     1      11.511  -0.519   8.769  1.00  0.00     0.094 A 
ATOM     10  C   UNL     1       9.753  -0.834   6.601  1.00  0.00     0.134 A 
ATOM     11  C   UNL     1      10.184  -0.897   8.995  1.00  0.00     0.123 A 
ATOM     12  C   UNL     1       9.311  -1.049   7.916  1.00  0.00     0.093 A 
BRANCH   3  13
ATOM     13  C   UNL     1      15.188   0.665   6.015  1.00  0.00     0.025 A 
ATOM     14  C   UNL     1      16.176  -0.321   6.176  1.00  0.00     0.016 A 
ATOM     15  C   UNL     1      17.529   0.025   6.173  1.00  0.00     0.051 A 
ATOM     16  C   UNL     1      17.914   1.365   6.030  1.00  0.00     0.157 A 
ATOM     17  C   UNL     1      15.577   2.008   5.882  1.00  0.00     0.062 A 
ATOM     18  C   UNL     1      16.932   2.361   5.884  1.00  0.00     0.158 A 
BRANCH  16  19
ATOM     19  O   UNL     1      19.266   1.707   6.038  1.00  0.00    -0.504 OA
ATOM     20  H   UNL     1      19.915   1.294   6.698  1.00  0.00     0.293 HD
ENDBRANCH  16  19
BRANCH  18  21
ATOM     21  O   UNL     1      17.283   3.705   5.757  1.00  0.00    -0.504 OA
ATOM     22  H   UNL     1      16.610   4.450   5.909  1.00  0.00     0.293 HD
ENDBRANCH  18  21
ENDBRANCH   3  13
BRANCH  10  23
ATOM     23  O   UNL     1       8.853  -0.995   5.545  1.00  0.00    -0.507 OA
ATOM     24  H   UNL     1       7.960  -0.513   5.529  1.00  0.00     0.293 HD
ENDBRANCH  10  23
BRANCH  11  25
ATOM     25  O   UNL     1       9.721  -1.125  10.289  1.00  0.00    -0.508 OA
ATOM     26  H   UNL     1      10.186  -1.782  10.907  1.00  0.00     0.293 HD
ENDBRANCH  11  25
ENDBRANCH   1   2
BRANCH   1  27
ATOM     27  C   UNL     1      12.907   1.320   2.616  1.00  0.00     0.339 C 
ATOM     28  C   UNL     1      13.572   0.859   1.278  1.00  0.00     0.214 C 
ATOM     29  O   UNL     1      13.021   2.723   2.824  1.00  0.00    -0.332 OA
ATOM     30  C   UNL     1      14.528   1.936   0.719  1.00  0.00     0.180 C 
ATOM     31  C   UNL     1      12.668   3.432   1.651  1.00  0.00     0.179 C 
ATOM     32  C   UNL     1      13.818   3.317   0.613  1.00  0.00     0.177 C 
BRANCH  28  33
ATOM     33  O   UNL     1      14.269  -0.351   1.437  1.00  0.00    -0.384 OA
ATOM     34  H   UNL     1      14.398  -0.733   0.530  1.00  0.00     0.211 HD
ENDBRANCH  28  33
BRANCH  30  35
ATOM     35  O   UNL     1      15.702   2.021   1.495  1.00  0.00    -0.387 OA
ATOM     36  H   UNL     1      15.599   2.768   2.139  1.00  0.00     0.211 HD
ENDBRANCH  30  35
BRANCH  31  37
ATOM     37  C   UNL     1      12.376   4.889   2.020  1.00  0.00     0.191 C 
BRANCH  37  38
ATOM     38  O   UNL     1      10.996   5.130   1.990  1.00  0.00    -0.394 OA
ATOM     39  H   UNL     1      10.571   4.260   1.770  1.00  0.00     0.210 HD
ENDBRANCH  37  38
ENDBRANCH  31  37
BRANCH  32  40
ATOM     40  O   UNL     1      13.326   3.523  -0.688  1.00  0.00    -0.387 OA
ATOM     41  H   UNL     1      13.265   2.638  -1.131  1.00  0.00     0.211 HD
ENDBRANCH  32  40
ENDBRANCH   1  27
TORSDOF 12
ENDMDL
MODEL 9
REMARK VINA RESULT:    -4.885      2.136      5.377
REMARK INTER + INTRA:          -8.230
REMARK INTER:                  -7.821
REMARK INTRA:                  -0.409
REMARK UNBOUND:                -1.060
REMARK SMILES O=c1c(O[C@H]2O[C@@H](CO)[C@H](O)[C@@H](O)[C@H]2O)c(-c2ccc(O)c(O)c2)oc2cc(O)cc(O)c12
REMARK SMILES IDX 4 1 3 2 16 3 25 4 2 5 26 6 1 7 33 8 27 9 31 10 28 11 30 12
REMARK SMILES IDX 17 13 18 14 19 15 20 16 24 17 22 18 21 19 23 21 32 23 29 25
REMARK SMILES IDX 5 27 14 28 6 29 12 30 7 31 10 32 15 33 13 35 8 37 9 38 11 40
REMARK H PARENT 21 20 23 22 32 24 29 26 15 34 13 36 9 39 11 41
REMARK Flexibility Score: inf
ROOT
ATOM      1  O   UNL     1      13.013   2.409  -0.289  1.00  0.00    -0.454 OA
ENDROOT
BRANCH   1   2
ATOM      2  C   UNL     1      13.070   1.932   1.038  1.00  0.00     0.214 A 
ATOM      3  C   UNL     1      12.107   0.982   1.436  1.00  0.00     0.180 A 
ATOM      4  O   UNL     1      12.180   0.410   2.631  1.00  0.00    -0.452 OA
ATOM      5  C   UNL     1      14.053   2.318   1.980  1.00  0.00     0.239 A 
ATOM      6  C   UNL     1      13.117   0.704   3.523  1.00  0.00     0.146 A 
ATOM      7  O   UNL     1      14.880   3.226   1.706  1.00  0.00    -0.285 OA
ATOM      8  C   UNL     1      14.100   1.680   3.239  1.00  0.00     0.111 A 
ATOM      9  C   UNL     1      13.115   0.038   4.753  1.00  0.00     0.094 A 
ATOM     10  C   UNL     1      15.090   1.962   4.215  1.00  0.00     0.134 A 
ATOM     11  C   UNL     1      14.093   0.323   5.712  1.00  0.00     0.123 A 
ATOM     12  C   UNL     1      15.076   1.276   5.440  1.00  0.00     0.093 A 
BRANCH   3  13
ATOM     13  C   UNL     1      10.982   0.603   0.554  1.00  0.00     0.025 A 
ATOM     14  C   UNL     1      10.907  -0.683  -0.007  1.00  0.00     0.016 A 
ATOM     15  C   UNL     1       9.877  -1.012  -0.891  1.00  0.00     0.051 A 
ATOM     16  C   UNL     1       8.917  -0.052  -1.243  1.00  0.00     0.157 A 
ATOM     17  C   UNL     1      10.024   1.564   0.191  1.00  0.00     0.062 A 
ATOM     18  C   UNL     1       8.992   1.242  -0.699  1.00  0.00     0.158 A 
BRANCH  16  19
ATOM     19  O   UNL     1       7.896  -0.382  -2.135  1.00  0.00    -0.504 OA
ATOM     20  H   UNL     1       6.981   0.050  -2.079  1.00  0.00     0.293 HD
ENDBRANCH  16  19
BRANCH  18  21
ATOM     21  O   UNL     1       8.062   2.222  -1.043  1.00  0.00    -0.504 OA
ATOM     22  H   UNL     1       8.025   3.116  -0.564  1.00  0.00     0.293 HD
ENDBRANCH  18  21
ENDBRANCH   3  13
BRANCH  10  23
ATOM     23  O   UNL     1      16.088   2.909   3.976  1.00  0.00    -0.507 OA
ATOM     24  H   UNL     1      17.021   2.807   4.360  1.00  0.00     0.293 HD
ENDBRANCH  10  23
BRANCH  11  25
ATOM     25  O   UNL     1      14.098  -0.337   6.938  1.00  0.00    -0.508 OA
ATOM     26  H   UNL     1      13.481  -0.053   7.692  1.00  0.00     0.293 HD
ENDBRANCH  11  25
ENDBRANCH   1   2
BRANCH   1  27
ATOM     27  C   UNL     1      14.008   2.306  -1.310  1.00  0.00     0.339 C 
ATOM     28  C   UNL     1      13.503   1.319  -2.412  1.00  0.00     0.214 C 
ATOM     29  O   UNL     1      15.236   1.886  -0.726  1.00  0.00    -0.332 OA
ATOM     30  C   UNL     1      14.216  -0.048  -2.319  1.00  0.00     0.180 C 
ATOM     31  C   UNL     1      16.163   1.510  -1.727  1.00  0.00     0.179 C 
ATOM     32  C   UNL     1      15.763   0.125  -2.305  1.00  0.00     0.177 C 
BRANCH  28  33
ATOM     33  O   UNL     1      12.112   1.129  -2.338  1.00  0.00    -0.384 OA
ATOM     34  H   UNL     1      11.916   0.766  -1.435  1.00  0.00     0.211 HD
ENDBRANCH  28  33
BRANCH  30  35
ATOM     35  O   UNL     1      13.771  -0.775  -1.195  1.00  0.00    -0.387 OA
ATOM     36  H   UNL     1      12.807  -0.974  -1.312  1.00  0.00     0.211 HD
ENDBRANCH  30  35
BRANCH  31  37
ATOM     37  C   UNL     1      17.569   1.492  -1.123  1.00  0.00     0.191 C 
BRANCH  37  38
ATOM     38  O   UNL     1      18.464   0.858  -1.994  1.00  0.00    -0.394 OA
ATOM     39  H   UNL     1      18.327  -0.117  -1.866  1.00  0.00     0.210 HD
ENDBRANCH  37  38
ENDBRANCH  31  37
BRANCH  32  40
ATOM     40  O   UNL     1      16.292  -0.038  -3.598  1.00  0.00    -0.387 OA
ATOM     41  H   UNL     1      16.637   0.843  -3.895  1.00  0.00     0.211 HD
ENDBRANCH  32  40
ENDBRANCH   1  27
TORSDOF 12
ENDMDL
