MODEL 1
REMARK VINA RESULT:    -5.313      0.000      0.000
REMARK INTER + INTRA:          -5.812
REMARK INTER:                  -5.779
REMARK INTRA:                  -0.032
REMARK UNBOUND:                -0.032
REMARK SMILES COc1ccccc1O
REMARK SMILES IDX 3 1 4 2 5 3 6 4 7 5 8 6 2 7 1 8 9 9
REMARK H PARENT 9 10
REMARK Flexibility Score: inf
ROOT
ATOM      1  C   UNL     1     137.303 134.663 114.030  1.00  0.00     0.160 A 
ATOM      2  C   UNL     1     137.130 134.782 115.424  1.00  0.00     0.050 A 
ATOM      3  C   UNL     1     138.235 134.736 116.279  1.00  0.00     0.004 A 
ATOM      4  C   UNL     1     139.519 134.571 115.754  1.00  0.00     0.004 A 
ATOM      5  C   UNL     1     139.701 134.452 114.375  1.00  0.00     0.050 A 
ATOM      6  C   UNL     1     138.596 134.498 113.511  1.00  0.00     0.157 A 
ENDROOT
BRANCH   1   7
ATOM      7  O   UNL     1     136.222 134.704 113.135  1.00  0.00    -0.493 OA
ATOM      8  C   UNL     1     134.964 134.078 113.364  1.00  0.00     0.278 C 
ENDBRANCH   1   7
BRANCH   6   9
ATOM      9  O   UNL     1     138.777 134.379 112.134  1.00  0.00    -0.504 OA
ATOM     10  H   UNL     1     138.161 134.845 111.476  1.00  0.00     0.293 HD
ENDBRANCH   6   9
TORSDOF 2
ENDMDL
MODEL 2
REMARK VINA RESULT:    -5.208     11.965     12.664
REMARK INTER + INTRA:          -5.697
REMARK INTER:                  -5.666
REMARK INTRA:                  -0.031
REMARK UNBOUND:                -0.032
REMARK SMILES COc1ccccc1O
REMARK SMILES IDX 3 1 4 2 5 3 6 4 7 5 8 6 2 7 1 8 9 9
REMARK H PARENT 9 10
REMARK Flexibility Score: inf
ROOT
ATOM      1  C   UNL     1     126.664 134.997 108.759  1.00  0.00     0.160 A 
ATOM      2  C   UNL     1     127.451 133.830 108.833  1.00  0.00     0.050 A 
ATOM      3  C   UNL     1     128.426 133.574 107.863  1.00  0.00     0.004 A 
ATOM      4  C   UNL     1     128.623 134.474 106.814  1.00  0.00     0.004 A 
ATOM      5  C   UNL     1     127.848 135.633 106.732  1.00  0.00     0.050 A 
ATOM      6  C   UNL     1     126.869 135.897 107.701  1.00  0.00     0.157 A 
ENDROOT
BRANCH   1   7
ATOM      7  O   UNL     1     125.675 135.295 109.710  1.00  0.00    -0.493 OA
ATOM      8  C   UNL     1     124.834 134.326 110.327  1.00  0.00     0.278 C 
ENDBRANCH   1   7
BRANCH   6   9
ATOM      9  O   UNL     1     126.094 137.053 107.620  1.00  0.00    -0.504 OA
ATOM     10  H   UNL     1     126.476 137.964 107.849  1.00  0.00     0.293 HD
ENDBRANCH   6   9
TORSDOF 2
ENDMDL
MODEL 3
REMARK VINA RESULT:    -4.927      7.764     10.495
REMARK INTER + INTRA:          -5.392
REMARK INTER:                  -5.347
REMARK INTRA:                  -0.045
REMARK UNBOUND:                -0.032
REMARK SMILES COc1ccccc1O
REMARK SMILES IDX 3 1 4 2 5 3 6 4 7 5 8 6 2 7 1 8 9 9
REMARK H PARENT 9 10
REMARK Flexibility Score: inf
ROOT
ATOM      1  C   UNL     1     129.673 134.428 109.306  1.00  0.00     0.160 A 
ATOM      2  C   UNL     1     129.541 133.025 109.298  1.00  0.00     0.050 A 
ATOM      3  C   UNL     1     129.036 132.370 108.171  1.00  0.00     0.004 A 
ATOM      4  C   UNL     1     128.657 133.104 107.045  1.00  0.00     0.004 A 
ATOM      5  C   UNL     1     128.785 134.495 107.043  1.00  0.00     0.050 A 
ATOM      6  C   UNL     1     129.292 135.159 108.170  1.00  0.00     0.157 A 
ENDROOT
BRANCH   1   7
ATOM      7  O   UNL     1     130.176 135.127 110.414  1.00  0.00    -0.493 OA
ATOM      8  C   UNL     1     131.561 135.268 110.715  1.00  0.00     0.278 C 
ENDBRANCH   1   7
BRANCH   6   9
ATOM      9  O   UNL     1     129.419 136.547 108.169  1.00  0.00    -0.504 OA
ATOM     10  H   UNL     1     128.763 137.139 107.671  1.00  0.00     0.293 HD
ENDBRANCH   6   9
TORSDOF 2
ENDMDL
MODEL 4
REMARK VINA RESULT:    -4.904      9.347     10.724
REMARK INTER + INTRA:          -5.367
REMARK INTER:                  -5.348
REMARK INTRA:                  -0.018
REMARK UNBOUND:                -0.032
REMARK SMILES COc1ccccc1O
REMARK SMILES IDX 3 1 4 2 5 3 6 4 7 5 8 6 2 7 1 8 9 9
REMARK H PARENT 9 10
REMARK Flexibility Score: inf
ROOT
ATOM      1  C   UNL     1     131.226 136.562 121.076  1.00  0.00     0.160 A 
ATOM      2  C   UNL     1     131.564 135.206 120.895  1.00  0.00     0.050 A 
ATOM      3  C   UNL     1     131.088 134.235 121.782  1.00  0.00     0.004 A 
ATOM      4  C   UNL     1     130.273 134.606 122.855  1.00  0.00     0.004 A 
ATOM      5  C   UNL     1     129.932 135.948 123.042  1.00  0.00     0.050 A 
ATOM      6  C   UNL     1     130.406 136.927 122.156  1.00  0.00     0.157 A 
ENDROOT
BRANCH   1   7
ATOM      7  O   UNL     1     131.680 137.569 120.211  1.00  0.00    -0.493 OA
ATOM      8  C   UNL     1     132.887 138.303 120.393  1.00  0.00     0.278 C 
ENDBRANCH   1   7
BRANCH   6   9
ATOM      9  O   UNL     1     130.067 138.266 122.343  1.00  0.00    -0.504 OA
ATOM     10  H   UNL     1     130.770 138.996 122.346  1.00  0.00     0.293 HD
ENDBRANCH   6   9
TORSDOF 2
ENDMDL
MODEL 5
REMARK VINA RESULT:    -4.879      9.715     11.095
REMARK INTER + INTRA:          -5.339
REMARK INTER:                  -5.292
REMARK INTRA:                  -0.046
REMARK UNBOUND:                -0.032
REMARK SMILES COc1ccccc1O
REMARK SMILES IDX 3 1 4 2 5 3 6 4 7 5 8 6 2 7 1 8 9 9
REMARK H PARENT 9 10
REMARK Flexibility Score: inf
ROOT
ATOM      1  C   UNL     1     127.710 134.292 109.012  1.00  0.00     0.160 A 
ATOM      2  C   UNL     1     128.087 133.262 108.128  1.00  0.00     0.050 A 
ATOM      3  C   UNL     1     129.102 132.366 108.479  1.00  0.00     0.004 A 
ATOM      4  C   UNL     1     129.748 132.489 109.711  1.00  0.00     0.004 A 
ATOM      5  C   UNL     1     129.381 133.506 110.595  1.00  0.00     0.050 A 
ATOM      6  C   UNL     1     128.364 134.408 110.249  1.00  0.00     0.157 A 
ENDROOT
BRANCH   1   7
ATOM      7  O   UNL     1     126.697 135.213 108.701  1.00  0.00    -0.493 OA
ATOM      8  C   UNL     1     126.867 136.337 107.843  1.00  0.00     0.278 C 
ENDBRANCH   1   7
BRANCH   6   9
ATOM      9  O   UNL     1     127.997 135.424 111.130  1.00  0.00    -0.504 OA
ATOM     10  H   UNL     1     127.378 135.249 111.913  1.00  0.00     0.293 HD
ENDBRANCH   6   9
TORSDOF 2
ENDMDL
MODEL 6
REMARK VINA RESULT:    -4.769      8.688      9.771
REMARK INTER + INTRA:          -5.219
REMARK INTER:                  -5.192
REMARK INTRA:                  -0.028
REMARK UNBOUND:                -0.032
REMARK SMILES COc1ccccc1O
REMARK SMILES IDX 3 1 4 2 5 3 6 4 7 5 8 6 2 7 1 8 9 9
REMARK H PARENT 9 10
REMARK Flexibility Score: inf
ROOT
ATOM      1  C   UNL     1     131.687 136.801 120.686  1.00  0.00     0.160 A 
ATOM      2  C   UNL     1     130.948 137.306 121.775  1.00  0.00     0.050 A 
ATOM      3  C   UNL     1     130.211 136.442 122.590  1.00  0.00     0.004 A 
ATOM      4  C   UNL     1     130.202 135.070 122.328  1.00  0.00     0.004 A 
ATOM      5  C   UNL     1     130.932 134.559 121.252  1.00  0.00     0.050 A 
ATOM      6  C   UNL     1     131.674 135.421 120.430  1.00  0.00     0.157 A 
ENDROOT
BRANCH   1   7
ATOM      7  O   UNL     1     132.441 137.631 119.843  1.00  0.00    -0.493 OA
ATOM      8  C   UNL     1     132.831 138.962 120.164  1.00  0.00     0.278 C 
ENDBRANCH   1   7
BRANCH   6   9
ATOM      9  O   UNL     1     132.401 134.912 119.356  1.00  0.00    -0.504 OA
ATOM     10  H   UNL     1     132.027 134.181 118.761  1.00  0.00     0.293 HD
ENDBRANCH   6   9
TORSDOF 2
ENDMDL
MODEL 7
REMARK VINA RESULT:    -4.759      5.584      8.009
REMARK INTER + INTRA:          -5.209
REMARK INTER:                  -5.164
REMARK INTRA:                  -0.045
REMARK UNBOUND:                -0.032
REMARK SMILES COc1ccccc1O
REMARK SMILES IDX 3 1 4 2 5 3 6 4 7 5 8 6 2 7 1 8 9 9
REMARK H PARENT 9 10
REMARK Flexibility Score: inf
ROOT
ATOM      1  C   UNL     1     131.866 132.847 111.474  1.00  0.00     0.160 A 
ATOM      2  C   UNL     1     130.783 133.500 112.096  1.00  0.00     0.050 A 
ATOM      3  C   UNL     1     129.550 133.598 111.445  1.00  0.00     0.004 A 
ATOM      4  C   UNL     1     129.385 133.048 110.172  1.00  0.00     0.004 A 
ATOM      5  C   UNL     1     130.452 132.398 109.547  1.00  0.00     0.050 A 
ATOM      6  C   UNL     1     131.692 132.296 110.195  1.00  0.00     0.157 A 
ENDROOT
BRANCH   1   7
ATOM      7  O   UNL     1     133.121 132.725 112.091  1.00  0.00    -0.493 OA
ATOM      8  C   UNL     1     133.381 131.917 113.234  1.00  0.00     0.278 C 
ENDBRANCH   1   7
BRANCH   6   9
ATOM      9  O   UNL     1     132.758 131.649 109.572  1.00  0.00    -0.504 OA
ATOM     10  H   UNL     1     133.532 132.166 109.172  1.00  0.00     0.293 HD
ENDBRANCH   6   9
TORSDOF 2
ENDMDL
MODEL 8
REMARK VINA RESULT:    -4.750     11.767     12.254
REMARK INTER + INTRA:          -5.198
REMARK INTER:                  -5.153
REMARK INTRA:                  -0.045
REMARK UNBOUND:                -0.032
REMARK SMILES COc1ccccc1O
REMARK SMILES IDX 3 1 4 2 5 3 6 4 7 5 8 6 2 7 1 8 9 9
REMARK H PARENT 9 10
REMARK Flexibility Score: inf
ROOT
ATOM      1  C   UNL     1     128.281 134.082 107.509  1.00  0.00     0.160 A 
ATOM      2  C   UNL     1     127.413 133.692 108.547  1.00  0.00     0.050 A 
ATOM      3  C   UNL     1     126.512 134.610 109.097  1.00  0.00     0.004 A 
ATOM      4  C   UNL     1     126.470 135.921 108.619  1.00  0.00     0.004 A 
ATOM      5  C   UNL     1     127.327 136.318 107.589  1.00  0.00     0.050 A 
ATOM      6  C   UNL     1     128.232 135.402 107.033  1.00  0.00     0.157 A 
ENDROOT
BRANCH   1   7
ATOM      7  O   UNL     1     129.200 133.195 106.927  1.00  0.00    -0.493 OA
ATOM      8  C   UNL     1     128.869 132.235 105.928  1.00  0.00     0.278 C 
ENDBRANCH   1   7
BRANCH   6   9
ATOM      9  O   UNL     1     129.088 135.797 106.006  1.00  0.00    -0.504 OA
ATOM     10  H   UNL     1     129.885 135.233 105.733  1.00  0.00     0.293 HD
ENDBRANCH   6   9
TORSDOF 2
ENDMDL
MODEL 9
REMARK VINA RESULT:    -4.695      7.540      9.128
REMARK INTER + INTRA:          -5.138
REMARK INTER:                  -5.109
REMARK INTRA:                  -0.030
REMARK UNBOUND:                -0.032
REMARK SMILES COc1ccccc1O
REMARK SMILES IDX 3 1 4 2 5 3 6 4 7 5 8 6 2 7 1 8 9 9
REMARK H PARENT 9 10
REMARK Flexibility Score: inf
ROOT
ATOM      1  C   UNL     1     129.814 134.789 109.302  1.00  0.00     0.160 A 
ATOM      2  C   UNL     1     129.317 133.477 109.430  1.00  0.00     0.050 A 
ATOM      3  C   UNL     1     129.876 132.599 110.364  1.00  0.00     0.004 A 
ATOM      4  C   UNL     1     130.932 133.019 111.175  1.00  0.00     0.004 A 
ATOM      5  C   UNL     1     131.432 134.318 111.055  1.00  0.00     0.050 A 
ATOM      6  C   UNL     1     130.875 135.204 110.121  1.00  0.00     0.157 A 
ENDROOT
BRANCH   1   7
ATOM      7  O   UNL     1     129.282 135.704 108.379  1.00  0.00    -0.493 OA
ATOM      8  C   UNL     1     128.721 135.344 107.121  1.00  0.00     0.278 C 
ENDBRANCH   1   7
BRANCH   6   9
ATOM      9  O   UNL     1     131.373 136.501 110.001  1.00  0.00    -0.504 OA
ATOM     10  H   UNL     1     131.055 137.125 109.268  1.00  0.00     0.293 HD
ENDBRANCH   6   9
TORSDOF 2
ENDMDL
