MODEL 1
REMARK VINA RESULT:    -4.166      0.000      0.000
REMARK INTER + INTRA:          -4.431
REMARK INTER:                  -4.410
REMARK INTRA:                  -0.021
REMARK UNBOUND:                -0.021
REMARK SMILES O=C([O-])c1cccnc1
REMARK SMILES IDX 4 1 5 2 9 3 6 4 8 5 7 6 2 7 1 8 3 9
REMARK H PARENT
REMARK Flexibility Score: inf
ROOT
ATOM      1  C   UNL     1       1.595  -2.080 -31.713  1.00  0.00     0.016 A 
ATOM      2  C   UNL     1       2.355  -2.779 -32.666  1.00  0.00     0.013 A 
ATOM      3  C   UNL     1       0.741  -2.813 -30.872  1.00  0.00     0.120 A 
ATOM      4  C   UNL     1       2.253  -4.168 -32.762  1.00  0.00     0.021 A 
ATOM      5  N   UNL     1       0.660  -4.167 -30.986  1.00  0.00    -0.264 NA
ATOM      6  C   UNL     1       1.390  -4.851 -31.904  1.00  0.00     0.111 A 
ENDROOT
BRANCH   1   7
ATOM      7  C   UNL     1       1.688  -0.609 -31.595  1.00  0.00     0.073 C 
ATOM      8  O   UNL     1       1.865   0.105 -32.619  1.00  0.00    -0.545 OA
ATOM      9  O   UNL     1       1.583   0.006 -30.353  1.00  0.00    -0.545 OA
ENDBRANCH   1   7
TORSDOF 1
ENDMDL
MODEL 2
REMARK VINA RESULT:    -4.112     16.439     17.754
REMARK INTER + INTRA:          -4.373
REMARK INTER:                  -4.353
REMARK INTRA:                  -0.020
REMARK UNBOUND:                -0.021
REMARK SMILES O=C([O-])c1cccnc1
REMARK SMILES IDX 4 1 5 2 9 3 6 4 8 5 7 6 2 7 1 8 3 9
REMARK H PARENT
REMARK Flexibility Score: inf
ROOT
ATOM      1  C   UNL     1      -6.360   9.096 -21.658  1.00  0.00     0.016 A 
ATOM      2  C   UNL     1      -7.710   8.771 -21.445  1.00  0.00     0.013 A 
ATOM      3  C   UNL     1      -5.671   9.785 -20.646  1.00  0.00     0.120 A 
ATOM      4  C   UNL     1      -8.338   9.130 -20.252  1.00  0.00     0.021 A 
ATOM      5  N   UNL     1      -6.307  10.125 -19.492  1.00  0.00    -0.264 NA
ATOM      6  C   UNL     1      -7.611   9.815 -19.276  1.00  0.00     0.111 A 
ENDROOT
BRANCH   1   7
ATOM      7  C   UNL     1      -5.676   8.724 -22.915  1.00  0.00     0.073 C 
ATOM      8  O   UNL     1      -5.876   7.598 -23.444  1.00  0.00    -0.545 OA
ATOM      9  O   UNL     1      -4.801   9.612 -23.531  1.00  0.00    -0.545 OA
ENDBRANCH   1   7
TORSDOF 1
ENDMDL
MODEL 3
REMARK VINA RESULT:    -3.927     13.671     14.409
REMARK INTER + INTRA:          -4.178
REMARK INTER:                  -4.161
REMARK INTRA:                  -0.017
REMARK UNBOUND:                -0.021
REMARK SMILES O=C([O-])c1cccnc1
REMARK SMILES IDX 4 1 5 2 9 3 6 4 8 5 7 6 2 7 1 8 3 9
REMARK H PARENT
REMARK Flexibility Score: inf
ROOT
ATOM      1  C   UNL     1      -6.586   8.705 -29.025  1.00  0.00     0.016 A 
ATOM      2  C   UNL     1      -5.222   8.762 -29.356  1.00  0.00     0.013 A 
ATOM      3  C   UNL     1      -7.502   9.377 -29.851  1.00  0.00     0.120 A 
ATOM      4  C   UNL     1      -4.803   9.473 -30.482  1.00  0.00     0.021 A 
ATOM      5  N   UNL     1      -7.068  10.064 -30.943  1.00  0.00    -0.264 NA
ATOM      6  C   UNL     1      -5.752  10.125 -31.271  1.00  0.00     0.111 A 
ENDROOT
BRANCH   1   7
ATOM      7  C   UNL     1      -7.050   7.958 -27.837  1.00  0.00     0.073 C 
ATOM      8  O   UNL     1      -7.515   8.570 -26.837  1.00  0.00    -0.545 OA
ATOM      9  O   UNL     1      -6.978   6.570 -27.805  1.00  0.00    -0.545 OA
ENDBRANCH   1   7
TORSDOF 1
ENDMDL
MODEL 4
REMARK VINA RESULT:    -3.881      2.551      3.291
REMARK INTER + INTRA:          -4.129
REMARK INTER:                  -4.105
REMARK INTRA:                  -0.024
REMARK UNBOUND:                -0.021
REMARK SMILES O=C([O-])c1cccnc1
REMARK SMILES IDX 4 1 5 2 9 3 6 4 8 5 7 6 2 7 1 8 3 9
REMARK H PARENT
REMARK Flexibility Score: inf
ROOT
ATOM      1  C   UNL     1       1.410  -2.226 -31.782  1.00  0.00     0.016 A 
ATOM      2  C   UNL     1       2.178  -2.731 -32.844  1.00  0.00     0.013 A 
ATOM      3  C   UNL     1       1.276  -0.833 -31.659  1.00  0.00     0.120 A 
ATOM      4  C   UNL     1       2.786  -1.858 -33.748  1.00  0.00     0.021 A 
ATOM      5  N   UNL     1       1.879  -0.003 -32.553  1.00  0.00    -0.264 NA
ATOM      6  C   UNL     1       2.623  -0.481 -33.583  1.00  0.00     0.111 A 
ENDROOT
BRANCH   1   7
ATOM      7  C   UNL     1       0.759  -3.134 -30.814  1.00  0.00     0.073 C 
ATOM      8  O   UNL     1       0.748  -4.379 -31.011  1.00  0.00    -0.545 OA
ATOM      9  O   UNL     1       0.146  -2.626 -29.675  1.00  0.00    -0.545 OA
ENDBRANCH   1   7
TORSDOF 1
ENDMDL
MODEL 5
REMARK VINA RESULT:    -3.879      2.917      3.909
REMARK INTER + INTRA:          -4.127
REMARK INTER:                  -4.105
REMARK INTRA:                  -0.023
REMARK UNBOUND:                -0.021
REMARK SMILES O=C([O-])c1cccnc1
REMARK SMILES IDX 4 1 5 2 9 3 6 4 8 5 7 6 2 7 1 8 3 9
REMARK H PARENT
REMARK Flexibility Score: inf
ROOT
ATOM      1  C   UNL     1       1.411  -3.115 -31.856  1.00  0.00     0.016 A 
ATOM      2  C   UNL     1       0.867  -2.297 -30.851  1.00  0.00     0.013 A 
ATOM      3  C   UNL     1       2.152  -2.506 -32.882  1.00  0.00     0.120 A 
ATOM      4  C   UNL     1       1.067  -0.916 -30.885  1.00  0.00     0.021 A 
ATOM      5  N   UNL     1       2.332  -1.158 -32.893  1.00  0.00    -0.264 NA
ATOM      6  C   UNL     1       1.811  -0.359 -31.927  1.00  0.00     0.111 A 
ENDROOT
BRANCH   1   7
ATOM      7  C   UNL     1       1.210  -4.579 -31.838  1.00  0.00     0.073 C 
ATOM      8  O   UNL     1       1.372  -5.261 -32.885  1.00  0.00    -0.545 OA
ATOM      9  O   UNL     1       0.836  -5.225 -30.665  1.00  0.00    -0.545 OA
ENDBRANCH   1   7
TORSDOF 1
ENDMDL
MODEL 6
REMARK VINA RESULT:    -3.850      1.559      2.232
REMARK INTER + INTRA:          -4.096
REMARK INTER:                  -4.074
REMARK INTRA:                  -0.022
REMARK UNBOUND:                -0.021
REMARK SMILES O=C([O-])c1cccnc1
REMARK SMILES IDX 4 1 5 2 9 3 6 4 8 5 7 6 2 7 1 8 3 9
REMARK H PARENT
REMARK Flexibility Score: inf
ROOT
ATOM      1  C   UNL     1       1.202  -2.657 -31.355  1.00  0.00     0.016 A 
ATOM      2  C   UNL     1       0.784  -3.989 -31.205  1.00  0.00     0.013 A 
ATOM      3  C   UNL     1       1.951  -2.316 -32.494  1.00  0.00     0.120 A 
ATOM      4  C   UNL     1       1.112  -4.940 -32.173  1.00  0.00     0.021 A 
ATOM      5  N   UNL     1       2.258  -3.262 -33.422  1.00  0.00    -0.264 NA
ATOM      6  C   UNL     1       1.858  -4.553 -33.286  1.00  0.00     0.111 A 
ENDROOT
BRANCH   1   7
ATOM      7  C   UNL     1       0.865  -1.634 -30.341  1.00  0.00     0.073 C 
ATOM      8  O   UNL     1      -0.191  -1.731 -29.660  1.00  0.00    -0.545 OA
ATOM      9  O   UNL     1       1.708  -0.550 -30.127  1.00  0.00    -0.545 OA
ENDBRANCH   1   7
TORSDOF 1
ENDMDL
MODEL 7
REMARK VINA RESULT:    -3.831     16.597     17.901
REMARK INTER + INTRA:          -4.077
REMARK INTER:                  -4.053
REMARK INTRA:                  -0.024
REMARK UNBOUND:                -0.021
REMARK SMILES O=C([O-])c1cccnc1
REMARK SMILES IDX 4 1 5 2 9 3 6 4 8 5 7 6 2 7 1 8 3 9
REMARK H PARENT
REMARK Flexibility Score: inf
ROOT
ATOM      1  C   UNL     1      -7.039   8.663 -21.524  1.00  0.00     0.016 A 
ATOM      2  C   UNL     1      -6.015   9.374 -20.876  1.00  0.00     0.013 A 
ATOM      3  C   UNL     1      -8.333   8.713 -20.980  1.00  0.00     0.120 A 
ATOM      4  C   UNL     1      -6.293  10.107 -19.721  1.00  0.00     0.021 A 
ATOM      5  N   UNL     1      -8.578   9.435 -19.853  1.00  0.00    -0.264 NA
ATOM      6  C   UNL     1      -7.595  10.125 -19.219  1.00  0.00     0.111 A 
ENDROOT
BRANCH   1   7
ATOM      7  C   UNL     1      -6.765   7.880 -22.748  1.00  0.00     0.073 C 
ATOM      8  O   UNL     1      -5.609   7.860 -23.250  1.00  0.00    -0.545 OA
ATOM      9  O   UNL     1      -7.781   7.158 -23.364  1.00  0.00    -0.545 OA
ENDBRANCH   1   7
TORSDOF 1
ENDMDL
MODEL 8
REMARK VINA RESULT:    -3.819      2.450      3.404
REMARK INTER + INTRA:          -4.063
REMARK INTER:                  -4.040
REMARK INTRA:                  -0.023
REMARK UNBOUND:                -0.021
REMARK SMILES O=C([O-])c1cccnc1
REMARK SMILES IDX 4 1 5 2 9 3 6 4 8 5 7 6 2 7 1 8 3 9
REMARK H PARENT
REMARK Flexibility Score: inf
ROOT
ATOM      1  C   UNL     1       0.878  -2.186 -30.985  1.00  0.00     0.016 A 
ATOM      2  C   UNL     1       0.928  -0.791 -31.140  1.00  0.00     0.013 A 
ATOM      3  C   UNL     1       1.626  -2.984 -31.867  1.00  0.00     0.120 A 
ATOM      4  C   UNL     1       1.706  -0.226 -32.152  1.00  0.00     0.021 A 
ATOM      5  N   UNL     1       2.376  -2.407 -32.845  1.00  0.00    -0.264 NA
ATOM      6  C   UNL     1       2.431  -1.060 -33.004  1.00  0.00     0.111 A 
ENDROOT
BRANCH   1   7
ATOM      7  C   UNL     1       0.060  -2.805 -29.920  1.00  0.00     0.073 C 
ATOM      8  O   UNL     1       0.238  -4.010 -29.594  1.00  0.00    -0.545 OA
ATOM      9  O   UNL     1      -0.920  -2.067 -29.266  1.00  0.00    -0.545 OA
ENDBRANCH   1   7
TORSDOF 1
ENDMDL
MODEL 9
REMARK VINA RESULT:    -3.799      2.875      3.394
REMARK INTER + INTRA:          -4.042
REMARK INTER:                  -4.026
REMARK INTRA:                  -0.016
REMARK UNBOUND:                -0.021
REMARK SMILES O=C([O-])c1cccnc1
REMARK SMILES IDX 4 1 5 2 9 3 6 4 8 5 7 6 2 7 1 8 3 9
REMARK H PARENT
REMARK Flexibility Score: inf
ROOT
ATOM      1  C   UNL     1       1.320  -0.673 -32.550  1.00  0.00     0.016 A 
ATOM      2  C   UNL     1       0.048  -0.743 -33.141  1.00  0.00     0.013 A 
ATOM      3  C   UNL     1       1.403  -0.568 -31.151  1.00  0.00     0.120 A 
ATOM      4  C   UNL     1      -1.098  -0.709 -32.344  1.00  0.00     0.021 A 
ATOM      5  N   UNL     1       0.270  -0.537 -30.397  1.00  0.00    -0.264 NA
ATOM      6  C   UNL     1      -0.964  -0.604 -30.958  1.00  0.00     0.111 A 
ENDROOT
BRANCH   1   7
ATOM      7  C   UNL     1       2.546  -0.707 -33.376  1.00  0.00     0.073 C 
ATOM      8  O   UNL     1       3.062   0.361 -33.801  1.00  0.00    -0.545 OA
ATOM      9  O   UNL     1       3.145  -1.920 -33.698  1.00  0.00    -0.545 OA
ENDBRANCH   1   7
TORSDOF 1
ENDMDL
