MODEL 1
REMARK VINA RESULT:     5.321      0.000      0.000
REMARK INTER + INTRA:           9.209
REMARK INTER:                  10.299
REMARK INTRA:                  -1.090
REMARK UNBOUND:                -1.090
REMARK SMILES CCCCCCCCCCCCCCCCCC(=O)[O-]
REMARK SMILES IDX 10 1 11 2 12 3 13 4 14 5 15 6 16 7 17 8 18 9 19 10 20 11
REMARK SMILES IDX 9 12 8 13 7 14 6 15 5 16 4 17 3 18 2 19 1 20
REMARK H PARENT
REMARK Flexibility Score: inf
ROOT
ATOM      1  C   UNL     1      -5.437   2.771   7.939  1.00  0.00     0.000 C 
ENDROOT
BRANCH   1   2
ATOM      2  C   UNL     1      -4.026   2.468   7.412  1.00  0.00     0.000 C 
BRANCH   2   3
ATOM      3  C   UNL     1      -2.950   2.593   8.505  1.00  0.00     0.000 C 
BRANCH   3   4
ATOM      4  C   UNL     1      -2.506   1.229   9.061  1.00  0.00     0.000 C 
BRANCH   4   5
ATOM      5  C   UNL     1      -1.932   0.260   8.008  1.00  0.00     0.000 C 
BRANCH   5   6
ATOM      6  C   UNL     1      -1.156  -0.930   8.615  1.00  0.00     0.000 C 
BRANCH   6   7
ATOM      7  C   UNL     1      -2.069  -2.010   9.235  1.00  0.00     0.006 C 
BRANCH   7   8
ATOM      8  C   UNL     1      -1.415  -3.399   9.301  1.00  0.00     0.053 C 
BRANCH   8   9
ATOM      9  C   UNL     1      -1.742  -4.234   8.103  1.00  0.00     0.041 C 
ATOM     10  O   UNL     1      -2.759  -4.977   8.107  1.00  0.00    -0.550 OA
ATOM     11  O   UNL     1      -0.905  -4.218   6.995  1.00  0.00    -0.550 OA
ENDBRANCH   8   9
ENDBRANCH   7   8
ENDBRANCH   6   7
ENDBRANCH   5   6
ENDBRANCH   4   5
ENDBRANCH   3   4
ENDBRANCH   2   3
ENDBRANCH   1   2
BRANCH   1  12
ATOM     12  C   UNL     1      -5.533   2.666   9.472  1.00  0.00     0.000 C 
BRANCH  12  13
ATOM     13  C   UNL     1      -6.605   3.596  10.065  1.00  0.00    -0.000 C 
BRANCH  13  14
ATOM     14  C   UNL     1      -6.372   5.100   9.814  1.00  0.00    -0.000 C 
BRANCH  14  15
ATOM     15  C   UNL     1      -4.925   5.582  10.033  1.00  0.00    -0.000 C 
BRANCH  15  16
ATOM     16  C   UNL     1      -4.174   5.988   8.750  1.00  0.00    -0.000 C 
BRANCH  16  17
ATOM     17  C   UNL     1      -2.636   5.955   8.854  1.00  0.00    -0.000 C 
BRANCH  17  18
ATOM     18  C   UNL     1      -2.057   6.610  10.122  1.00  0.00    -0.000 C 
BRANCH  18  19
ATOM     19  C   UNL     1      -1.405   7.971   9.845  1.00  0.00    -0.003 C 
ATOM     20  C   UNL     1       0.118   7.866   9.871  1.00  0.00     0.004 C 
ENDBRANCH  18  19
ENDBRANCH  17  18
ENDBRANCH  16  17
ENDBRANCH  15  16
ENDBRANCH  14  15
ENDBRANCH  13  14
ENDBRANCH  12  13
ENDBRANCH   1  12
TORSDOF 16
ENDMDL
MODEL 2
REMARK VINA RESULT:     5.340     10.580     11.703
REMARK INTER + INTRA:           9.244
REMARK INTER:                   9.378
REMARK INTRA:                  -0.133
REMARK UNBOUND:                -1.090
REMARK SMILES CCCCCCCCCCCCCCCCCC(=O)[O-]
REMARK SMILES IDX 10 1 11 2 12 3 13 4 14 5 15 6 16 7 17 8 18 9 19 10 20 11
REMARK SMILES IDX 9 12 8 13 7 14 6 15 5 16 4 17 3 18 2 19 1 20
REMARK H PARENT
REMARK Flexibility Score: inf
ROOT
ATOM      1  C   UNL     1       1.847   6.748  -1.988  1.00  0.00     0.000 C 
ENDROOT
BRANCH   1   2
ATOM      2  C   UNL     1       2.954   6.255  -1.044  1.00  0.00     0.000 C 
BRANCH   2   3
ATOM      3  C   UNL     1       2.673   4.846  -0.493  1.00  0.00     0.000 C 
BRANCH   3   4
ATOM      4  C   UNL     1       3.572   3.770  -1.128  1.00  0.00     0.000 C 
BRANCH   4   5
ATOM      5  C   UNL     1       3.230   2.323  -0.723  1.00  0.00     0.000 C 
BRANCH   5   6
ATOM      6  C   UNL     1       4.400   1.331  -0.909  1.00  0.00     0.000 C 
BRANCH   6   7
ATOM      7  C   UNL     1       4.591   0.371   0.286  1.00  0.00     0.006 C 
BRANCH   7   8
ATOM      8  C   UNL     1       6.040   0.310   0.795  1.00  0.00     0.053 C 
BRANCH   8   9
ATOM      9  C   UNL     1       6.352  -0.995   1.457  1.00  0.00     0.041 C 
ATOM     10  O   UNL     1       5.621  -2.000   1.253  1.00  0.00    -0.550 OA
ATOM     11  O   UNL     1       7.431  -1.092   2.326  1.00  0.00    -0.550 OA
ENDBRANCH   8   9
ENDBRANCH   7   8
ENDBRANCH   6   7
ENDBRANCH   5   6
ENDBRANCH   4   5
ENDBRANCH   3   4
ENDBRANCH   2   3
ENDBRANCH   1   2
BRANCH   1  12
ATOM     12  C   UNL     1       0.751   7.541  -1.254  1.00  0.00     0.000 C 
BRANCH  12  13
ATOM     13  C   UNL     1      -0.607   7.487  -1.975  1.00  0.00    -0.000 C 
BRANCH  13  14
ATOM     14  C   UNL     1      -1.616   8.570  -1.543  1.00  0.00    -0.000 C 
BRANCH  14  15
ATOM     15  C   UNL     1      -2.001   8.545  -0.050  1.00  0.00    -0.000 C 
BRANCH  15  16
ATOM     16  C   UNL     1      -3.516   8.586   0.230  1.00  0.00    -0.000 C 
BRANCH  16  17
ATOM     17  C   UNL     1      -4.185   9.957   0.006  1.00  0.00    -0.000 C 
BRANCH  17  18
ATOM     18  C   UNL     1      -5.469   9.922  -0.843  1.00  0.00    -0.000 C 
BRANCH  18  19
ATOM     19  C   UNL     1      -5.363   8.975  -2.046  1.00  0.00    -0.003 C 
ATOM     20  C   UNL     1      -4.192   9.360  -2.946  1.00  0.00     0.004 C 
ENDBRANCH  18  19
ENDBRANCH  17  18
ENDBRANCH  16  17
ENDBRANCH  15  16
ENDBRANCH  14  15
ENDBRANCH  13  14
ENDBRANCH  12  13
ENDBRANCH   1  12
TORSDOF 16
ENDMDL
MODEL 3
REMARK VINA RESULT:     5.979     11.368     14.329
REMARK INTER + INTRA:          10.481
REMARK INTER:                  10.900
REMARK INTRA:                  -0.419
REMARK UNBOUND:                -1.090
REMARK SMILES CCCCCCCCCCCCCCCCCC(=O)[O-]
REMARK SMILES IDX 10 1 11 2 12 3 13 4 14 5 15 6 16 7 17 8 18 9 19 10 20 11
REMARK SMILES IDX 9 12 8 13 7 14 6 15 5 16 4 17 3 18 2 19 1 20
REMARK H PARENT
REMARK Flexibility Score: inf
ROOT
ATOM      1  C   UNL     1       2.936   6.655  -1.344  1.00  0.00     0.000 C 
ENDROOT
BRANCH   1   2
ATOM      2  C   UNL     1       1.824   7.712  -1.279  1.00  0.00     0.000 C 
BRANCH   2   3
ATOM      3  C   UNL     1       0.497   7.208  -1.874  1.00  0.00     0.000 C 
BRANCH   3   4
ATOM      4  C   UNL     1      -0.571   8.312  -1.965  1.00  0.00     0.000 C 
BRANCH   4   5
ATOM      5  C   UNL     1      -1.907   7.975  -1.274  1.00  0.00     0.000 C 
BRANCH   5   6
ATOM      6  C   UNL     1      -2.157   8.779   0.022  1.00  0.00     0.000 C 
BRANCH   6   7
ATOM      7  C   UNL     1      -3.651   8.891   0.399  1.00  0.00     0.006 C 
BRANCH   7   8
ATOM      8  C   UNL     1      -4.377  10.041  -0.316  1.00  0.00     0.053 C 
BRANCH   8   9
ATOM      9  C   UNL     1      -5.065   9.585  -1.564  1.00  0.00     0.041 C 
ATOM     10  O   UNL     1      -6.313   9.418  -1.575  1.00  0.00    -0.550 OA
ATOM     11  O   UNL     1      -4.323   9.311  -2.706  1.00  0.00    -0.550 OA
ENDBRANCH   8   9
ENDBRANCH   7   8
ENDBRANCH   6   7
ENDBRANCH   5   6
ENDBRANCH   4   5
ENDBRANCH   3   4
ENDBRANCH   2   3
ENDBRANCH   1   2
BRANCH   1  12
ATOM     12  C   UNL     1       2.550   5.344  -0.638  1.00  0.00     0.000 C 
BRANCH  12  13
ATOM     13  C   UNL     1       3.377   4.141  -1.125  1.00  0.00    -0.000 C 
BRANCH  13  14
ATOM     14  C   UNL     1       3.104   2.819  -0.378  1.00  0.00    -0.000 C 
BRANCH  14  15
ATOM     15  C   UNL     1       3.668   1.556  -1.058  1.00  0.00    -0.000 C 
BRANCH  15  16
ATOM     16  C   UNL     1       4.235   0.498  -0.092  1.00  0.00    -0.000 C 
BRANCH  16  17
ATOM     17  C   UNL     1       5.490   0.934   0.691  1.00  0.00    -0.000 C 
BRANCH  17  18
ATOM     18  C   UNL     1       6.417  -0.216   1.126  1.00  0.00    -0.000 C 
BRANCH  18  19
ATOM     19  C   UNL     1       5.648  -1.482   1.528  1.00  0.00    -0.003 C 
ATOM     20  C   UNL     1       6.136  -2.694   0.740  1.00  0.00     0.004 C 
ENDBRANCH  18  19
ENDBRANCH  17  18
ENDBRANCH  16  17
ENDBRANCH  15  16
ENDBRANCH  14  15
ENDBRANCH  13  14
ENDBRANCH  12  13
ENDBRANCH   1  12
TORSDOF 16
ENDMDL
MODEL 4
REMARK VINA RESULT:     6.273     14.956     17.161
REMARK INTER + INTRA:          11.050
REMARK INTER:                  11.743
REMARK INTRA:                  -0.693
REMARK UNBOUND:                -1.090
REMARK SMILES CCCCCCCCCCCCCCCCCC(=O)[O-]
REMARK SMILES IDX 10 1 11 2 12 3 13 4 14 5 15 6 16 7 17 8 18 9 19 10 20 11
REMARK SMILES IDX 9 12 8 13 7 14 6 15 5 16 4 17 3 18 2 19 1 20
REMARK H PARENT
REMARK Flexibility Score: inf
ROOT
ATOM      1  C   UNL     1       4.933   8.990  -2.728  1.00  0.00     0.000 C 
ENDROOT
BRANCH   1   2
ATOM      2  C   UNL     1       4.034   9.123  -1.490  1.00  0.00     0.000 C 
BRANCH   2   3
ATOM      3  C   UNL     1       2.558   8.819  -1.799  1.00  0.00     0.000 C 
BRANCH   3   4
ATOM      4  C   UNL     1       2.168   7.368  -1.466  1.00  0.00     0.000 C 
BRANCH   4   5
ATOM      5  C   UNL     1       0.662   7.061  -1.584  1.00  0.00     0.000 C 
BRANCH   5   6
ATOM      6  C   UNL     1      -0.223   8.322  -1.695  1.00  0.00     0.000 C 
BRANCH   6   7
ATOM      7  C   UNL     1      -1.486   8.270  -0.808  1.00  0.00     0.006 C 
BRANCH   7   8
ATOM      8  C   UNL     1      -2.795   8.413  -1.599  1.00  0.00     0.053 C 
BRANCH   8   9
ATOM      9  C   UNL     1      -3.908   8.956  -0.759  1.00  0.00     0.041 C 
ATOM     10  O   UNL     1      -3.790   9.005   0.494  1.00  0.00    -0.550 OA
ATOM     11  O   UNL     1      -5.089   9.377  -1.357  1.00  0.00    -0.550 OA
ENDBRANCH   8   9
ENDBRANCH   7   8
ENDBRANCH   6   7
ENDBRANCH   5   6
ENDBRANCH   4   5
ENDBRANCH   3   4
ENDBRANCH   2   3
ENDBRANCH   1   2
BRANCH   1  12
ATOM     12  C   UNL     1       6.121   8.038  -2.499  1.00  0.00     0.000 C 
BRANCH  12  13
ATOM     13  C   UNL     1       6.747   7.541  -3.814  1.00  0.00    -0.000 C 
BRANCH  13  14
ATOM     14  C   UNL     1       7.826   6.452  -3.649  1.00  0.00    -0.000 C 
BRANCH  14  15
ATOM     15  C   UNL     1       8.077   5.586  -4.900  1.00  0.00    -0.000 C 
BRANCH  15  16
ATOM     16  C   UNL     1       9.557   5.448  -5.308  1.00  0.00    -0.000 C 
BRANCH  16  17
ATOM     17  C   UNL     1      10.088   6.567  -6.226  1.00  0.00    -0.000 C 
BRANCH  17  18
ATOM     18  C   UNL     1       9.015   7.283  -7.066  1.00  0.00    -0.000 C 
BRANCH  18  19
ATOM     19  C   UNL     1       9.611   8.272  -8.077  1.00  0.00    -0.003 C 
ATOM     20  C   UNL     1       8.999   9.660  -7.913  1.00  0.00     0.004 C 
ENDBRANCH  18  19
ENDBRANCH  17  18
ENDBRANCH  16  17
ENDBRANCH  15  16
ENDBRANCH  14  15
ENDBRANCH  13  14
ENDBRANCH  12  13
ENDBRANCH   1  12
TORSDOF 16
ENDMDL
MODEL 5
REMARK VINA RESULT:     6.417      4.609      8.077
REMARK INTER + INTRA:          11.330
REMARK INTER:                  12.320
REMARK INTRA:                  -0.989
REMARK UNBOUND:                -1.090
REMARK SMILES CCCCCCCCCCCCCCCCCC(=O)[O-]
REMARK SMILES IDX 10 1 11 2 12 3 13 4 14 5 15 6 16 7 17 8 18 9 19 10 20 11
REMARK SMILES IDX 9 12 8 13 7 14 6 15 5 16 4 17 3 18 2 19 1 20
REMARK H PARENT
REMARK Flexibility Score: inf
ROOT
ATOM      1  C   UNL     1      -2.750   5.228   6.217  1.00  0.00     0.000 C 
ENDROOT
BRANCH   1   2
ATOM      2  C   UNL     1      -2.900   6.593   6.905  1.00  0.00     0.000 C 
BRANCH   2   3
ATOM      3  C   UNL     1      -1.936   6.764   8.091  1.00  0.00     0.000 C 
BRANCH   3   4
ATOM      4  C   UNL     1      -2.027   8.158   8.735  1.00  0.00     0.000 C 
BRANCH   4   5
ATOM      5  C   UNL     1      -1.370   8.271  10.125  1.00  0.00     0.000 C 
BRANCH   5   6
ATOM      6  C   UNL     1       0.009   8.966  10.108  1.00  0.00     0.000 C 
BRANCH   6   7
ATOM      7  C   UNL     1       1.178   8.012   9.775  1.00  0.00     0.006 C 
BRANCH   7   8
ATOM      8  C   UNL     1       2.552   8.698   9.803  1.00  0.00     0.053 C 
BRANCH   8   9
ATOM      9  C   UNL     1       3.666   7.722  10.014  1.00  0.00     0.041 C 
ATOM     10  O   UNL     1       3.419   6.492  10.123  1.00  0.00    -0.550 OA
ATOM     11  O   UNL     1       4.975   8.174  10.124  1.00  0.00    -0.550 OA
ENDBRANCH   8   9
ENDBRANCH   7   8
ENDBRANCH   6   7
ENDBRANCH   5   6
ENDBRANCH   4   5
ENDBRANCH   3   4
ENDBRANCH   2   3
ENDBRANCH   1   2
BRANCH   1  12
ATOM     12  C   UNL     1      -3.424   4.090   7.004  1.00  0.00     0.000 C 
BRANCH  12  13
ATOM     13  C   UNL     1      -4.004   2.997   6.089  1.00  0.00    -0.000 C 
BRANCH  13  14
ATOM     14  C   UNL     1      -4.211   1.626   6.765  1.00  0.00    -0.000 C 
BRANCH  14  15
ATOM     15  C   UNL     1      -3.239   1.314   7.920  1.00  0.00    -0.000 C 
BRANCH  15  16
ATOM     16  C   UNL     1      -3.836   1.477   9.332  1.00  0.00    -0.000 C 
BRANCH  16  17
ATOM     17  C   UNL     1      -4.167   2.927   9.737  1.00  0.00    -0.000 C 
BRANCH  17  18
ATOM     18  C   UNL     1      -5.657   3.202  10.010  1.00  0.00    -0.000 C 
BRANCH  18  19
ATOM     19  C   UNL     1      -6.108   4.584   9.518  1.00  0.00    -0.003 C 
ATOM     20  C   UNL     1      -5.200   5.683  10.064  1.00  0.00     0.004 C 
ENDBRANCH  18  19
ENDBRANCH  17  18
ENDBRANCH  16  17
ENDBRANCH  15  16
ENDBRANCH  14  15
ENDBRANCH  13  14
ENDBRANCH  12  13
ENDBRANCH   1  12
TORSDOF 16
ENDMDL
MODEL 6
REMARK VINA RESULT:     6.423     14.340     16.566
REMARK INTER + INTRA:          11.340
REMARK INTER:                  11.786
REMARK INTRA:                  -0.446
REMARK UNBOUND:                -1.090
REMARK SMILES CCCCCCCCCCCCCCCCCC(=O)[O-]
REMARK SMILES IDX 10 1 11 2 12 3 13 4 14 5 15 6 16 7 17 8 18 9 19 10 20 11
REMARK SMILES IDX 9 12 8 13 7 14 6 15 5 16 4 17 3 18 2 19 1 20
REMARK H PARENT
REMARK Flexibility Score: inf
ROOT
ATOM      1  C   UNL     1       3.598   8.943  -1.411  1.00  0.00     0.000 C 
ENDROOT
BRANCH   1   2
ATOM      2  C   UNL     1       2.637   7.749  -1.516  1.00  0.00     0.000 C 
BRANCH   2   3
ATOM      3  C   UNL     1       1.174   8.147  -1.250  1.00  0.00     0.000 C 
BRANCH   3   4
ATOM      4  C   UNL     1       0.223   7.697  -2.373  1.00  0.00     0.000 C 
BRANCH   4   5
ATOM      5  C   UNL     1      -1.263   7.627  -1.970  1.00  0.00     0.000 C 
BRANCH   5   6
ATOM      6  C   UNL     1      -1.632   8.550  -0.787  1.00  0.00     0.000 C 
BRANCH   6   7
ATOM      7  C   UNL     1      -2.984   8.199  -0.128  1.00  0.00     0.006 C 
BRANCH   7   8
ATOM      8  C   UNL     1      -4.009   9.342  -0.191  1.00  0.00     0.053 C 
BRANCH   8   9
ATOM      9  C   UNL     1      -4.780   9.339  -1.473  1.00  0.00     0.041 C 
ATOM     10  O   UNL     1      -5.931   9.847  -1.522  1.00  0.00    -0.550 OA
ATOM     11  O   UNL     1      -4.239   8.747  -2.608  1.00  0.00    -0.550 OA
ENDBRANCH   8   9
ENDBRANCH   7   8
ENDBRANCH   6   7
ENDBRANCH   5   6
ENDBRANCH   4   5
ENDBRANCH   3   4
ENDBRANCH   2   3
ENDBRANCH   1   2
BRANCH   1  12
ATOM     12  C   UNL     1       4.422   9.155  -2.694  1.00  0.00     0.000 C 
BRANCH  12  13
ATOM     13  C   UNL     1       5.894   8.739  -2.530  1.00  0.00    -0.000 C 
BRANCH  13  14
ATOM     14  C   UNL     1       6.222   7.311  -3.011  1.00  0.00    -0.000 C 
BRANCH  14  15
ATOM     15  C   UNL     1       7.566   7.164  -3.753  1.00  0.00    -0.000 C 
BRANCH  15  16
ATOM     16  C   UNL     1       7.930   5.722  -4.157  1.00  0.00    -0.000 C 
BRANCH  16  17
ATOM     17  C   UNL     1       8.925   5.604  -5.329  1.00  0.00    -0.000 C 
BRANCH  17  18
ATOM     18  C   UNL     1       8.648   6.546  -6.514  1.00  0.00    -0.000 C 
BRANCH  18  19
ATOM     19  C   UNL     1       9.823   7.487  -6.814  1.00  0.00    -0.003 C 
ATOM     20  C   UNL     1       9.366   8.693  -7.630  1.00  0.00     0.004 C 
ENDBRANCH  18  19
ENDBRANCH  17  18
ENDBRANCH  16  17
ENDBRANCH  15  16
ENDBRANCH  14  15
ENDBRANCH  13  14
ENDBRANCH  12  13
ENDBRANCH   1  12
TORSDOF 16
ENDMDL
MODEL 7
REMARK VINA RESULT:     6.612      4.363      8.279
REMARK INTER + INTRA:          11.707
REMARK INTER:                  10.235
REMARK INTRA:                   1.472
REMARK UNBOUND:                -1.090
REMARK SMILES CCCCCCCCCCCCCCCCCC(=O)[O-]
REMARK SMILES IDX 10 1 11 2 12 3 13 4 14 5 15 6 16 7 17 8 18 9 19 10 20 11
REMARK SMILES IDX 9 12 8 13 7 14 6 15 5 16 4 17 3 18 2 19 1 20
REMARK H PARENT
REMARK Flexibility Score: inf
ROOT
ATOM      1  C   UNL     1      -4.929   3.180   9.211  1.00  0.00     0.000 C 
ENDROOT
BRANCH   1   2
ATOM      2  C   UNL     1      -5.329   4.509   9.868  1.00  0.00     0.000 C 
BRANCH   2   3
ATOM      3  C   UNL     1      -4.907   5.730   9.032  1.00  0.00     0.000 C 
BRANCH   3   4
ATOM      4  C   UNL     1      -4.449   5.349   7.613  1.00  0.00     0.000 C 
BRANCH   4   5
ATOM      5  C   UNL     1      -3.409   6.302   6.993  1.00  0.00     0.000 C 
BRANCH   5   6
ATOM      6  C   UNL     1      -2.082   6.374   7.781  1.00  0.00     0.000 C 
BRANCH   6   7
ATOM      7  C   UNL     1      -2.189   7.172   9.099  1.00  0.00     0.006 C 
BRANCH   7   8
ATOM      8  C   UNL     1      -0.942   7.051   9.989  1.00  0.00     0.053 C 
BRANCH   8   9
ATOM      9  C   UNL     1      -0.062   8.257   9.894  1.00  0.00     0.041 C 
ATOM     10  O   UNL     1       1.173   8.161  10.125  1.00  0.00    -0.550 OA
ATOM     11  O   UNL     1      -0.610   9.495   9.584  1.00  0.00    -0.550 OA
ENDBRANCH   8   9
ENDBRANCH   7   8
ENDBRANCH   6   7
ENDBRANCH   5   6
ENDBRANCH   4   5
ENDBRANCH   3   4
ENDBRANCH   2   3
ENDBRANCH   1   2
BRANCH   1  12
ATOM     12  C   UNL     1      -5.835   2.809   8.024  1.00  0.00     0.000 C 
BRANCH  12  13
ATOM     13  C   UNL     1      -5.043   2.291   6.810  1.00  0.00    -0.000 C 
BRANCH  13  14
ATOM     14  C   UNL     1      -3.533   2.095   7.056  1.00  0.00    -0.000 C 
BRANCH  14  15
ATOM     15  C   UNL     1      -3.154   1.673   8.489  1.00  0.00    -0.000 C 
BRANCH  15  16
ATOM     16  C   UNL     1      -1.937   0.732   8.588  1.00  0.00    -0.000 C 
BRANCH  16  17
ATOM     17  C   UNL     1      -2.273  -0.773   8.568  1.00  0.00    -0.000 C 
BRANCH  17  18
ATOM     18  C   UNL     1      -1.136  -1.699   9.037  1.00  0.00    -0.000 C 
BRANCH  18  19
ATOM     19  C   UNL     1      -1.614  -3.125   9.336  1.00  0.00    -0.003 C 
ATOM     20  C   UNL     1      -1.342  -4.055   8.157  1.00  0.00     0.004 C 
ENDBRANCH  18  19
ENDBRANCH  17  18
ENDBRANCH  16  17
ENDBRANCH  15  16
ENDBRANCH  14  15
ENDBRANCH  13  14
ENDBRANCH  12  13
ENDBRANCH   1  12
TORSDOF 16
ENDMDL
MODEL 8
REMARK VINA RESULT:     6.676     10.582     13.713
REMARK INTER + INTRA:          11.831
REMARK INTER:                  12.422
REMARK INTRA:                  -0.591
REMARK UNBOUND:                -1.090
REMARK SMILES CCCCCCCCCCCCCCCCCC(=O)[O-]
REMARK SMILES IDX 10 1 11 2 12 3 13 4 14 5 15 6 16 7 17 8 18 9 19 10 20 11
REMARK SMILES IDX 9 12 8 13 7 14 6 15 5 16 4 17 3 18 2 19 1 20
REMARK H PARENT
REMARK Flexibility Score: inf
ROOT
ATOM      1  C   UNL     1       3.313   4.947  -1.198  1.00  0.00     0.000 C 
ENDROOT
BRANCH   1   2
ATOM      2  C   UNL     1       2.544   6.193  -0.735  1.00  0.00     0.000 C 
BRANCH   2   3
ATOM      3  C   UNL     1       1.213   6.375  -1.486  1.00  0.00     0.000 C 
BRANCH   3   4
ATOM      4  C   UNL     1       0.736   7.838  -1.503  1.00  0.00     0.000 C 
BRANCH   4   5
ATOM      5  C   UNL     1      -0.779   8.020  -1.727  1.00  0.00     0.000 C 
BRANCH   5   6
ATOM      6  C   UNL     1      -1.517   8.637  -0.519  1.00  0.00     0.000 C 
BRANCH   6   7
ATOM      7  C   UNL     1      -2.948   8.087  -0.324  1.00  0.00     0.006 C 
BRANCH   7   8
ATOM      8  C   UNL     1      -4.027   9.181  -0.319  1.00  0.00     0.053 C 
BRANCH   8   9
ATOM      9  C   UNL     1      -4.787   9.229  -1.607  1.00  0.00     0.041 C 
ATOM     10  O   UNL     1      -6.024   9.468  -1.604  1.00  0.00    -0.550 OA
ATOM     11  O   UNL     1      -4.137   8.978  -2.808  1.00  0.00    -0.550 OA
ENDBRANCH   8   9
ENDBRANCH   7   8
ENDBRANCH   6   7
ENDBRANCH   5   6
ENDBRANCH   4   5
ENDBRANCH   3   4
ENDBRANCH   2   3
ENDBRANCH   1   2
BRANCH   1  12
ATOM     12  C   UNL     1       2.773   3.649  -0.571  1.00  0.00     0.000 C 
BRANCH  12  13
ATOM     13  C   UNL     1       3.362   2.385  -1.221  1.00  0.00    -0.000 C 
BRANCH  13  14
ATOM     14  C   UNL     1       3.391   1.140  -0.312  1.00  0.00    -0.000 C 
BRANCH  14  15
ATOM     15  C   UNL     1       2.136   0.247  -0.388  1.00  0.00    -0.000 C 
BRANCH  15  16
ATOM     16  C   UNL     1       1.094   0.497   0.720  1.00  0.00    -0.000 C 
BRANCH  16  17
ATOM     17  C   UNL     1       0.300  -0.749   1.162  1.00  0.00    -0.000 C 
BRANCH  17  18
ATOM     18  C   UNL     1      -1.185  -0.494   1.479  1.00  0.00    -0.000 C 
BRANCH  18  19
ATOM     19  C   UNL     1      -1.993  -1.791   1.623  1.00  0.00    -0.003 C 
ATOM     20  C   UNL     1      -1.088  -3.016   1.532  1.00  0.00     0.004 C 
ENDBRANCH  18  19
ENDBRANCH  17  18
ENDBRANCH  16  17
ENDBRANCH  15  16
ENDBRANCH  14  15
ENDBRANCH  13  14
ENDBRANCH  12  13
ENDBRANCH   1  12
TORSDOF 16
ENDMDL
MODEL 9
REMARK VINA RESULT:     6.945      5.575      8.391
REMARK INTER + INTRA:          12.352
REMARK INTER:                  10.960
REMARK INTRA:                   1.392
REMARK UNBOUND:                -1.090
REMARK SMILES CCCCCCCCCCCCCCCCCC(=O)[O-]
REMARK SMILES IDX 10 1 11 2 12 3 13 4 14 5 15 6 16 7 17 8 18 9 19 10 20 11
REMARK SMILES IDX 9 12 8 13 7 14 6 15 5 16 4 17 3 18 2 19 1 20
REMARK H PARENT
REMARK Flexibility Score: inf
ROOT
ATOM      1  C   UNL     1      -2.406   5.852   6.846  1.00  0.00     0.000 C 
ENDROOT
BRANCH   1   2
ATOM      2  C   UNL     1      -1.786   7.232   7.108  1.00  0.00     0.000 C 
BRANCH   2   3
ATOM      3  C   UNL     1      -1.386   7.427   8.581  1.00  0.00     0.000 C 
BRANCH   3   4
ATOM      4  C   UNL     1      -0.385   8.579   8.778  1.00  0.00     0.000 C 
BRANCH   4   5
ATOM      5  C   UNL     1       0.405   8.529  10.100  1.00  0.00     0.000 C 
BRANCH   5   6
ATOM      6  C   UNL     1       1.935   8.435   9.908  1.00  0.00     0.000 C 
BRANCH   6   7
ATOM      7  C   UNL     1       2.441   6.994   9.675  1.00  0.00     0.006 C 
BRANCH   7   8
ATOM      8  C   UNL     1       3.973   6.880   9.657  1.00  0.00     0.053 C 
BRANCH   8   9
ATOM      9  C   UNL     1       4.637   8.210   9.482  1.00  0.00     0.041 C 
ATOM     10  O   UNL     1       4.135   9.242  10.002  1.00  0.00    -0.550 OA
ATOM     11  O   UNL     1       5.791   8.315   8.716  1.00  0.00    -0.550 OA
ENDBRANCH   8   9
ENDBRANCH   7   8
ENDBRANCH   6   7
ENDBRANCH   5   6
ENDBRANCH   4   5
ENDBRANCH   3   4
ENDBRANCH   2   3
ENDBRANCH   1   2
BRANCH   1  12
ATOM     12  C   UNL     1      -3.767   5.671   7.543  1.00  0.00     0.000 C 
BRANCH  12  13
ATOM     13  C   UNL     1      -3.740   6.104   9.020  1.00  0.00    -0.000 C 
BRANCH  13  14
ATOM     14  C   UNL     1      -4.650   5.282   9.955  1.00  0.00    -0.000 C 
BRANCH  14  15
ATOM     15  C   UNL     1      -6.119   5.746  10.009  1.00  0.00    -0.000 C 
BRANCH  15  16
ATOM     16  C   UNL     1      -7.156   4.609  10.102  1.00  0.00    -0.000 C 
BRANCH  16  17
ATOM     17  C   UNL     1      -6.576   3.186   9.977  1.00  0.00    -0.000 C 
BRANCH  17  18
ATOM     18  C   UNL     1      -6.087   2.805   8.568  1.00  0.00    -0.000 C 
BRANCH  18  19
ATOM     19  C   UNL     1      -4.663   2.232   8.567  1.00  0.00    -0.003 C 
ATOM     20  C   UNL     1      -4.043   2.305   7.173  1.00  0.00     0.004 C 
ENDBRANCH  18  19
ENDBRANCH  17  18
ENDBRANCH  16  17
ENDBRANCH  15  16
ENDBRANCH  14  15
ENDBRANCH  13  14
ENDBRANCH  12  13
ENDBRANCH   1  12
TORSDOF 16
ENDMDL
