MODEL 1
REMARK VINA RESULT:    -6.660      0.000      0.000
REMARK INTER + INTRA:          -8.123
REMARK INTER:                  -7.828
REMARK INTRA:                  -0.295
REMARK UNBOUND:                -0.295
REMARK SMILES O=c1c(O)c(-c2ccc(O)cc2)oc2cc(O)cc(O)c12
REMARK SMILES IDX 5 1 3 2 2 3 1 4 21 5 19 6 18 7 16 8 15 9 14 10 13 11 6 12
REMARK SMILES IDX 7 13 8 14 9 15 12 16 11 17 10 18 4 20 20 22 17 24
REMARK H PARENT 10 19 4 21 20 23 17 25
REMARK Flexibility Score: inf
ROOT
ATOM      1  C   UNL     1       8.774  16.503 -19.344  1.00  0.00     0.180 A 
ATOM      2  C   UNL     1       8.634  16.078 -20.676  1.00  0.00     0.208 A 
ATOM      3  C   UNL     1       8.822  14.720 -20.981  1.00  0.00     0.238 A 
ATOM      4  O   UNL     1       8.749  14.355 -22.184  1.00  0.00    -0.285 OA
ATOM      5  C   UNL     1       9.129  13.802 -19.949  1.00  0.00     0.111 A 
ATOM      6  C   UNL     1       9.300  12.397 -20.137  1.00  0.00     0.134 A 
ATOM      7  C   UNL     1       9.731  11.604 -19.067  1.00  0.00     0.093 A 
ATOM      8  C   UNL     1       9.935  12.151 -17.800  1.00  0.00     0.123 A 
ATOM      9  C   UNL     1       9.713  13.514 -17.591  1.00  0.00     0.094 A 
ATOM     10  C   UNL     1       9.318  14.337 -18.647  1.00  0.00     0.146 A 
ATOM     11  O   UNL     1       9.128  15.629 -18.408  1.00  0.00    -0.452 OA
ENDROOT
BRANCH   1  12
ATOM     12  C   UNL     1       8.569  17.912 -18.940  1.00  0.00     0.021 A 
ATOM     13  C   UNL     1       9.665  18.791 -18.909  1.00  0.00     0.016 A 
ATOM     14  C   UNL     1       9.496  20.120 -18.509  1.00  0.00     0.047 A 
ATOM     15  C   UNL     1       8.236  20.584 -18.121  1.00  0.00     0.115 A 
ATOM     16  C   UNL     1       7.307  18.380 -18.529  1.00  0.00     0.016 A 
ATOM     17  C   UNL     1       7.142  19.710 -18.129  1.00  0.00     0.047 A 
BRANCH  15  18
ATOM     18  O   UNL     1       8.083  21.911 -17.726  1.00  0.00    -0.508 OA
ATOM     19  H   UNL     1       8.664  22.648 -18.110  1.00  0.00     0.293 HD
ENDBRANCH  15  18
ENDBRANCH   1  12
BRANCH   2  20
ATOM     20  O   UNL     1       8.352  17.005 -21.683  1.00  0.00    -0.502 OA
ATOM     21  H   UNL     1       7.895  16.744 -22.549  1.00  0.00     0.293 HD
ENDBRANCH   2  20
BRANCH   6  22
ATOM     22  O   UNL     1       9.035  11.734 -21.339  1.00  0.00    -0.507 OA
ATOM     23  H   UNL     1       8.476  12.108 -22.090  1.00  0.00     0.293 HD
ENDBRANCH   6  22
BRANCH   8  24
ATOM     24  O   UNL     1      10.349  11.329 -16.755  1.00  0.00    -0.508 OA
ATOM     25  H   UNL     1      11.310  11.325 -16.433  1.00  0.00     0.293 HD
ENDBRANCH   8  24
TORSDOF 5
ENDMDL
MODEL 2
REMARK VINA RESULT:    -6.614      2.845      7.530
REMARK INTER + INTRA:          -8.070
REMARK INTER:                  -7.781
REMARK INTRA:                  -0.288
REMARK UNBOUND:                -0.295
REMARK SMILES O=c1c(O)c(-c2ccc(O)cc2)oc2cc(O)cc(O)c12
REMARK SMILES IDX 5 1 3 2 2 3 1 4 21 5 19 6 18 7 16 8 15 9 14 10 13 11 6 12
REMARK SMILES IDX 7 13 8 14 9 15 12 16 11 17 10 18 4 20 20 22 17 24
REMARK H PARENT 10 19 4 21 20 23 17 25
REMARK Flexibility Score: inf
ROOT
ATOM      1  C   UNL     1       9.937  12.218 -17.147  1.00  0.00     0.180 A 
ATOM      2  C   UNL     1      10.745  13.283 -16.713  1.00  0.00     0.208 A 
ATOM      3  C   UNL     1      10.754  14.476 -17.454  1.00  0.00     0.238 A 
ATOM      4  O   UNL     1      11.521  15.407 -17.091  1.00  0.00    -0.285 OA
ATOM      5  C   UNL     1       9.944  14.596 -18.608  1.00  0.00     0.111 A 
ATOM      6  C   UNL     1       9.845  15.772 -19.410  1.00  0.00     0.134 A 
ATOM      7  C   UNL     1       9.112  15.735 -20.603  1.00  0.00     0.093 A 
ATOM      8  C   UNL     1       8.423  14.586 -20.990  1.00  0.00     0.123 A 
ATOM      9  C   UNL     1       8.465  13.449 -20.182  1.00  0.00     0.094 A 
ATOM     10  C   UNL     1       9.216  13.444 -19.005  1.00  0.00     0.146 A 
ATOM     11  O   UNL     1       9.238  12.338 -18.271  1.00  0.00    -0.452 OA
ENDROOT
BRANCH   1  12
ATOM     12  C   UNL     1       9.855  10.939 -16.408  1.00  0.00     0.021 A 
ATOM     13  C   UNL     1       8.899  10.788 -15.389  1.00  0.00     0.016 A 
ATOM     14  C   UNL     1       8.819   9.596 -14.663  1.00  0.00     0.047 A 
ATOM     15  C   UNL     1       9.702   8.546 -14.934  1.00  0.00     0.115 A 
ATOM     16  C   UNL     1      10.753   9.886 -16.663  1.00  0.00     0.016 A 
ATOM     17  C   UNL     1      10.671   8.695 -15.933  1.00  0.00     0.047 A 
BRANCH  15  18
ATOM     18  O   UNL     1       9.610   7.364 -14.203  1.00  0.00    -0.508 OA
ATOM     19  H   UNL     1       8.716   7.006 -13.885  1.00  0.00     0.293 HD
ENDBRANCH  15  18
ENDBRANCH   1  12
BRANCH   2  20
ATOM     20  O   UNL     1      11.554  13.136 -15.583  1.00  0.00    -0.502 OA
ATOM     21  H   UNL     1      12.035  12.271 -15.369  1.00  0.00     0.293 HD
ENDBRANCH   2  20
BRANCH   6  22
ATOM     22  O   UNL     1      10.419  17.001 -19.068  1.00  0.00    -0.507 OA
ATOM     23  H   UNL     1      10.607  17.304 -18.125  1.00  0.00     0.293 HD
ENDBRANCH   6  22
BRANCH   8  24
ATOM     24  O   UNL     1       7.692  14.590 -22.176  1.00  0.00    -0.508 OA
ATOM     25  H   UNL     1       8.127  14.803 -23.066  1.00  0.00     0.293 HD
ENDBRANCH   8  24
TORSDOF 5
ENDMDL
MODEL 3
REMARK VINA RESULT:    -6.331      2.505      7.069
REMARK INTER + INTRA:          -7.737
REMARK INTER:                  -7.448
REMARK INTRA:                  -0.289
REMARK UNBOUND:                -0.295
REMARK SMILES O=c1c(O)c(-c2ccc(O)cc2)oc2cc(O)cc(O)c12
REMARK SMILES IDX 5 1 3 2 2 3 1 4 21 5 19 6 18 7 16 8 15 9 14 10 13 11 6 12
REMARK SMILES IDX 7 13 8 14 9 15 12 16 11 17 10 18 4 20 20 22 17 24
REMARK H PARENT 10 19 4 21 20 23 17 25
REMARK Flexibility Score: inf
ROOT
ATOM      1  C   UNL     1       9.115  11.808 -18.045  1.00  0.00     0.180 A 
ATOM      2  C   UNL     1       8.299  11.530 -19.155  1.00  0.00     0.208 A 
ATOM      3  C   UNL     1       8.074  12.539 -20.106  1.00  0.00     0.238 A 
ATOM      4  O   UNL     1       7.298  12.300 -21.068  1.00  0.00    -0.285 OA
ATOM      5  C   UNL     1       8.682  13.807 -19.945  1.00  0.00     0.111 A 
ATOM      6  C   UNL     1       8.555  14.889 -20.867  1.00  0.00     0.134 A 
ATOM      7  C   UNL     1       9.093  16.140 -20.541  1.00  0.00     0.093 A 
ATOM      8  C   UNL     1       9.807  16.332 -19.359  1.00  0.00     0.123 A 
ATOM      9  C   UNL     1       9.987  15.265 -18.477  1.00  0.00     0.094 A 
ATOM     10  C   UNL     1       9.432  14.014 -18.758  1.00  0.00     0.146 A 
ATOM     11  O   UNL     1       9.618  13.028 -17.889  1.00  0.00    -0.452 OA
ENDROOT
BRANCH   1  12
ATOM     12  C   UNL     1       9.419  10.791 -17.015  1.00  0.00     0.021 A 
ATOM     13  C   UNL     1      10.506   9.919 -17.200  1.00  0.00     0.016 A 
ATOM     14  C   UNL     1      10.796   8.937 -16.250  1.00  0.00     0.047 A 
ATOM     15  C   UNL     1       9.997   8.801 -15.110  1.00  0.00     0.115 A 
ATOM     16  C   UNL     1       8.607  10.636 -15.876  1.00  0.00     0.016 A 
ATOM     17  C   UNL     1       8.899   9.651 -14.927  1.00  0.00     0.047 A 
BRANCH  15  18
ATOM     18  O   UNL     1      10.299   7.817 -14.172  1.00  0.00    -0.508 OA
ATOM     19  H   UNL     1      10.883   8.015 -13.366  1.00  0.00     0.293 HD
ENDBRANCH  15  18
ENDBRANCH   1  12
BRANCH   2  20
ATOM     20  O   UNL     1       7.692  10.278 -19.283  1.00  0.00    -0.502 OA
ATOM     21  H   UNL     1       6.880  10.009 -18.740  1.00  0.00     0.293 HD
ENDBRANCH   2  20
BRANCH   6  22
ATOM     22  O   UNL     1       7.941  14.780 -22.118  1.00  0.00    -0.507 OA
ATOM     23  H   UNL     1       8.219  15.291 -22.941  1.00  0.00     0.293 HD
ENDBRANCH   6  22
BRANCH   8  24
ATOM     24  O   UNL     1      10.341  17.587 -19.074  1.00  0.00    -0.508 OA
ATOM     25  H   UNL     1       9.751  18.406 -18.986  1.00  0.00     0.293 HD
ENDBRANCH   8  24
TORSDOF 5
ENDMDL
MODEL 4
REMARK VINA RESULT:    -6.316      2.610      7.503
REMARK INTER + INTRA:          -7.719
REMARK INTER:                  -7.466
REMARK INTRA:                  -0.253
REMARK UNBOUND:                -0.295
REMARK SMILES O=c1c(O)c(-c2ccc(O)cc2)oc2cc(O)cc(O)c12
REMARK SMILES IDX 5 1 3 2 2 3 1 4 21 5 19 6 18 7 16 8 15 9 14 10 13 11 6 12
REMARK SMILES IDX 7 13 8 14 9 15 12 16 11 17 10 18 4 20 20 22 17 24
REMARK H PARENT 10 19 4 21 20 23 17 25
REMARK Flexibility Score: inf
ROOT
ATOM      1  C   UNL     1       9.271  12.213 -18.639  1.00  0.00     0.180 A 
ATOM      2  C   UNL     1       9.880  13.157 -17.794  1.00  0.00     0.208 A 
ATOM      3  C   UNL     1      10.016  14.482 -18.240  1.00  0.00     0.238 A 
ATOM      4  O   UNL     1      10.611  15.310 -17.501  1.00  0.00    -0.285 OA
ATOM      5  C   UNL     1       9.526  14.850 -19.515  1.00  0.00     0.111 A 
ATOM      6  C   UNL     1       9.574  16.172 -20.052  1.00  0.00     0.134 A 
ATOM      7  C   UNL     1       9.178  16.395 -21.377  1.00  0.00     0.093 A 
ATOM      8  C   UNL     1       8.676  15.359 -22.163  1.00  0.00     0.123 A 
ATOM      9  C   UNL     1       8.569  14.073 -21.629  1.00  0.00     0.094 A 
ATOM     10  C   UNL     1       8.990  13.813 -20.323  1.00  0.00     0.146 A 
ATOM     11  O   UNL     1       8.881  12.574 -19.856  1.00  0.00    -0.452 OA
ENDROOT
BRANCH   1  12
ATOM     12  C   UNL     1       9.069  10.804 -18.231  1.00  0.00     0.021 A 
ATOM     13  C   UNL     1       7.815  10.396 -17.746  1.00  0.00     0.016 A 
ATOM     14  C   UNL     1       7.611   9.076 -17.335  1.00  0.00     0.047 A 
ATOM     15  C   UNL     1       8.658   8.151 -17.388  1.00  0.00     0.115 A 
ATOM     16  C   UNL     1      10.125   9.874 -18.264  1.00  0.00     0.016 A 
ATOM     17  C   UNL     1       9.917   8.554 -17.850  1.00  0.00     0.047 A 
BRANCH  15  18
ATOM     18  O   UNL     1       8.439   6.839 -16.976  1.00  0.00    -0.508 OA
ATOM     19  H   UNL     1       9.084   6.094 -17.215  1.00  0.00     0.293 HD
ENDBRANCH  15  18
ENDBRANCH   1  12
BRANCH   2  20
ATOM     20  O   UNL     1      10.376  12.767 -16.547  1.00  0.00    -0.502 OA
ATOM     21  H   UNL     1       9.934  12.048 -15.988  1.00  0.00     0.293 HD
ENDBRANCH   2  20
BRANCH   6  22
ATOM     22  O   UNL     1       9.972  17.296 -19.322  1.00  0.00    -0.507 OA
ATOM     23  H   UNL     1      10.486  18.076 -19.702  1.00  0.00     0.293 HD
ENDBRANCH   6  22
BRANCH   8  24
ATOM     24  O   UNL     1       8.277  15.620 -23.472  1.00  0.00    -0.508 OA
ATOM     25  H   UNL     1       7.298  15.661 -23.729  1.00  0.00     0.293 HD
ENDBRANCH   8  24
TORSDOF 5
ENDMDL
MODEL 5
REMARK VINA RESULT:    -6.262      2.918      4.930
REMARK INTER + INTRA:          -7.656
REMARK INTER:                  -7.715
REMARK INTRA:                   0.060
REMARK UNBOUND:                -0.295
REMARK SMILES O=c1c(O)c(-c2ccc(O)cc2)oc2cc(O)cc(O)c12
REMARK SMILES IDX 5 1 3 2 2 3 1 4 21 5 19 6 18 7 16 8 15 9 14 10 13 11 6 12
REMARK SMILES IDX 7 13 8 14 9 15 12 16 11 17 10 18 4 20 20 22 17 24
REMARK H PARENT 10 19 4 21 20 23 17 25
REMARK Flexibility Score: inf
ROOT
ATOM      1  C   UNL     1       9.101  12.922 -18.755  1.00  0.00     0.180 A 
ATOM      2  C   UNL     1       9.480  11.600 -19.045  1.00  0.00     0.208 A 
ATOM      3  C   UNL     1       9.483  10.650 -18.011  1.00  0.00     0.238 A 
ATOM      4  O   UNL     1       9.876   9.481 -18.265  1.00  0.00    -0.285 OA
ATOM      5  C   UNL     1       9.090  11.028 -16.705  1.00  0.00     0.111 A 
ATOM      6  C   UNL     1       9.016  10.139 -15.591  1.00  0.00     0.134 A 
ATOM      7  C   UNL     1       8.741  10.650 -14.317  1.00  0.00     0.093 A 
ATOM      8  C   UNL     1       8.473  12.005 -14.126  1.00  0.00     0.123 A 
ATOM      9  C   UNL     1       8.484  12.874 -15.218  1.00  0.00     0.094 A 
ATOM     10  C   UNL     1       8.791  12.400 -16.496  1.00  0.00     0.146 A 
ATOM     11  O   UNL     1       8.801  13.261 -17.506  1.00  0.00    -0.452 OA
ENDROOT
BRANCH   1  12
ATOM     12  C   UNL     1       9.049  13.974 -19.796  1.00  0.00     0.021 A 
ATOM     13  C   UNL     1       9.565  15.251 -19.516  1.00  0.00     0.016 A 
ATOM     14  C   UNL     1       9.506  16.264 -20.477  1.00  0.00     0.047 A 
ATOM     15  C   UNL     1       8.918  16.021 -21.722  1.00  0.00     0.115 A 
ATOM     16  C   UNL     1       8.441  13.741 -21.043  1.00  0.00     0.016 A 
ATOM     17  C   UNL     1       8.382  14.758 -22.002  1.00  0.00     0.047 A 
BRANCH  15  18
ATOM     18  O   UNL     1       8.867  17.041 -22.669  1.00  0.00    -0.508 OA
ATOM     19  H   UNL     1       8.562  16.866 -23.620  1.00  0.00     0.293 HD
ENDBRANCH  15  18
ENDBRANCH   1  12
BRANCH   2  20
ATOM     20  O   UNL     1       9.885  11.253 -20.337  1.00  0.00    -0.502 OA
ATOM     21  H   UNL     1       9.251  11.264 -21.127  1.00  0.00     0.293 HD
ENDBRANCH   2  20
BRANCH   6  22
ATOM     22  O   UNL     1       9.177   8.754 -15.687  1.00  0.00    -0.507 OA
ATOM     23  H   UNL     1       8.741   8.081 -15.075  1.00  0.00     0.293 HD
ENDBRANCH   6  22
BRANCH   8  24
ATOM     24  O   UNL     1       8.188  12.476 -12.846  1.00  0.00    -0.508 OA
ATOM     25  H   UNL     1       7.604  13.291 -12.700  1.00  0.00     0.293 HD
ENDBRANCH   8  24
TORSDOF 5
ENDMDL
MODEL 6
REMARK VINA RESULT:    -6.260      3.829      6.783
REMARK INTER + INTRA:          -7.654
REMARK INTER:                  -7.407
REMARK INTRA:                  -0.246
REMARK UNBOUND:                -0.295
REMARK SMILES O=c1c(O)c(-c2ccc(O)cc2)oc2cc(O)cc(O)c12
REMARK SMILES IDX 5 1 3 2 2 3 1 4 21 5 19 6 18 7 16 8 15 9 14 10 13 11 6 12
REMARK SMILES IDX 7 13 8 14 9 15 12 16 11 17 10 18 4 20 20 22 17 24
REMARK H PARENT 10 19 4 21 20 23 17 25
REMARK Flexibility Score: inf
ROOT
ATOM      1  C   UNL     1       9.700  11.344 -16.309  1.00  0.00     0.180 A 
ATOM      2  C   UNL     1      10.252  10.139 -16.778  1.00  0.00     0.208 A 
ATOM      3  C   UNL     1       9.975   8.948 -16.086  1.00  0.00     0.238 A 
ATOM      4  O   UNL     1      10.516   7.881 -16.478  1.00  0.00    -0.285 OA
ATOM      5  C   UNL     1       9.136   8.974 -14.947  1.00  0.00     0.111 A 
ATOM      6  C   UNL     1       8.755   7.823 -14.194  1.00  0.00     0.134 A 
ATOM      7  C   UNL     1       8.028   7.983 -13.008  1.00  0.00     0.093 A 
ATOM      8  C   UNL     1       7.611   9.243 -12.582  1.00  0.00     0.123 A 
ATOM      9  C   UNL     1       7.927  10.371 -13.343  1.00  0.00     0.094 A 
ATOM     10  C   UNL     1       8.683  10.247 -14.511  1.00  0.00     0.146 A 
ATOM     11  O   UNL     1       8.971  11.345 -15.199  1.00  0.00    -0.452 OA
ENDROOT
BRANCH   1  12
ATOM     12  C   UNL     1       9.927  12.635 -16.997  1.00  0.00     0.021 A 
ATOM     13  C   UNL     1       9.226  12.920 -18.182  1.00  0.00     0.016 A 
ATOM     14  C   UNL     1       9.442  14.124 -18.859  1.00  0.00     0.047 A 
ATOM     15  C   UNL     1      10.369  15.050 -18.372  1.00  0.00     0.115 A 
ATOM     16  C   UNL     1      10.873  13.562 -16.523  1.00  0.00     0.016 A 
ATOM     17  C   UNL     1      11.087  14.765 -17.204  1.00  0.00     0.047 A 
BRANCH  15  18
ATOM     18  O   UNL     1      10.573  16.245 -19.057  1.00  0.00    -0.508 OA
ATOM     19  H   UNL     1      11.324  16.879 -18.806  1.00  0.00     0.293 HD
ENDBRANCH  15  18
ENDBRANCH   1  12
BRANCH   2  20
ATOM     20  O   UNL     1      11.096  10.139 -17.892  1.00  0.00    -0.502 OA
ATOM     21  H   UNL     1      11.679  10.932 -18.132  1.00  0.00     0.293 HD
ENDBRANCH   2  20
BRANCH   6  22
ATOM     22  O   UNL     1       9.041   6.510 -14.579  1.00  0.00    -0.507 OA
ATOM     23  H   UNL     1       9.680   5.896 -14.098  1.00  0.00     0.293 HD
ENDBRANCH   6  22
BRANCH   8  24
ATOM     24  O   UNL     1       6.875   9.363 -11.406  1.00  0.00    -0.508 OA
ATOM     25  H   UNL     1       5.884   9.575 -11.420  1.00  0.00     0.293 HD
ENDBRANCH   8  24
TORSDOF 5
ENDMDL
MODEL 7
REMARK VINA RESULT:    -6.067      3.933      8.180
REMARK INTER + INTRA:          -7.426
REMARK INTER:                  -7.534
REMARK INTRA:                   0.108
REMARK UNBOUND:                -0.295
REMARK SMILES O=c1c(O)c(-c2ccc(O)cc2)oc2cc(O)cc(O)c12
REMARK SMILES IDX 5 1 3 2 2 3 1 4 21 5 19 6 18 7 16 8 15 9 14 10 13 11 6 12
REMARK SMILES IDX 7 13 8 14 9 15 12 16 11 17 10 18 4 20 20 22 17 24
REMARK H PARENT 10 19 4 21 20 23 17 25
REMARK Flexibility Score: inf
ROOT
ATOM      1  C   UNL     1       8.530  11.274 -15.214  1.00  0.00     0.180 A 
ATOM      2  C   UNL     1       8.983  12.551 -14.839  1.00  0.00     0.208 A 
ATOM      3  C   UNL     1       9.344  13.467 -15.841  1.00  0.00     0.238 A 
ATOM      4  O   UNL     1       9.801  14.589 -15.498  1.00  0.00    -0.285 OA
ATOM      5  C   UNL     1       9.231  13.102 -17.203  1.00  0.00     0.111 A 
ATOM      6  C   UNL     1       9.530  13.964 -18.301  1.00  0.00     0.134 A 
ATOM      7  C   UNL     1       9.507  13.454 -19.605  1.00  0.00     0.093 A 
ATOM      8  C   UNL     1       9.133  12.135 -19.858  1.00  0.00     0.123 A 
ATOM      9  C   UNL     1       8.781  11.300 -18.796  1.00  0.00     0.094 A 
ATOM     10  C   UNL     1       8.830  11.769 -17.481  1.00  0.00     0.146 A 
ATOM     11  O   UNL     1       8.497  10.939 -16.499  1.00  0.00    -0.452 OA
ENDROOT
BRANCH   1  12
ATOM     12  C   UNL     1       8.109  10.264 -14.218  1.00  0.00     0.021 A 
ATOM     13  C   UNL     1       7.266  10.644 -13.159  1.00  0.00     0.016 A 
ATOM     14  C   UNL     1       6.875   9.710 -12.196  1.00  0.00     0.047 A 
ATOM     15  C   UNL     1       7.331   8.390 -12.268  1.00  0.00     0.115 A 
ATOM     16  C   UNL     1       8.580   8.939 -14.274  1.00  0.00     0.016 A 
ATOM     17  C   UNL     1       8.187   8.007 -13.307  1.00  0.00     0.047 A 
BRANCH  15  18
ATOM     18  O   UNL     1       6.932   7.471 -11.300  1.00  0.00    -0.508 OA
ATOM     19  H   UNL     1       6.349   7.745 -10.517  1.00  0.00     0.293 HD
ENDBRANCH  15  18
ENDBRANCH   1  12
BRANCH   2  20
ATOM     20  O   UNL     1       9.108  12.883 -13.487  1.00  0.00    -0.502 OA
ATOM     21  H   UNL     1       8.938  13.820 -13.140  1.00  0.00     0.293 HD
ENDBRANCH   2  20
BRANCH   6  22
ATOM     22  O   UNL     1       9.826  15.323 -18.167  1.00  0.00    -0.507 OA
ATOM     23  H   UNL     1      10.715  15.691 -17.865  1.00  0.00     0.293 HD
ENDBRANCH   6  22
BRANCH   8  24
ATOM     24  O   UNL     1       9.107  11.666 -21.169  1.00  0.00    -0.508 OA
ATOM     25  H   UNL     1       8.781  12.247 -21.932  1.00  0.00     0.293 HD
ENDBRANCH   8  24
TORSDOF 5
ENDMDL
MODEL 8
REMARK VINA RESULT:    -5.938      2.991      5.004
REMARK INTER + INTRA:          -7.275
REMARK INTER:                  -7.023
REMARK INTRA:                  -0.252
REMARK UNBOUND:                -0.295
REMARK SMILES O=c1c(O)c(-c2ccc(O)cc2)oc2cc(O)cc(O)c12
REMARK SMILES IDX 5 1 3 2 2 3 1 4 21 5 19 6 18 7 16 8 15 9 14 10 13 11 6 12
REMARK SMILES IDX 7 13 8 14 9 15 12 16 11 17 10 18 4 20 20 22 17 24
REMARK H PARENT 10 19 4 21 20 23 17 25
REMARK Flexibility Score: inf
ROOT
ATOM      1  C   UNL     1       8.894  13.195 -18.441  1.00  0.00     0.180 A 
ATOM      2  C   UNL     1       7.987  13.314 -17.373  1.00  0.00     0.208 A 
ATOM      3  C   UNL     1       8.033  12.370 -16.333  1.00  0.00     0.238 A 
ATOM      4  O   UNL     1       7.183  12.450 -15.408  1.00  0.00    -0.285 OA
ATOM      5  C   UNL     1       8.994  11.332 -16.365  1.00  0.00     0.111 A 
ATOM      6  C   UNL     1       9.156  10.346 -15.346  1.00  0.00     0.134 A 
ATOM      7  C   UNL     1      10.052   9.288 -15.545  1.00  0.00     0.093 A 
ATOM      8  C   UNL     1      10.838   9.216 -16.694  1.00  0.00     0.123 A 
ATOM      9  C   UNL     1      10.730  10.207 -17.670  1.00  0.00     0.094 A 
ATOM     10  C   UNL     1       9.819  11.255 -17.517  1.00  0.00     0.146 A 
ATOM     11  O   UNL     1       9.740  12.172 -18.474  1.00  0.00    -0.452 OA
ENDROOT
BRANCH   1  12
ATOM     12  C   UNL     1       8.925  14.163 -19.560  1.00  0.00     0.021 A 
ATOM     13  C   UNL     1       8.428  13.783 -20.819  1.00  0.00     0.016 A 
ATOM     14  C   UNL     1       8.468  14.674 -21.894  1.00  0.00     0.047 A 
ATOM     15  C   UNL     1       9.018  15.950 -21.732  1.00  0.00     0.115 A 
ATOM     16  C   UNL     1       9.495  15.441 -19.408  1.00  0.00     0.016 A 
ATOM     17  C   UNL     1       9.534  16.330 -20.487  1.00  0.00     0.047 A 
BRANCH  15  18
ATOM     18  O   UNL     1       9.050  16.827 -22.814  1.00  0.00    -0.508 OA
ATOM     19  H   UNL     1       8.521  16.645 -23.659  1.00  0.00     0.293 HD
ENDBRANCH  15  18
ENDBRANCH   1  12
BRANCH   2  20
ATOM     20  O   UNL     1       7.032  14.334 -17.372  1.00  0.00    -0.502 OA
ATOM     21  H   UNL     1       7.274  15.303 -17.206  1.00  0.00     0.293 HD
ENDBRANCH   2  20
BRANCH   6  22
ATOM     22  O   UNL     1       8.487  10.376 -14.119  1.00  0.00    -0.507 OA
ATOM     23  H   UNL     1       8.324   9.571 -13.533  1.00  0.00     0.293 HD
ENDBRANCH   6  22
BRANCH   8  24
ATOM     24  O   UNL     1      11.730   8.157 -16.851  1.00  0.00    -0.508 OA
ATOM     25  H   UNL     1      11.957   7.788 -17.766  1.00  0.00     0.293 HD
ENDBRANCH   8  24
TORSDOF 5
ENDMDL
MODEL 9
REMARK VINA RESULT:    -5.894      4.029      6.998
REMARK INTER + INTRA:          -7.223
REMARK INTER:                  -7.040
REMARK INTRA:                  -0.183
REMARK UNBOUND:                -0.295
REMARK SMILES O=c1c(O)c(-c2ccc(O)cc2)oc2cc(O)cc(O)c12
REMARK SMILES IDX 5 1 3 2 2 3 1 4 21 5 19 6 18 7 16 8 15 9 14 10 13 11 6 12
REMARK SMILES IDX 7 13 8 14 9 15 12 16 11 17 10 18 4 20 20 22 17 24
REMARK H PARENT 10 19 4 21 20 23 17 25
REMARK Flexibility Score: inf
ROOT
ATOM      1  C   UNL     1       9.061  11.776 -15.679  1.00  0.00     0.180 A 
ATOM      2  C   UNL     1       8.664  11.916 -14.338  1.00  0.00     0.208 A 
ATOM      3  C   UNL     1       8.181  10.791 -13.649  1.00  0.00     0.238 A 
ATOM      4  O   UNL     1       7.776  10.935 -12.466  1.00  0.00    -0.285 OA
ATOM      5  C   UNL     1       8.119   9.538 -14.304  1.00  0.00     0.111 A 
ATOM      6  C   UNL     1       7.686   8.324 -13.690  1.00  0.00     0.134 A 
ATOM      7  C   UNL     1       7.540   7.170 -14.470  1.00  0.00     0.093 A 
ATOM      8  C   UNL     1       7.874   7.167 -15.824  1.00  0.00     0.123 A 
ATOM      9  C   UNL     1       8.355   8.334 -16.420  1.00  0.00     0.094 A 
ATOM     10  C   UNL     1       8.477   9.511 -15.677  1.00  0.00     0.146 A 
ATOM     11  O   UNL     1       8.929  10.601 -16.285  1.00  0.00    -0.452 OA
ENDROOT
BRANCH   1  12
ATOM     12  C   UNL     1       9.602  12.909 -16.463  1.00  0.00     0.021 A 
ATOM     13  C   UNL     1       8.895  13.376 -17.584  1.00  0.00     0.016 A 
ATOM     14  C   UNL     1       9.400  14.429 -18.352  1.00  0.00     0.047 A 
ATOM     15  C   UNL     1      10.623  15.019 -18.020  1.00  0.00     0.115 A 
ATOM     16  C   UNL     1      10.842  13.493 -16.146  1.00  0.00     0.016 A 
ATOM     17  C   UNL     1      11.345  14.547 -16.917  1.00  0.00     0.047 A 
BRANCH  15  18
ATOM     18  O   UNL     1      11.113  16.069 -18.793  1.00  0.00    -0.508 OA
ATOM     19  H   UNL     1      11.127  17.021 -18.446  1.00  0.00     0.293 HD
ENDBRANCH  15  18
ENDBRANCH   1  12
BRANCH   2  20
ATOM     20  O   UNL     1       8.713  13.168 -13.718  1.00  0.00    -0.502 OA
ATOM     21  H   UNL     1       8.067  13.437 -12.986  1.00  0.00     0.293 HD
ENDBRANCH   2  20
BRANCH   6  22
ATOM     22  O   UNL     1       7.414   8.194 -12.325  1.00  0.00    -0.507 OA
ATOM     23  H   UNL     1       7.980   7.671 -11.674  1.00  0.00     0.293 HD
ENDBRANCH   6  22
BRANCH   8  24
ATOM     24  O   UNL     1       7.732   5.997 -16.565  1.00  0.00    -0.508 OA
ATOM     25  H   UNL     1       6.981   5.342 -16.381  1.00  0.00     0.293 HD
ENDBRANCH   8  24
TORSDOF 5
ENDMDL
