MODEL 1
REMARK VINA RESULT:    -7.294      0.000      0.000
REMARK INTER + INTRA:          -9.083
REMARK INTER:                  -8.786
REMARK INTRA:                  -0.297
REMARK UNBOUND:                -0.297
REMARK SMILES O=c1c(O)c(-c2ccc(O)cc2O)oc2cc(O)cc(O)c12
REMARK SMILES IDX 5 1 3 2 2 3 1 4 22 5 20 6 19 7 17 8 16 9 15 10 14 11 6 12
REMARK SMILES IDX 8 13 7 14 9 15 11 16 12 17 10 18 13 20 4 22 21 24 18 26
REMARK H PARENT 10 19 13 21 4 23 21 25 18 27
REMARK Flexibility Score: inf
ROOT
ATOM      1  C   UNL     1     -15.869  35.874  -1.731  1.00  0.00     0.184 A 
ATOM      2  C   UNL     1     -17.013  36.607  -2.084  1.00  0.00     0.208 A 
ATOM      3  C   UNL     1     -17.811  37.158  -1.068  1.00  0.00     0.238 A 
ATOM      4  O   UNL     1     -18.865  37.765  -1.389  1.00  0.00    -0.285 OA
ATOM      5  C   UNL     1     -17.441  36.985   0.288  1.00  0.00     0.111 A 
ATOM      6  C   UNL     1     -18.153  37.532   1.398  1.00  0.00     0.134 A 
ATOM      7  C   UNL     1     -17.769  37.190   2.700  1.00  0.00     0.093 A 
ATOM      8  C   UNL     1     -16.660  36.374   2.933  1.00  0.00     0.123 A 
ATOM      9  C   UNL     1     -15.924  35.882   1.858  1.00  0.00     0.094 A 
ATOM     10  C   UNL     1     -16.304  36.176   0.547  1.00  0.00     0.146 A 
ATOM     11  O   UNL     1     -15.582  35.678  -0.450  1.00  0.00    -0.451 OA
ENDROOT
BRANCH   1  12
ATOM     12  C   UNL     1     -14.970  35.287  -2.752  1.00  0.00     0.063 A 
ATOM     13  C   UNL     1     -13.563  35.544  -4.722  1.00  0.00     0.047 A 
ATOM     14  C   UNL     1     -14.431  36.090  -3.774  1.00  0.00     0.020 A 
ATOM     15  C   UNL     1     -13.211  34.191  -4.656  1.00  0.00     0.119 A 
ATOM     16  C   UNL     1     -13.731  33.388  -3.638  1.00  0.00     0.093 A 
ATOM     17  C   UNL     1     -14.606  33.928  -2.683  1.00  0.00     0.130 A 
BRANCH  15  18
ATOM     18  O   UNL     1     -12.345  33.636  -5.597  1.00  0.00    -0.508 OA
ATOM     19  H   UNL     1     -11.653  34.200  -6.076  1.00  0.00     0.293 HD
ENDBRANCH  15  18
BRANCH  17  20
ATOM     20  O   UNL     1     -15.122  33.112  -1.675  1.00  0.00    -0.507 OA
ATOM     21  H   UNL     1     -14.902  32.124  -1.627  1.00  0.00     0.293 HD
ENDBRANCH  17  20
ENDBRANCH   1  12
BRANCH   2  22
ATOM     22  O   UNL     1     -17.365  36.753  -3.429  1.00  0.00    -0.502 OA
ATOM     23  H   UNL     1     -17.759  35.994  -3.974  1.00  0.00     0.293 HD
ENDBRANCH   2  22
BRANCH   6  24
ATOM     24  O   UNL     1     -19.217  38.431   1.277  1.00  0.00    -0.507 OA
ATOM     25  H   UNL     1     -19.384  39.211   1.894  1.00  0.00     0.293 HD
ENDBRANCH   6  24
BRANCH   8  26
ATOM     26  O   UNL     1     -16.276  36.051   4.234  1.00  0.00    -0.508 OA
ATOM     27  H   UNL     1     -16.942  36.046   4.998  1.00  0.00     0.293 HD
ENDBRANCH   8  26
TORSDOF 6
ENDMDL
MODEL 2
REMARK VINA RESULT:    -7.237      6.945      9.449
REMARK INTER + INTRA:          -9.014
REMARK INTER:                  -8.531
REMARK INTRA:                  -0.483
REMARK UNBOUND:                -0.297
REMARK SMILES O=c1c(O)c(-c2ccc(O)cc2O)oc2cc(O)cc(O)c12
REMARK SMILES IDX 5 1 3 2 2 3 1 4 22 5 20 6 19 7 17 8 16 9 15 10 14 11 6 12
REMARK SMILES IDX 8 13 7 14 9 15 11 16 12 17 10 18 13 20 4 22 21 24 18 26
REMARK H PARENT 10 19 13 21 4 23 21 25 18 27
REMARK Flexibility Score: inf
ROOT
ATOM      1  C   UNL     1     -11.751  38.775  -7.040  1.00  0.00     0.184 A 
ATOM      2  C   UNL     1     -11.128  38.768  -8.300  1.00  0.00     0.208 A 
ATOM      3  C   UNL     1     -11.853  39.202  -9.421  1.00  0.00     0.238 A 
ATOM      4  O   UNL     1     -11.309  39.139 -10.554  1.00  0.00    -0.285 OA
ATOM      5  C   UNL     1     -13.185  39.657  -9.265  1.00  0.00     0.111 A 
ATOM      6  C   UNL     1     -14.000  40.156 -10.326  1.00  0.00     0.134 A 
ATOM      7  C   UNL     1     -15.345  40.459 -10.078  1.00  0.00     0.093 A 
ATOM      8  C   UNL     1     -15.885  40.342  -8.796  1.00  0.00     0.123 A 
ATOM      9  C   UNL     1     -15.083  39.912  -7.743  1.00  0.00     0.094 A 
ATOM     10  C   UNL     1     -13.747  39.567  -7.965  1.00  0.00     0.146 A 
ATOM     11  O   UNL     1     -13.020  39.150  -6.936  1.00  0.00    -0.451 OA
ENDROOT
BRANCH   1  12
ATOM     12  C   UNL     1     -11.037  38.354  -5.812  1.00  0.00     0.063 A 
ATOM     13  C   UNL     1      -9.453  38.829  -4.026  1.00  0.00     0.047 A 
ATOM     14  C   UNL     1     -10.107  39.214  -5.199  1.00  0.00     0.020 A 
ATOM     15  C   UNL     1      -9.726  37.586  -3.444  1.00  0.00     0.119 A 
ATOM     16  C   UNL     1     -10.656  36.731  -4.039  1.00  0.00     0.093 A 
ATOM     17  C   UNL     1     -11.317  37.108  -5.218  1.00  0.00     0.130 A 
BRANCH  15  18
ATOM     18  O   UNL     1      -9.079  37.192  -2.274  1.00  0.00    -0.508 OA
ATOM     19  H   UNL     1      -9.276  36.302  -1.834  1.00  0.00     0.293 HD
ENDBRANCH  15  18
BRANCH  17  20
ATOM     20  O   UNL     1     -12.239  36.241  -5.805  1.00  0.00    -0.507 OA
ATOM     21  H   UNL     1     -13.013  36.586  -6.361  1.00  0.00     0.293 HD
ENDBRANCH  17  20
ENDBRANCH   1  12
BRANCH   2  22
ATOM     22  O   UNL     1      -9.817  38.302  -8.430  1.00  0.00    -0.502 OA
ATOM     23  H   UNL     1      -9.266  37.998  -7.636  1.00  0.00     0.293 HD
ENDBRANCH   2  22
BRANCH   6  24
ATOM     24  O   UNL     1     -13.534  40.398 -11.621  1.00  0.00    -0.507 OA
ATOM     25  H   UNL     1     -13.399  41.313 -12.023  1.00  0.00     0.293 HD
ENDBRANCH   6  24
BRANCH   8  26
ATOM     26  O   UNL     1     -17.221  40.660  -8.556  1.00  0.00    -0.508 OA
ATOM     27  H   UNL     1     -17.659  41.466  -8.987  1.00  0.00     0.293 HD
ENDBRANCH   8  26
TORSDOF 6
ENDMDL
MODEL 3
REMARK VINA RESULT:    -7.156      1.944      6.855
REMARK INTER + INTRA:          -8.917
REMARK INTER:                  -8.452
REMARK INTRA:                  -0.465
REMARK UNBOUND:                -0.297
REMARK SMILES O=c1c(O)c(-c2ccc(O)cc2O)oc2cc(O)cc(O)c12
REMARK SMILES IDX 5 1 3 2 2 3 1 4 22 5 20 6 19 7 17 8 16 9 15 10 14 11 6 12
REMARK SMILES IDX 8 13 7 14 9 15 11 16 12 17 10 18 13 20 4 22 21 24 18 26
REMARK H PARENT 10 19 13 21 4 23 21 25 18 27
REMARK Flexibility Score: inf
ROOT
ATOM      1  C   UNL     1     -15.030  36.291  -0.501  1.00  0.00     0.184 A 
ATOM      2  C   UNL     1     -13.775  36.923  -0.502  1.00  0.00     0.208 A 
ATOM      3  C   UNL     1     -12.829  36.559  -1.472  1.00  0.00     0.238 A 
ATOM      4  O   UNL     1     -11.688  37.088  -1.432  1.00  0.00    -0.285 OA
ATOM      5  C   UNL     1     -13.157  35.582  -2.444  1.00  0.00     0.111 A 
ATOM      6  C   UNL     1     -12.289  35.164  -3.498  1.00  0.00     0.134 A 
ATOM      7  C   UNL     1     -12.671  34.099  -4.324  1.00  0.00     0.093 A 
ATOM      8  C   UNL     1     -13.913  33.481  -4.174  1.00  0.00     0.123 A 
ATOM      9  C   UNL     1     -14.791  33.920  -3.186  1.00  0.00     0.094 A 
ATOM     10  C   UNL     1     -14.425  34.956  -2.323  1.00  0.00     0.146 A 
ATOM     11  O   UNL     1     -15.286  35.336  -1.387  1.00  0.00    -0.451 OA
ENDROOT
BRANCH   1  12
ATOM     12  C   UNL     1     -16.083  36.645   0.478  1.00  0.00     0.063 A 
ATOM     13  C   UNL     1     -17.946  38.059   1.155  1.00  0.00     0.047 A 
ATOM     14  C   UNL     1     -16.935  37.740   0.245  1.00  0.00     0.020 A 
ATOM     15  C   UNL     1     -18.128  37.281   2.305  1.00  0.00     0.119 A 
ATOM     16  C   UNL     1     -17.294  36.184   2.539  1.00  0.00     0.093 A 
ATOM     17  C   UNL     1     -16.275  35.859   1.632  1.00  0.00     0.130 A 
BRANCH  15  18
ATOM     18  O   UNL     1     -19.133  37.590   3.219  1.00  0.00    -0.508 OA
ATOM     19  H   UNL     1     -19.883  36.940   3.419  1.00  0.00     0.293 HD
ENDBRANCH  15  18
BRANCH  17  20
ATOM     20  O   UNL     1     -15.447  34.764   1.882  1.00  0.00    -0.507 OA
ATOM     21  H   UNL     1     -15.596  33.871   1.427  1.00  0.00     0.293 HD
ENDBRANCH  17  20
ENDBRANCH   1  12
BRANCH   2  22
ATOM     22  O   UNL     1     -13.470  37.875   0.475  1.00  0.00    -0.502 OA
ATOM     23  H   UNL     1     -13.993  37.955   1.339  1.00  0.00     0.293 HD
ENDBRANCH   2  22
BRANCH   6  24
ATOM     24  O   UNL     1     -11.067  35.776  -3.792  1.00  0.00    -0.507 OA
ATOM     25  H   UNL     1     -10.626  36.483  -3.224  1.00  0.00     0.293 HD
ENDBRANCH   6  24
BRANCH   8  26
ATOM     26  O   UNL     1     -14.291  32.431  -5.010  1.00  0.00    -0.508 OA
ATOM     27  H   UNL     1     -15.266  32.220  -5.189  1.00  0.00     0.293 HD
ENDBRANCH   8  26
TORSDOF 6
ENDMDL
MODEL 4
REMARK VINA RESULT:    -7.136      6.502      9.135
REMARK INTER + INTRA:          -8.893
REMARK INTER:                  -8.465
REMARK INTRA:                  -0.428
REMARK UNBOUND:                -0.297
REMARK SMILES O=c1c(O)c(-c2ccc(O)cc2O)oc2cc(O)cc(O)c12
REMARK SMILES IDX 5 1 3 2 2 3 1 4 22 5 20 6 19 7 17 8 16 9 15 10 14 11 6 12
REMARK SMILES IDX 8 13 7 14 9 15 11 16 12 17 10 18 13 20 4 22 21 24 18 26
REMARK H PARENT 10 19 13 21 4 23 21 25 18 27
REMARK Flexibility Score: inf
ROOT
ATOM      1  C   UNL     1     -12.447  39.043  -6.189  1.00  0.00     0.184 A 
ATOM      2  C   UNL     1     -13.800  38.669  -6.150  1.00  0.00     0.208 A 
ATOM      3  C   UNL     1     -14.660  39.114  -7.166  1.00  0.00     0.238 A 
ATOM      4  O   UNL     1     -15.882  38.822  -7.095  1.00  0.00    -0.285 OA
ATOM      5  C   UNL     1     -14.151  39.911  -8.220  1.00  0.00     0.111 A 
ATOM      6  C   UNL     1     -14.923  40.385  -9.324  1.00  0.00     0.134 A 
ATOM      7  C   UNL     1     -14.345  41.272 -10.240  1.00  0.00     0.093 A 
ATOM      8  C   UNL     1     -13.005  41.650 -10.129  1.00  0.00     0.123 A 
ATOM      9  C   UNL     1     -12.227  41.147  -9.089  1.00  0.00     0.094 A 
ATOM     10  C   UNL     1     -12.786  40.289  -8.139  1.00  0.00     0.146 A 
ATOM     11  O   UNL     1     -12.012  39.841  -7.156  1.00  0.00    -0.451 OA
ENDROOT
BRANCH   1  12
ATOM     12  C   UNL     1     -11.480  38.589  -5.162  1.00  0.00     0.063 A 
ATOM     13  C   UNL     1     -10.605  38.696  -2.893  1.00  0.00     0.047 A 
ATOM     14  C   UNL     1     -11.499  39.143  -3.870  1.00  0.00     0.020 A 
ATOM     15  C   UNL     1      -9.688  37.682  -3.191  1.00  0.00     0.119 A 
ATOM     16  C   UNL     1      -9.669  37.117  -4.469  1.00  0.00     0.093 A 
ATOM     17  C   UNL     1     -10.562  37.561  -5.456  1.00  0.00     0.130 A 
BRANCH  15  18
ATOM     18  O   UNL     1      -8.792  37.229  -2.225  1.00  0.00    -0.508 OA
ATOM     19  H   UNL     1      -7.929  36.764  -2.480  1.00  0.00     0.293 HD
ENDBRANCH  15  18
BRANCH  17  20
ATOM     20  O   UNL     1     -10.527  36.991  -6.729  1.00  0.00    -0.507 OA
ATOM     21  H   UNL     1     -11.377  36.797  -7.247  1.00  0.00     0.293 HD
ENDBRANCH  17  20
ENDBRANCH   1  12
BRANCH   2  22
ATOM     22  O   UNL     1     -14.282  37.893  -5.092  1.00  0.00    -0.502 OA
ATOM     23  H   UNL     1     -15.055  38.189  -4.507  1.00  0.00     0.293 HD
ENDBRANCH   2  22
BRANCH   6  24
ATOM     24  O   UNL     1     -16.242  39.996  -9.578  1.00  0.00    -0.507 OA
ATOM     25  H   UNL     1     -16.675  39.993 -10.489  1.00  0.00     0.293 HD
ENDBRANCH   6  24
BRANCH   8  26
ATOM     26  O   UNL     1     -12.433  42.521 -11.055  1.00  0.00    -0.508 OA
ATOM     27  H   UNL     1     -12.828  42.645 -11.980  1.00  0.00     0.293 HD
ENDBRANCH   8  26
TORSDOF 6
ENDMDL
MODEL 5
REMARK VINA RESULT:    -7.078      6.259      9.825
REMARK INTER + INTRA:          -8.823
REMARK INTER:                  -8.538
REMARK INTRA:                  -0.285
REMARK UNBOUND:                -0.297
REMARK SMILES O=c1c(O)c(-c2ccc(O)cc2O)oc2cc(O)cc(O)c12
REMARK SMILES IDX 5 1 3 2 2 3 1 4 22 5 20 6 19 7 17 8 16 9 15 10 14 11 6 12
REMARK SMILES IDX 8 13 7 14 9 15 11 16 12 17 10 18 13 20 4 22 21 24 18 26
REMARK H PARENT 10 19 13 21 4 23 21 25 18 27
REMARK Flexibility Score: inf
ROOT
ATOM      1  C   UNL     1     -11.356  39.129  -5.673  1.00  0.00     0.184 A 
ATOM      2  C   UNL     1     -10.981  38.133  -6.590  1.00  0.00     0.208 A 
ATOM      3  C   UNL     1     -11.237  38.333  -7.955  1.00  0.00     0.238 A 
ATOM      4  O   UNL     1     -10.950  37.413  -8.765  1.00  0.00    -0.285 OA
ATOM      5  C   UNL     1     -11.846  39.536  -8.389  1.00  0.00     0.111 A 
ATOM      6  C   UNL     1     -12.116  39.862  -9.753  1.00  0.00     0.134 A 
ATOM      7  C   UNL     1     -12.837  41.024 -10.054  1.00  0.00     0.093 A 
ATOM      8  C   UNL     1     -13.241  41.903  -9.046  1.00  0.00     0.123 A 
ATOM      9  C   UNL     1     -12.932  41.623  -7.718  1.00  0.00     0.094 A 
ATOM     10  C   UNL     1     -12.245  40.454  -7.383  1.00  0.00     0.146 A 
ATOM     11  O   UNL     1     -11.980  40.219  -6.103  1.00  0.00    -0.451 OA
ENDROOT
BRANCH   1  12
ATOM     12  C   UNL     1     -11.094  38.993  -4.221  1.00  0.00     0.063 A 
ATOM     13  C   UNL     1     -11.903  38.605  -1.958  1.00  0.00     0.047 A 
ATOM     14  C   UNL     1     -12.152  38.759  -3.324  1.00  0.00     0.020 A 
ATOM     15  C   UNL     1     -10.592  38.671  -1.470  1.00  0.00     0.119 A 
ATOM     16  C   UNL     1      -9.534  38.891  -2.355  1.00  0.00     0.093 A 
ATOM     17  C   UNL     1      -9.775  39.049  -3.728  1.00  0.00     0.130 A 
BRANCH  15  18
ATOM     18  O   UNL     1     -10.333  38.518  -0.110  1.00  0.00    -0.508 OA
ATOM     19  H   UNL     1     -11.075  38.556   0.578  1.00  0.00     0.293 HD
ENDBRANCH  15  18
BRANCH  17  20
ATOM     20  O   UNL     1      -8.708  39.274  -4.599  1.00  0.00    -0.507 OA
ATOM     21  H   UNL     1      -7.788  38.885  -4.423  1.00  0.00     0.293 HD
ENDBRANCH  17  20
ENDBRANCH   1  12
BRANCH   2  22
ATOM     22  O   UNL     1     -10.394  36.948  -6.137  1.00  0.00    -0.502 OA
ATOM     23  H   UNL     1      -9.991  36.265  -6.768  1.00  0.00     0.293 HD
ENDBRANCH   2  22
BRANCH   6  24
ATOM     24  O   UNL     1     -11.676  39.100 -10.839  1.00  0.00    -0.507 OA
ATOM     25  H   UNL     1     -12.270  38.756 -11.578  1.00  0.00     0.293 HD
ENDBRANCH   6  24
BRANCH   8  26
ATOM     26  O   UNL     1     -13.946  43.065  -9.357  1.00  0.00    -0.508 OA
ATOM     27  H   UNL     1     -14.761  43.045  -9.961  1.00  0.00     0.293 HD
ENDBRANCH   8  26
TORSDOF 6
ENDMDL
MODEL 6
REMARK VINA RESULT:    -7.078      4.550      6.625
REMARK INTER + INTRA:          -8.822
REMARK INTER:                  -8.423
REMARK INTRA:                  -0.399
REMARK UNBOUND:                -0.297
REMARK SMILES O=c1c(O)c(-c2ccc(O)cc2O)oc2cc(O)cc(O)c12
REMARK SMILES IDX 5 1 3 2 2 3 1 4 22 5 20 6 19 7 17 8 16 9 15 10 14 11 6 12
REMARK SMILES IDX 8 13 7 14 9 15 11 16 12 17 10 18 13 20 4 22 21 24 18 26
REMARK H PARENT 10 19 13 21 4 23 21 25 18 27
REMARK Flexibility Score: inf
ROOT
ATOM      1  C   UNL     1     -14.781  38.993  -5.889  1.00  0.00     0.184 A 
ATOM      2  C   UNL     1     -14.134  37.749  -5.795  1.00  0.00     0.208 A 
ATOM      3  C   UNL     1     -14.544  36.841  -4.807  1.00  0.00     0.238 A 
ATOM      4  O   UNL     1     -13.923  35.752  -4.692  1.00  0.00    -0.285 OA
ATOM      5  C   UNL     1     -15.608  37.180  -3.936  1.00  0.00     0.111 A 
ATOM      6  C   UNL     1     -16.132  36.321  -2.923  1.00  0.00     0.134 A 
ATOM      7  C   UNL     1     -17.101  36.809  -2.038  1.00  0.00     0.093 A 
ATOM      8  C   UNL     1     -17.610  38.103  -2.169  1.00  0.00     0.123 A 
ATOM      9  C   UNL     1     -17.148  38.929  -3.190  1.00  0.00     0.094 A 
ATOM     10  C   UNL     1     -16.156  38.483  -4.067  1.00  0.00     0.146 A 
ATOM     11  O   UNL     1     -15.734  39.306  -5.020  1.00  0.00    -0.451 OA
ENDROOT
BRANCH   1  12
ATOM     12  C   UNL     1     -14.416  39.988  -6.924  1.00  0.00     0.063 A 
ATOM     13  C   UNL     1     -12.802  41.535  -7.888  1.00  0.00     0.047 A 
ATOM     14  C   UNL     1     -13.158  40.617  -6.897  1.00  0.00     0.020 A 
ATOM     15  C   UNL     1     -13.694  41.831  -8.925  1.00  0.00     0.119 A 
ATOM     16  C   UNL     1     -14.942  41.202  -8.967  1.00  0.00     0.093 A 
ATOM     17  C   UNL     1     -15.308  40.280  -7.975  1.00  0.00     0.130 A 
BRANCH  15  18
ATOM     18  O   UNL     1     -13.350  42.745  -9.919  1.00  0.00    -0.508 OA
ATOM     19  H   UNL     1     -14.001  43.000 -10.652  1.00  0.00     0.293 HD
ENDBRANCH  15  18
BRANCH  17  20
ATOM     20  O   UNL     1     -16.559  39.666  -8.027  1.00  0.00    -0.507 OA
ATOM     21  H   UNL     1     -16.843  39.105  -8.822  1.00  0.00     0.293 HD
ENDBRANCH  17  20
ENDBRANCH   1  12
BRANCH   2  22
ATOM     22  O   UNL     1     -13.077  37.443  -6.657  1.00  0.00    -0.502 OA
ATOM     23  H   UNL     1     -12.859  38.004  -7.472  1.00  0.00     0.293 HD
ENDBRANCH   2  22
BRANCH   6  24
ATOM     24  O   UNL     1     -15.759  34.983  -2.765  1.00  0.00    -0.507 OA
ATOM     25  H   UNL     1     -14.993  34.538  -3.246  1.00  0.00     0.293 HD
ENDBRANCH   6  24
BRANCH   8  26
ATOM     26  O   UNL     1     -18.585  38.576  -1.292  1.00  0.00    -0.508 OA
ATOM     27  H   UNL     1     -19.573  38.429  -1.469  1.00  0.00     0.293 HD
ENDBRANCH   8  26
TORSDOF 6
ENDMDL
MODEL 7
REMARK VINA RESULT:    -6.985      4.943      8.916
REMARK INTER + INTRA:          -8.710
REMARK INTER:                  -8.300
REMARK INTRA:                  -0.410
REMARK UNBOUND:                -0.297
REMARK SMILES O=c1c(O)c(-c2ccc(O)cc2O)oc2cc(O)cc(O)c12
REMARK SMILES IDX 5 1 3 2 2 3 1 4 22 5 20 6 19 7 17 8 16 9 15 10 14 11 6 12
REMARK SMILES IDX 8 13 7 14 9 15 11 16 12 17 10 18 13 20 4 22 21 24 18 26
REMARK H PARENT 10 19 13 21 4 23 21 25 18 27
REMARK Flexibility Score: inf
ROOT
ATOM      1  C   UNL     1     -12.564  35.965  -6.002  1.00  0.00     0.184 A 
ATOM      2  C   UNL     1     -12.853  37.339  -5.968  1.00  0.00     0.208 A 
ATOM      3  C   UNL     1     -12.429  38.151  -7.031  1.00  0.00     0.238 A 
ATOM      4  O   UNL     1     -12.641  39.390  -6.968  1.00  0.00    -0.285 OA
ATOM      5  C   UNL     1     -11.740  37.575  -8.126  1.00  0.00     0.111 A 
ATOM      6  C   UNL     1     -11.298  38.297  -9.277  1.00  0.00     0.134 A 
ATOM      7  C   UNL     1     -10.515  37.648 -10.239  1.00  0.00     0.093 A 
ATOM      8  C   UNL     1     -10.211  36.290 -10.124  1.00  0.00     0.123 A 
ATOM      9  C   UNL     1     -10.686  35.563  -9.035  1.00  0.00     0.094 A 
ATOM     10  C   UNL     1     -11.440  36.191  -8.041  1.00  0.00     0.146 A 
ATOM     11  O   UNL     1     -11.864  35.464  -7.013  1.00  0.00    -0.451 OA
ENDROOT
BRANCH   1  12
ATOM     12  C   UNL     1     -13.003  35.046  -4.926  1.00  0.00     0.063 A 
ATOM     13  C   UNL     1     -12.862  34.278  -2.620  1.00  0.00     0.047 A 
ATOM     14  C   UNL     1     -12.430  35.125  -3.644  1.00  0.00     0.020 A 
ATOM     15  C   UNL     1     -13.879  33.347  -2.861  1.00  0.00     0.119 A 
ATOM     16  C   UNL     1     -14.464  33.270  -4.128  1.00  0.00     0.093 A 
ATOM     17  C   UNL     1     -14.035  34.116  -5.162  1.00  0.00     0.130 A 
BRANCH  15  18
ATOM     18  O   UNL     1     -14.318  32.497  -1.847  1.00  0.00    -0.508 OA
ATOM     19  H   UNL     1     -15.218  32.036  -1.896  1.00  0.00     0.293 HD
ENDBRANCH  15  18
BRANCH  17  20
ATOM     20  O   UNL     1     -14.623  34.023  -6.423  1.00  0.00    -0.507 OA
ATOM     21  H   UNL     1     -14.871  34.849  -6.956  1.00  0.00     0.293 HD
ENDBRANCH  17  20
ENDBRANCH   1  12
BRANCH   2  22
ATOM     22  O   UNL     1     -13.523  37.887  -4.870  1.00  0.00    -0.502 OA
ATOM     23  H   UNL     1     -13.866  37.320  -4.104  1.00  0.00     0.293 HD
ENDBRANCH   2  22
BRANCH   6  24
ATOM     24  O   UNL     1     -11.624  39.632  -9.534  1.00  0.00    -0.507 OA
ATOM     25  H   UNL     1     -11.526  40.386  -8.871  1.00  0.00     0.293 HD
ENDBRANCH   6  24
BRANCH   8  26
ATOM     26  O   UNL     1      -9.443  35.649 -11.095  1.00  0.00    -0.508 OA
ATOM     27  H   UNL     1      -8.430  35.699 -11.087  1.00  0.00     0.293 HD
ENDBRANCH   8  26
TORSDOF 6
ENDMDL
MODEL 8
REMARK VINA RESULT:    -6.953      1.715      6.888
REMARK INTER + INTRA:          -8.672
REMARK INTER:                  -8.252
REMARK INTRA:                  -0.420
REMARK UNBOUND:                -0.297
REMARK SMILES O=c1c(O)c(-c2ccc(O)cc2O)oc2cc(O)cc(O)c12
REMARK SMILES IDX 5 1 3 2 2 3 1 4 22 5 20 6 19 7 17 8 16 9 15 10 14 11 6 12
REMARK SMILES IDX 8 13 7 14 9 15 11 16 12 17 10 18 13 20 4 22 21 24 18 26
REMARK H PARENT 10 19 13 21 4 23 21 25 18 27
REMARK Flexibility Score: inf
ROOT
ATOM      1  C   UNL     1     -16.061  36.354  -0.018  1.00  0.00     0.184 A 
ATOM      2  C   UNL     1     -15.213  35.258  -0.248  1.00  0.00     0.208 A 
ATOM      3  C   UNL     1     -14.810  34.971  -1.561  1.00  0.00     0.238 A 
ATOM      4  O   UNL     1     -14.096  33.955  -1.767  1.00  0.00    -0.285 OA
ATOM      5  C   UNL     1     -15.244  35.797  -2.627  1.00  0.00     0.111 A 
ATOM      6  C   UNL     1     -14.866  35.623  -3.993  1.00  0.00     0.134 A 
ATOM      7  C   UNL     1     -15.458  36.421  -4.979  1.00  0.00     0.093 A 
ATOM      8  C   UNL     1     -16.364  37.429  -4.642  1.00  0.00     0.123 A 
ATOM      9  C   UNL     1     -16.695  37.645  -3.307  1.00  0.00     0.094 A 
ATOM     10  C   UNL     1     -16.149  36.841  -2.304  1.00  0.00     0.146 A 
ATOM     11  O   UNL     1     -16.500  37.073  -1.044  1.00  0.00    -0.451 OA
ENDROOT
BRANCH   1  12
ATOM     12  C   UNL     1     -16.504  36.728   1.345  1.00  0.00     0.063 A 
ATOM     13  C   UNL     1     -15.988  37.529   3.585  1.00  0.00     0.047 A 
ATOM     14  C   UNL     1     -15.569  37.150   2.308  1.00  0.00     0.020 A 
ATOM     15  C   UNL     1     -17.348  37.501   3.916  1.00  0.00     0.119 A 
ATOM     16  C   UNL     1     -18.285  37.095   2.963  1.00  0.00     0.093 A 
ATOM     17  C   UNL     1     -17.873  36.711   1.678  1.00  0.00     0.130 A 
BRANCH  15  18
ATOM     18  O   UNL     1     -17.777  37.877   5.188  1.00  0.00    -0.508 OA
ATOM     19  H   UNL     1     -18.280  38.742   5.342  1.00  0.00     0.293 HD
ENDBRANCH  15  18
BRANCH  17  20
ATOM     20  O   UNL     1     -18.820  36.302   0.739  1.00  0.00    -0.507 OA
ATOM     21  H   UNL     1     -18.918  35.329   0.472  1.00  0.00     0.293 HD
ENDBRANCH  17  20
ENDBRANCH   1  12
BRANCH   2  22
ATOM     22  O   UNL     1     -14.808  34.450   0.819  1.00  0.00    -0.502 OA
ATOM     23  H   UNL     1     -15.330  33.631   1.109  1.00  0.00     0.293 HD
ENDBRANCH   2  22
BRANCH   6  24
ATOM     24  O   UNL     1     -13.901  34.708  -4.426  1.00  0.00    -0.507 OA
ATOM     25  H   UNL     1     -12.980  34.611  -4.027  1.00  0.00     0.293 HD
ENDBRANCH   6  24
BRANCH   8  26
ATOM     26  O   UNL     1     -16.937  38.229  -5.630  1.00  0.00    -0.508 OA
ATOM     27  H   UNL     1     -16.393  38.575  -6.413  1.00  0.00     0.293 HD
ENDBRANCH   8  26
TORSDOF 6
ENDMDL
MODEL 9
REMARK VINA RESULT:    -6.911      3.803      5.543
REMARK INTER + INTRA:          -8.622
REMARK INTER:                  -8.196
REMARK INTRA:                  -0.425
REMARK UNBOUND:                -0.297
REMARK SMILES O=c1c(O)c(-c2ccc(O)cc2O)oc2cc(O)cc(O)c12
REMARK SMILES IDX 5 1 3 2 2 3 1 4 22 5 20 6 19 7 17 8 16 9 15 10 14 11 6 12
REMARK SMILES IDX 8 13 7 14 9 15 11 16 12 17 10 18 13 20 4 22 21 24 18 26
REMARK H PARENT 10 19 13 21 4 23 21 25 18 27
REMARK Flexibility Score: inf
ROOT
ATOM      1  C   UNL     1     -17.583  37.255   1.980  1.00  0.00     0.184 A 
ATOM      2  C   UNL     1     -16.613  36.334   2.408  1.00  0.00     0.208 A 
ATOM      3  C   UNL     1     -16.618  35.910   3.747  1.00  0.00     0.238 A 
ATOM      4  O   UNL     1     -15.713  35.129   4.137  1.00  0.00    -0.285 OA
ATOM      5  C   UNL     1     -17.608  36.397   4.635  1.00  0.00     0.111 A 
ATOM      6  C   UNL     1     -17.733  36.005   6.003  1.00  0.00     0.134 A 
ATOM      7  C   UNL     1     -18.670  36.648   6.821  1.00  0.00     0.093 A 
ATOM      8  C   UNL     1     -19.529  37.621   6.306  1.00  0.00     0.123 A 
ATOM      9  C   UNL     1     -19.455  37.968   4.960  1.00  0.00     0.094 A 
ATOM     10  C   UNL     1     -18.506  37.371   4.126  1.00  0.00     0.146 A 
ATOM     11  O   UNL     1     -18.460  37.740   2.851  1.00  0.00    -0.451 OA
ENDROOT
BRANCH   1  12
ATOM     12  C   UNL     1     -17.650  37.725   0.577  1.00  0.00     0.063 A 
ATOM     13  C   UNL     1     -16.734  39.045  -1.251  1.00  0.00     0.047 A 
ATOM     14  C   UNL     1     -16.688  38.622   0.079  1.00  0.00     0.020 A 
ATOM     15  C   UNL     1     -17.735  38.570  -2.106  1.00  0.00     0.119 A 
ATOM     16  C   UNL     1     -18.689  37.669  -1.624  1.00  0.00     0.093 A 
ATOM     17  C   UNL     1     -18.651  37.241  -0.288  1.00  0.00     0.130 A 
BRANCH  15  18
ATOM     18  O   UNL     1     -17.791  38.986  -3.435  1.00  0.00    -0.508 OA
ATOM     19  H   UNL     1     -18.400  38.533  -4.106  1.00  0.00     0.293 HD
ENDBRANCH  15  18
BRANCH  17  20
ATOM     20  O   UNL     1     -19.613  36.346   0.180  1.00  0.00    -0.507 OA
ATOM     21  H   UNL     1     -19.560  35.948   1.111  1.00  0.00     0.293 HD
ENDBRANCH  17  20
ENDBRANCH   1  12
BRANCH   2  22
ATOM     22  O   UNL     1     -15.638  35.878   1.516  1.00  0.00    -0.502 OA
ATOM     23  H   UNL     1     -14.647  36.013   1.678  1.00  0.00     0.293 HD
ENDBRANCH   2  22
BRANCH   6  24
ATOM     24  O   UNL     1     -16.988  34.980   6.592  1.00  0.00    -0.507 OA
ATOM     25  H   UNL     1     -16.129  34.605   6.219  1.00  0.00     0.293 HD
ENDBRANCH   6  24
BRANCH   8  26
ATOM     26  O   UNL     1     -20.470  38.244   7.125  1.00  0.00    -0.508 OA
ATOM     27  H   UNL     1     -20.732  39.214   6.988  1.00  0.00     0.293 HD
ENDBRANCH   8  26
TORSDOF 6
ENDMDL
