MODEL 1
REMARK VINA RESULT:    -6.788      0.000      0.000
REMARK INTER + INTRA:         -12.277
REMARK INTER:                 -10.558
REMARK INTRA:                  -1.719
REMARK UNBOUND:                -1.719
REMARK SMILES C[C@@]12C[C@@]3(O)O[C@@H](O1)[C@]1(COC(=O)c4ccccc4)[C@H]3C[C@@]12O[C@H]1O[C@@H](CO)[C@@H](O)[C@@H](O)[C@@H]1O
REMARK SMILES IDX 1 1 2 2 3 3 4 4 20 5 21 6 22 7 9 8 7 9 8 10 6 11 23 12 24 13
REMARK SMILES IDX 33 14 25 15 31 16 26 17 29 18 34 19 32 21 27 23 28 24 30 26
REMARK SMILES IDX 5 28 10 30 11 31 12 32 13 33 14 34 15 35 19 36 16 37 18 38
REMARK SMILES IDX 17 39
REMARK H PARENT 34 20 32 22 28 25 30 27 5 29
REMARK Flexibility Score: inf
ROOT
ATOM      1  C   UNL     1     169.952 174.150 173.630  1.00  0.00     0.046 C 
ATOM      2  C   UNL     1     171.100 175.011 174.152  1.00  0.00     0.104 C 
ATOM      3  C   UNL     1     170.974 176.476 173.581  1.00  0.00     0.104 C 
ATOM      4  C   UNL     1     172.253 177.201 174.125  1.00  0.00     0.175 C 
ATOM      5  C   UNL     1     173.525 176.335 173.854  1.00  0.00     0.070 C 
ATOM      6  C   UNL     1     173.292 175.248 172.794  1.00  0.00     0.050 C 
ATOM      7  C   UNL     1     172.558 174.455 173.886  1.00  0.00     0.115 C 
ATOM      8  C   UNL     1     173.313 175.282 174.936  1.00  0.00     0.096 C 
ATOM      9  C   UNL     1     172.253 175.840 175.876  1.00  0.00     0.267 C 
ATOM     10  O   UNL     1     171.041 175.161 175.558  1.00  0.00    -0.342 OA
ATOM     11  O   UNL     1     172.121 177.209 175.531  1.00  0.00    -0.320 OA
ENDROOT
BRANCH   7  12
ATOM     12  O   UNL     1     172.784 173.048 173.776  1.00  0.00    -0.339 OA
BRANCH  12  13
ATOM     13  C   UNL     1     171.834 172.224 174.441  1.00  0.00     0.282 C 
ATOM     14  C   UNL     1     172.378 171.780 175.827  1.00  0.00     0.202 C 
ATOM     15  O   UNL     1     171.469 171.110 173.633  1.00  0.00    -0.341 OA
ATOM     16  C   UNL     1     173.484 170.718 175.718  1.00  0.00     0.179 C 
ATOM     17  C   UNL     1     172.497 170.144 173.434  1.00  0.00     0.178 C 
ATOM     18  C   UNL     1     173.058 169.593 174.770  1.00  0.00     0.177 C 
BRANCH  14  19
ATOM     19  O   UNL     1     171.335 171.332 176.660  1.00  0.00    -0.385 OA
ATOM     20  H   UNL     1     171.730 171.046 177.523  1.00  0.00     0.211 HD
ENDBRANCH  14  19
BRANCH  16  21
ATOM     21  O   UNL     1     174.680 171.302 175.270  1.00  0.00    -0.387 OA
ATOM     22  H   UNL     1     174.558 171.517 174.309  1.00  0.00     0.211 HD
ENDBRANCH  16  21
BRANCH  17  23
ATOM     23  C   UNL     1     173.558 170.608 172.408  1.00  0.00     0.191 C 
BRANCH  23  24
ATOM     24  O   UNL     1     174.188 169.503 171.812  1.00  0.00    -0.394 OA
ATOM     25  H   UNL     1     175.105 169.786 171.559  1.00  0.00     0.210 HD
ENDBRANCH  23  24
ENDBRANCH  17  23
BRANCH  18  26
ATOM     26  O   UNL     1     174.136 168.716 174.562  1.00  0.00    -0.387 OA
ATOM     27  H   UNL     1     174.901 169.074 175.085  1.00  0.00     0.211 HD
ENDBRANCH  18  26
ENDBRANCH  12  13
ENDBRANCH   7  12
BRANCH   4  28
ATOM     28  O   UNL     1     172.377 178.506 173.634  1.00  0.00    -0.365 OA
ATOM     29  H   UNL     1     171.490 178.939 173.742  1.00  0.00     0.214 HD
ENDBRANCH   4  28
BRANCH   8  30
ATOM     30  C   UNL     1     174.612 174.775 175.583  1.00  0.00     0.249 C 
BRANCH  30  31
ATOM     31  O   UNL     1     174.481 174.825 177.001  1.00  0.00    -0.461 OA
BRANCH  31  32
ATOM     32  C   UNL     1     174.772 173.739 177.832  1.00  0.00     0.338 C 
ATOM     33  O   UNL     1     175.739 172.975 177.559  1.00  0.00    -0.246 OA
BRANCH  32  34
ATOM     34  C   UNL     1     173.935 173.487 179.023  1.00  0.00     0.060 A 
ATOM     35  C   UNL     1     174.503 172.980 180.207  1.00  0.00     0.015 A 
ATOM     36  C   UNL     1     172.553 173.751 178.987  1.00  0.00     0.015 A 
ATOM     37  C   UNL     1     173.700 172.739 181.328  1.00  0.00     0.001 A 
ATOM     38  C   UNL     1     171.757 173.510 180.111  1.00  0.00     0.001 A 
ATOM     39  C   UNL     1     172.330 173.004 181.280  1.00  0.00     0.000 A 
ENDBRANCH  32  34
ENDBRANCH  31  32
ENDBRANCH  30  31
ENDBRANCH   8  30
TORSDOF 12
ENDMDL
MODEL 2
REMARK VINA RESULT:    -6.787      2.982      4.991
REMARK INTER + INTRA:         -12.275
REMARK INTER:                 -12.219
REMARK INTRA:                  -0.056
REMARK UNBOUND:                -1.719
REMARK SMILES C[C@@]12C[C@@]3(O)O[C@@H](O1)[C@]1(COC(=O)c4ccccc4)[C@H]3C[C@@]12O[C@H]1O[C@@H](CO)[C@@H](O)[C@@H](O)[C@@H]1O
REMARK SMILES IDX 1 1 2 2 3 3 4 4 20 5 21 6 22 7 9 8 7 9 8 10 6 11 23 12 24 13
REMARK SMILES IDX 33 14 25 15 31 16 26 17 29 18 34 19 32 21 27 23 28 24 30 26
REMARK SMILES IDX 5 28 10 30 11 31 12 32 13 33 14 34 15 35 19 36 16 37 18 38
REMARK SMILES IDX 17 39
REMARK H PARENT 34 20 32 22 28 25 30 27 5 29
REMARK Flexibility Score: inf
ROOT
ATOM      1  C   UNL     1     169.167 178.447 173.096  1.00  0.00     0.046 C 
ATOM      2  C   UNL     1     170.284 177.629 173.740  1.00  0.00     0.104 C 
ATOM      3  C   UNL     1     171.688 178.186 173.285  1.00  0.00     0.104 C 
ATOM      4  C   UNL     1     172.713 177.202 173.946  1.00  0.00     0.175 C 
ATOM      5  C   UNL     1     172.303 175.722 173.665  1.00  0.00     0.070 C 
ATOM      6  C   UNL     1     171.300 175.590 172.510  1.00  0.00     0.050 C 
ATOM      7  C   UNL     1     170.224 176.066 173.497  1.00  0.00     0.115 C 
ATOM      8  C   UNL     1     171.140 175.621 174.646  1.00  0.00     0.096 C 
ATOM      9  C   UNL     1     171.260 176.819 175.578  1.00  0.00     0.267 C 
ATOM     10  O   UNL     1     170.278 177.758 175.149  1.00  0.00    -0.342 OA
ATOM     11  O   UNL     1     172.551 177.357 175.341  1.00  0.00    -0.320 OA
ENDROOT
BRANCH   7  12
ATOM     12  O   UNL     1     168.968 175.418 173.283  1.00  0.00    -0.339 OA
BRANCH  12  13
ATOM     13  C   UNL     1     168.009 176.172 172.552  1.00  0.00     0.282 C 
ATOM     14  C   UNL     1     166.591 175.975 173.154  1.00  0.00     0.202 C 
ATOM     15  O   UNL     1     168.047 175.843 171.168  1.00  0.00    -0.341 OA
ATOM     16  C   UNL     1     165.999 174.591 172.840  1.00  0.00     0.179 C 
ATOM     17  C   UNL     1     167.590 174.534 170.844  1.00  0.00     0.178 C 
ATOM     18  C   UNL     1     166.149 174.268 171.351  1.00  0.00     0.177 C 
BRANCH  14  19
ATOM     19  O   UNL     1     165.717 176.998 172.738  1.00  0.00    -0.385 OA
ATOM     20  H   UNL     1     164.791 176.722 172.958  1.00  0.00     0.211 HD
ENDBRANCH  14  19
BRANCH  16  21
ATOM     21  O   UNL     1     166.629 173.603 173.616  1.00  0.00    -0.387 OA
ATOM     22  H   UNL     1     165.926 173.179 174.174  1.00  0.00     0.211 HD
ENDBRANCH  16  21
BRANCH  17  23
ATOM     23  C   UNL     1     168.628 173.439 171.186  1.00  0.00     0.191 C 
BRANCH  23  24
ATOM     24  O   UNL     1     168.004 172.190 171.330  1.00  0.00    -0.394 OA
ATOM     25  H   UNL     1     167.428 172.238 172.137  1.00  0.00     0.210 HD
ENDBRANCH  23  24
ENDBRANCH  17  23
BRANCH  18  26
ATOM     26  O   UNL     1     165.747 172.943 171.112  1.00  0.00    -0.387 OA
ATOM     27  H   UNL     1     165.577 172.531 172.000  1.00  0.00     0.211 HD
ENDBRANCH  18  26
ENDBRANCH  12  13
ENDBRANCH   7  12
BRANCH   4  28
ATOM     28  O   UNL     1     174.034 177.475 173.570  1.00  0.00    -0.365 OA
ATOM     29  H   UNL     1     174.150 177.117 172.652  1.00  0.00     0.214 HD
ENDBRANCH   4  28
BRANCH   8  30
ATOM     30  C   UNL     1     170.994 174.242 175.308  1.00  0.00     0.249 C 
BRANCH  30  31
ATOM     31  O   UNL     1     171.585 174.279 176.604  1.00  0.00    -0.461 OA
BRANCH  31  32
ATOM     32  C   UNL     1     171.306 173.333 177.596  1.00  0.00     0.338 C 
ATOM     33  O   UNL     1     170.328 172.546 177.463  1.00  0.00    -0.246 OA
BRANCH  32  34
ATOM     34  C   UNL     1     172.158 173.268 178.802  1.00  0.00     0.060 A 
ATOM     35  C   UNL     1     171.596 173.379 180.087  1.00  0.00     0.015 A 
ATOM     36  C   UNL     1     173.549 173.092 178.678  1.00  0.00     0.015 A 
ATOM     37  C   UNL     1     172.411 173.323 181.222  1.00  0.00     0.001 A 
ATOM     38  C   UNL     1     174.359 173.035 179.817  1.00  0.00     0.001 A 
ATOM     39  C   UNL     1     173.790 173.150 181.087  1.00  0.00     0.000 A 
ENDBRANCH  32  34
ENDBRANCH  31  32
ENDBRANCH  30  31
ENDBRANCH   8  30
TORSDOF 12
ENDMDL
MODEL 3
REMARK VINA RESULT:    -6.719      3.755      6.277
REMARK INTER + INTRA:         -12.169
REMARK INTER:                 -11.699
REMARK INTRA:                  -0.470
REMARK UNBOUND:                -1.719
REMARK SMILES C[C@@]12C[C@@]3(O)O[C@@H](O1)[C@]1(COC(=O)c4ccccc4)[C@H]3C[C@@]12O[C@H]1O[C@@H](CO)[C@@H](O)[C@@H](O)[C@@H]1O
REMARK SMILES IDX 1 1 2 2 3 3 4 4 20 5 21 6 22 7 9 8 7 9 8 10 6 11 23 12 24 13
REMARK SMILES IDX 33 14 25 15 31 16 26 17 29 18 34 19 32 21 27 23 28 24 30 26
REMARK SMILES IDX 5 28 10 30 11 31 12 32 13 33 14 34 15 35 19 36 16 37 18 38
REMARK SMILES IDX 17 39
REMARK H PARENT 34 20 32 22 28 25 30 27 5 29
REMARK Flexibility Score: inf
ROOT
ATOM      1  C   UNL     1     176.819 167.637 173.197  1.00  0.00     0.046 C 
ATOM      2  C   UNL     1     175.821 168.629 173.789  1.00  0.00     0.104 C 
ATOM      3  C   UNL     1     174.356 168.244 173.347  1.00  0.00     0.104 C 
ATOM      4  C   UNL     1     173.471 169.389 173.949  1.00  0.00     0.175 C 
ATOM      5  C   UNL     1     174.079 170.785 173.601  1.00  0.00     0.070 C 
ATOM      6  C   UNL     1     175.095 170.723 172.451  1.00  0.00     0.050 C 
ATOM      7  C   UNL     1     176.093 170.156 173.471  1.00  0.00     0.115 C 
ATOM      8  C   UNL     1     175.241 170.776 174.587  1.00  0.00     0.096 C 
ATOM      9  C   UNL     1     174.956 169.653 175.575  1.00  0.00     0.267 C 
ATOM     10  O   UNL     1     175.804 168.570 175.203  1.00  0.00    -0.342 OA
ATOM     11  O   UNL     1     173.606 169.283 175.351  1.00  0.00    -0.320 OA
ENDROOT
BRANCH   7  12
ATOM     12  O   UNL     1     177.426 170.617 173.239  1.00  0.00    -0.339 OA
BRANCH  12  13
ATOM     13  C   UNL     1     178.133 169.945 172.204  1.00  0.00     0.282 C 
ATOM     14  C   UNL     1     179.616 169.730 172.611  1.00  0.00     0.202 C 
ATOM     15  O   UNL     1     178.019 170.644 170.970  1.00  0.00    -0.341 OA
ATOM     16  C   UNL     1     180.438 171.028 172.569  1.00  0.00     0.179 C 
ATOM     17  C   UNL     1     178.694 171.897 170.919  1.00  0.00     0.178 C 
ATOM     18  C   UNL     1     180.203 171.769 171.249  1.00  0.00     0.177 C 
BRANCH  14  19
ATOM     19  O   UNL     1     180.218 168.731 171.823  1.00  0.00    -0.385 OA
ATOM     20  H   UNL     1     179.584 168.482 171.101  1.00  0.00     0.211 HD
ENDBRANCH  14  19
BRANCH  16  21
ATOM     21  O   UNL     1     180.104 171.854 173.655  1.00  0.00    -0.387 OA
ATOM     22  H   UNL     1     179.790 171.261 174.386  1.00  0.00     0.211 HD
ENDBRANCH  16  21
BRANCH  17  23
ATOM     23  C   UNL     1     177.938 173.011 171.680  1.00  0.00     0.191 C 
BRANCH  23  24
ATOM     24  O   UNL     1     178.444 174.276 171.340  1.00  0.00    -0.394 OA
ATOM     25  H   UNL     1     178.793 174.690 172.171  1.00  0.00     0.210 HD
ENDBRANCH  23  24
ENDBRANCH  17  23
BRANCH  18  26
ATOM     26  O   UNL     1     180.836 173.023 171.292  1.00  0.00    -0.387 OA
ATOM     27  H   UNL     1     181.162 173.147 172.223  1.00  0.00     0.211 HD
ENDBRANCH  18  26
ENDBRANCH  12  13
ENDBRANCH   7  12
BRANCH   4  28
ATOM     28  O   UNL     1     172.127 169.279 173.573  1.00  0.00    -0.365 OA
ATOM     29  H   UNL     1     171.677 168.736 174.271  1.00  0.00     0.214 HD
ENDBRANCH   4  28
BRANCH   8  30
ATOM     30  C   UNL     1     175.570 172.154 175.184  1.00  0.00     0.249 C 
BRANCH  30  31
ATOM     31  O   UNL     1     175.276 172.145 176.578  1.00  0.00    -0.461 OA
BRANCH  31  32
ATOM     32  C   UNL     1     175.163 173.311 177.341  1.00  0.00     0.338 C 
ATOM     33  O   UNL     1     175.753 174.366 176.976  1.00  0.00    -0.246 OA
BRANCH  32  34
ATOM     34  C   UNL     1     174.357 173.297 178.580  1.00  0.00     0.060 A 
ATOM     35  C   UNL     1     174.929 172.909 179.806  1.00  0.00     0.015 A 
ATOM     36  C   UNL     1     173.001 173.673 178.547  1.00  0.00     0.015 A 
ATOM     37  C   UNL     1     174.156 172.893 180.972  1.00  0.00     0.001 A 
ATOM     38  C   UNL     1     172.234 173.658 179.716  1.00  0.00     0.001 A 
ATOM     39  C   UNL     1     172.811 173.268 180.927  1.00  0.00     0.000 A 
ENDBRANCH  32  34
ENDBRANCH  31  32
ENDBRANCH  30  31
ENDBRANCH   8  30
TORSDOF 12
ENDMDL
MODEL 4
REMARK VINA RESULT:    -6.703      1.468      5.515
REMARK INTER + INTRA:         -12.144
REMARK INTER:                 -10.856
REMARK INTRA:                  -1.289
REMARK UNBOUND:                -1.719
REMARK SMILES C[C@@]12C[C@@]3(O)O[C@@H](O1)[C@]1(COC(=O)c4ccccc4)[C@H]3C[C@@]12O[C@H]1O[C@@H](CO)[C@@H](O)[C@@H](O)[C@@H]1O
REMARK SMILES IDX 1 1 2 2 3 3 4 4 20 5 21 6 22 7 9 8 7 9 8 10 6 11 23 12 24 13
REMARK SMILES IDX 33 14 25 15 31 16 26 17 29 18 34 19 32 21 27 23 28 24 30 26
REMARK SMILES IDX 5 28 10 30 11 31 12 32 13 33 14 34 15 35 19 36 16 37 18 38
REMARK SMILES IDX 17 39
REMARK H PARENT 34 20 32 22 28 25 30 27 5 29
REMARK Flexibility Score: inf
ROOT
ATOM      1  C   UNL     1     176.193 172.160 174.700  1.00  0.00     0.046 C 
ATOM      2  C   UNL     1     174.946 171.278 174.664  1.00  0.00     0.104 C 
ATOM      3  C   UNL     1     175.110 170.162 173.562  1.00  0.00     0.104 C 
ATOM      4  C   UNL     1     173.736 169.409 173.585  1.00  0.00     0.175 C 
ATOM      5  C   UNL     1     172.556 170.430 173.529  1.00  0.00     0.070 C 
ATOM      6  C   UNL     1     172.995 171.823 173.052  1.00  0.00     0.050 C 
ATOM      7  C   UNL     1     173.571 172.035 174.460  1.00  0.00     0.115 C 
ATOM      8  C   UNL     1     172.628 170.934 174.966  1.00  0.00     0.096 C 
ATOM      9  C   UNL     1     173.502 169.945 175.724  1.00  0.00     0.267 C 
ATOM     10  O   UNL     1     174.772 170.571 175.878  1.00  0.00    -0.342 OA
ATOM     11  O   UNL     1     173.639 168.824 174.867  1.00  0.00    -0.320 OA
ENDROOT
BRANCH   7  12
ATOM     12  O   UNL     1     173.416 173.383 174.911  1.00  0.00    -0.339 OA
BRANCH  12  13
ATOM     13  C   UNL     1     174.580 174.194 174.821  1.00  0.00     0.282 C 
ATOM     14  C   UNL     1     174.688 175.127 176.058  1.00  0.00     0.202 C 
ATOM     15  O   UNL     1     174.598 174.927 173.601  1.00  0.00    -0.341 OA
ATOM     16  C   UNL     1     173.670 176.279 176.024  1.00  0.00     0.179 C 
ATOM     17  C   UNL     1     173.610 175.947 173.493  1.00  0.00     0.178 C 
ATOM     18  C   UNL     1     173.685 176.969 174.657  1.00  0.00     0.177 C 
BRANCH  14  19
ATOM     19  O   UNL     1     175.998 175.622 176.206  1.00  0.00    -0.385 OA
ATOM     20  H   UNL     1     176.408 175.684 175.305  1.00  0.00     0.211 HD
ENDBRANCH  14  19
BRANCH  16  21
ATOM     21  O   UNL     1     172.381 175.800 176.311  1.00  0.00    -0.387 OA
ATOM     22  H   UNL     1     172.392 174.820 176.154  1.00  0.00     0.211 HD
ENDBRANCH  16  21
BRANCH  17  23
ATOM     23  C   UNL     1     172.202 175.382 173.193  1.00  0.00     0.191 C 
BRANCH  23  24
ATOM     24  O   UNL     1     171.400 176.353 172.572  1.00  0.00    -0.394 OA
ATOM     25  H   UNL     1     171.155 176.006 171.675  1.00  0.00     0.210 HD
ENDBRANCH  23  24
ENDBRANCH  17  23
BRANCH  18  26
ATOM     26  O   UNL     1     172.645 177.911 174.592  1.00  0.00    -0.387 OA
ATOM     27  H   UNL     1     172.549 178.167 173.636  1.00  0.00     0.211 HD
ENDBRANCH  18  26
ENDBRANCH  12  13
ENDBRANCH   7  12
BRANCH   4  28
ATOM     28  O   UNL     1     173.647 168.429 172.588  1.00  0.00    -0.365 OA
ATOM     29  H   UNL     1     173.280 167.614 173.019  1.00  0.00     0.214 HD
ENDBRANCH   4  28
BRANCH   8  30
ATOM     30  C   UNL     1     171.260 171.264 175.586  1.00  0.00     0.249 C 
BRANCH  30  31
ATOM     31  O   UNL     1     171.414 171.453 176.989  1.00  0.00    -0.461 OA
BRANCH  31  32
ATOM     32  C   UNL     1     171.462 172.717 177.587  1.00  0.00     0.338 C 
ATOM     33  O   UNL     1     170.757 173.660 177.131  1.00  0.00    -0.246 OA
BRANCH  32  34
ATOM     34  C   UNL     1     172.349 172.942 178.747  1.00  0.00     0.060 A 
ATOM     35  C   UNL     1     171.842 173.470 179.949  1.00  0.00     0.015 A 
ATOM     36  C   UNL     1     173.719 172.630 178.662  1.00  0.00     0.015 A 
ATOM     37  C   UNL     1     172.692 173.686 181.039  1.00  0.00     0.001 A 
ATOM     38  C   UNL     1     174.563 172.846 179.756  1.00  0.00     0.001 A 
ATOM     39  C   UNL     1     174.050 173.373 180.943  1.00  0.00     0.000 A 
ENDBRANCH  32  34
ENDBRANCH  31  32
ENDBRANCH  30  31
ENDBRANCH   8  30
TORSDOF 12
ENDMDL
MODEL 5
REMARK VINA RESULT:    -6.662      3.263      5.677
REMARK INTER + INTRA:         -12.081
REMARK INTER:                 -11.593
REMARK INTRA:                  -0.488
REMARK UNBOUND:                -1.719
REMARK SMILES C[C@@]12C[C@@]3(O)O[C@@H](O1)[C@]1(COC(=O)c4ccccc4)[C@H]3C[C@@]12O[C@H]1O[C@@H](CO)[C@@H](O)[C@@H](O)[C@@H]1O
REMARK SMILES IDX 1 1 2 2 3 3 4 4 20 5 21 6 22 7 9 8 7 9 8 10 6 11 23 12 24 13
REMARK SMILES IDX 33 14 25 15 31 16 26 17 29 18 34 19 32 21 27 23 28 24 30 26
REMARK SMILES IDX 5 28 10 30 11 31 12 32 13 33 14 34 15 35 19 36 16 37 18 38
REMARK SMILES IDX 17 39
REMARK H PARENT 34 20 32 22 28 25 30 27 5 29
REMARK Flexibility Score: inf
ROOT
ATOM      1  C   UNL     1     174.871 167.617 172.880  1.00  0.00     0.046 C 
ATOM      2  C   UNL     1     174.273 168.844 173.564  1.00  0.00     0.104 C 
ATOM      3  C   UNL     1     172.837 169.137 172.980  1.00  0.00     0.104 C 
ATOM      4  C   UNL     1     172.401 170.456 173.704  1.00  0.00     0.175 C 
ATOM      5  C   UNL     1     173.538 171.523 173.622  1.00  0.00     0.070 C 
ATOM      6  C   UNL     1     174.580 171.202 172.539  1.00  0.00     0.050 C 
ATOM      7  C   UNL     1     175.151 170.160 173.513  1.00  0.00     0.115 C 
ATOM      8  C   UNL     1     174.480 170.927 174.662  1.00  0.00     0.096 C 
ATOM      9  C   UNL     1     173.667 169.899 175.437  1.00  0.00     0.267 C 
ATOM     10  O   UNL     1     174.067 168.622 174.947  1.00  0.00    -0.342 OA
ATOM     11  O   UNL     1     172.316 170.132 175.076  1.00  0.00    -0.320 OA
ENDROOT
BRANCH   7  12
ATOM     12  O   UNL     1     176.576 170.074 173.438  1.00  0.00    -0.339 OA
BRANCH  12  13
ATOM     13  C   UNL     1     177.091 169.518 172.234  1.00  0.00     0.282 C 
ATOM     14  C   UNL     1     178.149 168.426 172.550  1.00  0.00     0.202 C 
ATOM     15  O   UNL     1     177.615 170.534 171.386  1.00  0.00    -0.341 OA
ATOM     16  C   UNL     1     179.478 169.014 173.052  1.00  0.00     0.179 C 
ATOM     17  C   UNL     1     178.799 171.167 171.860  1.00  0.00     0.178 C 
ATOM     18  C   UNL     1     179.939 170.155 172.141  1.00  0.00     0.177 C 
BRANCH  14  19
ATOM     19  O   UNL     1     178.362 167.591 171.437  1.00  0.00    -0.385 OA
ATOM     20  H   UNL     1     178.048 166.679 171.670  1.00  0.00     0.211 HD
ENDBRANCH  14  19
BRANCH  16  21
ATOM     21  O   UNL     1     179.340 169.474 174.373  1.00  0.00    -0.387 OA
ATOM     22  H   UNL     1     178.500 170.000 174.413  1.00  0.00     0.211 HD
ENDBRANCH  16  21
BRANCH  17  23
ATOM     23  C   UNL     1     178.518 172.184 172.991  1.00  0.00     0.191 C 
BRANCH  23  24
ATOM     24  O   UNL     1     179.616 173.039 173.174  1.00  0.00    -0.394 OA
ATOM     25  H   UNL     1     180.098 172.733 173.986  1.00  0.00     0.210 HD
ENDBRANCH  23  24
ENDBRANCH  17  23
BRANCH  18  26
ATOM     26  O   UNL     1     181.066 170.780 172.700  1.00  0.00    -0.387 OA
ATOM     27  H   UNL     1     181.862 170.284 172.372  1.00  0.00     0.211 HD
ENDBRANCH  18  26
ENDBRANCH  12  13
ENDBRANCH   7  12
BRANCH   4  28
ATOM     28  O   UNL     1     171.173 170.942 173.235  1.00  0.00    -0.365 OA
ATOM     29  H   UNL     1     170.749 171.425 173.991  1.00  0.00     0.214 HD
ENDBRANCH   4  28
BRANCH   8  30
ATOM     30  C   UNL     1     175.244 171.972 175.491  1.00  0.00     0.249 C 
BRANCH  30  31
ATOM     31  O   UNL     1     174.773 171.940 176.835  1.00  0.00    -0.461 OA
BRANCH  31  32
ATOM     32  C   UNL     1     174.923 173.012 177.720  1.00  0.00     0.338 C 
ATOM     33  O   UNL     1     175.832 173.867 177.531  1.00  0.00    -0.246 OA
BRANCH  32  34
ATOM     34  C   UNL     1     174.016 173.131 178.882  1.00  0.00     0.060 A 
ATOM     35  C   UNL     1     172.642 173.372 178.700  1.00  0.00     0.015 A 
ATOM     36  C   UNL     1     174.521 173.004 180.190  1.00  0.00     0.015 A 
ATOM     37  C   UNL     1     171.794 173.489 179.807  1.00  0.00     0.001 A 
ATOM     38  C   UNL     1     173.667 173.120 181.291  1.00  0.00     0.001 A 
ATOM     39  C   UNL     1     172.306 173.362 181.100  1.00  0.00     0.000 A 
ENDBRANCH  32  34
ENDBRANCH  31  32
ENDBRANCH  30  31
ENDBRANCH   8  30
TORSDOF 12
ENDMDL
MODEL 6
REMARK VINA RESULT:    -6.635      1.644      5.445
REMARK INTER + INTRA:         -12.038
REMARK INTER:                 -10.754
REMARK INTRA:                  -1.284
REMARK UNBOUND:                -1.719
REMARK SMILES C[C@@]12C[C@@]3(O)O[C@@H](O1)[C@]1(COC(=O)c4ccccc4)[C@H]3C[C@@]12O[C@H]1O[C@@H](CO)[C@@H](O)[C@@H](O)[C@@H]1O
REMARK SMILES IDX 1 1 2 2 3 3 4 4 20 5 21 6 22 7 9 8 7 9 8 10 6 11 23 12 24 13
REMARK SMILES IDX 33 14 25 15 31 16 26 17 29 18 34 19 32 21 27 23 28 24 30 26
REMARK SMILES IDX 5 28 10 30 11 31 12 32 13 33 14 34 15 35 19 36 16 37 18 38
REMARK SMILES IDX 17 39
REMARK H PARENT 34 20 32 22 28 25 30 27 5 29
REMARK Flexibility Score: inf
ROOT
ATOM      1  C   UNL     1     176.357 172.613 173.809  1.00  0.00     0.046 C 
ATOM      2  C   UNL     1     175.257 171.681 174.313  1.00  0.00     0.104 C 
ATOM      3  C   UNL     1     175.490 170.224 173.754  1.00  0.00     0.104 C 
ATOM      4  C   UNL     1     174.250 169.421 174.277  1.00  0.00     0.175 C 
ATOM      5  C   UNL     1     172.931 170.200 173.975  1.00  0.00     0.070 C 
ATOM      6  C   UNL     1     173.114 171.294 172.913  1.00  0.00     0.050 C 
ATOM      7  C   UNL     1     173.772 172.139 174.014  1.00  0.00     0.115 C 
ATOM      8  C   UNL     1     173.051 171.270 175.054  1.00  0.00     0.096 C 
ATOM      9  C   UNL     1     174.125 170.788 176.019  1.00  0.00     0.267 C 
ATOM     10  O   UNL     1     175.296 171.543 175.722  1.00  0.00    -0.342 OA
ATOM     11  O   UNL     1     174.353 169.429 175.686  1.00  0.00    -0.320 OA
ENDROOT
BRANCH   7  12
ATOM     12  O   UNL     1     173.457 173.528 173.890  1.00  0.00    -0.339 OA
BRANCH  12  13
ATOM     13  C   UNL     1     173.678 174.310 175.058  1.00  0.00     0.282 C 
ATOM     14  C   UNL     1     172.389 175.084 175.445  1.00  0.00     0.202 C 
ATOM     15  O   UNL     1     174.789 175.183 174.885  1.00  0.00    -0.341 OA
ATOM     16  C   UNL     1     172.096 176.261 174.500  1.00  0.00     0.179 C 
ATOM     17  C   UNL     1     174.589 176.238 173.949  1.00  0.00     0.178 C 
ATOM     18  C   UNL     1     173.354 177.110 174.294  1.00  0.00     0.177 C 
BRANCH  14  19
ATOM     19  O   UNL     1     172.441 175.518 176.783  1.00  0.00    -0.385 OA
ATOM     20  H   UNL     1     173.197 176.154 176.872  1.00  0.00     0.211 HD
ENDBRANCH  14  19
BRANCH  16  21
ATOM     21  O   UNL     1     171.622 175.790 173.264  1.00  0.00    -0.387 OA
ATOM     22  H   UNL     1     172.244 176.123 172.567  1.00  0.00     0.211 HD
ENDBRANCH  16  21
BRANCH  17  23
ATOM     23  C   UNL     1     174.674 175.755 172.482  1.00  0.00     0.191 C 
BRANCH  23  24
ATOM     24  O   UNL     1     175.994 175.828 172.011  1.00  0.00    -0.394 OA
ATOM     25  H   UNL     1     176.016 175.394 171.119  1.00  0.00     0.210 HD
ENDBRANCH  23  24
ENDBRANCH  17  23
BRANCH  18  26
ATOM     26  O   UNL     1     173.111 178.084 173.311  1.00  0.00    -0.387 OA
ATOM     27  H   UNL     1     172.273 177.819 172.846  1.00  0.00     0.211 HD
ENDBRANCH  18  26
ENDBRANCH  12  13
ENDBRANCH   7  12
BRANCH   4  28
ATOM     28  O   UNL     1     174.222 168.107 173.792  1.00  0.00    -0.365 OA
ATOM     29  H   UNL     1     173.430 168.039 173.197  1.00  0.00     0.214 HD
ENDBRANCH   4  28
BRANCH   8  30
ATOM     30  C   UNL     1     171.708 171.694 175.671  1.00  0.00     0.249 C 
BRANCH  30  31
ATOM     31  O   UNL     1     171.773 171.542 177.086  1.00  0.00    -0.461 OA
BRANCH  31  32
ATOM     32  C   UNL     1     171.478 172.578 177.977  1.00  0.00     0.338 C 
ATOM     33  O   UNL     1     170.440 173.278 177.814  1.00  0.00    -0.246 OA
BRANCH  32  34
ATOM     34  C   UNL     1     172.394 172.854 179.104  1.00  0.00     0.060 A 
ATOM     35  C   UNL     1     171.898 173.303 180.342  1.00  0.00     0.015 A 
ATOM     36  C   UNL     1     173.781 172.670 178.951  1.00  0.00     0.015 A 
ATOM     37  C   UNL     1     172.774 173.567 181.400  1.00  0.00     0.001 A 
ATOM     38  C   UNL     1     174.651 172.933 180.013  1.00  0.00     0.001 A 
ATOM     39  C   UNL     1     174.148 173.382 181.236  1.00  0.00     0.000 A 
ENDBRANCH  32  34
ENDBRANCH  31  32
ENDBRANCH  30  31
ENDBRANCH   8  30
TORSDOF 12
ENDMDL
MODEL 7
REMARK VINA RESULT:    -6.609      2.682      5.381
REMARK INTER + INTRA:         -11.998
REMARK INTER:                 -11.439
REMARK INTRA:                  -0.559
REMARK UNBOUND:                -1.719
REMARK SMILES C[C@@]12C[C@@]3(O)O[C@@H](O1)[C@]1(COC(=O)c4ccccc4)[C@H]3C[C@@]12O[C@H]1O[C@@H](CO)[C@@H](O)[C@@H](O)[C@@H]1O
REMARK SMILES IDX 1 1 2 2 3 3 4 4 20 5 21 6 22 7 9 8 7 9 8 10 6 11 23 12 24 13
REMARK SMILES IDX 33 14 25 15 31 16 26 17 29 18 34 19 32 21 27 23 28 24 30 26
REMARK SMILES IDX 5 28 10 30 11 31 12 32 13 33 14 34 15 35 19 36 16 37 18 38
REMARK SMILES IDX 17 39
REMARK H PARENT 34 20 32 22 28 25 30 27 5 29
REMARK Flexibility Score: inf
ROOT
ATOM      1  C   UNL     1     171.502 178.619 173.330  1.00  0.00     0.046 C 
ATOM      2  C   UNL     1     172.043 177.322 173.928  1.00  0.00     0.104 C 
ATOM      3  C   UNL     1     173.524 177.084 173.442  1.00  0.00     0.104 C 
ATOM      4  C   UNL     1     173.900 175.692 174.057  1.00  0.00     0.175 C 
ATOM      5  C   UNL     1     172.777 174.647 173.763  1.00  0.00     0.070 C 
ATOM      6  C   UNL     1     171.832 175.089 172.635  1.00  0.00     0.050 C 
ATOM      7  C   UNL     1     171.176 176.024 173.661  1.00  0.00     0.115 C 
ATOM      8  C   UNL     1     171.747 175.136 174.775  1.00  0.00     0.096 C 
ATOM      9  C   UNL     1     172.487 176.070 175.723  1.00  0.00     0.267 C 
ATOM     10  O   UNL     1     172.128 177.394 175.339  1.00  0.00    -0.342 OA
ATOM     11  O   UNL     1     173.865 175.868 175.457  1.00  0.00    -0.320 OA
ENDROOT
BRANCH   7  12
ATOM     12  O   UNL     1     169.762 176.128 173.473  1.00  0.00    -0.339 OA
BRANCH  12  13
ATOM     13  C   UNL     1     169.352 176.747 172.261  1.00  0.00     0.282 C 
ATOM     14  C   UNL     1     168.323 177.874 172.548  1.00  0.00     0.202 C 
ATOM     15  O   UNL     1     168.843 175.786 171.343  1.00  0.00    -0.341 OA
ATOM     16  C   UNL     1     166.940 177.329 172.942  1.00  0.00     0.179 C 
ATOM     17  C   UNL     1     167.603 175.190 171.716  1.00  0.00     0.178 C 
ATOM     18  C   UNL     1     166.492 176.242 171.961  1.00  0.00     0.177 C 
BRANCH  14  19
ATOM     19  O   UNL     1     168.220 178.756 171.456  1.00  0.00    -0.385 OA
ATOM     20  H   UNL     1     167.367 179.256 171.541  1.00  0.00     0.211 HD
ENDBRANCH  14  19
BRANCH  16  21
ATOM     21  O   UNL     1     166.971 176.818 174.251  1.00  0.00    -0.387 OA
ATOM     22  H   UNL     1     167.101 175.837 174.178  1.00  0.00     0.211 HD
ENDBRANCH  16  21
BRANCH  17  23
ATOM     23  C   UNL     1     167.766 174.123 172.824  1.00  0.00     0.191 C 
BRANCH  23  24
ATOM     24  O   UNL     1     166.733 173.176 172.757  1.00  0.00    -0.394 OA
ATOM     25  H   UNL     1     165.878 173.674 172.682  1.00  0.00     0.210 HD
ENDBRANCH  23  24
ENDBRANCH  17  23
BRANCH  18  26
ATOM     26  O   UNL     1     165.304 175.649 172.423  1.00  0.00    -0.387 OA
ATOM     27  H   UNL     1     165.542 174.736 172.734  1.00  0.00     0.211 HD
ENDBRANCH  18  26
ENDBRANCH  12  13
ENDBRANCH   7  12
BRANCH   4  28
ATOM     28  O   UNL     1     175.165 175.251 173.646  1.00  0.00    -0.365 OA
ATOM     29  H   UNL     1     175.536 174.712 174.392  1.00  0.00     0.214 HD
ENDBRANCH   4  28
BRANCH   8  30
ATOM     30  C   UNL     1     170.917 174.013 175.419  1.00  0.00     0.249 C 
BRANCH  30  31
ATOM     31  O   UNL     1     171.166 173.991 176.822  1.00  0.00    -0.461 OA
BRANCH  31  32
ATOM     32  C   UNL     1     171.658 172.866 177.491  1.00  0.00     0.338 C 
ATOM     33  O   UNL     1     171.486 171.714 177.003  1.00  0.00    -0.246 OA
BRANCH  32  34
ATOM     34  C   UNL     1     172.370 173.035 178.775  1.00  0.00     0.060 A 
ATOM     35  C   UNL     1     171.682 173.451 179.930  1.00  0.00     0.015 A 
ATOM     36  C   UNL     1     173.751 172.779 178.858  1.00  0.00     0.015 A 
ATOM     37  C   UNL     1     172.366 173.613 181.140  1.00  0.00     0.001 A 
ATOM     38  C   UNL     1     174.429 172.941 180.070  1.00  0.00     0.001 A 
ATOM     39  C   UNL     1     173.737 173.358 181.210  1.00  0.00     0.000 A 
ENDBRANCH  32  34
ENDBRANCH  31  32
ENDBRANCH  30  31
ENDBRANCH   8  30
TORSDOF 12
ENDMDL
MODEL 8
REMARK VINA RESULT:    -6.496      2.758      4.931
REMARK INTER + INTRA:         -11.823
REMARK INTER:                 -10.783
REMARK INTRA:                  -1.040
REMARK UNBOUND:                -1.719
REMARK SMILES C[C@@]12C[C@@]3(O)O[C@@H](O1)[C@]1(COC(=O)c4ccccc4)[C@H]3C[C@@]12O[C@H]1O[C@@H](CO)[C@@H](O)[C@@H](O)[C@@H]1O
REMARK SMILES IDX 1 1 2 2 3 3 4 4 20 5 21 6 22 7 9 8 7 9 8 10 6 11 23 12 24 13
REMARK SMILES IDX 33 14 25 15 31 16 26 17 29 18 34 19 32 21 27 23 28 24 30 26
REMARK SMILES IDX 5 28 10 30 11 31 12 32 13 33 14 34 15 35 19 36 16 37 18 38
REMARK SMILES IDX 17 39
REMARK H PARENT 34 20 32 22 28 25 30 27 5 29
REMARK Flexibility Score: inf
ROOT
ATOM      1  C   UNL     1     173.748 168.118 173.499  1.00  0.00     0.046 C 
ATOM      2  C   UNL     1     173.589 169.397 174.318  1.00  0.00     0.104 C 
ATOM      3  C   UNL     1     172.066 169.804 174.387  1.00  0.00     0.104 C 
ATOM      4  C   UNL     1     172.077 171.161 175.170  1.00  0.00     0.175 C 
ATOM      5  C   UNL     1     173.145 172.128 174.565  1.00  0.00     0.070 C 
ATOM      6  C   UNL     1     173.598 171.712 173.158  1.00  0.00     0.050 C 
ATOM      7  C   UNL     1     174.453 170.634 173.841  1.00  0.00     0.115 C 
ATOM      8  C   UNL     1     174.394 171.464 175.131  1.00  0.00     0.096 C 
ATOM      9  C   UNL     1     173.919 170.515 176.223  1.00  0.00     0.267 C 
ATOM     10  O   UNL     1     173.977 169.205 175.665  1.00  0.00    -0.342 OA
ATOM     11  O   UNL     1     172.564 170.857 176.460  1.00  0.00    -0.320 OA
ENDROOT
BRANCH   7  12
ATOM     12  O   UNL     1     175.700 170.427 173.171  1.00  0.00    -0.339 OA
BRANCH  12  13
ATOM     13  C   UNL     1     176.458 169.313 173.624  1.00  0.00     0.282 C 
ATOM     14  C   UNL     1     177.741 169.791 174.356  1.00  0.00     0.202 C 
ATOM     15  O   UNL     1     176.758 168.429 172.549  1.00  0.00    -0.341 OA
ATOM     16  C   UNL     1     178.803 170.344 173.392  1.00  0.00     0.179 C 
ATOM     17  C   UNL     1     177.673 168.940 171.584  1.00  0.00     0.178 C 
ATOM     18  C   UNL     1     179.016 169.383 172.218  1.00  0.00     0.177 C 
BRANCH  14  19
ATOM     19  O   UNL     1     178.279 168.765 175.157  1.00  0.00    -0.385 OA
ATOM     20  H   UNL     1     177.526 168.273 175.576  1.00  0.00     0.211 HD
ENDBRANCH  14  19
BRANCH  16  21
ATOM     21  O   UNL     1     178.422 171.610 172.919  1.00  0.00    -0.387 OA
ATOM     22  H   UNL     1     178.471 171.578 171.928  1.00  0.00     0.211 HD
ENDBRANCH  16  21
BRANCH  17  23
ATOM     23  C   UNL     1     177.018 169.964 170.628  1.00  0.00     0.191 C 
BRANCH  23  24
ATOM     24  O   UNL     1     177.714 170.021 169.410  1.00  0.00    -0.394 OA
ATOM     25  H   UNL     1     177.904 169.086 169.132  1.00  0.00     0.210 HD
ENDBRANCH  23  24
ENDBRANCH  17  23
BRANCH  18  26
ATOM     26  O   UNL     1     179.870 169.975 171.273  1.00  0.00    -0.387 OA
ATOM     27  H   UNL     1     180.731 170.154 171.736  1.00  0.00     0.211 HD
ENDBRANCH  18  26
ENDBRANCH  12  13
ENDBRANCH   7  12
BRANCH   4  28
ATOM     28  O   UNL     1     170.806 171.745 175.246  1.00  0.00    -0.365 OA
ATOM     29  H   UNL     1     170.868 172.626 174.794  1.00  0.00     0.214 HD
ENDBRANCH   4  28
BRANCH   8  30
ATOM     30  C   UNL     1     175.513 172.448 175.511  1.00  0.00     0.249 C 
BRANCH  30  31
ATOM     31  O   UNL     1     175.486 172.669 176.918  1.00  0.00    -0.461 OA
BRANCH  31  32
ATOM     32  C   UNL     1     174.764 173.709 177.512  1.00  0.00     0.338 C 
ATOM     33  O   UNL     1     174.775 174.862 176.998  1.00  0.00    -0.246 OA
BRANCH  32  34
ATOM     34  C   UNL     1     173.998 173.452 178.749  1.00  0.00     0.060 A 
ATOM     35  C   UNL     1     172.607 173.662 178.791  1.00  0.00     0.015 A 
ATOM     36  C   UNL     1     174.654 172.992 179.906  1.00  0.00     0.015 A 
ATOM     37  C   UNL     1     171.892 173.421 179.970  1.00  0.00     0.001 A 
ATOM     38  C   UNL     1     173.934 172.751 181.080  1.00  0.00     0.001 A 
ATOM     39  C   UNL     1     172.554 172.966 181.111  1.00  0.00     0.000 A 
ENDBRANCH  32  34
ENDBRANCH  31  32
ENDBRANCH  30  31
ENDBRANCH   8  30
TORSDOF 12
ENDMDL
MODEL 9
REMARK VINA RESULT:    -6.262      2.428      5.417
REMARK INTER + INTRA:         -11.459
REMARK INTER:                 -10.616
REMARK INTRA:                  -0.843
REMARK UNBOUND:                -1.719
REMARK SMILES C[C@@]12C[C@@]3(O)O[C@@H](O1)[C@]1(COC(=O)c4ccccc4)[C@H]3C[C@@]12O[C@H]1O[C@@H](CO)[C@@H](O)[C@@H](O)[C@@H]1O
REMARK SMILES IDX 1 1 2 2 3 3 4 4 20 5 21 6 22 7 9 8 7 9 8 10 6 11 23 12 24 13
REMARK SMILES IDX 33 14 25 15 31 16 26 17 29 18 34 19 32 21 27 23 28 24 30 26
REMARK SMILES IDX 5 28 10 30 11 31 12 32 13 33 14 34 15 35 19 36 16 37 18 38
REMARK SMILES IDX 17 39
REMARK H PARENT 34 20 32 22 28 25 30 27 5 29
REMARK Flexibility Score: inf
ROOT
ATOM      1  C   UNL     1     173.162 177.747 172.304  1.00  0.00     0.046 C 
ATOM      2  C   UNL     1     173.280 176.626 173.334  1.00  0.00     0.104 C 
ATOM      3  C   UNL     1     174.641 175.855 173.135  1.00  0.00     0.104 C 
ATOM      4  C   UNL     1     174.574 174.698 174.190  1.00  0.00     0.175 C 
ATOM      5  C   UNL     1     173.204 173.954 174.094  1.00  0.00     0.070 C 
ATOM      6  C   UNL     1     172.466 174.233 172.776  1.00  0.00     0.050 C 
ATOM      7  C   UNL     1     172.080 175.594 173.373  1.00  0.00     0.115 C 
ATOM      8  C   UNL     1     172.330 175.006 174.769  1.00  0.00     0.096 C 
ATOM      9  C   UNL     1     173.281 175.968 175.468  1.00  0.00     0.267 C 
ATOM     10  O   UNL     1     173.337 177.135 174.654  1.00  0.00    -0.342 OA
ATOM     11  O   UNL     1     174.546 175.330 175.453  1.00  0.00    -0.320 OA
ENDROOT
BRANCH   7  12
ATOM     12  O   UNL     1     170.766 176.002 172.986  1.00  0.00    -0.339 OA
BRANCH  12  13
ATOM     13  C   UNL     1     170.230 177.102 173.711  1.00  0.00     0.282 C 
ATOM     14  C   UNL     1     168.865 176.720 174.346  1.00  0.00     0.202 C 
ATOM     15  O   UNL     1     170.126 178.256 172.886  1.00  0.00    -0.341 OA
ATOM     16  C   UNL     1     167.733 176.627 173.310  1.00  0.00     0.179 C 
ATOM     17  C   UNL     1     169.147 178.176 171.854  1.00  0.00     0.178 C 
ATOM     18  C   UNL     1     167.732 177.862 172.404  1.00  0.00     0.177 C 
BRANCH  14  19
ATOM     19  O   UNL     1     168.522 177.609 175.383  1.00  0.00    -0.385 OA
ATOM     20  H   UNL     1     167.939 177.127 176.023  1.00  0.00     0.211 HD
ENDBRANCH  14  19
BRANCH  16  21
ATOM     21  O   UNL     1     167.871 175.460 172.539  1.00  0.00    -0.387 OA
ATOM     22  H   UNL     1     166.956 175.170 172.285  1.00  0.00     0.211 HD
ENDBRANCH  16  21
BRANCH  17  23
ATOM     23  C   UNL     1     169.608 177.302 170.664  1.00  0.00     0.191 C 
BRANCH  23  24
ATOM     24  O   UNL     1     168.938 177.674 169.487  1.00  0.00    -0.394 OA
ATOM     25  H   UNL     1     168.627 178.609 169.605  1.00  0.00     0.210 HD
ENDBRANCH  23  24
ENDBRANCH  17  23
BRANCH  18  26
ATOM     26  O   UNL     1     166.797 177.688 171.370  1.00  0.00    -0.387 OA
ATOM     27  H   UNL     1     166.317 176.839 171.558  1.00  0.00     0.211 HD
ENDBRANCH  18  26
ENDBRANCH  12  13
ENDBRANCH   7  12
BRANCH   4  28
ATOM     28  O   UNL     1     175.666 173.826 174.098  1.00  0.00    -0.365 OA
ATOM     29  H   UNL     1     176.217 174.137 173.334  1.00  0.00     0.214 HD
ENDBRANCH   4  28
BRANCH   8  30
ATOM     30  C   UNL     1     171.188 174.424 175.617  1.00  0.00     0.249 C 
BRANCH  30  31
ATOM     31  O   UNL     1     171.619 174.309 176.970  1.00  0.00    -0.461 OA
BRANCH  31  32
ATOM     32  C   UNL     1     171.926 173.084 177.570  1.00  0.00     0.338 C 
ATOM     33  O   UNL     1     171.596 172.003 177.008  1.00  0.00    -0.246 OA
BRANCH  32  34
ATOM     34  C   UNL     1     172.630 173.065 178.870  1.00  0.00     0.060 A 
ATOM     35  C   UNL     1     174.018 172.844 178.934  1.00  0.00     0.015 A 
ATOM     36  C   UNL     1     171.914 173.267 180.065  1.00  0.00     0.015 A 
ATOM     37  C   UNL     1     174.673 172.821 180.170  1.00  0.00     0.001 A 
ATOM     38  C   UNL     1     172.575 173.245 181.297  1.00  0.00     0.001 A 
ATOM     39  C   UNL     1     173.953 173.022 181.349  1.00  0.00     0.000 A 
ENDBRANCH  32  34
ENDBRANCH  31  32
ENDBRANCH  30  31
ENDBRANCH   8  30
TORSDOF 12
ENDMDL
