MODEL 1
REMARK VINA RESULT:    -3.640      0.000      0.000
REMARK INTER + INTRA:         -13.376
REMARK INTER:                  -9.173
REMARK INTRA:                  -4.203
REMARK UNBOUND:                -4.203
REMARK SMILES CCCCCCCCCCCCCCCCCCCCCCCCCCCC(=O)[O-]
REMARK SMILES IDX 15 1 16 2 17 3 18 4 19 5 20 6 21 7 22 8 23 9 24 10 25 11
REMARK SMILES IDX 26 12 27 13 28 14 29 15 30 16 14 17 13 18 12 19 11 20 10 21
REMARK SMILES IDX 9 22 8 23 7 24 6 25 5 26 4 27 3 28 2 29 1 30
REMARK H PARENT
REMARK Flexibility Score: inf
ROOT
ATOM      1  C   UNL     1     -95.228 146.736 237.881  1.00  0.00     0.000 C 
ENDROOT
BRANCH   1   2
ATOM      2  C   UNL     1     -93.992 146.922 238.775  1.00  0.00     0.000 C 
BRANCH   2   3
ATOM      3  C   UNL     1     -93.212 145.606 238.916  1.00  0.00     0.000 C 
BRANCH   3   4
ATOM      4  C   UNL     1     -92.327 145.566 240.170  1.00  0.00     0.000 C 
BRANCH   4   5
ATOM      5  C   UNL     1     -92.938 146.332 241.356  1.00  0.00     0.000 C 
BRANCH   5   6
ATOM      6  C   UNL     1     -93.792 145.428 242.260  1.00  0.00     0.000 C 
BRANCH   6   7
ATOM      7  C   UNL     1     -95.013 146.162 242.834  1.00  0.00     0.000 C 
BRANCH   7   8
ATOM      8  C   UNL     1     -96.043 146.461 241.732  1.00  0.00     0.000 C 
BRANCH   8   9
ATOM      9  C   UNL     1     -96.235 147.969 241.483  1.00  0.00     0.000 C 
BRANCH   9  10
ATOM     10  C   UNL     1     -96.152 148.854 242.741  1.00  0.00     0.000 C 
BRANCH  10  11
ATOM     11  C   UNL     1     -97.401 149.707 243.030  1.00  0.00     0.000 C 
BRANCH  11  12
ATOM     12  C   UNL     1     -98.315 149.135 244.133  1.00  0.00     0.006 C 
BRANCH  12  13
ATOM     13  C   UNL     1     -97.529 148.499 245.291  1.00  0.00     0.053 C 
BRANCH  13  14
ATOM     14  C   UNL     1     -98.094 148.893 246.623  1.00  0.00     0.041 C 
ATOM     15  O   UNL     1     -98.842 148.102 247.258  1.00  0.00    -0.550 OA
ATOM     16  O   UNL     1     -97.750 150.113 247.189  1.00  0.00    -0.550 OA
ENDBRANCH  13  14
ENDBRANCH  12  13
ENDBRANCH  11  12
ENDBRANCH  10  11
ENDBRANCH   9  10
ENDBRANCH   8   9
ENDBRANCH   7   8
ENDBRANCH   6   7
ENDBRANCH   5   6
ENDBRANCH   4   5
ENDBRANCH   3   4
ENDBRANCH   2   3
ENDBRANCH   1   2
BRANCH   1  17
ATOM     17  C   UNL     1     -96.022 148.040 237.692  1.00  0.00     0.000 C 
BRANCH  17  18
ATOM     18  C   UNL     1     -95.118 149.285 237.745  1.00  0.00     0.000 C 
BRANCH  18  19
ATOM     19  C   UNL     1     -94.750 149.815 236.349  1.00  0.00     0.000 C 
BRANCH  19  20
ATOM     20  C   UNL     1     -95.356 151.197 236.057  1.00  0.00     0.000 C 
BRANCH  20  21
ATOM     21  C   UNL     1     -96.397 151.579 237.117  1.00  0.00     0.000 C 
BRANCH  21  22
ATOM     22  C   UNL     1     -96.274 153.061 237.501  1.00  0.00    -0.000 C 
BRANCH  22  23
ATOM     23  C   UNL     1     -97.334 153.944 236.812  1.00  0.00    -0.000 C 
BRANCH  23  24
ATOM     24  C   UNL     1     -98.675 153.231 236.561  1.00  0.00    -0.000 C 
BRANCH  24  25
ATOM     25  C   UNL     1     -99.868 153.790 237.353  1.00  0.00    -0.000 C 
BRANCH  25  26
ATOM     26  C   UNL     1     -99.713 153.608 238.871  1.00  0.00    -0.000 C 
BRANCH  26  27
ATOM     27  C   UNL     1    -100.083 152.180 239.296  1.00  0.00    -0.000 C 
BRANCH  27  28
ATOM     28  C   UNL     1     -98.933 151.451 240.014  1.00  0.00    -0.000 C 
BRANCH  28  29
ATOM     29  C   UNL     1     -98.647 150.027 239.501  1.00  0.00    -0.003 C 
ATOM     30  C   UNL     1     -99.372 149.702 238.197  1.00  0.00     0.004 C 
ENDBRANCH  28  29
ENDBRANCH  27  28
ENDBRANCH  26  27
ENDBRANCH  25  26
ENDBRANCH  24  25
ENDBRANCH  23  24
ENDBRANCH  22  23
ENDBRANCH  21  22
ENDBRANCH  20  21
ENDBRANCH  19  20
ENDBRANCH  18  19
ENDBRANCH  17  18
ENDBRANCH   1  17
TORSDOF 26
ENDMDL
MODEL 2
REMARK VINA RESULT:    -3.627      3.570      7.136
REMARK INTER + INTRA:         -13.342
REMARK INTER:                  -8.431
REMARK INTRA:                  -4.911
REMARK UNBOUND:                -4.203
REMARK SMILES CCCCCCCCCCCCCCCCCCCCCCCCCCCC(=O)[O-]
REMARK SMILES IDX 15 1 16 2 17 3 18 4 19 5 20 6 21 7 22 8 23 9 24 10 25 11
REMARK SMILES IDX 26 12 27 13 28 14 29 15 30 16 14 17 13 18 12 19 11 20 10 21
REMARK SMILES IDX 9 22 8 23 7 24 6 25 5 26 4 27 3 28 2 29 1 30
REMARK H PARENT
REMARK Flexibility Score: inf
ROOT
ATOM      1  C   UNL     1     -93.636 147.301 242.067  1.00  0.00     0.000 C 
ENDROOT
BRANCH   1   2
ATOM      2  C   UNL     1     -94.649 146.319 242.676  1.00  0.00     0.000 C 
BRANCH   2   3
ATOM      3  C   UNL     1     -96.046 146.955 242.764  1.00  0.00     0.000 C 
BRANCH   3   4
ATOM      4  C   UNL     1     -96.012 148.488 242.671  1.00  0.00     0.000 C 
BRANCH   4   5
ATOM      5  C   UNL     1     -97.304 149.145 243.186  1.00  0.00     0.000 C 
BRANCH   5   6
ATOM      6  C   UNL     1     -98.087 149.853 242.066  1.00  0.00     0.000 C 
BRANCH   6   7
ATOM      7  C   UNL     1     -98.745 148.860 241.096  1.00  0.00     0.000 C 
BRANCH   7   8
ATOM      8  C   UNL     1     -99.165 149.561 239.794  1.00  0.00     0.000 C 
BRANCH   8   9
ATOM      9  C   UNL     1     -99.220 151.095 239.928  1.00  0.00     0.000 C 
BRANCH   9  10
ATOM     10  C   UNL     1     -98.479 151.874 238.827  1.00  0.00     0.000 C 
BRANCH  10  11
ATOM     11  C   UNL     1     -97.626 151.018 237.872  1.00  0.00     0.000 C 
BRANCH  11  12
ATOM     12  C   UNL     1     -96.797 151.836 236.861  1.00  0.00     0.006 C 
BRANCH  12  13
ATOM     13  C   UNL     1     -96.584 153.292 237.302  1.00  0.00     0.053 C 
BRANCH  13  14
ATOM     14  C   UNL     1     -97.343 154.249 236.431  1.00  0.00     0.041 C 
ATOM     15  O   UNL     1     -97.317 154.128 235.177  1.00  0.00    -0.550 OA
ATOM     16  O   UNL     1     -98.125 155.242 237.007  1.00  0.00    -0.550 OA
ENDBRANCH  13  14
ENDBRANCH  12  13
ENDBRANCH  11  12
ENDBRANCH  10  11
ENDBRANCH   9  10
ENDBRANCH   8   9
ENDBRANCH   7   8
ENDBRANCH   6   7
ENDBRANCH   5   6
ENDBRANCH   4   5
ENDBRANCH   3   4
ENDBRANCH   2   3
ENDBRANCH   1   2
BRANCH   1  17
ATOM     17  C   UNL     1     -92.876 146.699 240.873  1.00  0.00     0.000 C 
BRANCH  17  18
ATOM     18  C   UNL     1     -93.662 146.829 239.556  1.00  0.00     0.000 C 
BRANCH  18  19
ATOM     19  C   UNL     1     -94.365 148.190 239.412  1.00  0.00     0.000 C 
BRANCH  19  20
ATOM     20  C   UNL     1     -95.847 148.059 239.030  1.00  0.00     0.000 C 
BRANCH  20  21
ATOM     21  C   UNL     1     -96.284 146.588 239.007  1.00  0.00     0.000 C 
BRANCH  21  22
ATOM     22  C   UNL     1     -97.136 146.285 237.765  1.00  0.00    -0.000 C 
BRANCH  22  23
ATOM     23  C   UNL     1     -97.580 147.561 237.023  1.00  0.00    -0.000 C 
BRANCH  23  24
ATOM     24  C   UNL     1     -97.185 147.589 235.534  1.00  0.00    -0.000 C 
BRANCH  24  25
ATOM     25  C   UNL     1     -96.101 148.615 235.168  1.00  0.00    -0.000 C 
BRANCH  25  26
ATOM     26  C   UNL     1     -94.788 147.958 234.712  1.00  0.00    -0.000 C 
BRANCH  26  27
ATOM     27  C   UNL     1     -93.917 147.573 235.917  1.00  0.00    -0.000 C 
BRANCH  27  28
ATOM     28  C   UNL     1     -93.402 146.124 235.846  1.00  0.00    -0.000 C 
BRANCH  28  29
ATOM     29  C   UNL     1     -91.885 145.965 236.052  1.00  0.00    -0.003 C 
ATOM     30  C   UNL     1     -91.056 146.609 234.942  1.00  0.00     0.004 C 
ENDBRANCH  28  29
ENDBRANCH  27  28
ENDBRANCH  26  27
ENDBRANCH  25  26
ENDBRANCH  24  25
ENDBRANCH  23  24
ENDBRANCH  22  23
ENDBRANCH  21  22
ENDBRANCH  20  21
ENDBRANCH  19  20
ENDBRANCH  18  19
ENDBRANCH  17  18
ENDBRANCH   1  17
TORSDOF 26
ENDMDL
MODEL 3
REMARK VINA RESULT:    -3.612      3.555      7.022
REMARK INTER + INTRA:         -13.306
REMARK INTER:                  -8.693
REMARK INTRA:                  -4.613
REMARK UNBOUND:                -4.203
REMARK SMILES CCCCCCCCCCCCCCCCCCCCCCCCCCCC(=O)[O-]
REMARK SMILES IDX 15 1 16 2 17 3 18 4 19 5 20 6 21 7 22 8 23 9 24 10 25 11
REMARK SMILES IDX 26 12 27 13 28 14 29 15 30 16 14 17 13 18 12 19 11 20 10 21
REMARK SMILES IDX 9 22 8 23 7 24 6 25 5 26 4 27 3 28 2 29 1 30
REMARK H PARENT
REMARK Flexibility Score: inf
ROOT
ATOM      1  C   UNL     1     -93.902 147.431 242.115  1.00  0.00     0.000 C 
ENDROOT
BRANCH   1   2
ATOM      2  C   UNL     1     -95.181 146.605 242.323  1.00  0.00     0.000 C 
BRANCH   2   3
ATOM      3  C   UNL     1     -96.208 147.384 243.159  1.00  0.00     0.000 C 
BRANCH   3   4
ATOM      4  C   UNL     1     -96.188 148.894 242.877  1.00  0.00     0.000 C 
BRANCH   4   5
ATOM      5  C   UNL     1     -97.577 149.542 243.002  1.00  0.00     0.000 C 
BRANCH   5   6
ATOM      6  C   UNL     1     -98.705 148.602 242.543  1.00  0.00     0.000 C 
BRANCH   6   7
ATOM      7  C   UNL     1     -99.568 149.223 241.435  1.00  0.00     0.000 C 
BRANCH   7   8
ATOM      8  C   UNL     1     -98.721 150.116 240.513  1.00  0.00     0.000 C 
BRANCH   8   9
ATOM      9  C   UNL     1     -99.414 151.446 240.163  1.00  0.00     0.000 C 
BRANCH   9  10
ATOM     10  C   UNL     1     -98.835 152.182 238.941  1.00  0.00     0.000 C 
BRANCH  10  11
ATOM     11  C   UNL     1     -98.001 151.313 237.981  1.00  0.00     0.000 C 
BRANCH  11  12
ATOM     12  C   UNL     1     -96.869 152.075 237.261  1.00  0.00     0.006 C 
BRANCH  12  13
ATOM     13  C   UNL     1     -97.036 153.601 237.336  1.00  0.00     0.053 C 
BRANCH  13  14
ATOM     14  C   UNL     1     -97.714 154.142 236.113  1.00  0.00     0.041 C 
ATOM     15  O   UNL     1     -98.682 154.942 236.221  1.00  0.00    -0.550 OA
ATOM     16  O   UNL     1     -97.242 153.805 234.851  1.00  0.00    -0.550 OA
ENDBRANCH  13  14
ENDBRANCH  12  13
ENDBRANCH  11  12
ENDBRANCH  10  11
ENDBRANCH   9  10
ENDBRANCH   8   9
ENDBRANCH   7   8
ENDBRANCH   6   7
ENDBRANCH   5   6
ENDBRANCH   4   5
ENDBRANCH   3   4
ENDBRANCH   2   3
ENDBRANCH   1   2
BRANCH   1  17
ATOM     17  C   UNL     1     -93.156 147.050 240.825  1.00  0.00     0.000 C 
BRANCH  17  18
ATOM     18  C   UNL     1     -92.228 145.837 241.025  1.00  0.00     0.000 C 
BRANCH  18  19
ATOM     19  C   UNL     1     -91.920 145.099 239.711  1.00  0.00     0.000 C 
BRANCH  19  20
ATOM     20  C   UNL     1     -92.858 145.505 238.564  1.00  0.00     0.000 C 
BRANCH  20  21
ATOM     21  C   UNL     1     -92.256 145.137 237.201  1.00  0.00     0.000 C 
BRANCH  21  22
ATOM     22  C   UNL     1     -92.610 146.190 236.140  1.00  0.00    -0.000 C 
BRANCH  22  23
ATOM     23  C   UNL     1     -94.099 146.588 236.170  1.00  0.00    -0.000 C 
BRANCH  23  24
ATOM     24  C   UNL     1     -94.374 148.020 235.672  1.00  0.00    -0.000 C 
BRANCH  24  25
ATOM     25  C   UNL     1     -95.254 148.874 236.600  1.00  0.00    -0.000 C 
BRANCH  25  26
ATOM     26  C   UNL     1     -94.819 148.796 238.072  1.00  0.00    -0.000 C 
BRANCH  26  27
ATOM     27  C   UNL     1     -96.014 148.489 238.985  1.00  0.00    -0.000 C 
BRANCH  27  28
ATOM     28  C   UNL     1     -96.453 147.015 238.924  1.00  0.00    -0.000 C 
BRANCH  28  29
ATOM     29  C   UNL     1     -97.948 146.772 239.202  1.00  0.00    -0.003 C 
ATOM     30  C   UNL     1     -98.195 145.709 240.271  1.00  0.00     0.004 C 
ENDBRANCH  28  29
ENDBRANCH  27  28
ENDBRANCH  26  27
ENDBRANCH  25  26
ENDBRANCH  24  25
ENDBRANCH  23  24
ENDBRANCH  22  23
ENDBRANCH  21  22
ENDBRANCH  20  21
ENDBRANCH  19  20
ENDBRANCH  18  19
ENDBRANCH  17  18
ENDBRANCH   1  17
TORSDOF 26
ENDMDL
MODEL 4
REMARK VINA RESULT:    -3.572      4.006      7.631
REMARK INTER + INTRA:         -13.204
REMARK INTER:                  -8.543
REMARK INTRA:                  -4.661
REMARK UNBOUND:                -4.203
REMARK SMILES CCCCCCCCCCCCCCCCCCCCCCCCCCCC(=O)[O-]
REMARK SMILES IDX 15 1 16 2 17 3 18 4 19 5 20 6 21 7 22 8 23 9 24 10 25 11
REMARK SMILES IDX 26 12 27 13 28 14 29 15 30 16 14 17 13 18 12 19 11 20 10 21
REMARK SMILES IDX 9 22 8 23 7 24 6 25 5 26 4 27 3 28 2 29 1 30
REMARK H PARENT
REMARK Flexibility Score: inf
ROOT
ATOM      1  C   UNL     1     -95.175 145.168 239.528  1.00  0.00     0.000 C 
ENDROOT
BRANCH   1   2
ATOM      2  C   UNL     1     -95.988 146.365 239.012  1.00  0.00     0.000 C 
BRANCH   2   3
ATOM      3  C   UNL     1     -95.146 147.233 238.064  1.00  0.00     0.000 C 
BRANCH   3   4
ATOM      4  C   UNL     1     -94.901 148.649 238.608  1.00  0.00     0.000 C 
BRANCH   4   5
ATOM      5  C   UNL     1     -94.696 149.689 237.494  1.00  0.00     0.000 C 
BRANCH   5   6
ATOM      6  C   UNL     1     -95.841 149.679 236.467  1.00  0.00     0.000 C 
BRANCH   6   7
ATOM      7  C   UNL     1     -95.544 150.572 235.252  1.00  0.00     0.000 C 
BRANCH   7   8
ATOM      8  C   UNL     1     -96.607 151.672 235.106  1.00  0.00     0.000 C 
BRANCH   8   9
ATOM      9  C   UNL     1     -97.816 151.467 236.038  1.00  0.00     0.000 C 
BRANCH   9  10
ATOM     10  C   UNL     1     -97.986 152.537 237.132  1.00  0.00     0.000 C 
BRANCH  10  11
ATOM     11  C   UNL     1     -96.694 153.260 237.556  1.00  0.00     0.000 C 
BRANCH  11  12
ATOM     12  C   UNL     1     -96.716 154.783 237.317  1.00  0.00     0.006 C 
BRANCH  12  13
ATOM     13  C   UNL     1     -97.894 155.234 236.439  1.00  0.00     0.053 C 
BRANCH  13  14
ATOM     14  C   UNL     1     -97.431 155.696 235.090  1.00  0.00     0.041 C 
ATOM     15  O   UNL     1     -96.970 156.859 234.937  1.00  0.00    -0.550 OA
ATOM     16  O   UNL     1     -97.456 154.822 234.011  1.00  0.00    -0.550 OA
ENDBRANCH  13  14
ENDBRANCH  12  13
ENDBRANCH  11  12
ENDBRANCH  10  11
ENDBRANCH   9  10
ENDBRANCH   8   9
ENDBRANCH   7   8
ENDBRANCH   6   7
ENDBRANCH   5   6
ENDBRANCH   4   5
ENDBRANCH   3   4
ENDBRANCH   2   3
ENDBRANCH   1   2
BRANCH   1  17
ATOM     17  C   UNL     1     -93.681 145.273 239.176  1.00  0.00     0.000 C 
BRANCH  17  18
ATOM     18  C   UNL     1     -92.811 145.566 240.412  1.00  0.00     0.000 C 
BRANCH  18  19
ATOM     19  C   UNL     1     -93.420 145.020 241.714  1.00  0.00     0.000 C 
BRANCH  19  20
ATOM     20  C   UNL     1     -93.739 146.125 242.734  1.00  0.00     0.000 C 
BRANCH  20  21
ATOM     21  C   UNL     1     -93.663 147.514 242.085  1.00  0.00     0.000 C 
BRANCH  21  22
ATOM     22  C   UNL     1     -95.032 148.209 242.112  1.00  0.00    -0.000 C 
BRANCH  22  23
ATOM     23  C   UNL     1     -96.131 147.336 242.751  1.00  0.00    -0.000 C 
BRANCH  23  24
ATOM     24  C   UNL     1     -97.069 148.106 243.699  1.00  0.00    -0.000 C 
BRANCH  24  25
ATOM     25  C   UNL     1     -97.464 149.514 243.222  1.00  0.00    -0.000 C 
BRANCH  25  26
ATOM     26  C   UNL     1     -98.740 149.517 242.366  1.00  0.00    -0.000 C 
BRANCH  26  27
ATOM     27  C   UNL     1     -98.522 150.282 241.053  1.00  0.00    -0.000 C 
BRANCH  27  28
ATOM     28  C   UNL     1     -98.212 149.356 239.863  1.00  0.00    -0.000 C 
BRANCH  28  29
ATOM     29  C   UNL     1     -99.359 149.196 238.850  1.00  0.00    -0.003 C 
ATOM     30  C   UNL     1     -99.021 148.243 237.705  1.00  0.00     0.004 C 
ENDBRANCH  28  29
ENDBRANCH  27  28
ENDBRANCH  26  27
ENDBRANCH  25  26
ENDBRANCH  24  25
ENDBRANCH  23  24
ENDBRANCH  22  23
ENDBRANCH  21  22
ENDBRANCH  20  21
ENDBRANCH  19  20
ENDBRANCH  18  19
ENDBRANCH  17  18
ENDBRANCH   1  17
TORSDOF 26
ENDMDL
MODEL 5
REMARK VINA RESULT:    -3.554      3.466      7.258
REMARK INTER + INTRA:         -13.160
REMARK INTER:                  -8.039
REMARK INTRA:                  -5.121
REMARK UNBOUND:                -4.203
REMARK SMILES CCCCCCCCCCCCCCCCCCCCCCCCCCCC(=O)[O-]
REMARK SMILES IDX 15 1 16 2 17 3 18 4 19 5 20 6 21 7 22 8 23 9 24 10 25 11
REMARK SMILES IDX 26 12 27 13 28 14 29 15 30 16 14 17 13 18 12 19 11 20 10 21
REMARK SMILES IDX 9 22 8 23 7 24 6 25 5 26 4 27 3 28 2 29 1 30
REMARK H PARENT
REMARK Flexibility Score: inf
ROOT
ATOM      1  C   UNL     1     -96.229 148.567 242.918  1.00  0.00     0.000 C 
ENDROOT
BRANCH   1   2
ATOM      2  C   UNL     1     -96.626 147.193 243.479  1.00  0.00     0.000 C 
BRANCH   2   3
ATOM      3  C   UNL     1     -97.420 147.341 244.786  1.00  0.00     0.000 C 
BRANCH   3   4
ATOM      4  C   UNL     1     -97.763 148.801 245.116  1.00  0.00     0.000 C 
BRANCH   4   5
ATOM      5  C   UNL     1     -99.264 149.018 245.370  1.00  0.00     0.000 C 
BRANCH   5   6
ATOM      6  C   UNL     1    -100.122 148.675 244.140  1.00  0.00     0.000 C 
BRANCH   6   7
ATOM      7  C   UNL     1    -100.069 149.773 243.067  1.00  0.00     0.000 C 
BRANCH   7   8
ATOM      8  C   UNL     1     -99.543 149.214 241.734  1.00  0.00     0.000 C 
BRANCH   8   9
ATOM      9  C   UNL     1     -98.756 150.254 240.915  1.00  0.00     0.000 C 
BRANCH   9  10
ATOM     10  C   UNL     1     -99.447 150.725 239.622  1.00  0.00     0.000 C 
BRANCH  10  11
ATOM     11  C   UNL     1     -98.869 152.008 238.995  1.00  0.00     0.000 C 
BRANCH  11  12
ATOM     12  C   UNL     1     -98.429 151.848 237.525  1.00  0.00     0.006 C 
BRANCH  12  13
ATOM     13  C   UNL     1     -96.901 151.825 237.358  1.00  0.00     0.053 C 
BRANCH  13  14
ATOM     14  C   UNL     1     -96.506 151.749 235.913  1.00  0.00     0.041 C 
ATOM     15  O   UNL     1     -97.235 152.265 235.024  1.00  0.00    -0.550 OA
ATOM     16  O   UNL     1     -95.303 151.155 235.553  1.00  0.00    -0.550 OA
ENDBRANCH  13  14
ENDBRANCH  12  13
ENDBRANCH  11  12
ENDBRANCH  10  11
ENDBRANCH   9  10
ENDBRANCH   8   9
ENDBRANCH   7   8
ENDBRANCH   6   7
ENDBRANCH   5   6
ENDBRANCH   4   5
ENDBRANCH   3   4
ENDBRANCH   2   3
ENDBRANCH   1   2
BRANCH   1  17
ATOM     17  C   UNL     1     -94.790 148.591 242.377  1.00  0.00     0.000 C 
BRANCH  17  18
ATOM     18  C   UNL     1     -94.258 147.179 242.074  1.00  0.00     0.000 C 
BRANCH  18  19
ATOM     19  C   UNL     1     -93.236 147.160 240.925  1.00  0.00     0.000 C 
BRANCH  19  20
ATOM     20  C   UNL     1     -92.449 145.842 240.848  1.00  0.00     0.000 C 
BRANCH  20  21
ATOM     21  C   UNL     1     -92.429 145.294 239.414  1.00  0.00     0.000 C 
BRANCH  21  22
ATOM     22  C   UNL     1     -93.842 145.270 238.814  1.00  0.00    -0.000 C 
BRANCH  22  23
ATOM     23  C   UNL     1     -93.840 145.423 237.280  1.00  0.00    -0.000 C 
BRANCH  23  24
ATOM     24  C   UNL     1     -93.706 146.880 236.797  1.00  0.00    -0.000 C 
BRANCH  24  25
ATOM     25  C   UNL     1     -94.986 147.723 236.910  1.00  0.00    -0.000 C 
BRANCH  25  26
ATOM     26  C   UNL     1     -94.934 148.734 238.066  1.00  0.00    -0.000 C 
BRANCH  26  27
ATOM     27  C   UNL     1     -96.130 148.552 239.013  1.00  0.00    -0.000 C 
BRANCH  27  28
ATOM     28  C   UNL     1     -97.355 147.930 238.319  1.00  0.00    -0.000 C 
BRANCH  28  29
ATOM     29  C   UNL     1     -98.132 146.908 239.168  1.00  0.00    -0.003 C 
ATOM     30  C   UNL     1     -97.224 146.013 240.011  1.00  0.00     0.004 C 
ENDBRANCH  28  29
ENDBRANCH  27  28
ENDBRANCH  26  27
ENDBRANCH  25  26
ENDBRANCH  24  25
ENDBRANCH  23  24
ENDBRANCH  22  23
ENDBRANCH  21  22
ENDBRANCH  20  21
ENDBRANCH  19  20
ENDBRANCH  18  19
ENDBRANCH  17  18
ENDBRANCH   1  17
TORSDOF 26
ENDMDL
MODEL 6
REMARK VINA RESULT:    -3.543      3.105      6.874
REMARK INTER + INTRA:         -13.132
REMARK INTER:                  -8.331
REMARK INTRA:                  -4.801
REMARK UNBOUND:                -4.203
REMARK SMILES CCCCCCCCCCCCCCCCCCCCCCCCCCCC(=O)[O-]
REMARK SMILES IDX 15 1 16 2 17 3 18 4 19 5 20 6 21 7 22 8 23 9 24 10 25 11
REMARK SMILES IDX 26 12 27 13 28 14 29 15 30 16 14 17 13 18 12 19 11 20 10 21
REMARK SMILES IDX 9 22 8 23 7 24 6 25 5 26 4 27 3 28 2 29 1 30
REMARK H PARENT
REMARK Flexibility Score: inf
ROOT
ATOM      1  C   UNL     1     -94.302 147.479 241.666  1.00  0.00     0.000 C 
ENDROOT
BRANCH   1   2
ATOM      2  C   UNL     1     -92.877 147.212 241.157  1.00  0.00     0.000 C 
BRANCH   2   3
ATOM      3  C   UNL     1     -92.607 145.703 241.047  1.00  0.00     0.000 C 
BRANCH   3   4
ATOM      4  C   UNL     1     -92.122 145.282 239.652  1.00  0.00     0.000 C 
BRANCH   4   5
ATOM      5  C   UNL     1     -93.235 145.340 238.592  1.00  0.00     0.000 C 
BRANCH   5   6
ATOM      6  C   UNL     1     -92.677 145.451 237.163  1.00  0.00     0.000 C 
BRANCH   6   7
ATOM      7  C   UNL     1     -93.339 146.583 236.363  1.00  0.00     0.000 C 
BRANCH   7   8
ATOM      8  C   UNL     1     -94.867 146.552 236.529  1.00  0.00     0.000 C 
BRANCH   8   9
ATOM      9  C   UNL     1     -95.471 147.946 236.781  1.00  0.00     0.000 C 
BRANCH   9  10
ATOM     10  C   UNL     1     -94.451 149.049 237.119  1.00  0.00     0.000 C 
BRANCH  10  11
ATOM     11  C   UNL     1     -94.918 150.489 236.837  1.00  0.00     0.000 C 
BRANCH  11  12
ATOM     12  C   UNL     1     -96.394 150.756 237.195  1.00  0.00     0.006 C 
BRANCH  12  13
ATOM     13  C   UNL     1     -97.083 151.719 236.215  1.00  0.00     0.053 C 
BRANCH  13  14
ATOM     14  C   UNL     1     -97.466 153.005 236.883  1.00  0.00     0.041 C 
ATOM     15  O   UNL     1     -98.656 153.419 236.838  1.00  0.00    -0.550 OA
ATOM     16  O   UNL     1     -96.519 153.721 237.604  1.00  0.00    -0.550 OA
ENDBRANCH  13  14
ENDBRANCH  12  13
ENDBRANCH  11  12
ENDBRANCH  10  11
ENDBRANCH   9  10
ENDBRANCH   8   9
ENDBRANCH   7   8
ENDBRANCH   6   7
ENDBRANCH   5   6
ENDBRANCH   4   5
ENDBRANCH   3   4
ENDBRANCH   2   3
ENDBRANCH   1   2
BRANCH   1  17
ATOM     17  C   UNL     1     -95.258 147.914 240.542  1.00  0.00     0.000 C 
BRANCH  17  18
ATOM     18  C   UNL     1     -96.249 146.801 240.157  1.00  0.00     0.000 C 
BRANCH  18  19
ATOM     19  C   UNL     1     -96.373 145.712 241.236  1.00  0.00     0.000 C 
BRANCH  19  20
ATOM     20  C   UNL     1     -97.789 145.612 241.823  1.00  0.00     0.000 C 
BRANCH  20  21
ATOM     21  C   UNL     1     -97.755 145.065 243.257  1.00  0.00     0.000 C 
BRANCH  21  22
ATOM     22  C   UNL     1     -96.866 145.935 244.158  1.00  0.00    -0.000 C 
BRANCH  22  23
ATOM     23  C   UNL     1     -97.674 146.726 245.206  1.00  0.00    -0.000 C 
BRANCH  23  24
ATOM     24  C   UNL     1     -97.618 148.254 245.016  1.00  0.00    -0.000 C 
BRANCH  24  25
ATOM     25  C   UNL     1     -96.772 148.731 243.824  1.00  0.00    -0.000 C 
BRANCH  25  26
ATOM     26  C   UNL     1     -97.503 149.764 242.951  1.00  0.00    -0.000 C 
BRANCH  26  27
ATOM     27  C   UNL     1     -98.802 149.181 242.377  1.00  0.00    -0.000 C 
BRANCH  27  28
ATOM     28  C   UNL     1     -98.836 149.194 240.838  1.00  0.00    -0.000 C 
BRANCH  28  29
ATOM     29  C   UNL     1     -98.867 150.596 240.202  1.00  0.00    -0.003 C 
ATOM     30  C   UNL     1     -99.755 150.673 238.961  1.00  0.00     0.004 C 
ENDBRANCH  28  29
ENDBRANCH  27  28
ENDBRANCH  26  27
ENDBRANCH  25  26
ENDBRANCH  24  25
ENDBRANCH  23  24
ENDBRANCH  22  23
ENDBRANCH  21  22
ENDBRANCH  20  21
ENDBRANCH  19  20
ENDBRANCH  18  19
ENDBRANCH  17  18
ENDBRANCH   1  17
TORSDOF 26
ENDMDL
MODEL 7
REMARK VINA RESULT:    -3.540      2.446      6.001
REMARK INTER + INTRA:         -13.124
REMARK INTER:                  -8.023
REMARK INTRA:                  -5.101
REMARK UNBOUND:                -4.203
REMARK SMILES CCCCCCCCCCCCCCCCCCCCCCCCCCCC(=O)[O-]
REMARK SMILES IDX 15 1 16 2 17 3 18 4 19 5 20 6 21 7 22 8 23 9 24 10 25 11
REMARK SMILES IDX 26 12 27 13 28 14 29 15 30 16 14 17 13 18 12 19 11 20 10 21
REMARK SMILES IDX 9 22 8 23 7 24 6 25 5 26 4 27 3 28 2 29 1 30
REMARK H PARENT
REMARK Flexibility Score: inf
ROOT
ATOM      1  C   UNL     1     -96.089 147.108 242.862  1.00  0.00     0.000 C 
ENDROOT
BRANCH   1   2
ATOM      2  C   UNL     1     -96.011 148.612 242.560  1.00  0.00     0.000 C 
BRANCH   2   3
ATOM      3  C   UNL     1     -96.940 149.409 243.489  1.00  0.00     0.000 C 
BRANCH   3   4
ATOM      4  C   UNL     1     -97.359 148.617 244.737  1.00  0.00     0.000 C 
BRANCH   4   5
ATOM      5  C   UNL     1     -98.750 149.018 245.258  1.00  0.00     0.000 C 
BRANCH   5   6
ATOM      6  C   UNL     1     -99.885 148.487 244.365  1.00  0.00     0.000 C 
BRANCH   6   7
ATOM      7  C   UNL     1     -99.725 146.994 244.045  1.00  0.00     0.000 C 
BRANCH   7   8
ATOM      8  C   UNL     1     -99.788 146.747 242.529  1.00  0.00     0.000 C 
BRANCH   8   9
ATOM      9  C   UNL     1     -99.806 148.052 241.709  1.00  0.00     0.000 C 
BRANCH   9  10
ATOM     10  C   UNL     1     -99.728 147.864 240.183  1.00  0.00     0.000 C 
BRANCH  10  11
ATOM     11  C   UNL     1     -99.367 149.128 239.380  1.00  0.00     0.000 C 
BRANCH  11  12
ATOM     12  C   UNL     1     -98.627 150.206 240.199  1.00  0.00     0.006 C 
BRANCH  12  13
ATOM     13  C   UNL     1     -99.251 151.603 240.050  1.00  0.00     0.053 C 
BRANCH  13  14
ATOM     14  C   UNL     1    -100.699 151.604 240.439  1.00  0.00     0.041 C 
ATOM     15  O   UNL     1    -101.039 151.393 241.635  1.00  0.00    -0.550 OA
ATOM     16  O   UNL     1    -101.673 151.892 239.492  1.00  0.00    -0.550 OA
ENDBRANCH  13  14
ENDBRANCH  12  13
ENDBRANCH  11  12
ENDBRANCH  10  11
ENDBRANCH   9  10
ENDBRANCH   8   9
ENDBRANCH   7   8
ENDBRANCH   6   7
ENDBRANCH   5   6
ENDBRANCH   4   5
ENDBRANCH   3   4
ENDBRANCH   2   3
ENDBRANCH   1   2
BRANCH   1  17
ATOM     17  C   UNL     1     -94.791 146.365 242.504  1.00  0.00     0.000 C 
BRANCH  17  18
ATOM     18  C   UNL     1     -93.678 147.325 242.047  1.00  0.00     0.000 C 
BRANCH  18  19
ATOM     19  C   UNL     1     -92.710 146.681 241.041  1.00  0.00     0.000 C 
BRANCH  19  20
ATOM     20  C   UNL     1     -93.371 145.579 240.198  1.00  0.00     0.000 C 
BRANCH  20  21
ATOM     21  C   UNL     1     -93.869 146.133 238.856  1.00  0.00     0.000 C 
BRANCH  21  22
ATOM     22  C   UNL     1     -95.349 145.787 238.632  1.00  0.00    -0.000 C 
BRANCH  22  23
ATOM     23  C   UNL     1     -96.301 146.884 239.148  1.00  0.00    -0.000 C 
BRANCH  23  24
ATOM     24  C   UNL     1     -95.726 148.310 239.047  1.00  0.00    -0.000 C 
BRANCH  24  25
ATOM     25  C   UNL     1     -95.970 149.015 237.703  1.00  0.00    -0.000 C 
BRANCH  25  26
ATOM     26  C   UNL     1     -94.742 149.799 237.211  1.00  0.00    -0.000 C 
BRANCH  26  27
ATOM     27  C   UNL     1     -95.159 150.962 236.299  1.00  0.00    -0.000 C 
BRANCH  27  28
ATOM     28  C   UNL     1     -95.995 152.028 237.029  1.00  0.00    -0.000 C 
BRANCH  28  29
ATOM     29  C   UNL     1     -96.995 152.789 236.140  1.00  0.00    -0.003 C 
ATOM     30  C   UNL     1     -98.400 152.856 236.738  1.00  0.00     0.004 C 
ENDBRANCH  28  29
ENDBRANCH  27  28
ENDBRANCH  26  27
ENDBRANCH  25  26
ENDBRANCH  24  25
ENDBRANCH  23  24
ENDBRANCH  22  23
ENDBRANCH  21  22
ENDBRANCH  20  21
ENDBRANCH  19  20
ENDBRANCH  18  19
ENDBRANCH  17  18
ENDBRANCH   1  17
TORSDOF 26
ENDMDL
MODEL 8
REMARK VINA RESULT:    -3.535      3.441      6.976
REMARK INTER + INTRA:         -13.110
REMARK INTER:                  -8.604
REMARK INTRA:                  -4.506
REMARK UNBOUND:                -4.203
REMARK SMILES CCCCCCCCCCCCCCCCCCCCCCCCCCCC(=O)[O-]
REMARK SMILES IDX 15 1 16 2 17 3 18 4 19 5 20 6 21 7 22 8 23 9 24 10 25 11
REMARK SMILES IDX 26 12 27 13 28 14 29 15 30 16 14 17 13 18 12 19 11 20 10 21
REMARK SMILES IDX 9 22 8 23 7 24 6 25 5 26 4 27 3 28 2 29 1 30
REMARK H PARENT
REMARK Flexibility Score: inf
ROOT
ATOM      1  C   UNL     1     -93.645 145.878 240.169  1.00  0.00     0.000 C 
ENDROOT
BRANCH   1   2
ATOM      2  C   UNL     1     -92.493 145.319 239.320  1.00  0.00     0.000 C 
BRANCH   2   3
ATOM      3  C   UNL     1     -92.981 144.935 237.914  1.00  0.00     0.000 C 
BRANCH   3   4
ATOM      4  C   UNL     1     -92.024 145.390 236.803  1.00  0.00     0.000 C 
BRANCH   4   5
ATOM      5  C   UNL     1     -92.697 146.320 235.779  1.00  0.00     0.000 C 
BRANCH   5   6
ATOM      6  C   UNL     1     -94.085 146.794 236.244  1.00  0.00     0.000 C 
BRANCH   6   7
ATOM      7  C   UNL     1     -94.284 148.304 236.042  1.00  0.00     0.000 C 
BRANCH   7   8
ATOM      8  C   UNL     1     -95.340 148.579 234.959  1.00  0.00     0.000 C 
BRANCH   8   9
ATOM      9  C   UNL     1     -96.161 149.853 235.232  1.00  0.00     0.000 C 
BRANCH   9  10
ATOM     10  C   UNL     1     -95.344 151.065 235.717  1.00  0.00     0.000 C 
BRANCH  10  11
ATOM     11  C   UNL     1     -95.771 151.646 237.078  1.00  0.00     0.000 C 
BRANCH  11  12
ATOM     12  C   UNL     1     -97.295 151.651 237.312  1.00  0.00     0.006 C 
BRANCH  12  13
ATOM     13  C   UNL     1     -97.846 153.049 237.637  1.00  0.00     0.053 C 
BRANCH  13  14
ATOM     14  C   UNL     1     -97.322 154.082 236.685  1.00  0.00     0.041 C 
ATOM     15  O   UNL     1     -97.669 154.067 235.473  1.00  0.00    -0.550 OA
ATOM     16  O   UNL     1     -96.493 155.095 237.147  1.00  0.00    -0.550 OA
ENDBRANCH  13  14
ENDBRANCH  12  13
ENDBRANCH  11  12
ENDBRANCH  10  11
ENDBRANCH   9  10
ENDBRANCH   8   9
ENDBRANCH   7   8
ENDBRANCH   6   7
ENDBRANCH   5   6
ENDBRANCH   4   5
ENDBRANCH   3   4
ENDBRANCH   2   3
ENDBRANCH   1   2
BRANCH   1  17
ATOM     17  C   UNL     1     -93.481 147.377 240.472  1.00  0.00     0.000 C 
BRANCH  17  18
ATOM     18  C   UNL     1     -94.488 148.243 239.693  1.00  0.00     0.000 C 
BRANCH  18  19
ATOM     19  C   UNL     1     -95.803 147.504 239.392  1.00  0.00     0.000 C 
BRANCH  19  20
ATOM     20  C   UNL     1     -96.874 148.418 238.776  1.00  0.00     0.000 C 
BRANCH  20  21
ATOM     21  C   UNL     1     -98.190 148.334 239.561  1.00  0.00     0.000 C 
BRANCH  21  22
ATOM     22  C   UNL     1     -98.414 149.602 240.398  1.00  0.00    -0.000 C 
BRANCH  22  23
ATOM     23  C   UNL     1     -98.489 149.311 241.910  1.00  0.00    -0.000 C 
BRANCH  23  24
ATOM     24  C   UNL     1     -97.245 149.765 242.696  1.00  0.00    -0.000 C 
BRANCH  24  25
ATOM     25  C   UNL     1     -96.175 148.681 242.906  1.00  0.00    -0.000 C 
BRANCH  25  26
ATOM     26  C   UNL     1     -96.766 147.262 242.945  1.00  0.00    -0.000 C 
BRANCH  26  27
ATOM     27  C   UNL     1     -96.998 146.801 244.391  1.00  0.00    -0.000 C 
BRANCH  27  28
ATOM     28  C   UNL     1     -98.464 146.944 244.838  1.00  0.00    -0.000 C 
BRANCH  28  29
ATOM     29  C   UNL     1     -98.666 147.694 246.168  1.00  0.00    -0.003 C 
ATOM     30  C   UNL     1     -97.861 148.990 246.255  1.00  0.00     0.004 C 
ENDBRANCH  28  29
ENDBRANCH  27  28
ENDBRANCH  26  27
ENDBRANCH  25  26
ENDBRANCH  24  25
ENDBRANCH  23  24
ENDBRANCH  22  23
ENDBRANCH  21  22
ENDBRANCH  20  21
ENDBRANCH  19  20
ENDBRANCH  18  19
ENDBRANCH  17  18
ENDBRANCH   1  17
TORSDOF 26
ENDMDL
MODEL 9
REMARK VINA RESULT:    -3.499      1.381      3.326
REMARK INTER + INTRA:         -13.020
REMARK INTER:                  -8.078
REMARK INTRA:                  -4.942
REMARK UNBOUND:                -4.203
REMARK SMILES CCCCCCCCCCCCCCCCCCCCCCCCCCCC(=O)[O-]
REMARK SMILES IDX 15 1 16 2 17 3 18 4 19 5 20 6 21 7 22 8 23 9 24 10 25 11
REMARK SMILES IDX 26 12 27 13 28 14 29 15 30 16 14 17 13 18 12 19 11 20 10 21
REMARK SMILES IDX 9 22 8 23 7 24 6 25 5 26 4 27 3 28 2 29 1 30
REMARK H PARENT
REMARK Flexibility Score: inf
ROOT
ATOM      1  C   UNL     1     -97.794 147.836 239.468  1.00  0.00     0.000 C 
ENDROOT
BRANCH   1   2
ATOM      2  C   UNL     1     -96.386 147.328 239.118  1.00  0.00     0.000 C 
BRANCH   2   3
ATOM      3  C   UNL     1     -95.408 148.500 238.939  1.00  0.00     0.000 C 
BRANCH   3   4
ATOM      4  C   UNL     1     -94.028 148.226 239.556  1.00  0.00     0.000 C 
BRANCH   4   5
ATOM      5  C   UNL     1     -93.639 146.739 239.511  1.00  0.00     0.000 C 
BRANCH   5   6
ATOM      6  C   UNL     1     -93.057 146.245 240.846  1.00  0.00     0.000 C 
BRANCH   6   7
ATOM      7  C   UNL     1     -93.609 147.026 242.048  1.00  0.00     0.000 C 
BRANCH   7   8
ATOM      8  C   UNL     1     -94.755 146.257 242.724  1.00  0.00     0.000 C 
BRANCH   8   9
ATOM      9  C   UNL     1     -96.074 147.053 242.757  1.00  0.00     0.000 C 
BRANCH   9  10
ATOM     10  C   UNL     1     -95.914 148.584 242.752  1.00  0.00     0.000 C 
BRANCH  10  11
ATOM     11  C   UNL     1     -97.204 149.384 243.010  1.00  0.00     0.000 C 
BRANCH  11  12
ATOM     12  C   UNL     1     -98.156 148.733 244.034  1.00  0.00     0.006 C 
BRANCH  12  13
ATOM     13  C   UNL     1     -97.737 148.994 245.489  1.00  0.00     0.053 C 
BRANCH  13  14
ATOM     14  C   UNL     1     -98.920 149.010 246.410  1.00  0.00     0.041 C 
ATOM     15  O   UNL     1     -99.934 149.707 246.135  1.00  0.00    -0.550 OA
ATOM     16  O   UNL     1     -98.927 148.211 247.546  1.00  0.00    -0.550 OA
ENDBRANCH  13  14
ENDBRANCH  12  13
ENDBRANCH  11  12
ENDBRANCH  10  11
ENDBRANCH   9  10
ENDBRANCH   8   9
ENDBRANCH   7   8
ENDBRANCH   6   7
ENDBRANCH   5   6
ENDBRANCH   4   5
ENDBRANCH   3   4
ENDBRANCH   2   3
ENDBRANCH   1   2
BRANCH   1  17
ATOM     17  C   UNL     1     -97.938 149.355 239.273  1.00  0.00     0.000 C 
BRANCH  17  18
ATOM     18  C   UNL     1     -99.391 149.768 238.974  1.00  0.00     0.000 C 
BRANCH  18  19
ATOM     19  C   UNL     1     -99.484 151.048 238.127  1.00  0.00     0.000 C 
BRANCH  19  20
ATOM     20  C   UNL     1     -99.597 152.321 238.981  1.00  0.00     0.000 C 
BRANCH  20  21
ATOM     21  C   UNL     1     -98.987 153.529 238.256  1.00  0.00     0.000 C 
BRANCH  21  22
ATOM     22  C   UNL     1     -98.737 153.213 236.774  1.00  0.00    -0.000 C 
BRANCH  22  23
ATOM     23  C   UNL     1     -97.262 153.405 236.366  1.00  0.00    -0.000 C 
BRANCH  23  24
ATOM     24  C   UNL     1     -96.252 152.946 237.435  1.00  0.00    -0.000 C 
BRANCH  24  25
ATOM     25  C   UNL     1     -95.533 151.624 237.125  1.00  0.00    -0.000 C 
BRANCH  25  26
ATOM     26  C   UNL     1     -95.806 151.117 235.700  1.00  0.00    -0.000 C 
BRANCH  26  27
ATOM     27  C   UNL     1     -95.553 149.606 235.594  1.00  0.00    -0.000 C 
BRANCH  27  28
ATOM     28  C   UNL     1     -96.853 148.784 235.529  1.00  0.00    -0.000 C 
BRANCH  28  29
ATOM     29  C   UNL     1     -98.128 149.606 235.265  1.00  0.00    -0.003 C 
ATOM     30  C   UNL     1     -99.382 148.743 235.133  1.00  0.00     0.004 C 
ENDBRANCH  28  29
ENDBRANCH  27  28
ENDBRANCH  26  27
ENDBRANCH  25  26
ENDBRANCH  24  25
ENDBRANCH  23  24
ENDBRANCH  22  23
ENDBRANCH  21  22
ENDBRANCH  20  21
ENDBRANCH  19  20
ENDBRANCH  18  19
ENDBRANCH  17  18
ENDBRANCH   1  17
TORSDOF 26
ENDMDL
