MODEL 1
REMARK VINA RESULT:    -2.894      0.000      0.000
REMARK INTER + INTRA:          -3.157
REMARK INTER:                  -3.063
REMARK INTRA:                  -0.094
REMARK UNBOUND:                -0.094
REMARK SMILES C=C(C)[C@H]1CC=C(C)C(=O)C1
REMARK SMILES IDX 8 1 7 2 6 3 5 4 4 5 11 6 9 7 10 8 2 9 1 10 3 11
REMARK H PARENT
REMARK Flexibility Score: inf
ROOT
ATOM      1  C   UNL     1      31.837  25.110  33.700  1.00  0.00     0.048 C 
ATOM      2  C   UNL     1      31.588  25.088  32.217  1.00  0.00    -0.012 C 
ATOM      3  C   UNL     1      32.625  25.125  31.363  1.00  0.00    -0.019 C 
ATOM      4  C   UNL     1      32.431  25.122  29.870  1.00  0.00     0.036 C 
ATOM      5  C   UNL     1      31.185  24.309  29.474  1.00  0.00     0.025 C 
ATOM      6  C   UNL     1      29.945  24.833  30.223  1.00  0.00     0.089 C 
ATOM      7  C   UNL     1      30.209  24.897  31.702  1.00  0.00     0.158 C 
ATOM      8  O   UNL     1      29.238  24.826  32.503  1.00  0.00    -0.295 OA
ENDROOT
BRANCH   5   9
ATOM      9  C   UNL     1      30.969  24.316  27.967  1.00  0.00    -0.077 C 
ATOM     10  C   UNL     1      31.954  23.921  27.145  1.00  0.00     0.008 C 
ATOM     11  C   UNL     1      29.660  24.760  27.362  1.00  0.00     0.039 C 
ENDBRANCH   5   9
TORSDOF 1
ENDMDL
MODEL 2
REMARK VINA RESULT:    -2.854      1.979      4.330
REMARK INTER + INTRA:          -3.114
REMARK INTER:                  -3.019
REMARK INTRA:                  -0.096
REMARK UNBOUND:                -0.094
REMARK SMILES C=C(C)[C@H]1CC=C(C)C(=O)C1
REMARK SMILES IDX 8 1 7 2 6 3 5 4 4 5 11 6 9 7 10 8 2 9 1 10 3 11
REMARK H PARENT
REMARK Flexibility Score: inf
ROOT
ATOM      1  C   UNL     1      33.520  24.370  27.124  1.00  0.00     0.048 C 
ATOM      2  C   UNL     1      32.844  24.398  28.467  1.00  0.00    -0.012 C 
ATOM      3  C   UNL     1      33.430  25.028  29.500  1.00  0.00    -0.019 C 
ATOM      4  C   UNL     1      32.805  25.071  30.869  1.00  0.00     0.036 C 
ATOM      5  C   UNL     1      31.268  25.089  30.776  1.00  0.00     0.025 C 
ATOM      6  C   UNL     1      30.769  23.894  29.944  1.00  0.00     0.089 C 
ATOM      7  C   UNL     1      31.476  23.839  28.619  1.00  0.00     0.158 C 
ATOM      8  O   UNL     1      30.910  23.279  27.642  1.00  0.00    -0.295 OA
ENDROOT
BRANCH   5   9
ATOM      9  C   UNL     1      30.627  25.114  32.157  1.00  0.00    -0.077 C 
ATOM     10  C   UNL     1      29.289  25.125  32.277  1.00  0.00     0.008 C 
ATOM     11  C   UNL     1      31.464  25.125  33.412  1.00  0.00     0.039 C 
ENDBRANCH   5   9
TORSDOF 1
ENDMDL
MODEL 3
REMARK VINA RESULT:    -2.536      2.994      4.653
REMARK INTER + INTRA:          -2.778
REMARK INTER:                  -2.680
REMARK INTRA:                  -0.098
REMARK UNBOUND:                -0.094
REMARK SMILES C=C(C)[C@H]1CC=C(C)C(=O)C1
REMARK SMILES IDX 8 1 7 2 6 3 5 4 4 5 11 6 9 7 10 8 2 9 1 10 3 11
REMARK H PARENT
REMARK Flexibility Score: inf
ROOT
ATOM      1  C   UNL     1      36.548  23.638  27.468  1.00  0.00     0.048 C 
ATOM      2  C   UNL     1      35.095  23.819  27.814  1.00  0.00    -0.012 C 
ATOM      3  C   UNL     1      34.150  23.212  27.076  1.00  0.00    -0.019 C 
ATOM      4  C   UNL     1      32.682  23.373  27.368  1.00  0.00     0.036 C 
ATOM      5  C   UNL     1      32.433  23.549  28.878  1.00  0.00     0.025 C 
ATOM      6  C   UNL     1      33.269  24.721  29.424  1.00  0.00     0.089 C 
ATOM      7  C   UNL     1      34.714  24.564  29.041  1.00  0.00     0.158 C 
ATOM      8  O   UNL     1      35.602  25.105  29.754  1.00  0.00    -0.295 OA
ENDROOT
BRANCH   5   9
ATOM      9  C   UNL     1      30.952  23.732  29.181  1.00  0.00    -0.077 C 
ATOM     10  C   UNL     1      30.040  23.561  28.210  1.00  0.00     0.008 C 
ATOM     11  C   UNL     1      30.473  24.105  30.563  1.00  0.00     0.039 C 
ENDBRANCH   5   9
TORSDOF 1
ENDMDL
MODEL 4
REMARK VINA RESULT:    -2.387      1.568      2.406
REMARK INTER + INTRA:          -2.620
REMARK INTER:                  -2.526
REMARK INTRA:                  -0.094
REMARK UNBOUND:                -0.094
REMARK SMILES C=C(C)[C@H]1CC=C(C)C(=O)C1
REMARK SMILES IDX 8 1 7 2 6 3 5 4 4 5 11 6 9 7 10 8 2 9 1 10 3 11
REMARK H PARENT
REMARK Flexibility Score: inf
ROOT
ATOM      1  C   UNL     1      31.906  25.060  34.228  1.00  0.00     0.048 C 
ATOM      2  C   UNL     1      31.630  24.828  32.768  1.00  0.00    -0.012 C 
ATOM      3  C   UNL     1      30.365  24.655  32.345  1.00  0.00    -0.019 C 
ATOM      4  C   UNL     1      30.035  24.402  30.898  1.00  0.00     0.036 C 
ATOM      5  C   UNL     1      31.027  25.125  29.968  1.00  0.00     0.025 C 
ATOM      6  C   UNL     1      32.473  24.725  30.314  1.00  0.00     0.089 C 
ATOM      7  C   UNL     1      32.737  24.915  31.782  1.00  0.00     0.158 C 
ATOM      8  O   UNL     1      33.919  25.112  32.173  1.00  0.00    -0.295 OA
ENDROOT
BRANCH   5   9
ATOM      9  C   UNL     1      30.711  24.860  28.502  1.00  0.00    -0.077 C 
ATOM     10  C   UNL     1      29.474  25.081  28.029  1.00  0.00     0.008 C 
ATOM     11  C   UNL     1      31.766  24.349  27.551  1.00  0.00     0.039 C 
ENDBRANCH   5   9
TORSDOF 1
ENDMDL
MODEL 5
REMARK VINA RESULT:    -2.328      1.986      2.959
REMARK INTER + INTRA:          -2.558
REMARK INTER:                  -2.460
REMARK INTRA:                  -0.098
REMARK UNBOUND:                -0.094
REMARK SMILES C=C(C)[C@H]1CC=C(C)C(=O)C1
REMARK SMILES IDX 8 1 7 2 6 3 5 4 4 5 11 6 9 7 10 8 2 9 1 10 3 11
REMARK H PARENT
REMARK Flexibility Score: inf
ROOT
ATOM      1  C   UNL     1      29.712  25.086  31.729  1.00  0.00     0.048 C 
ATOM      2  C   UNL     1      30.886  25.055  30.790  1.00  0.00    -0.012 C 
ATOM      3  C   UNL     1      32.137  25.124  31.279  1.00  0.00    -0.019 C 
ATOM      4  C   UNL     1      33.346  25.115  30.382  1.00  0.00     0.036 C 
ATOM      5  C   UNL     1      33.097  24.263  29.124  1.00  0.00     0.025 C 
ATOM      6  C   UNL     1      31.832  24.748  28.392  1.00  0.00     0.089 C 
ATOM      7  C   UNL     1      30.668  24.821  29.340  1.00  0.00     0.158 C 
ATOM      8  O   UNL     1      29.496  24.720  28.885  1.00  0.00    -0.295 OA
ENDROOT
BRANCH   5   9
ATOM      9  C   UNL     1      34.308  24.263  28.201  1.00  0.00    -0.077 C 
ATOM     10  C   UNL     1      34.164  23.967  26.900  1.00  0.00     0.008 C 
ATOM     11  C   UNL     1      35.688  24.592  28.716  1.00  0.00     0.039 C 
ENDBRANCH   5   9
TORSDOF 1
ENDMDL
MODEL 6
REMARK VINA RESULT:    -1.788      1.330      1.799
REMARK INTER + INTRA:          -1.987
REMARK INTER:                  -1.888
REMARK INTRA:                  -0.099
REMARK UNBOUND:                -0.094
REMARK SMILES C=C(C)[C@H]1CC=C(C)C(=O)C1
REMARK SMILES IDX 8 1 7 2 6 3 5 4 4 5 11 6 9 7 10 8 2 9 1 10 3 11
REMARK H PARENT
REMARK Flexibility Score: inf
ROOT
ATOM      1  C   UNL     1      34.247  24.851  33.190  1.00  0.00     0.048 C 
ATOM      2  C   UNL     1      33.440  24.991  31.929  1.00  0.00    -0.012 C 
ATOM      3  C   UNL     1      34.056  24.972  30.734  1.00  0.00    -0.019 C 
ATOM      4  C   UNL     1      33.298  25.125  29.442  1.00  0.00     0.036 C 
ATOM      5  C   UNL     1      31.889  24.514  29.550  1.00  0.00     0.025 C 
ATOM      6  C   UNL     1      31.133  25.122  30.746  1.00  0.00     0.089 C 
ATOM      7  C   UNL     1      31.957  25.023  31.999  1.00  0.00     0.158 C 
ATOM      8  O   UNL     1      31.376  25.005  33.117  1.00  0.00    -0.295 OA
ENDROOT
BRANCH   5   9
ATOM      9  C   UNL     1      31.108  24.680  28.254  1.00  0.00    -0.077 C 
ATOM     10  C   UNL     1      29.838  25.116  28.284  1.00  0.00     0.008 C 
ATOM     11  C   UNL     1      31.730  24.366  26.915  1.00  0.00     0.039 C 
ENDBRANCH   5   9
TORSDOF 1
ENDMDL
MODEL 7
REMARK VINA RESULT:    -1.730      2.030      2.873
REMARK INTER + INTRA:          -1.924
REMARK INTER:                  -1.830
REMARK INTRA:                  -0.095
REMARK UNBOUND:                -0.094
REMARK SMILES C=C(C)[C@H]1CC=C(C)C(=O)C1
REMARK SMILES IDX 8 1 7 2 6 3 5 4 4 5 11 6 9 7 10 8 2 9 1 10 3 11
REMARK H PARENT
REMARK Flexibility Score: inf
ROOT
ATOM      1  C   UNL     1      35.797  24.786  30.583  1.00  0.00     0.048 C 
ATOM      2  C   UNL     1      34.435  24.900  29.956  1.00  0.00    -0.012 C 
ATOM      3  C   UNL     1      34.296  24.766  28.626  1.00  0.00    -0.019 C 
ATOM      4  C   UNL     1      32.958  24.889  27.946  1.00  0.00     0.036 C 
ATOM      5  C   UNL     1      31.825  24.380  28.856  1.00  0.00     0.025 C 
ATOM      6  C   UNL     1      31.859  25.110  30.211  1.00  0.00     0.089 C 
ATOM      7  C   UNL     1      33.233  25.035  30.818  1.00  0.00     0.158 C 
ATOM      8  O   UNL     1      33.358  25.125  32.069  1.00  0.00    -0.295 OA
ENDROOT
BRANCH   5   9
ATOM      9  C   UNL     1      30.466  24.518  28.184  1.00  0.00    -0.077 C 
ATOM     10  C   UNL     1      30.301  24.122  26.911  1.00  0.00     0.008 C 
ATOM     11  C   UNL     1      29.280  25.093  28.919  1.00  0.00     0.039 C 
ENDBRANCH   5   9
TORSDOF 1
ENDMDL
MODEL 8
REMARK VINA RESULT:    -1.205      3.795      4.617
REMARK INTER + INTRA:          -1.369
REMARK INTER:                  -1.270
REMARK INTRA:                  -0.098
REMARK UNBOUND:                -0.094
REMARK SMILES C=C(C)[C@H]1CC=C(C)C(=O)C1
REMARK SMILES IDX 8 1 7 2 6 3 5 4 4 5 11 6 9 7 10 8 2 9 1 10 3 11
REMARK H PARENT
REMARK Flexibility Score: inf
ROOT
ATOM      1  C   UNL     1      36.110  24.473  34.115  1.00  0.00     0.048 C 
ATOM      2  C   UNL     1      36.022  24.706  32.632  1.00  0.00    -0.012 C 
ATOM      3  C   UNL     1      37.124  24.600  31.870  1.00  0.00    -0.019 C 
ATOM      4  C   UNL     1      37.095  24.841  30.384  1.00  0.00     0.036 C 
ATOM      5  C   UNL     1      35.743  24.416  29.781  1.00  0.00     0.025 C 
ATOM      6  C   UNL     1      34.586  25.125  30.510  1.00  0.00     0.089 C 
ATOM      7  C   UNL     1      34.698  24.929  31.996  1.00  0.00     0.158 C 
ATOM      8  O   UNL     1      33.658  24.993  32.705  1.00  0.00    -0.295 OA
ENDROOT
BRANCH   5   9
ATOM      9  C   UNL     1      35.696  24.673  28.281  1.00  0.00    -0.077 C 
ATOM     10  C   UNL     1      36.807  25.053  27.628  1.00  0.00     0.008 C 
ATOM     11  C   UNL     1      34.419  24.510  27.494  1.00  0.00     0.039 C 
ENDBRANCH   5   9
TORSDOF 1
ENDMDL
MODEL 9
REMARK VINA RESULT:    -1.184      2.193      3.682
REMARK INTER + INTRA:          -1.347
REMARK INTER:                  -1.250
REMARK INTRA:                  -0.098
REMARK UNBOUND:                -0.094
REMARK SMILES C=C(C)[C@H]1CC=C(C)C(=O)C1
REMARK SMILES IDX 8 1 7 2 6 3 5 4 4 5 11 6 9 7 10 8 2 9 1 10 3 11
REMARK H PARENT
REMARK Flexibility Score: inf
ROOT
ATOM      1  C   UNL     1      29.888  24.918  32.333  1.00  0.00     0.048 C 
ATOM      2  C   UNL     1      31.264  24.732  31.755  1.00  0.00    -0.012 C 
ATOM      3  C   UNL     1      31.415  24.529  30.435  1.00  0.00    -0.019 C 
ATOM      4  C   UNL     1      32.768  24.319  29.808  1.00  0.00     0.036 C 
ATOM      5  C   UNL     1      33.855  25.113  30.556  1.00  0.00     0.025 C 
ATOM      6  C   UNL     1      33.844  24.753  32.053  1.00  0.00     0.089 C 
ATOM      7  C   UNL     1      32.459  24.897  32.622  1.00  0.00     0.158 C 
ATOM      8  O   UNL     1      32.321  25.123  33.854  1.00  0.00    -0.295 OA
ENDROOT
BRANCH   5   9
ATOM      9  C   UNL     1      35.230  24.892  29.941  1.00  0.00    -0.077 C 
ATOM     10  C   UNL     1      35.339  24.496  28.662  1.00  0.00     0.008 C 
ATOM     11  C   UNL     1      36.492  25.110  30.738  1.00  0.00     0.039 C 
ENDBRANCH   5   9
TORSDOF 1
ENDMDL
