MODEL 1
REMARK VINA RESULT:    -5.091      0.000      0.000
REMARK INTER + INTRA:         -10.006
REMARK INTER:                  -8.663
REMARK INTRA:                  -1.343
REMARK UNBOUND:                -1.343
REMARK SMILES CCCCCCCCCCCCCC(=O)[O-]
REMARK SMILES IDX 8 1 9 2 10 3 11 4 12 5 13 6 14 7 15 8 16 9 7 10 6 11 5 12
REMARK SMILES IDX 4 13 3 14 2 15 1 16
REMARK H PARENT
REMARK Flexibility Score: inf
ROOT
ATOM      1  C   UNL     1       7.520  54.444  22.519  1.00  0.00     0.000 C 
ENDROOT
BRANCH   1   2
ATOM      2  C   UNL     1       7.616  53.695  23.858  1.00  0.00     0.000 C 
BRANCH   2   3
ATOM      3  C   UNL     1       8.615  54.347  24.829  1.00  0.00     0.000 C 
BRANCH   3   4
ATOM      4  C   UNL     1       9.752  55.089  24.106  1.00  0.00     0.000 C 
BRANCH   4   5
ATOM      5  C   UNL     1      11.031  54.243  23.928  1.00  0.00     0.006 C 
BRANCH   5   6
ATOM      6  C   UNL     1      11.369  54.006  22.451  1.00  0.00     0.053 C 
BRANCH   6   7
ATOM      7  C   UNL     1      10.691  52.771  21.949  1.00  0.00     0.041 C 
ATOM      8  O   UNL     1      10.109  52.777  20.831  1.00  0.00    -0.550 OA
ATOM      9  O   UNL     1      10.656  51.628  22.737  1.00  0.00    -0.550 OA
ENDBRANCH   6   7
ENDBRANCH   5   6
ENDBRANCH   4   5
ENDBRANCH   3   4
ENDBRANCH   2   3
ENDBRANCH   1   2
BRANCH   1  10
ATOM     10  C   UNL     1       6.152  55.108  22.308  1.00  0.00     0.000 C 
BRANCH  10  11
ATOM     11  C   UNL     1       6.246  56.240  21.273  1.00  0.00    -0.000 C 
BRANCH  11  12
ATOM     12  C   UNL     1       7.698  56.630  20.949  1.00  0.00    -0.000 C 
BRANCH  12  13
ATOM     13  C   UNL     1       8.024  56.495  19.451  1.00  0.00    -0.000 C 
BRANCH  13  14
ATOM     14  C   UNL     1       8.126  55.029  18.991  1.00  0.00    -0.000 C 
BRANCH  14  15
ATOM     15  C   UNL     1       6.956  54.538  18.120  1.00  0.00    -0.003 C 
ATOM     16  C   UNL     1       6.964  55.137  16.713  1.00  0.00     0.004 C 
ENDBRANCH  14  15
ENDBRANCH  13  14
ENDBRANCH  12  13
ENDBRANCH  11  12
ENDBRANCH  10  11
ENDBRANCH   1  10
TORSDOF 12
ENDMDL
MODEL 2
REMARK VINA RESULT:    -4.599      4.545      7.435
REMARK INTER + INTRA:          -9.169
REMARK INTER:                  -8.372
REMARK INTRA:                  -0.797
REMARK UNBOUND:                -1.343
REMARK SMILES CCCCCCCCCCCCCC(=O)[O-]
REMARK SMILES IDX 8 1 9 2 10 3 11 4 12 5 13 6 14 7 15 8 16 9 7 10 6 11 5 12
REMARK SMILES IDX 4 13 3 14 2 15 1 16
REMARK H PARENT
REMARK Flexibility Score: inf
ROOT
ATOM      1  C   UNL     1       7.866  56.419  19.982  1.00  0.00     0.000 C 
ENDROOT
BRANCH   1   2
ATOM      2  C   UNL     1       7.405  56.599  21.438  1.00  0.00     0.000 C 
BRANCH   2   3
ATOM      3  C   UNL     1       5.873  56.572  21.579  1.00  0.00     0.000 C 
BRANCH   3   4
ATOM      4  C   UNL     1       5.166  57.513  20.588  1.00  0.00     0.000 C 
BRANCH   4   5
ATOM      5  C   UNL     1       3.968  58.271  21.201  1.00  0.00     0.006 C 
BRANCH   5   6
ATOM      6  C   UNL     1       3.450  59.379  20.275  1.00  0.00     0.053 C 
BRANCH   6   7
ATOM      7  C   UNL     1       2.344  60.140  20.935  1.00  0.00     0.041 C 
ATOM      8  O   UNL     1       1.539  60.816  20.242  1.00  0.00    -0.550 OA
ATOM      9  O   UNL     1       2.234  60.144  22.319  1.00  0.00    -0.550 OA
ENDBRANCH   6   7
ENDBRANCH   5   6
ENDBRANCH   4   5
ENDBRANCH   3   4
ENDBRANCH   2   3
ENDBRANCH   1   2
BRANCH   1  10
ATOM     10  C   UNL     1       8.248  54.968  19.656  1.00  0.00     0.000 C 
BRANCH  10  11
ATOM     11  C   UNL     1       8.539  54.176  20.941  1.00  0.00    -0.000 C 
BRANCH  11  12
ATOM     12  C   UNL     1       9.953  53.572  20.960  1.00  0.00    -0.000 C 
BRANCH  12  13
ATOM     13  C   UNL     1      10.549  53.509  22.376  1.00  0.00    -0.000 C 
BRANCH  13  14
ATOM     14  C   UNL     1       9.511  53.796  23.476  1.00  0.00    -0.000 C 
BRANCH  14  15
ATOM     15  C   UNL     1       9.909  54.899  24.474  1.00  0.00    -0.003 C 
ATOM     16  C   UNL     1      11.322  54.722  25.030  1.00  0.00     0.004 C 
ENDBRANCH  14  15
ENDBRANCH  13  14
ENDBRANCH  12  13
ENDBRANCH  11  12
ENDBRANCH  10  11
ENDBRANCH   1  10
TORSDOF 12
ENDMDL
MODEL 3
REMARK VINA RESULT:    -4.502      5.470      8.046
REMARK INTER + INTRA:          -9.004
REMARK INTER:                  -8.352
REMARK INTRA:                  -0.651
REMARK UNBOUND:                -1.343
REMARK SMILES CCCCCCCCCCCCCC(=O)[O-]
REMARK SMILES IDX 8 1 9 2 10 3 11 4 12 5 13 6 14 7 15 8 16 9 7 10 6 11 5 12
REMARK SMILES IDX 4 13 3 14 2 15 1 16
REMARK H PARENT
REMARK Flexibility Score: inf
ROOT
ATOM      1  C   UNL     1       5.634  56.463  21.255  1.00  0.00     0.000 C 
ENDROOT
BRANCH   1   2
ATOM      2  C   UNL     1       5.001  57.821  21.597  1.00  0.00     0.000 C 
BRANCH   2   3
ATOM      3  C   UNL     1       3.762  58.128  20.737  1.00  0.00     0.000 C 
BRANCH   3   4
ATOM      4  C   UNL     1       3.558  59.635  20.502  1.00  0.00     0.000 C 
BRANCH   4   5
ATOM      5  C   UNL     1       3.044  60.392  21.745  1.00  0.00     0.006 C 
BRANCH   5   6
ATOM      6  C   UNL     1       2.012  59.576  22.535  1.00  0.00     0.053 C 
BRANCH   6   7
ATOM      7  C   UNL     1       0.696  60.287  22.569  1.00  0.00     0.041 C 
ATOM      8  O   UNL     1       0.480  61.177  23.434  1.00  0.00    -0.550 OA
ATOM      9  O   UNL     1      -0.309  59.931  21.680  1.00  0.00    -0.550 OA
ENDBRANCH   6   7
ENDBRANCH   5   6
ENDBRANCH   4   5
ENDBRANCH   3   4
ENDBRANCH   2   3
ENDBRANCH   1   2
BRANCH   1  10
ATOM     10  C   UNL     1       7.168  56.523  21.192  1.00  0.00     0.000 C 
BRANCH  10  11
ATOM     11  C   UNL     1       7.680  56.022  19.833  1.00  0.00    -0.000 C 
BRANCH  11  12
ATOM     12  C   UNL     1       8.216  54.582  19.893  1.00  0.00    -0.000 C 
BRANCH  12  13
ATOM     13  C   UNL     1       8.552  54.137  21.327  1.00  0.00    -0.000 C 
BRANCH  13  14
ATOM     14  C   UNL     1      10.042  53.796  21.514  1.00  0.00    -0.000 C 
BRANCH  14  15
ATOM     15  C   UNL     1      10.577  53.983  22.945  1.00  0.00    -0.003 C 
ATOM     16  C   UNL     1       9.893  55.124  23.696  1.00  0.00     0.004 C 
ENDBRANCH  14  15
ENDBRANCH  13  14
ENDBRANCH  12  13
ENDBRANCH  11  12
ENDBRANCH  10  11
ENDBRANCH   1  10
TORSDOF 12
ENDMDL
MODEL 4
REMARK VINA RESULT:    -4.487      3.023      4.352
REMARK INTER + INTRA:          -8.977
REMARK INTER:                  -8.245
REMARK INTRA:                  -0.732
REMARK UNBOUND:                -1.343
REMARK SMILES CCCCCCCCCCCCCC(=O)[O-]
REMARK SMILES IDX 8 1 9 2 10 3 11 4 12 5 13 6 14 7 15 8 16 9 7 10 6 11 5 12
REMARK SMILES IDX 4 13 3 14 2 15 1 16
REMARK H PARENT
REMARK Flexibility Score: inf
ROOT
ATOM      1  C   UNL     1       7.237  55.139  21.771  1.00  0.00     0.000 C 
ENDROOT
BRANCH   1   2
ATOM      2  C   UNL     1       7.964  54.099  20.903  1.00  0.00     0.000 C 
BRANCH   2   3
ATOM      3  C   UNL     1       9.484  54.327  20.858  1.00  0.00     0.000 C 
BRANCH   3   4
ATOM      4  C   UNL     1      10.285  53.110  21.354  1.00  0.00     0.000 C 
BRANCH   4   5
ATOM      5  C   UNL     1      10.255  52.932  22.888  1.00  0.00     0.006 C 
BRANCH   5   6
ATOM      6  C   UNL     1      10.995  54.061  23.617  1.00  0.00     0.053 C 
BRANCH   6   7
ATOM      7  C   UNL     1      10.021  55.006  24.246  1.00  0.00     0.041 C 
ATOM      8  O   UNL     1       9.891  56.175  23.794  1.00  0.00    -0.550 OA
ATOM      9  O   UNL     1       9.295  54.614  25.362  1.00  0.00    -0.550 OA
ENDBRANCH   6   7
ENDBRANCH   5   6
ENDBRANCH   4   5
ENDBRANCH   3   4
ENDBRANCH   2   3
ENDBRANCH   1   2
BRANCH   1  10
ATOM     10  C   UNL     1       7.458  56.578  21.282  1.00  0.00     0.000 C 
BRANCH  10  11
ATOM     11  C   UNL     1       6.250  57.073  20.472  1.00  0.00    -0.000 C 
BRANCH  11  12
ATOM     12  C   UNL     1       5.017  57.346  21.349  1.00  0.00    -0.000 C 
BRANCH  12  13
ATOM     13  C   UNL     1       4.150  58.496  20.808  1.00  0.00    -0.000 C 
BRANCH  13  14
ATOM     14  C   UNL     1       3.164  59.045  21.855  1.00  0.00    -0.000 C 
BRANCH  14  15
ATOM     15  C   UNL     1       2.594  60.440  21.542  1.00  0.00    -0.003 C 
ATOM     16  C   UNL     1       2.882  60.898  20.113  1.00  0.00     0.004 C 
ENDBRANCH  14  15
ENDBRANCH  13  14
ENDBRANCH  12  13
ENDBRANCH  11  12
ENDBRANCH  10  11
ENDBRANCH   1  10
TORSDOF 12
ENDMDL
MODEL 5
REMARK VINA RESULT:    -4.477      4.799      7.674
REMARK INTER + INTRA:          -8.960
REMARK INTER:                  -8.224
REMARK INTRA:                  -0.737
REMARK UNBOUND:                -1.343
REMARK SMILES CCCCCCCCCCCCCC(=O)[O-]
REMARK SMILES IDX 8 1 9 2 10 3 11 4 12 5 13 6 14 7 15 8 16 9 7 10 6 11 5 12
REMARK SMILES IDX 4 13 3 14 2 15 1 16
REMARK H PARENT
REMARK Flexibility Score: inf
ROOT
ATOM      1  C   UNL     1       7.518  56.692  21.224  1.00  0.00     0.000 C 
ENDROOT
BRANCH   1   2
ATOM      2  C   UNL     1       6.145  56.004  21.287  1.00  0.00     0.000 C 
BRANCH   2   3
ATOM      3  C   UNL     1       5.017  56.974  21.678  1.00  0.00     0.000 C 
BRANCH   3   4
ATOM      4  C   UNL     1       4.710  58.007  20.580  1.00  0.00     0.000 C 
BRANCH   4   5
ATOM      5  C   UNL     1       3.436  58.837  20.848  1.00  0.00     0.006 C 
BRANCH   5   6
ATOM      6  C   UNL     1       3.338  60.062  19.929  1.00  0.00     0.053 C 
BRANCH   6   7
ATOM      7  C   UNL     1       1.966  60.170  19.344  1.00  0.00     0.041 C 
ATOM      8  O   UNL     1       0.979  60.414  20.086  1.00  0.00    -0.550 OA
ATOM      9  O   UNL     1       1.770  59.951  17.987  1.00  0.00    -0.550 OA
ENDBRANCH   6   7
ENDBRANCH   5   6
ENDBRANCH   4   5
ENDBRANCH   3   4
ENDBRANCH   2   3
ENDBRANCH   1   2
BRANCH   1  10
ATOM     10  C   UNL     1       8.572  55.844  20.494  1.00  0.00     0.000 C 
BRANCH  10  11
ATOM     11  C   UNL     1       8.172  54.360  20.487  1.00  0.00    -0.000 C 
BRANCH  11  12
ATOM     12  C   UNL     1       8.916  53.539  21.552  1.00  0.00    -0.000 C 
BRANCH  12  13
ATOM     13  C   UNL     1      10.350  54.042  21.790  1.00  0.00    -0.000 C 
BRANCH  13  14
ATOM     14  C   UNL     1      10.881  53.694  23.194  1.00  0.00    -0.000 C 
BRANCH  14  15
ATOM     15  C   UNL     1      10.730  54.812  24.241  1.00  0.00    -0.003 C 
ATOM     16  C   UNL     1       9.388  54.772  24.971  1.00  0.00     0.004 C 
ENDBRANCH  14  15
ENDBRANCH  13  14
ENDBRANCH  12  13
ENDBRANCH  11  12
ENDBRANCH  10  11
ENDBRANCH   1  10
TORSDOF 12
ENDMDL
MODEL 6
REMARK VINA RESULT:    -4.465      5.929      8.259
REMARK INTER + INTRA:          -8.940
REMARK INTER:                  -8.214
REMARK INTRA:                  -0.726
REMARK UNBOUND:                -1.343
REMARK SMILES CCCCCCCCCCCCCC(=O)[O-]
REMARK SMILES IDX 8 1 9 2 10 3 11 4 12 5 13 6 14 7 15 8 16 9 7 10 6 11 5 12
REMARK SMILES IDX 4 13 3 14 2 15 1 16
REMARK H PARENT
REMARK Flexibility Score: inf
ROOT
ATOM      1  C   UNL     1       4.253  58.195  20.808  1.00  0.00     0.000 C 
ENDROOT
BRANCH   1   2
ATOM      2  C   UNL     1       3.317  58.862  21.829  1.00  0.00     0.000 C 
BRANCH   2   3
ATOM      3  C   UNL     1       3.079  60.351  21.526  1.00  0.00     0.000 C 
BRANCH   3   4
ATOM      4  C   UNL     1       2.007  60.577  20.446  1.00  0.00     0.000 C 
BRANCH   4   5
ATOM      5  C   UNL     1       2.587  60.959  19.067  1.00  0.00     0.006 C 
BRANCH   5   6
ATOM      6  C   UNL     1       2.347  59.868  18.015  1.00  0.00     0.053 C 
BRANCH   6   7
ATOM      7  C   UNL     1       1.192  60.232  17.137  1.00  0.00     0.041 C 
ATOM      8  O   UNL     1       0.684  61.382  17.203  1.00  0.00    -0.550 OA
ATOM      9  O   UNL     1       0.644  59.284  16.282  1.00  0.00    -0.550 OA
ENDBRANCH   6   7
ENDBRANCH   5   6
ENDBRANCH   4   5
ENDBRANCH   3   4
ENDBRANCH   2   3
ENDBRANCH   1   2
BRANCH   1  10
ATOM     10  C   UNL     1       5.236  57.211  21.460  1.00  0.00     0.000 C 
BRANCH  10  11
ATOM     11  C   UNL     1       6.464  56.988  20.563  1.00  0.00    -0.000 C 
BRANCH  11  12
ATOM     12  C   UNL     1       7.599  56.242  21.283  1.00  0.00    -0.000 C 
BRANCH  12  13
ATOM     13  C   UNL     1       8.210  55.124  20.421  1.00  0.00    -0.000 C 
BRANCH  13  14
ATOM     14  C   UNL     1       7.212  54.537  19.406  1.00  0.00    -0.000 C 
BRANCH  14  15
ATOM     15  C   UNL     1       7.770  54.342  17.985  1.00  0.00    -0.003 C 
ATOM     16  C   UNL     1       7.062  55.203  16.940  1.00  0.00     0.004 C 
ENDBRANCH  14  15
ENDBRANCH  13  14
ENDBRANCH  12  13
ENDBRANCH  11  12
ENDBRANCH  10  11
ENDBRANCH   1  10
TORSDOF 12
ENDMDL
MODEL 7
REMARK VINA RESULT:    -4.427      3.626      5.465
REMARK INTER + INTRA:          -8.875
REMARK INTER:                  -8.121
REMARK INTRA:                  -0.754
REMARK UNBOUND:                -1.343
REMARK SMILES CCCCCCCCCCCCCC(=O)[O-]
REMARK SMILES IDX 8 1 9 2 10 3 11 4 12 5 13 6 14 7 15 8 16 9 7 10 6 11 5 12
REMARK SMILES IDX 4 13 3 14 2 15 1 16
REMARK H PARENT
REMARK Flexibility Score: inf
ROOT
ATOM      1  C   UNL     1       6.227  56.205  21.255  1.00  0.00     0.000 C 
ENDROOT
BRANCH   1   2
ATOM      2  C   UNL     1       7.065  56.949  20.203  1.00  0.00     0.000 C 
BRANCH   2   3
ATOM      3  C   UNL     1       8.258  56.116  19.702  1.00  0.00     0.000 C 
BRANCH   3   4
ATOM      4  C   UNL     1       8.217  54.659  20.193  1.00  0.00     0.000 C 
BRANCH   4   5
ATOM      5  C   UNL     1       9.353  54.304  21.176  1.00  0.00     0.006 C 
BRANCH   5   6
ATOM      6  C   UNL     1       8.845  53.504  22.383  1.00  0.00     0.053 C 
BRANCH   6   7
ATOM      7  C   UNL     1       8.942  54.320  23.632  1.00  0.00     0.041 C 
ATOM      8  O   UNL     1       8.278  53.997  24.653  1.00  0.00    -0.550 OA
ATOM      9  O   UNL     1       9.725  55.467  23.655  1.00  0.00    -0.550 OA
ENDBRANCH   6   7
ENDBRANCH   5   6
ENDBRANCH   4   5
ENDBRANCH   3   4
ENDBRANCH   2   3
ENDBRANCH   1   2
BRANCH   1  10
ATOM     10  C   UNL     1       4.978  56.990  21.681  1.00  0.00     0.000 C 
BRANCH  10  11
ATOM     11  C   UNL     1       4.594  58.029  20.616  1.00  0.00    -0.000 C 
BRANCH  11  12
ATOM     12  C   UNL     1       3.197  58.628  20.846  1.00  0.00    -0.000 C 
BRANCH  12  13
ATOM     13  C   UNL     1       3.252  60.017  21.505  1.00  0.00    -0.000 C 
BRANCH  13  14
ATOM     14  C   UNL     1       1.994  60.335  22.334  1.00  0.00    -0.000 C 
BRANCH  14  15
ATOM     15  C   UNL     1       1.076  59.131  22.611  1.00  0.00    -0.003 C 
ATOM     16  C   UNL     1       0.548  59.097  24.044  1.00  0.00     0.004 C 
ENDBRANCH  14  15
ENDBRANCH  13  14
ENDBRANCH  12  13
ENDBRANCH  11  12
ENDBRANCH  10  11
ENDBRANCH   1  10
TORSDOF 12
ENDMDL
MODEL 8
REMARK VINA RESULT:    -4.395      3.606      4.837
REMARK INTER + INTRA:          -8.822
REMARK INTER:                  -8.226
REMARK INTRA:                  -0.596
REMARK UNBOUND:                -1.343
REMARK SMILES CCCCCCCCCCCCCC(=O)[O-]
REMARK SMILES IDX 8 1 9 2 10 3 11 4 12 5 13 6 14 7 15 8 16 9 7 10 6 11 5 12
REMARK SMILES IDX 4 13 3 14 2 15 1 16
REMARK H PARENT
REMARK Flexibility Score: inf
ROOT
ATOM      1  C   UNL     1       5.647  56.585  21.373  1.00  0.00     0.000 C 
ENDROOT
BRANCH   1   2
ATOM      2  C   UNL     1       7.171  56.636  21.179  1.00  0.00     0.000 C 
BRANCH   2   3
ATOM      3  C   UNL     1       7.593  56.337  19.731  1.00  0.00     0.000 C 
BRANCH   3   4
ATOM      4  C   UNL     1       8.072  54.889  19.535  1.00  0.00     0.000 C 
BRANCH   4   5
ATOM      5  C   UNL     1       8.201  54.095  20.853  1.00  0.00     0.006 C 
BRANCH   5   6
ATOM      6  C   UNL     1       9.664  53.908  21.276  1.00  0.00     0.053 C 
BRANCH   6   7
ATOM      7  C   UNL     1       9.751  53.048  22.497  1.00  0.00     0.041 C 
ATOM      8  O   UNL     1      10.609  52.128  22.563  1.00  0.00    -0.550 OA
ATOM      9  O   UNL     1       8.853  53.229  23.540  1.00  0.00    -0.550 OA
ENDBRANCH   6   7
ENDBRANCH   5   6
ENDBRANCH   4   5
ENDBRANCH   3   4
ENDBRANCH   2   3
ENDBRANCH   1   2
BRANCH   1  10
ATOM     10  C   UNL     1       4.920  57.733  20.657  1.00  0.00     0.000 C 
BRANCH  10  11
ATOM     11  C   UNL     1       3.835  58.341  21.559  1.00  0.00    -0.000 C 
BRANCH  11  12
ATOM     12  C   UNL     1       2.712  59.025  20.762  1.00  0.00    -0.000 C 
BRANCH  12  13
ATOM     13  C   UNL     1       2.939  60.538  20.602  1.00  0.00    -0.000 C 
BRANCH  13  14
ATOM     14  C   UNL     1       2.700  61.030  19.163  1.00  0.00    -0.000 C 
BRANCH  14  15
ATOM     15  C   UNL     1       2.166  59.962  18.191  1.00  0.00    -0.003 C 
ATOM     16  C   UNL     1       2.413  60.310  16.724  1.00  0.00     0.004 C 
ENDBRANCH  14  15
ENDBRANCH  13  14
ENDBRANCH  12  13
ENDBRANCH  11  12
ENDBRANCH  10  11
ENDBRANCH   1  10
TORSDOF 12
ENDMDL
MODEL 9
REMARK VINA RESULT:    -4.335      5.498      8.138
REMARK INTER + INTRA:          -8.719
REMARK INTER:                  -8.106
REMARK INTRA:                  -0.613
REMARK UNBOUND:                -1.343
REMARK SMILES CCCCCCCCCCCCCC(=O)[O-]
REMARK SMILES IDX 8 1 9 2 10 3 11 4 12 5 13 6 14 7 15 8 16 9 7 10 6 11 5 12
REMARK SMILES IDX 4 13 3 14 2 15 1 16
REMARK H PARENT
REMARK Flexibility Score: inf
ROOT
ATOM      1  C   UNL     1       5.297  56.605  21.217  1.00  0.00     0.000 C 
ENDROOT
BRANCH   1   2
ATOM      2  C   UNL     1       4.607  57.925  21.597  1.00  0.00     0.000 C 
BRANCH   2   3
ATOM      3  C   UNL     1       3.708  58.467  20.473  1.00  0.00     0.000 C 
BRANCH   3   4
ATOM      4  C   UNL     1       3.386  59.962  20.635  1.00  0.00     0.000 C 
BRANCH   4   5
ATOM      5  C   UNL     1       3.079  60.678  19.302  1.00  0.00     0.006 C 
BRANCH   5   6
ATOM      6  C   UNL     1       2.294  59.785  18.332  1.00  0.00     0.053 C 
BRANCH   6   7
ATOM      7  C   UNL     1       2.014  60.514  17.057  1.00  0.00     0.041 C 
ATOM      8  O   UNL     1       2.676  60.250  16.018  1.00  0.00    -0.550 OA
ATOM      9  O   UNL     1       1.059  61.521  17.027  1.00  0.00    -0.550 OA
ENDBRANCH   6   7
ENDBRANCH   5   6
ENDBRANCH   4   5
ENDBRANCH   3   4
ENDBRANCH   2   3
ENDBRANCH   1   2
BRANCH   1  10
ATOM     10  C   UNL     1       6.828  56.725  21.182  1.00  0.00     0.000 C 
BRANCH  10  11
ATOM     11  C   UNL     1       7.356  56.581  19.746  1.00  0.00    -0.000 C 
BRANCH  11  12
ATOM     12  C   UNL     1       7.997  55.209  19.482  1.00  0.00    -0.000 C 
BRANCH  12  13
ATOM     13  C   UNL     1       8.025  54.320  20.737  1.00  0.00    -0.000 C 
BRANCH  13  14
ATOM     14  C   UNL     1       9.449  54.092  21.278  1.00  0.00    -0.000 C 
BRANCH  14  15
ATOM     15  C   UNL     1       9.521  53.367  22.634  1.00  0.00    -0.003 C 
ATOM     16  C   UNL     1       8.299  53.622  23.516  1.00  0.00     0.004 C 
ENDBRANCH  14  15
ENDBRANCH  13  14
ENDBRANCH  12  13
ENDBRANCH  11  12
ENDBRANCH  10  11
ENDBRANCH   1  10
TORSDOF 12
ENDMDL
