MODEL 1
REMARK VINA RESULT:    -7.144      0.000      0.000
REMARK INTER + INTRA:          -8.887
REMARK INTER:                  -8.605
REMARK INTRA:                  -0.281
REMARK UNBOUND:                -0.281
REMARK SMILES O=c1c(O)c(-c2ccc(O)c(O)c2)oc2cc(O)cc(O)c12
REMARK SMILES IDX 5 1 3 2 2 3 1 4 22 5 20 6 19 7 17 8 16 9 15 10 14 11 6 12
REMARK SMILES IDX 7 13 8 14 9 15 13 16 11 17 10 18 12 20 4 22 21 24 18 26
REMARK H PARENT 10 19 12 21 4 23 21 25 18 27
REMARK Flexibility Score: inf
ROOT
ATOM      1  C   UNL     1      20.573 -36.961  -7.646  1.00  0.00     0.180 A 
ATOM      2  C   UNL     1      20.951 -35.632  -7.375  1.00  0.00     0.208 A 
ATOM      3  C   UNL     1      21.944 -35.035  -8.167  1.00  0.00     0.238 A 
ATOM      4  O   UNL     1      22.283 -33.841  -7.940  1.00  0.00    -0.285 OA
ATOM      5  C   UNL     1      22.555 -35.777  -9.198  1.00  0.00     0.111 A 
ATOM      6  C   UNL     1      23.566 -35.251 -10.037  1.00  0.00     0.134 A 
ATOM      7  C   UNL     1      24.131 -36.057 -11.036  1.00  0.00     0.093 A 
ATOM      8  C   UNL     1      23.708 -37.377 -11.210  1.00  0.00     0.123 A 
ATOM      9  C   UNL     1      22.709 -37.903 -10.385  1.00  0.00     0.094 A 
ATOM     10  C   UNL     1      22.132 -37.115  -9.384  1.00  0.00     0.146 A 
ATOM     11  O   UNL     1      21.181 -37.637  -8.618  1.00  0.00    -0.452 OA
ENDROOT
BRANCH   1  12
ATOM     12  C   UNL     1      19.521 -37.654  -6.868  1.00  0.00     0.025 A 
ATOM     13  C   UNL     1      18.173 -37.357  -7.114  1.00  0.00     0.016 A 
ATOM     14  C   UNL     1      17.165 -37.983  -6.379  1.00  0.00     0.051 A 
ATOM     15  C   UNL     1      17.482 -38.905  -5.375  1.00  0.00     0.157 A 
ATOM     16  C   UNL     1      19.843 -38.562  -5.844  1.00  0.00     0.062 A 
ATOM     17  C   UNL     1      18.839 -39.192  -5.099  1.00  0.00     0.158 A 
BRANCH  15  18
ATOM     18  O   UNL     1      16.427 -39.502  -4.682  1.00  0.00    -0.504 OA
ATOM     19  H   UNL     1      15.702 -40.051  -5.120  1.00  0.00     0.293 HD
ENDBRANCH  15  18
BRANCH  17  20
ATOM     20  O   UNL     1      19.233 -40.085  -4.100  1.00  0.00    -0.504 OA
ATOM     21  H   UNL     1      18.592 -40.542  -3.467  1.00  0.00     0.293 HD
ENDBRANCH  17  20
ENDBRANCH   1  12
BRANCH   2  22
ATOM     22  O   UNL     1      20.365 -34.934  -6.316  1.00  0.00    -0.502 OA
ATOM     23  H   UNL     1      20.098 -35.385  -5.450  1.00  0.00     0.293 HD
ENDBRANCH   2  22
BRANCH   6  24
ATOM     24  O   UNL     1      24.012 -33.937  -9.887  1.00  0.00    -0.507 OA
ATOM     25  H   UNL     1      23.655 -33.184 -10.464  1.00  0.00     0.293 HD
ENDBRANCH   6  24
BRANCH   8  26
ATOM     26  O   UNL     1      24.286 -38.158 -12.209  1.00  0.00    -0.508 OA
ATOM     27  H   UNL     1      23.852 -38.262 -13.118  1.00  0.00     0.293 HD
ENDBRANCH   8  26
TORSDOF 6
ENDMDL
MODEL 2
REMARK VINA RESULT:    -6.970      0.704      1.519
REMARK INTER + INTRA:          -8.678
REMARK INTER:                  -8.347
REMARK INTRA:                  -0.331
REMARK UNBOUND:                -0.281
REMARK SMILES O=c1c(O)c(-c2ccc(O)c(O)c2)oc2cc(O)cc(O)c12
REMARK SMILES IDX 5 1 3 2 2 3 1 4 22 5 20 6 19 7 17 8 16 9 15 10 14 11 6 12
REMARK SMILES IDX 7 13 8 14 9 15 13 16 11 17 10 18 12 20 4 22 21 24 18 26
REMARK H PARENT 10 19 12 21 4 23 21 25 18 27
REMARK Flexibility Score: inf
ROOT
ATOM      1  C   UNL     1      20.439 -37.017  -7.514  1.00  0.00     0.180 A 
ATOM      2  C   UNL     1      20.873 -35.714  -7.203  1.00  0.00     0.208 A 
ATOM      3  C   UNL     1      21.924 -35.153  -7.946  1.00  0.00     0.238 A 
ATOM      4  O   UNL     1      22.314 -33.983  -7.683  1.00  0.00    -0.285 OA
ATOM      5  C   UNL     1      22.536 -35.908  -8.967  1.00  0.00     0.111 A 
ATOM      6  C   UNL     1      23.604 -35.419  -9.758  1.00  0.00     0.134 A 
ATOM      7  C   UNL     1      24.165 -36.235 -10.750  1.00  0.00     0.093 A 
ATOM      8  C   UNL     1      23.683 -37.529 -10.966  1.00  0.00     0.123 A 
ATOM      9  C   UNL     1      22.628 -38.018 -10.189  1.00  0.00     0.094 A 
ATOM     10  C   UNL     1      22.054 -37.219  -9.196  1.00  0.00     0.146 A 
ATOM     11  O   UNL     1      21.050 -37.705  -8.476  1.00  0.00    -0.452 OA
ENDROOT
BRANCH   1  12
ATOM     12  C   UNL     1      19.324 -37.669  -6.790  1.00  0.00     0.025 A 
ATOM     13  C   UNL     1      19.608 -38.550  -5.737  1.00  0.00     0.016 A 
ATOM     14  C   UNL     1      18.573 -39.191  -5.054  1.00  0.00     0.051 A 
ATOM     15  C   UNL     1      17.238 -38.978  -5.417  1.00  0.00     0.157 A 
ATOM     16  C   UNL     1      17.987 -37.471  -7.173  1.00  0.00     0.062 A 
ATOM     17  C   UNL     1      16.942 -38.112  -6.496  1.00  0.00     0.158 A 
BRANCH  15  18
ATOM     18  O   UNL     1      16.250 -39.643  -4.689  1.00  0.00    -0.504 OA
ATOM     19  H   UNL     1      16.105 -39.527  -3.697  1.00  0.00     0.293 HD
ENDBRANCH  15  18
BRANCH  17  20
ATOM     20  O   UNL     1      15.637 -37.866  -6.928  1.00  0.00    -0.504 OA
ATOM     21  H   UNL     1      14.910 -38.566  -6.957  1.00  0.00     0.293 HD
ENDBRANCH  17  20
ENDBRANCH   1  12
BRANCH   2  22
ATOM     22  O   UNL     1      20.283 -35.005  -6.154  1.00  0.00    -0.502 OA
ATOM     23  H   UNL     1      20.731 -34.210  -5.716  1.00  0.00     0.293 HD
ENDBRANCH   2  22
BRANCH   6  24
ATOM     24  O   UNL     1      24.109 -34.132  -9.566  1.00  0.00    -0.507 OA
ATOM     25  H   UNL     1      24.961 -33.821 -10.018  1.00  0.00     0.293 HD
ENDBRANCH   6  24
BRANCH   8  26
ATOM     26  O   UNL     1      24.259 -38.320 -11.958  1.00  0.00    -0.508 OA
ATOM     27  H   UNL     1      24.580 -39.261 -11.765  1.00  0.00     0.293 HD
ENDBRANCH   8  26
TORSDOF 6
ENDMDL
MODEL 3
REMARK VINA RESULT:    -6.861      5.469     10.010
REMARK INTER + INTRA:          -8.546
REMARK INTER:                  -8.214
REMARK INTRA:                  -0.332
REMARK UNBOUND:                -0.281
REMARK SMILES O=c1c(O)c(-c2ccc(O)c(O)c2)oc2cc(O)cc(O)c12
REMARK SMILES IDX 5 1 3 2 2 3 1 4 22 5 20 6 19 7 17 8 16 9 15 10 14 11 6 12
REMARK SMILES IDX 7 13 8 14 9 15 13 16 11 17 10 18 12 20 4 22 21 24 18 26
REMARK H PARENT 10 19 12 21 4 23 21 25 18 27
REMARK Flexibility Score: inf
ROOT
ATOM      1  C   UNL     1      23.803 -30.563  -9.794  1.00  0.00     0.180 A 
ATOM      2  C   UNL     1      23.759 -31.874  -9.282  1.00  0.00     0.208 A 
ATOM      3  C   UNL     1      22.509 -32.463  -9.031  1.00  0.00     0.238 A 
ATOM      4  O   UNL     1      22.458 -33.640  -8.582  1.00  0.00    -0.285 OA
ATOM      5  C   UNL     1      21.331 -31.728  -9.275  1.00  0.00     0.111 A 
ATOM      6  C   UNL     1      20.034 -32.246  -9.044  1.00  0.00     0.134 A 
ATOM      7  C   UNL     1      18.910 -31.449  -9.304  1.00  0.00     0.093 A 
ATOM      8  C   UNL     1      19.057 -30.146  -9.786  1.00  0.00     0.123 A 
ATOM      9  C   UNL     1      20.335 -29.628 -10.017  1.00  0.00     0.094 A 
ATOM     10  C   UNL     1      21.468 -30.408  -9.766  1.00  0.00     0.146 A 
ATOM     11  O   UNL     1      22.670 -29.895  -9.998  1.00  0.00    -0.452 OA
ENDROOT
BRANCH   1  12
ATOM     12  C   UNL     1      25.080 -29.881 -10.102  1.00  0.00     0.025 A 
ATOM     13  C   UNL     1      25.673 -29.056  -9.136  1.00  0.00     0.016 A 
ATOM     14  C   UNL     1      26.867 -28.388  -9.413  1.00  0.00     0.051 A 
ATOM     15  C   UNL     1      27.484 -28.517 -10.662  1.00  0.00     0.157 A 
ATOM     16  C   UNL     1      25.685 -29.995 -11.366  1.00  0.00     0.062 A 
ATOM     17  C   UNL     1      26.881 -29.326 -11.654  1.00  0.00     0.158 A 
BRANCH  15  18
ATOM     18  O   UNL     1      28.680 -27.829 -10.873  1.00  0.00    -0.504 OA
ATOM     19  H   UNL     1      29.450 -27.822 -10.219  1.00  0.00     0.293 HD
ENDBRANCH  15  18
BRANCH  17  20
ATOM     20  O   UNL     1      27.427 -29.487 -12.929  1.00  0.00    -0.504 OA
ATOM     21  H   UNL     1      28.070 -28.835 -13.355  1.00  0.00     0.293 HD
ENDBRANCH  17  20
ENDBRANCH   1  12
BRANCH   2  22
ATOM     22  O   UNL     1      24.942 -32.563  -9.003  1.00  0.00    -0.502 OA
ATOM     23  H   UNL     1      25.795 -32.410  -9.527  1.00  0.00     0.293 HD
ENDBRANCH   2  22
BRANCH   6  24
ATOM     24  O   UNL     1      19.854 -33.543  -8.561  1.00  0.00    -0.507 OA
ATOM     25  H   UNL     1      19.992 -33.772  -7.583  1.00  0.00     0.293 HD
ENDBRANCH   6  24
BRANCH   8  26
ATOM     26  O   UNL     1      17.924 -29.374 -10.035  1.00  0.00    -0.508 OA
ATOM     27  H   UNL     1      16.995 -29.778 -10.026  1.00  0.00     0.293 HD
ENDBRANCH   8  26
TORSDOF 6
ENDMDL
MODEL 4
REMARK VINA RESULT:    -6.833      3.897      6.528
REMARK INTER + INTRA:          -8.512
REMARK INTER:                  -8.287
REMARK INTRA:                  -0.225
REMARK UNBOUND:                -0.281
REMARK SMILES O=c1c(O)c(-c2ccc(O)c(O)c2)oc2cc(O)cc(O)c12
REMARK SMILES IDX 5 1 3 2 2 3 1 4 22 5 20 6 19 7 17 8 16 9 15 10 14 11 6 12
REMARK SMILES IDX 7 13 8 14 9 15 13 16 11 17 10 18 12 20 4 22 21 24 18 26
REMARK H PARENT 10 19 12 21 4 23 21 25 18 27
REMARK Flexibility Score: inf
ROOT
ATOM      1  C   UNL     1      22.060 -34.121  -9.393  1.00  0.00     0.180 A 
ATOM      2  C   UNL     1      21.968 -33.953  -7.998  1.00  0.00     0.208 A 
ATOM      3  C   UNL     1      21.367 -32.789  -7.493  1.00  0.00     0.238 A 
ATOM      4  O   UNL     1      21.269 -32.633  -6.245  1.00  0.00    -0.285 OA
ATOM      5  C   UNL     1      20.888 -31.808  -8.385  1.00  0.00     0.111 A 
ATOM      6  C   UNL     1      20.274 -30.607  -7.957  1.00  0.00     0.134 A 
ATOM      7  C   UNL     1      19.831 -29.675  -8.908  1.00  0.00     0.093 A 
ATOM      8  C   UNL     1      19.992 -29.920 -10.274  1.00  0.00     0.123 A 
ATOM      9  C   UNL     1      20.597 -31.105 -10.703  1.00  0.00     0.094 A 
ATOM     10  C   UNL     1      21.043 -32.047  -9.771  1.00  0.00     0.146 A 
ATOM     11  O   UNL     1      21.610 -33.167 -10.204  1.00  0.00    -0.452 OA
ENDROOT
BRANCH   1  12
ATOM     12  C   UNL     1      22.662 -35.328 -10.002  1.00  0.00     0.025 A 
ATOM     13  C   UNL     1      23.845 -35.208 -10.746  1.00  0.00     0.016 A 
ATOM     14  C   UNL     1      24.419 -36.331 -11.345  1.00  0.00     0.051 A 
ATOM     15  C   UNL     1      23.819 -37.589 -11.228  1.00  0.00     0.157 A 
ATOM     16  C   UNL     1      22.043 -36.586  -9.902  1.00  0.00     0.062 A 
ATOM     17  C   UNL     1      22.611 -37.717 -10.503  1.00  0.00     0.158 A 
BRANCH  15  18
ATOM     18  O   UNL     1      24.447 -38.672 -11.845  1.00  0.00    -0.504 OA
ATOM     19  H   UNL     1      24.308 -38.930 -12.812  1.00  0.00     0.293 HD
ENDBRANCH  15  18
BRANCH  17  20
ATOM     20  O   UNL     1      21.943 -38.935 -10.359  1.00  0.00    -0.504 OA
ATOM     21  H   UNL     1      21.489 -39.233  -9.508  1.00  0.00     0.293 HD
ENDBRANCH  17  20
ENDBRANCH   1  12
BRANCH   2  22
ATOM     22  O   UNL     1      22.494 -34.917  -7.135  1.00  0.00    -0.502 OA
ATOM     23  H   UNL     1      22.912 -34.679  -6.243  1.00  0.00     0.293 HD
ENDBRANCH   2  22
BRANCH   6  24
ATOM     24  O   UNL     1      20.100 -30.332  -6.600  1.00  0.00    -0.507 OA
ATOM     25  H   UNL     1      19.792 -31.043  -5.948  1.00  0.00     0.293 HD
ENDBRANCH   6  24
BRANCH   8  26
ATOM     26  O   UNL     1      19.544 -28.978 -11.198  1.00  0.00    -0.508 OA
ATOM     27  H   UNL     1      19.206 -28.069 -10.906  1.00  0.00     0.293 HD
ENDBRANCH   8  26
TORSDOF 6
ENDMDL
MODEL 5
REMARK VINA RESULT:    -6.768      3.655      8.333
REMARK INTER + INTRA:          -8.434
REMARK INTER:                  -8.124
REMARK INTRA:                  -0.309
REMARK UNBOUND:                -0.281
REMARK SMILES O=c1c(O)c(-c2ccc(O)c(O)c2)oc2cc(O)cc(O)c12
REMARK SMILES IDX 5 1 3 2 2 3 1 4 22 5 20 6 19 7 17 8 16 9 15 10 14 11 6 12
REMARK SMILES IDX 7 13 8 14 9 15 13 16 11 17 10 18 12 20 4 22 21 24 18 26
REMARK H PARENT 10 19 12 21 4 23 21 25 18 27
REMARK Flexibility Score: inf
ROOT
ATOM      1  C   UNL     1      23.143 -32.191  -9.267  1.00  0.00     0.180 A 
ATOM      2  C   UNL     1      21.973 -31.667  -8.685  1.00  0.00     0.208 A 
ATOM      3  C   UNL     1      21.060 -32.549  -8.086  1.00  0.00     0.238 A 
ATOM      4  O   UNL     1      20.014 -32.090  -7.552  1.00  0.00    -0.285 OA
ATOM      5  C   UNL     1      21.320 -33.935  -8.096  1.00  0.00     0.111 A 
ATOM      6  C   UNL     1      20.450 -34.890  -7.519  1.00  0.00     0.134 A 
ATOM      7  C   UNL     1      20.775 -36.253  -7.578  1.00  0.00     0.093 A 
ATOM      8  C   UNL     1      21.949 -36.678  -8.204  1.00  0.00     0.123 A 
ATOM      9  C   UNL     1      22.814 -35.740  -8.775  1.00  0.00     0.094 A 
ATOM     10  C   UNL     1      22.508 -34.376  -8.725  1.00  0.00     0.146 A 
ATOM     11  O   UNL     1      23.348 -33.505  -9.271  1.00  0.00    -0.452 OA
ENDROOT
BRANCH   1  12
ATOM     12  C   UNL     1      24.162 -31.323  -9.901  1.00  0.00     0.025 A 
ATOM     13  C   UNL     1      25.265 -30.892  -9.149  1.00  0.00     0.016 A 
ATOM     14  C   UNL     1      26.227 -30.058  -9.721  1.00  0.00     0.051 A 
ATOM     15  C   UNL     1      26.101 -29.625 -11.046  1.00  0.00     0.157 A 
ATOM     16  C   UNL     1      24.020 -30.872 -11.224  1.00  0.00     0.062 A 
ATOM     17  C   UNL     1      24.979 -30.032 -11.805  1.00  0.00     0.158 A 
BRANCH  15  18
ATOM     18  O   UNL     1      27.101 -28.798 -11.560  1.00  0.00    -0.504 OA
ATOM     19  H   UNL     1      28.089 -28.947 -11.410  1.00  0.00     0.293 HD
ENDBRANCH  15  18
BRANCH  17  20
ATOM     20  O   UNL     1      24.775 -29.625 -13.125  1.00  0.00    -0.504 OA
ATOM     21  H   UNL     1      24.604 -30.260 -13.892  1.00  0.00     0.293 HD
ENDBRANCH  17  20
ENDBRANCH   1  12
BRANCH   2  22
ATOM     22  O   UNL     1      21.715 -30.294  -8.731  1.00  0.00    -0.502 OA
ATOM     23  H   UNL     1      21.421 -29.825  -9.579  1.00  0.00     0.293 HD
ENDBRANCH   2  22
BRANCH   6  24
ATOM     24  O   UNL     1      19.268 -34.497  -6.889  1.00  0.00    -0.507 OA
ATOM     25  H   UNL     1      19.276 -33.941  -6.041  1.00  0.00     0.293 HD
ENDBRANCH   6  24
BRANCH   8  26
ATOM     26  O   UNL     1      22.249 -38.038  -8.250  1.00  0.00    -0.508 OA
ATOM     27  H   UNL     1      21.939 -38.675  -7.525  1.00  0.00     0.293 HD
ENDBRANCH   8  26
TORSDOF 6
ENDMDL
MODEL 6
REMARK VINA RESULT:    -6.546      3.767      8.961
REMARK INTER + INTRA:          -8.167
REMARK INTER:                  -7.986
REMARK INTRA:                  -0.181
REMARK UNBOUND:                -0.281
REMARK SMILES O=c1c(O)c(-c2ccc(O)c(O)c2)oc2cc(O)cc(O)c12
REMARK SMILES IDX 5 1 3 2 2 3 1 4 22 5 20 6 19 7 17 8 16 9 15 10 14 11 6 12
REMARK SMILES IDX 7 13 8 14 9 15 13 16 11 17 10 18 12 20 4 22 21 24 18 26
REMARK H PARENT 10 19 12 21 4 23 21 25 18 27
REMARK Flexibility Score: inf
ROOT
ATOM      1  C   UNL     1      23.338 -32.290  -9.241  1.00  0.00     0.180 A 
ATOM      2  C   UNL     1      23.053 -33.573  -9.747  1.00  0.00     0.208 A 
ATOM      3  C   UNL     1      22.118 -34.375  -9.075  1.00  0.00     0.238 A 
ATOM      4  O   UNL     1      21.848 -35.522  -9.526  1.00  0.00    -0.285 OA
ATOM      5  C   UNL     1      21.500 -33.894  -7.903  1.00  0.00     0.111 A 
ATOM      6  C   UNL     1      20.552 -34.641  -7.165  1.00  0.00     0.134 A 
ATOM      7  C   UNL     1      19.988 -34.094  -6.002  1.00  0.00     0.093 A 
ATOM      8  C   UNL     1      20.355 -32.820  -5.564  1.00  0.00     0.123 A 
ATOM      9  C   UNL     1      21.291 -32.076  -6.289  1.00  0.00     0.094 A 
ATOM     10  C   UNL     1      21.863 -32.603  -7.451  1.00  0.00     0.146 A 
ATOM     11  O   UNL     1      22.746 -31.874  -8.124  1.00  0.00    -0.452 OA
ENDROOT
BRANCH   1  12
ATOM     12  C   UNL     1      24.297 -31.378  -9.903  1.00  0.00     0.025 A 
ATOM     13  C   UNL     1      25.435 -30.948  -9.205  1.00  0.00     0.016 A 
ATOM     14  C   UNL     1      26.342 -30.072  -9.804  1.00  0.00     0.051 A 
ATOM     15  C   UNL     1      26.125 -29.596 -11.102  1.00  0.00     0.157 A 
ATOM     16  C   UNL     1      24.064 -30.883 -11.198  1.00  0.00     0.062 A 
ATOM     17  C   UNL     1      24.967 -30.002 -11.805  1.00  0.00     0.158 A 
BRANCH  15  18
ATOM     18  O   UNL     1      27.074 -28.728 -11.645  1.00  0.00    -0.504 OA
ATOM     19  H   UNL     1      27.341 -27.849 -11.226  1.00  0.00     0.293 HD
ENDBRANCH  15  18
BRANCH  17  20
ATOM     20  O   UNL     1      24.672 -29.554 -13.095  1.00  0.00    -0.504 OA
ATOM     21  H   UNL     1      25.052 -29.964 -13.936  1.00  0.00     0.293 HD
ENDBRANCH  17  20
ENDBRANCH   1  12
BRANCH   2  22
ATOM     22  O   UNL     1      23.715 -34.046 -10.883  1.00  0.00    -0.502 OA
ATOM     23  H   UNL     1      24.580 -34.571 -10.828  1.00  0.00     0.293 HD
ENDBRANCH   2  22
BRANCH   6  24
ATOM     24  O   UNL     1      20.165 -35.917  -7.576  1.00  0.00    -0.507 OA
ATOM     25  H   UNL     1      19.656 -36.068  -8.439  1.00  0.00     0.293 HD
ENDBRANCH   6  24
BRANCH   8  26
ATOM     26  O   UNL     1      19.781 -32.300  -4.405  1.00  0.00    -0.508 OA
ATOM     27  H   UNL     1      18.882 -31.833  -4.422  1.00  0.00     0.293 HD
ENDBRANCH   8  26
TORSDOF 6
ENDMDL
MODEL 7
REMARK VINA RESULT:    -6.428      1.895      7.345
REMARK INTER + INTRA:          -8.024
REMARK INTER:                  -7.884
REMARK INTRA:                  -0.140
REMARK UNBOUND:                -0.281
REMARK SMILES O=c1c(O)c(-c2ccc(O)c(O)c2)oc2cc(O)cc(O)c12
REMARK SMILES IDX 5 1 3 2 2 3 1 4 22 5 20 6 19 7 17 8 16 9 15 10 14 11 6 12
REMARK SMILES IDX 7 13 8 14 9 15 13 16 11 17 10 18 12 20 4 22 21 24 18 26
REMARK H PARENT 10 19 12 21 4 23 21 25 18 27
REMARK Flexibility Score: inf
ROOT
ATOM      1  C   UNL     1      20.205 -37.209  -7.168  1.00  0.00     0.180 A 
ATOM      2  C   UNL     1      19.879 -38.570  -7.010  1.00  0.00     0.208 A 
ATOM      3  C   UNL     1      18.670 -38.909  -6.383  1.00  0.00     0.238 A 
ATOM      4  O   UNL     1      18.363 -40.125  -6.247  1.00  0.00    -0.285 OA
ATOM      5  C   UNL     1      17.821 -37.889  -5.907  1.00  0.00     0.111 A 
ATOM      6  C   UNL     1      16.588 -38.147  -5.261  1.00  0.00     0.134 A 
ATOM      7  C   UNL     1      15.803 -37.076  -4.808  1.00  0.00     0.093 A 
ATOM      8  C   UNL     1      16.226 -35.757  -4.986  1.00  0.00     0.123 A 
ATOM      9  C   UNL     1      17.442 -35.496  -5.625  1.00  0.00     0.094 A 
ATOM     10  C   UNL     1      18.238 -36.549  -6.085  1.00  0.00     0.146 A 
ATOM     11  O   UNL     1      19.386 -36.274  -6.694  1.00  0.00    -0.452 OA
ENDROOT
BRANCH   1  12
ATOM     12  C   UNL     1      21.452 -36.771  -7.836  1.00  0.00     0.025 A 
ATOM     13  C   UNL     1      22.352 -35.946  -7.145  1.00  0.00     0.016 A 
ATOM     14  C   UNL     1      23.523 -35.506  -7.762  1.00  0.00     0.051 A 
ATOM     15  C   UNL     1      23.813 -35.864  -9.083  1.00  0.00     0.157 A 
ATOM     16  C   UNL     1      21.728 -37.114  -9.171  1.00  0.00     0.062 A 
ATOM     17  C   UNL     1      22.899 -36.673  -9.799  1.00  0.00     0.158 A 
BRANCH  15  18
ATOM     18  O   UNL     1      25.004 -35.397  -9.640  1.00  0.00    -0.504 OA
ATOM     19  H   UNL     1      25.887 -35.376  -9.149  1.00  0.00     0.293 HD
ENDBRANCH  15  18
BRANCH  17  20
ATOM     20  O   UNL     1      23.109 -37.055 -11.126  1.00  0.00    -0.504 OA
ATOM     21  H   UNL     1      22.376 -37.362 -11.748  1.00  0.00     0.293 HD
ENDBRANCH  17  20
ENDBRANCH   1  12
BRANCH   2  22
ATOM     22  O   UNL     1      20.761 -39.562  -7.447  1.00  0.00    -0.502 OA
ATOM     23  H   UNL     1      21.766 -39.468  -7.366  1.00  0.00     0.293 HD
ENDBRANCH   2  22
BRANCH   6  24
ATOM     24  O   UNL     1      16.139 -39.454  -5.066  1.00  0.00    -0.507 OA
ATOM     25  H   UNL     1      16.213 -40.157  -5.792  1.00  0.00     0.293 HD
ENDBRANCH   6  24
BRANCH   8  26
ATOM     26  O   UNL     1      15.428 -34.712  -4.526  1.00  0.00    -0.508 OA
ATOM     27  H   UNL     1      15.689 -33.743  -4.668  1.00  0.00     0.293 HD
ENDBRANCH   8  26
TORSDOF 6
ENDMDL
MODEL 8
REMARK VINA RESULT:    -6.426      5.725      7.391
REMARK INTER + INTRA:          -8.022
REMARK INTER:                  -7.698
REMARK INTRA:                  -0.324
REMARK UNBOUND:                -0.281
REMARK SMILES O=c1c(O)c(-c2ccc(O)c(O)c2)oc2cc(O)cc(O)c12
REMARK SMILES IDX 5 1 3 2 2 3 1 4 22 5 20 6 19 7 17 8 16 9 15 10 14 11 6 12
REMARK SMILES IDX 7 13 8 14 9 15 13 16 11 17 10 18 12 20 4 22 21 24 18 26
REMARK H PARENT 10 19 12 21 4 23 21 25 18 27
REMARK Flexibility Score: inf
ROOT
ATOM      1  C   UNL     1      21.858 -31.532  -9.842  1.00  0.00     0.180 A 
ATOM      2  C   UNL     1      22.149 -32.522  -8.884  1.00  0.00     0.208 A 
ATOM      3  C   UNL     1      23.462 -32.631  -8.398  1.00  0.00     0.238 A 
ATOM      4  O   UNL     1      23.731 -33.508  -7.532  1.00  0.00    -0.285 OA
ATOM      5  C   UNL     1      24.461 -31.767  -8.890  1.00  0.00     0.111 A 
ATOM      6  C   UNL     1      25.808 -31.814  -8.456  1.00  0.00     0.134 A 
ATOM      7  C   UNL     1      26.746 -30.924  -9.000  1.00  0.00     0.093 A 
ATOM      8  C   UNL     1      26.365 -29.992  -9.968  1.00  0.00     0.123 A 
ATOM      9  C   UNL     1      25.037 -29.940 -10.401  1.00  0.00     0.094 A 
ATOM     10  C   UNL     1      24.086 -30.817  -9.869  1.00  0.00     0.146 A 
ATOM     11  O   UNL     1      22.830 -30.743 -10.293  1.00  0.00    -0.452 OA
ENDROOT
BRANCH   1  12
ATOM     12  C   UNL     1      20.495 -31.342 -10.387  1.00  0.00     0.025 A 
ATOM     13  C   UNL     1      19.607 -30.473  -9.737  1.00  0.00     0.016 A 
ATOM     14  C   UNL     1      18.311 -30.294 -10.224  1.00  0.00     0.051 A 
ATOM     15  C   UNL     1      17.870 -30.989 -11.355  1.00  0.00     0.157 A 
ATOM     16  C   UNL     1      20.049 -32.059 -11.511  1.00  0.00     0.062 A 
ATOM     17  C   UNL     1      18.749 -31.889 -12.003  1.00  0.00     0.158 A 
BRANCH  15  18
ATOM     18  O   UNL     1      16.565 -30.760 -11.794  1.00  0.00    -0.504 OA
ATOM     19  H   UNL     1      15.886 -31.491 -11.954  1.00  0.00     0.293 HD
ENDBRANCH  15  18
BRANCH  17  20
ATOM     20  O   UNL     1      18.375 -32.632 -13.125  1.00  0.00    -0.504 OA
ATOM     21  H   UNL     1      17.418 -32.773 -13.415  1.00  0.00     0.293 HD
ENDBRANCH  17  20
ENDBRANCH   1  12
BRANCH   2  22
ATOM     22  O   UNL     1      21.152 -33.398  -8.449  1.00  0.00    -0.502 OA
ATOM     23  H   UNL     1      20.190 -33.324  -8.760  1.00  0.00     0.293 HD
ENDBRANCH   2  22
BRANCH   6  24
ATOM     24  O   UNL     1      26.219 -32.735  -7.491  1.00  0.00    -0.507 OA
ATOM     25  H   UNL     1      25.684 -33.572  -7.290  1.00  0.00     0.293 HD
ENDBRANCH   6  24
BRANCH   8  26
ATOM     26  O   UNL     1      27.317 -29.121 -10.494  1.00  0.00    -0.508 OA
ATOM     27  H   UNL     1      28.307 -29.330 -10.454  1.00  0.00     0.293 HD
ENDBRANCH   8  26
TORSDOF 6
ENDMDL
MODEL 9
REMARK VINA RESULT:    -6.395      1.622      3.401
REMARK INTER + INTRA:          -7.985
REMARK INTER:                  -7.811
REMARK INTRA:                  -0.173
REMARK UNBOUND:                -0.281
REMARK SMILES O=c1c(O)c(-c2ccc(O)c(O)c2)oc2cc(O)cc(O)c12
REMARK SMILES IDX 5 1 3 2 2 3 1 4 22 5 20 6 19 7 17 8 16 9 15 10 14 11 6 12
REMARK SMILES IDX 7 13 8 14 9 15 13 16 11 17 10 18 12 20 4 22 21 24 18 26
REMARK H PARENT 10 19 12 21 4 23 21 25 18 27
REMARK Flexibility Score: inf
ROOT
ATOM      1  C   UNL     1      20.248 -36.532  -7.340  1.00  0.00     0.180 A 
ATOM      2  C   UNL     1      21.381 -36.955  -8.061  1.00  0.00     0.208 A 
ATOM      3  C   UNL     1      22.242 -35.987  -8.601  1.00  0.00     0.238 A 
ATOM      4  O   UNL     1      23.266 -36.355  -9.239  1.00  0.00    -0.285 OA
ATOM      5  C   UNL     1      21.948 -34.618  -8.429  1.00  0.00     0.111 A 
ATOM      6  C   UNL     1      22.761 -33.581  -8.945  1.00  0.00     0.134 A 
ATOM      7  C   UNL     1      22.395 -32.243  -8.739  1.00  0.00     0.093 A 
ATOM      8  C   UNL     1      21.234 -31.923  -8.031  1.00  0.00     0.123 A 
ATOM      9  C   UNL     1      20.427 -32.943  -7.519  1.00  0.00     0.094 A 
ATOM     10  C   UNL     1      20.775 -34.283  -7.712  1.00  0.00     0.146 A 
ATOM     11  O   UNL     1      19.994 -35.232  -7.211  1.00  0.00    -0.452 OA
ENDROOT
BRANCH   1  12
ATOM     12  C   UNL     1      19.303 -37.492  -6.725  1.00  0.00     0.025 A 
ATOM     13  C   UNL     1      17.958 -37.488  -7.123  1.00  0.00     0.016 A 
ATOM     14  C   UNL     1      17.047 -38.371  -6.542  1.00  0.00     0.051 A 
ATOM     15  C   UNL     1      17.454 -39.262  -5.543  1.00  0.00     0.157 A 
ATOM     16  C   UNL     1      19.710 -38.370  -5.705  1.00  0.00     0.062 A 
ATOM     17  C   UNL     1      18.802 -39.256  -5.114  1.00  0.00     0.158 A 
BRANCH  15  18
ATOM     18  O   UNL     1      16.495 -40.124  -5.008  1.00  0.00    -0.504 OA
ATOM     19  H   UNL     1      15.931 -39.908  -4.198  1.00  0.00     0.293 HD
ENDBRANCH  15  18
BRANCH  17  20
ATOM     20  O   UNL     1      19.277 -40.102  -4.109  1.00  0.00    -0.504 OA
ATOM     21  H   UNL     1      19.748 -39.780  -3.276  1.00  0.00     0.293 HD
ENDBRANCH  17  20
ENDBRANCH   1  12
BRANCH   2  22
ATOM     22  O   UNL     1      21.624 -38.317  -8.259  1.00  0.00    -0.502 OA
ATOM     23  H   UNL     1      21.766 -38.715  -9.179  1.00  0.00     0.293 HD
ENDBRANCH   2  22
BRANCH   6  24
ATOM     24  O   UNL     1      23.926 -33.869  -9.657  1.00  0.00    -0.507 OA
ATOM     25  H   UNL     1      24.798 -33.386  -9.470  1.00  0.00     0.293 HD
ENDBRANCH   6  24
BRANCH   8  26
ATOM     26  O   UNL     1      20.893 -30.585  -7.842  1.00  0.00    -0.508 OA
ATOM     27  H   UNL     1      20.314 -30.086  -8.507  1.00  0.00     0.293 HD
ENDBRANCH   8  26
TORSDOF 6
ENDMDL
