MODEL 1
REMARK VINA RESULT:    -6.648      0.000      0.000
REMARK INTER + INTRA:          -6.842
REMARK INTER:                  -6.842
REMARK INTRA:                   0.000
REMARK UNBOUND:                 0.000
REMARK SMILES C=C1CCC[C@@]2(C)C[C@@]3(O)OC(=O)C(C)=C3C[C@@H]12
REMARK SMILES IDX 15 1 14 2 16 3 17 4 18 5 2 6 1 7 3 8 4 9 5 10 6 11 8 12 9 13
REMARK SMILES IDX 11 14 12 15 13 16 7 17 10 18
REMARK H PARENT 10 19
REMARK Flexibility Score: inf
ROOT
ATOM      1  C   UNL     1      -5.297  -7.208   4.405  1.00  0.00     0.052 C 
ATOM      2  C   UNL     1      -4.912  -6.722   5.769  1.00  0.00     0.040 C 
ATOM      3  C   UNL     1      -5.255  -5.574   6.357  1.00  0.00     0.012 C 
ATOM      4  C   UNL     1      -6.175  -4.513   5.831  1.00  0.00     0.047 C 
ATOM      5  C   UNL     1      -7.242  -4.125   6.897  1.00  0.00     0.025 C 
ATOM      6  C   UNL     1      -8.483  -5.021   6.961  1.00  0.00    -0.073 C 
ATOM      7  C   UNL     1      -8.628  -6.165   6.270  1.00  0.00     0.008 C 
ATOM      8  C   UNL     1      -9.601  -4.605   7.893  1.00  0.00     0.031 C 
ATOM      9  C   UNL     1      -9.166  -3.471   8.828  1.00  0.00     0.005 C 
ATOM     10  C   UNL     1      -7.790  -3.781   9.429  1.00  0.00     0.008 C 
ATOM     11  C   UNL     1      -6.649  -3.914   8.349  1.00  0.00    -0.019 C 
ATOM     12  C   UNL     1      -5.748  -5.130   8.755  1.00  0.00     0.092 C 
ATOM     13  C   UNL     1      -4.653  -5.472   7.730  1.00  0.00     0.235 C 
ATOM     14  O   UNL     1      -4.107  -6.773   7.945  1.00  0.00    -0.426 OA
ATOM     15  C   UNL     1      -4.211  -7.494   6.770  1.00  0.00     0.336 C 
ATOM     16  O   UNL     1      -3.779  -8.667   6.625  1.00  0.00    -0.246 OA
ATOM     17  C   UNL     1      -5.829  -2.599   8.378  1.00  0.00     0.012 C 
ENDROOT
BRANCH  13  18
ATOM     18  O   UNL     1      -3.621  -4.521   7.729  1.00  0.00    -0.353 OA
ATOM     19  H   UNL     1      -2.864  -4.919   7.224  1.00  0.00     0.215 HD
ENDBRANCH  13  18
TORSDOF 1
ENDMDL
MODEL 2
REMARK VINA RESULT:    -6.574      2.609      4.660
REMARK INTER + INTRA:          -6.766
REMARK INTER:                  -6.766
REMARK INTRA:                   0.000
REMARK UNBOUND:                 0.000
REMARK SMILES C=C1CCC[C@@]2(C)C[C@@]3(O)OC(=O)C(C)=C3C[C@@H]12
REMARK SMILES IDX 15 1 14 2 16 3 17 4 18 5 2 6 1 7 3 8 4 9 5 10 6 11 8 12 9 13
REMARK SMILES IDX 11 14 12 15 13 16 7 17 10 18
REMARK H PARENT 10 19
REMARK Flexibility Score: inf
ROOT
ATOM      1  C   UNL     1      -9.528  -3.316   4.932  1.00  0.00     0.052 C 
ATOM      2  C   UNL     1      -8.328  -2.956   5.754  1.00  0.00     0.040 C 
ATOM      3  C   UNL     1      -7.704  -3.704   6.666  1.00  0.00     0.012 C 
ATOM      4  C   UNL     1      -8.001  -5.124   7.046  1.00  0.00     0.047 C 
ATOM      5  C   UNL     1      -6.704  -5.987   7.028  1.00  0.00     0.025 C 
ATOM      6  C   UNL     1      -6.291  -6.549   5.665  1.00  0.00    -0.073 C 
ATOM      7  C   UNL     1      -6.886  -6.230   4.503  1.00  0.00     0.008 C 
ATOM      8  C   UNL     1      -5.112  -7.496   5.625  1.00  0.00     0.031 C 
ATOM      9  C   UNL     1      -4.356  -7.517   6.960  1.00  0.00     0.005 C 
ATOM     10  C   UNL     1      -4.128  -6.085   7.458  1.00  0.00     0.008 C 
ATOM     11  C   UNL     1      -5.466  -5.294   7.728  1.00  0.00    -0.019 C 
ATOM     12  C   UNL     1      -5.275  -3.836   7.187  1.00  0.00     0.092 C 
ATOM     13  C   UNL     1      -6.541  -2.966   7.264  1.00  0.00     0.235 C 
ATOM     14  O   UNL     1      -6.439  -1.800   6.447  1.00  0.00    -0.426 OA
ATOM     15  C   UNL     1      -7.523  -1.766   5.590  1.00  0.00     0.336 C 
ATOM     16  O   UNL     1      -7.742  -0.836   4.770  1.00  0.00    -0.246 OA
ATOM     17  C   UNL     1      -5.691  -5.277   9.262  1.00  0.00     0.012 C 
ENDROOT
BRANCH  13  18
ATOM     18  O   UNL     1      -6.840  -2.591   8.584  1.00  0.00    -0.353 OA
ATOM     19  H   UNL     1      -6.750  -3.408   9.141  1.00  0.00     0.215 HD
ENDBRANCH  13  18
TORSDOF 1
ENDMDL
MODEL 3
REMARK VINA RESULT:    -6.406      2.676      4.259
REMARK INTER + INTRA:          -6.593
REMARK INTER:                  -6.593
REMARK INTRA:                   0.000
REMARK UNBOUND:                 0.000
REMARK SMILES C=C1CCC[C@@]2(C)C[C@@]3(O)OC(=O)C(C)=C3C[C@@H]12
REMARK SMILES IDX 15 1 14 2 16 3 17 4 18 5 2 6 1 7 3 8 4 9 5 10 6 11 8 12 9 13
REMARK SMILES IDX 11 14 12 15 13 16 7 17 10 18
REMARK H PARENT 10 19
REMARK Flexibility Score: inf
ROOT
ATOM      1  C   UNL     1      -8.518  -1.089   5.168  1.00  0.00     0.052 C 
ATOM      2  C   UNL     1      -7.911  -2.447   5.352  1.00  0.00     0.040 C 
ATOM      3  C   UNL     1      -6.909  -2.795   6.162  1.00  0.00     0.012 C 
ATOM      4  C   UNL     1      -6.187  -1.928   7.151  1.00  0.00     0.047 C 
ATOM      5  C   UNL     1      -6.120  -2.616   8.547  1.00  0.00     0.025 C 
ATOM      6  C   UNL     1      -7.348  -2.434   9.444  1.00  0.00    -0.073 C 
ATOM      7  C   UNL     1      -8.495  -1.857   9.050  1.00  0.00     0.008 C 
ATOM      8  C   UNL     1      -7.272  -2.977  10.855  1.00  0.00     0.031 C 
ATOM      9  C   UNL     1      -6.040  -3.869  11.053  1.00  0.00     0.005 C 
ATOM     10  C   UNL     1      -5.907  -4.852   9.883  1.00  0.00     0.008 C 
ATOM     11  C   UNL     1      -5.710  -4.143   8.488  1.00  0.00    -0.019 C 
ATOM     12  C   UNL     1      -6.588  -4.906   7.438  1.00  0.00     0.092 C 
ATOM     13  C   UNL     1      -6.602  -4.260   6.042  1.00  0.00     0.235 C 
ATOM     14  O   UNL     1      -7.672  -4.752   5.236  1.00  0.00    -0.426 OA
ATOM     15  C   UNL     1      -8.415  -3.678   4.784  1.00  0.00     0.336 C 
ATOM     16  O   UNL     1      -9.404  -3.781   4.013  1.00  0.00    -0.246 OA
ATOM     17  C   UNL     1      -4.208  -4.254   8.121  1.00  0.00     0.012 C 
ENDROOT
BRANCH  13  18
ATOM     18  O   UNL     1      -5.383  -4.438   5.369  1.00  0.00    -0.353 OA
ATOM     19  H   UNL     1      -5.058  -5.347   5.601  1.00  0.00     0.215 HD
ENDBRANCH  13  18
TORSDOF 1
ENDMDL
MODEL 4
REMARK VINA RESULT:    -6.344      2.191      4.690
REMARK INTER + INTRA:          -6.530
REMARK INTER:                  -6.530
REMARK INTRA:                   0.000
REMARK UNBOUND:                 0.000
REMARK SMILES C=C1CCC[C@@]2(C)C[C@@]3(O)OC(=O)C(C)=C3C[C@@H]12
REMARK SMILES IDX 15 1 14 2 16 3 17 4 18 5 2 6 1 7 3 8 4 9 5 10 6 11 8 12 9 13
REMARK SMILES IDX 11 14 12 15 13 16 7 17 10 18
REMARK H PARENT 10 19
REMARK Flexibility Score: inf
ROOT
ATOM      1  C   UNL     1      -9.564  -3.421   6.248  1.00  0.00     0.052 C 
ATOM      2  C   UNL     1      -8.087  -3.319   6.480  1.00  0.00     0.040 C 
ATOM      3  C   UNL     1      -7.265  -4.257   6.958  1.00  0.00     0.012 C 
ATOM      4  C   UNL     1      -7.600  -5.675   7.312  1.00  0.00     0.047 C 
ATOM      5  C   UNL     1      -6.595  -6.665   6.651  1.00  0.00     0.025 C 
ATOM      6  C   UNL     1      -6.900  -7.066   5.205  1.00  0.00    -0.073 C 
ATOM      7  C   UNL     1      -7.872  -6.517   4.456  1.00  0.00     0.008 C 
ATOM      8  C   UNL     1      -6.021  -8.122   4.570  1.00  0.00     0.031 C 
ATOM      9  C   UNL     1      -4.785  -8.420   5.426  1.00  0.00     0.005 C 
ATOM     10  C   UNL     1      -4.135  -7.110   5.888  1.00  0.00     0.008 C 
ATOM     11  C   UNL     1      -5.081  -6.223   6.786  1.00  0.00    -0.019 C 
ATOM     12  C   UNL     1      -4.903  -4.732   6.337  1.00  0.00     0.092 C 
ATOM     13  C   UNL     1      -5.855  -3.747   7.038  1.00  0.00     0.235 C 
ATOM     14  O   UNL     1      -5.922  -2.494   6.359  1.00  0.00    -0.426 OA
ATOM     15  C   UNL     1      -7.246  -2.215   6.076  1.00  0.00     0.336 C 
ATOM     16  O   UNL     1      -7.638  -1.158   5.517  1.00  0.00    -0.246 OA
ATOM     17  C   UNL     1      -4.626  -6.404   8.256  1.00  0.00     0.012 C 
ENDROOT
BRANCH  13  18
ATOM     18  O   UNL     1      -5.498  -3.538   8.380  1.00  0.00    -0.353 OA
ATOM     19  H   UNL     1      -6.084  -2.813   8.722  1.00  0.00     0.215 HD
ENDBRANCH  13  18
TORSDOF 1
ENDMDL
MODEL 5
REMARK VINA RESULT:    -6.327      2.172      3.525
REMARK INTER + INTRA:          -6.512
REMARK INTER:                  -6.512
REMARK INTRA:                   0.000
REMARK UNBOUND:                 0.000
REMARK SMILES C=C1CCC[C@@]2(C)C[C@@]3(O)OC(=O)C(C)=C3C[C@@H]12
REMARK SMILES IDX 15 1 14 2 16 3 17 4 18 5 2 6 1 7 3 8 4 9 5 10 6 11 8 12 9 13
REMARK SMILES IDX 11 14 12 15 13 16 7 17 10 18
REMARK H PARENT 10 19
REMARK Flexibility Score: inf
ROOT
ATOM      1  C   UNL     1      -4.501  -6.027   8.494  1.00  0.00     0.052 C 
ATOM      2  C   UNL     1      -5.123  -5.938   7.133  1.00  0.00     0.040 C 
ATOM      3  C   UNL     1      -6.358  -5.541   6.820  1.00  0.00     0.012 C 
ATOM      4  C   UNL     1      -7.414  -5.013   7.746  1.00  0.00     0.047 C 
ATOM      5  C   UNL     1      -8.013  -3.682   7.202  1.00  0.00     0.025 C 
ATOM      6  C   UNL     1      -7.232  -2.408   7.537  1.00  0.00    -0.073 C 
ATOM      7  C   UNL     1      -6.025  -2.394   8.129  1.00  0.00     0.008 C 
ATOM      8  C   UNL     1      -7.846  -1.084   7.138  1.00  0.00     0.031 C 
ATOM      9  C   UNL     1      -9.051  -1.275   6.210  1.00  0.00     0.005 C 
ATOM     10  C   UNL     1      -8.712  -2.285   5.107  1.00  0.00     0.008 C 
ATOM     11  C   UNL     1      -8.357  -3.720   5.658  1.00  0.00    -0.019 C 
ATOM     12  C   UNL     1      -7.135  -4.256   4.837  1.00  0.00     0.092 C 
ATOM     13  C   UNL     1      -6.584  -5.602   5.337  1.00  0.00     0.235 C 
ATOM     14  O   UNL     1      -5.282  -5.872   4.819  1.00  0.00    -0.426 OA
ATOM     15  C   UNL     1      -4.429  -6.123   5.878  1.00  0.00     0.336 C 
ATOM     16  O   UNL     1      -3.217  -6.436   5.746  1.00  0.00    -0.246 OA
ATOM     17  C   UNL     1      -9.598  -4.621   5.434  1.00  0.00     0.012 C 
ENDROOT
BRANCH  13  18
ATOM     18  O   UNL     1      -7.444  -6.668   5.028  1.00  0.00    -0.353 OA
ATOM     19  H   UNL     1      -8.168  -6.659   5.708  1.00  0.00     0.215 HD
ENDBRANCH  13  18
TORSDOF 1
ENDMDL
MODEL 6
REMARK VINA RESULT:    -6.300      2.033      3.786
REMARK INTER + INTRA:          -6.484
REMARK INTER:                  -6.484
REMARK INTRA:                   0.000
REMARK UNBOUND:                 0.000
REMARK SMILES C=C1CCC[C@@]2(C)C[C@@]3(O)OC(=O)C(C)=C3C[C@@H]12
REMARK SMILES IDX 15 1 14 2 16 3 17 4 18 5 2 6 1 7 3 8 4 9 5 10 6 11 8 12 9 13
REMARK SMILES IDX 11 14 12 15 13 16 7 17 10 18
REMARK H PARENT 10 19
REMARK Flexibility Score: inf
ROOT
ATOM      1  C   UNL     1      -4.122  -5.442   8.100  1.00  0.00     0.052 C 
ATOM      2  C   UNL     1      -4.631  -6.211   6.919  1.00  0.00     0.040 C 
ATOM      3  C   UNL     1      -5.900  -6.434   6.571  1.00  0.00     0.012 C 
ATOM      4  C   UNL     1      -7.138  -5.907   7.233  1.00  0.00     0.047 C 
ATOM      5  C   UNL     1      -8.097  -5.266   6.187  1.00  0.00     0.025 C 
ATOM      6  C   UNL     1      -7.805  -3.810   5.812  1.00  0.00    -0.073 C 
ATOM      7  C   UNL     1      -6.720  -3.128   6.216  1.00  0.00     0.008 C 
ATOM      8  C   UNL     1      -8.787  -3.110   4.897  1.00  0.00     0.031 C 
ATOM      9  C   UNL     1      -9.787  -4.095   4.281  1.00  0.00     0.005 C 
ATOM     10  C   UNL     1      -9.052  -5.334   3.755  1.00  0.00     0.008 C 
ATOM     11  C   UNL     1      -8.289  -6.136   4.879  1.00  0.00    -0.019 C 
ATOM     12  C   UNL     1      -6.900  -6.566   4.297  1.00  0.00     0.092 C 
ATOM     13  C   UNL     1      -5.978  -7.256   5.317  1.00  0.00     0.235 C 
ATOM     14  O   UNL     1      -4.623  -7.299   4.870  1.00  0.00    -0.426 OA
ATOM     15  C   UNL     1      -3.820  -6.730   5.840  1.00  0.00     0.336 C 
ATOM     16  O   UNL     1      -2.566  -6.655   5.761  1.00  0.00    -0.246 OA
ATOM     17  C   UNL     1      -9.145  -7.383   5.217  1.00  0.00     0.012 C 
ENDROOT
BRANCH  13  18
ATOM     18  O   UNL     1      -6.415  -8.555   5.624  1.00  0.00    -0.353 OA
ATOM     19  H   UNL     1      -5.963  -8.818   6.467  1.00  0.00     0.215 HD
ENDBRANCH  13  18
TORSDOF 1
ENDMDL
MODEL 7
REMARK VINA RESULT:    -6.257      1.216      1.601
REMARK INTER + INTRA:          -6.440
REMARK INTER:                  -6.440
REMARK INTRA:                   0.000
REMARK UNBOUND:                 0.000
REMARK SMILES C=C1CCC[C@@]2(C)C[C@@]3(O)OC(=O)C(C)=C3C[C@@H]12
REMARK SMILES IDX 15 1 14 2 16 3 17 4 18 5 2 6 1 7 3 8 4 9 5 10 6 11 8 12 9 13
REMARK SMILES IDX 11 14 12 15 13 16 7 17 10 18
REMARK H PARENT 10 19
REMARK Flexibility Score: inf
ROOT
ATOM      1  C   UNL     1      -6.806  -5.607   4.364  1.00  0.00     0.052 C 
ATOM      2  C   UNL     1      -5.927  -5.823   5.558  1.00  0.00     0.040 C 
ATOM      3  C   UNL     1      -5.675  -4.972   6.555  1.00  0.00     0.012 C 
ATOM      4  C   UNL     1      -6.268  -3.611   6.771  1.00  0.00     0.047 C 
ATOM      5  C   UNL     1      -6.807  -3.465   8.225  1.00  0.00     0.025 C 
ATOM      6  C   UNL     1      -8.219  -4.004   8.475  1.00  0.00    -0.073 C 
ATOM      7  C   UNL     1      -8.934  -4.700   7.575  1.00  0.00     0.008 C 
ATOM      8  C   UNL     1      -8.829  -3.766   9.839  1.00  0.00     0.031 C 
ATOM      9  C   UNL     1      -7.792  -3.244  10.841  1.00  0.00     0.005 C 
ATOM     10  C   UNL     1      -6.506  -4.074  10.749  1.00  0.00     0.008 C 
ATOM     11  C   UNL     1      -5.815  -4.006   9.332  1.00  0.00    -0.019 C 
ATOM     12  C   UNL     1      -5.326  -5.450   8.972  1.00  0.00     0.092 C 
ATOM     13  C   UNL     1      -4.735  -5.578   7.557  1.00  0.00     0.235 C 
ATOM     14  O   UNL     1      -4.645  -6.939   7.137  1.00  0.00    -0.426 OA
ATOM     15  C   UNL     1      -5.304  -7.073   5.929  1.00  0.00     0.336 C 
ATOM     16  O   UNL     1      -5.366  -8.148   5.277  1.00  0.00    -0.246 OA
ATOM     17  C   UNL     1      -4.609  -3.040   9.453  1.00  0.00     0.012 C 
ENDROOT
BRANCH  13  18
ATOM     18  O   UNL     1      -3.474  -4.969   7.458  1.00  0.00    -0.353 OA
ATOM     19  H   UNL     1      -3.563  -4.060   7.846  1.00  0.00     0.215 HD
ENDBRANCH  13  18
TORSDOF 1
ENDMDL
MODEL 8
REMARK VINA RESULT:    -6.088      2.518      4.961
REMARK INTER + INTRA:          -6.266
REMARK INTER:                  -6.266
REMARK INTRA:                   0.000
REMARK UNBOUND:                 0.000
REMARK SMILES C=C1CCC[C@@]2(C)C[C@@]3(O)OC(=O)C(C)=C3C[C@@H]12
REMARK SMILES IDX 15 1 14 2 16 3 17 4 18 5 2 6 1 7 3 8 4 9 5 10 6 11 8 12 9 13
REMARK SMILES IDX 11 14 12 15 13 16 7 17 10 18
REMARK H PARENT 10 19
REMARK Flexibility Score: inf
ROOT
ATOM      1  C   UNL     1      -5.250  -3.156   9.655  1.00  0.00     0.052 C 
ATOM      2  C   UNL     1      -6.482  -3.686   8.987  1.00  0.00     0.040 C 
ATOM      3  C   UNL     1      -6.638  -4.025   7.706  1.00  0.00     0.012 C 
ATOM      4  C   UNL     1      -5.597  -4.033   6.626  1.00  0.00     0.047 C 
ATOM      5  C   UNL     1      -5.598  -5.392   5.864  1.00  0.00     0.025 C 
ATOM      6  C   UNL     1      -4.789  -6.522   6.506  1.00  0.00    -0.073 C 
ATOM      7  C   UNL     1      -4.218  -6.449   7.720  1.00  0.00     0.008 C 
ATOM      8  C   UNL     1      -4.659  -7.818   5.734  1.00  0.00     0.031 C 
ATOM      9  C   UNL     1      -5.609  -7.858   4.531  1.00  0.00     0.005 C 
ATOM     10  C   UNL     1      -7.009  -7.392   4.948  1.00  0.00     0.008 C 
ATOM     11  C   UNL     1      -7.044  -5.908   5.480  1.00  0.00    -0.019 C 
ATOM     12  C   UNL     1      -7.989  -5.872   6.729  1.00  0.00     0.092 C 
ATOM     13  C   UNL     1      -8.035  -4.510   7.444  1.00  0.00     0.235 C 
ATOM     14  O   UNL     1      -8.596  -4.612   8.752  1.00  0.00    -0.426 OA
ATOM     15  C   UNL     1      -7.701  -4.076   9.659  1.00  0.00     0.336 C 
ATOM     16  O   UNL     1      -7.924  -3.980  10.894  1.00  0.00    -0.246 OA
ATOM     17  C   UNL     1      -7.616  -5.023   4.342  1.00  0.00     0.012 C 
ENDROOT
BRANCH  13  18
ATOM     18  O   UNL     1      -8.742  -3.552   6.700  1.00  0.00    -0.353 OA
ATOM     19  H   UNL     1      -8.457  -3.655   5.755  1.00  0.00     0.215 HD
ENDBRANCH  13  18
TORSDOF 1
ENDMDL
MODEL 9
REMARK VINA RESULT:    -6.066      1.873      3.273
REMARK INTER + INTRA:          -6.243
REMARK INTER:                  -6.243
REMARK INTRA:                   0.000
REMARK UNBOUND:                 0.000
REMARK SMILES C=C1CCC[C@@]2(C)C[C@@]3(O)OC(=O)C(C)=C3C[C@@H]12
REMARK SMILES IDX 15 1 14 2 16 3 17 4 18 5 2 6 1 7 3 8 4 9 5 10 6 11 8 12 9 13
REMARK SMILES IDX 11 14 12 15 13 16 7 17 10 18
REMARK H PARENT 10 19
REMARK Flexibility Score: inf
ROOT
ATOM      1  C   UNL     1      -3.644  -7.459   6.147  1.00  0.00     0.052 C 
ATOM      2  C   UNL     1      -4.538  -6.345   6.601  1.00  0.00     0.040 C 
ATOM      3  C   UNL     1      -5.418  -5.652   5.874  1.00  0.00     0.012 C 
ATOM      4  C   UNL     1      -5.789  -5.865   4.437  1.00  0.00     0.047 C 
ATOM      5  C   UNL     1      -7.336  -5.932   4.267  1.00  0.00     0.025 C 
ATOM      6  C   UNL     1      -7.982  -7.297   4.526  1.00  0.00    -0.073 C 
ATOM      7  C   UNL     1      -7.326  -8.363   5.014  1.00  0.00     0.008 C 
ATOM      8  C   UNL     1      -9.463  -7.436   4.248  1.00  0.00     0.031 C 
ATOM      9  C   UNL     1     -10.123  -6.075   4.000  1.00  0.00     0.005 C 
ATOM     10  C   UNL     1      -9.670  -5.067   5.065  1.00  0.00     0.008 C 
ATOM     11  C   UNL     1      -8.115  -4.803   5.057  1.00  0.00    -0.019 C 
ATOM     12  C   UNL     1      -7.635  -4.746   6.547  1.00  0.00     0.092 C 
ATOM     13  C   UNL     1      -6.111  -4.616   6.712  1.00  0.00     0.235 C 
ATOM     14  O   UNL     1      -5.688  -4.931   8.038  1.00  0.00    -0.426 OA
ATOM     15  C   UNL     1      -4.719  -5.916   7.969  1.00  0.00     0.336 C 
ATOM     16  O   UNL     1      -4.117  -6.380   8.972  1.00  0.00    -0.246 OA
ATOM     17  C   UNL     1      -7.882  -3.439   4.359  1.00  0.00     0.012 C 
ENDROOT
BRANCH  13  18
ATOM     18  O   UNL     1      -5.653  -3.335   6.363  1.00  0.00    -0.353 OA
ATOM     19  H   UNL     1      -6.351  -2.929   5.786  1.00  0.00     0.215 HD
ENDBRANCH  13  18
TORSDOF 1
ENDMDL
