MODEL 1
REMARK VINA RESULT:    -4.892      0.000      0.000
REMARK INTER + INTRA:          -9.069
REMARK INTER:                  -7.466
REMARK INTRA:                  -1.603
REMARK UNBOUND:                -1.603
REMARK SMILES OC[C@H]1O[C@@H](O[C@@]2(CO)O[C@H](CO)[C@@H](O)[C@H]2O)[C@H](O)[C@H](O)[C@@H]1O
REMARK SMILES IDX 6 1 5 2 3 3 22 4 4 5 20 6 18 7 2 8 1 9 23 11 21 13 19 15
REMARK SMILES IDX 7 17 16 18 10 19 14 20 11 21 8 22 9 23 17 25 15 27 12 29
REMARK SMILES IDX 13 30
REMARK H PARENT 1 10 23 12 21 14 19 16 9 24 17 26 15 28 13 31
REMARK Flexibility Score: inf
ROOT
ATOM      1  O   UNL     1       9.575  -4.749  35.415  1.00  0.00    -0.313 OA
ENDROOT
BRANCH   1   2
ATOM      2  C   UNL     1      10.864  -5.233  35.055  1.00  0.00     0.285 C 
ATOM      3  C   UNL     1      11.670  -5.376  37.307  1.00  0.00     0.178 C 
ATOM      4  C   UNL     1      12.605  -4.152  37.120  1.00  0.00     0.177 C 
ATOM      5  O   UNL     1      11.388  -6.059  36.088  1.00  0.00    -0.341 OA
ATOM      6  C   UNL     1      12.131  -3.245  35.969  1.00  0.00     0.179 C 
ATOM      7  C   UNL     1      11.809  -4.065  34.711  1.00  0.00     0.202 C 
BRANCH   3   8
ATOM      8  C   UNL     1      10.403  -5.045  38.124  1.00  0.00     0.191 C 
BRANCH   8   9
ATOM      9  O   UNL     1       9.505  -6.120  38.071  1.00  0.00    -0.394 OA
ATOM     10  H   UNL     1       9.559  -6.567  38.957  1.00  0.00     0.210 HD
ENDBRANCH   8   9
ENDBRANCH   3   8
BRANCH   4  11
ATOM     11  O   UNL     1      13.944  -4.550  36.933  1.00  0.00    -0.387 OA
ATOM     12  H   UNL     1      14.198  -5.158  37.672  1.00  0.00     0.211 HD
ENDBRANCH   4  11
BRANCH   6  13
ATOM     13  O   UNL     1      13.104  -2.276  35.670  1.00  0.00    -0.387 OA
ATOM     14  H   UNL     1      13.623  -2.124  36.504  1.00  0.00     0.211 HD
ENDBRANCH   6  13
BRANCH   7  15
ATOM     15  O   UNL     1      12.981  -4.575  34.126  1.00  0.00    -0.385 OA
ATOM     16  H   UNL     1      13.314  -3.888  33.492  1.00  0.00     0.211 HD
ENDBRANCH   7  15
ENDBRANCH   1   2
BRANCH   1  17
ATOM     17  C   UNL     1       8.481  -5.483  34.869  1.00  0.00     0.224 C 
ATOM     18  C   UNL     1       7.130  -4.932  35.377  1.00  0.00     0.208 C 
ATOM     19  O   UNL     1       8.560  -6.873  35.159  1.00  0.00    -0.337 OA
ATOM     20  C   UNL     1       6.283  -6.183  35.443  1.00  0.00     0.180 C 
ATOM     21  C   UNL     1       7.317  -7.288  35.683  1.00  0.00     0.179 C 
BRANCH  17  22
ATOM     22  C   UNL     1       8.559  -5.328  33.336  1.00  0.00     0.225 C 
BRANCH  22  23
ATOM     23  O   UNL     1       8.757  -6.573  32.721  1.00  0.00    -0.391 OA
ATOM     24  H   UNL     1       8.167  -7.221  33.185  1.00  0.00     0.210 HD
ENDBRANCH  22  23
ENDBRANCH  17  22
BRANCH  18  25
ATOM     25  O   UNL     1       7.272  -4.341  36.646  1.00  0.00    -0.385 OA
ATOM     26  H   UNL     1       6.605  -3.606  36.697  1.00  0.00     0.211 HD
ENDBRANCH  18  25
BRANCH  20  27
ATOM     27  O   UNL     1       5.277  -6.133  36.429  1.00  0.00    -0.387 OA
ATOM     28  H   UNL     1       5.608  -5.599  37.197  1.00  0.00     0.211 HD
ENDBRANCH  20  27
BRANCH  21  29
ATOM     29  C   UNL     1       6.903  -8.629  35.061  1.00  0.00     0.191 C 
BRANCH  29  30
ATOM     30  O   UNL     1       6.921  -8.555  33.658  1.00  0.00    -0.394 OA
ATOM     31  H   UNL     1       6.485  -9.379  33.315  1.00  0.00     0.210 HD
ENDBRANCH  29  30
ENDBRANCH  21  29
ENDBRANCH   1  17
TORSDOF 13
ENDMDL
MODEL 2
REMARK VINA RESULT:    -4.846      1.595      6.256
REMARK INTER + INTRA:          -8.999
REMARK INTER:                  -7.434
REMARK INTRA:                  -1.565
REMARK UNBOUND:                -1.603
REMARK SMILES OC[C@H]1O[C@@H](O[C@@]2(CO)O[C@H](CO)[C@@H](O)[C@H]2O)[C@H](O)[C@H](O)[C@@H]1O
REMARK SMILES IDX 6 1 5 2 3 3 22 4 4 5 20 6 18 7 2 8 1 9 23 11 21 13 19 15
REMARK SMILES IDX 7 17 16 18 10 19 14 20 11 21 8 22 9 23 17 25 15 27 12 29
REMARK SMILES IDX 13 30
REMARK H PARENT 1 10 23 12 21 14 19 16 9 24 17 26 15 28 13 31
REMARK Flexibility Score: inf
ROOT
ATOM      1  O   UNL     1       7.412  -5.659  35.117  1.00  0.00    -0.313 OA
ENDROOT
BRANCH   1   2
ATOM      2  C   UNL     1       6.842  -6.453  36.151  1.00  0.00     0.285 C 
ATOM      3  C   UNL     1       7.001  -8.515  34.941  1.00  0.00     0.178 C 
ATOM      4  C   UNL     1       5.468  -8.574  34.709  1.00  0.00     0.177 C 
ATOM      5  O   UNL     1       7.365  -7.775  36.104  1.00  0.00    -0.341 OA
ATOM      6  C   UNL     1       4.824  -7.178  34.811  1.00  0.00     0.179 C 
ATOM      7  C   UNL     1       5.303  -6.435  36.066  1.00  0.00     0.202 C 
BRANCH   3   8
ATOM      8  C   UNL     1       7.784  -8.090  33.682  1.00  0.00     0.191 C 
BRANCH   8   9
ATOM      9  O   UNL     1       9.114  -7.805  34.019  1.00  0.00    -0.394 OA
ATOM     10  H   UNL     1       9.501  -7.336  33.233  1.00  0.00     0.210 HD
ENDBRANCH   8   9
ENDBRANCH   3   8
BRANCH   4  11
ATOM     11  O   UNL     1       4.847  -9.483  35.588  1.00  0.00    -0.387 OA
ATOM     12  H   UNL     1       4.780  -9.061  36.481  1.00  0.00     0.211 HD
ENDBRANCH   4  11
BRANCH   6  13
ATOM     13  O   UNL     1       3.422  -7.280  34.822  1.00  0.00    -0.387 OA
ATOM     14  H   UNL     1       3.076  -6.555  34.237  1.00  0.00     0.211 HD
ENDBRANCH   6  13
BRANCH   7  15
ATOM     15  O   UNL     1       4.769  -7.013  37.231  1.00  0.00    -0.385 OA
ATOM     16  H   UNL     1       3.911  -6.551  37.420  1.00  0.00     0.211 HD
ENDBRANCH   7  15
ENDBRANCH   1   2
BRANCH   1  17
ATOM     17  C   UNL     1       8.477  -4.805  35.530  1.00  0.00     0.224 C 
ATOM     18  C   UNL     1       9.109  -4.076  34.322  1.00  0.00     0.208 C 
ATOM     19  O   UNL     1       9.491  -5.505  36.239  1.00  0.00    -0.337 OA
ATOM     20  C   UNL     1      10.558  -3.968  34.742  1.00  0.00     0.180 C 
ATOM     21  C   UNL     1      10.740  -5.173  35.671  1.00  0.00     0.179 C 
BRANCH  17  22
ATOM     22  C   UNL     1       7.869  -3.768  36.498  1.00  0.00     0.225 C 
BRANCH  22  23
ATOM     23  O   UNL     1       7.145  -2.795  35.792  1.00  0.00    -0.391 OA
ATOM     24  H   UNL     1       7.242  -3.008  34.829  1.00  0.00     0.210 HD
ENDBRANCH  22  23
ENDBRANCH  17  22
BRANCH  18  25
ATOM     25  O   UNL     1       8.971  -4.836  33.147  1.00  0.00    -0.385 OA
ATOM     26  H   UNL     1       8.062  -5.237  33.169  1.00  0.00     0.211 HD
ENDBRANCH  18  25
BRANCH  20  27
ATOM     27  O   UNL     1      11.460  -3.953  33.660  1.00  0.00    -0.387 OA
ATOM     28  H   UNL     1      11.908  -3.069  33.629  1.00  0.00     0.211 HD
ENDBRANCH  20  27
BRANCH  21  29
ATOM     29  C   UNL     1      11.771  -4.913  36.778  1.00  0.00     0.191 C 
BRANCH  29  30
ATOM     30  O   UNL     1      12.979  -4.443  36.236  1.00  0.00    -0.394 OA
ATOM     31  H   UNL     1      13.643  -5.178  36.317  1.00  0.00     0.210 HD
ENDBRANCH  29  30
ENDBRANCH  21  29
ENDBRANCH   1  17
TORSDOF 13
ENDMDL
MODEL 3
REMARK VINA RESULT:    -4.787      2.245      5.660
REMARK INTER + INTRA:          -8.908
REMARK INTER:                  -7.389
REMARK INTRA:                  -1.520
REMARK UNBOUND:                -1.603
REMARK SMILES OC[C@H]1O[C@@H](O[C@@]2(CO)O[C@H](CO)[C@@H](O)[C@H]2O)[C@H](O)[C@H](O)[C@@H]1O
REMARK SMILES IDX 6 1 5 2 3 3 22 4 4 5 20 6 18 7 2 8 1 9 23 11 21 13 19 15
REMARK SMILES IDX 7 17 16 18 10 19 14 20 11 21 8 22 9 23 17 25 15 27 12 29
REMARK SMILES IDX 13 30
REMARK H PARENT 1 10 23 12 21 14 19 16 9 24 17 26 15 28 13 31
REMARK Flexibility Score: inf
ROOT
ATOM      1  O   UNL     1      11.086  -5.757  36.981  1.00  0.00    -0.313 OA
ENDROOT
BRANCH   1   2
ATOM      2  C   UNL     1      10.463  -6.476  35.922  1.00  0.00     0.285 C 
ATOM      3  C   UNL     1      10.843  -4.783  34.269  1.00  0.00     0.178 C 
ATOM      4  C   UNL     1       9.344  -4.383  34.238  1.00  0.00     0.177 C 
ATOM      5  O   UNL     1      11.056  -6.133  34.676  1.00  0.00    -0.341 OA
ATOM      6  C   UNL     1       8.621  -4.787  35.537  1.00  0.00     0.179 C 
ATOM      7  C   UNL     1       8.940  -6.238  35.924  1.00  0.00     0.202 C 
BRANCH   3   8
ATOM      8  C   UNL     1      11.719  -3.773  35.039  1.00  0.00     0.191 C 
BRANCH   8   9
ATOM      9  O   UNL     1      13.023  -4.269  35.166  1.00  0.00    -0.394 OA
ATOM     10  H   UNL     1      13.572  -3.772  34.504  1.00  0.00     0.210 HD
ENDBRANCH   8   9
ENDBRANCH   3   8
BRANCH   4  11
ATOM     11  O   UNL     1       8.691  -4.917  33.109  1.00  0.00    -0.387 OA
ATOM     12  H   UNL     1       8.328  -5.807  33.348  1.00  0.00     0.211 HD
ENDBRANCH   4  11
BRANCH   6  13
ATOM     13  O   UNL     1       7.232  -4.623  35.401  1.00  0.00    -0.387 OA
ATOM     14  H   UNL     1       7.014  -3.717  35.746  1.00  0.00     0.211 HD
ENDBRANCH   6  13
BRANCH   7  15
ATOM     15  O   UNL     1       8.329  -7.143  35.039  1.00  0.00    -0.385 OA
ATOM     16  H   UNL     1       7.349  -7.001  35.105  1.00  0.00     0.211 HD
ENDBRANCH   7  15
ENDBRANCH   1   2
BRANCH   1  17
ATOM     17  C   UNL     1      11.540  -6.560  38.069  1.00  0.00     0.224 C 
ATOM     18  C   UNL     1      12.831  -5.980  38.690  1.00  0.00     0.208 C 
ATOM     19  O   UNL     1      11.766  -7.911  37.690  1.00  0.00    -0.337 OA
ATOM     20  C   UNL     1      13.560  -7.231  39.125  1.00  0.00     0.180 C 
ATOM     21  C   UNL     1      13.048  -8.291  38.143  1.00  0.00     0.179 C 
BRANCH  17  22
ATOM     22  C   UNL     1      10.414  -6.560  39.124  1.00  0.00     0.225 C 
BRANCH  22  23
ATOM     23  O   UNL     1       9.733  -7.787  39.123  1.00  0.00    -0.391 OA
ATOM     24  H   UNL     1       9.982  -8.255  39.960  1.00  0.00     0.210 HD
ENDBRANCH  22  23
ENDBRANCH  17  22
BRANCH  18  25
ATOM     25  O   UNL     1      13.570  -5.261  37.733  1.00  0.00    -0.385 OA
ATOM     26  H   UNL     1      14.139  -5.921  37.255  1.00  0.00     0.211 HD
ENDBRANCH  18  25
BRANCH  20  27
ATOM     27  O   UNL     1      14.963  -7.097  39.123  1.00  0.00    -0.387 OA
ATOM     28  H   UNL     1      15.366  -7.941  39.453  1.00  0.00     0.211 HD
ENDBRANCH  20  27
BRANCH  21  29
ATOM     29  C   UNL     1      12.996  -9.693  38.764  1.00  0.00     0.191 C 
BRANCH  29  30
ATOM     30  O   UNL     1      11.685 -10.200  38.744  1.00  0.00    -0.394 OA
ATOM     31  H   UNL     1      11.744 -11.154  38.475  1.00  0.00     0.210 HD
ENDBRANCH  29  30
ENDBRANCH  21  29
ENDBRANCH   1  17
TORSDOF 13
ENDMDL
MODEL 4
REMARK VINA RESULT:    -4.786      1.666      5.754
REMARK INTER + INTRA:          -8.907
REMARK INTER:                  -7.350
REMARK INTRA:                  -1.557
REMARK UNBOUND:                -1.603
REMARK SMILES OC[C@H]1O[C@@H](O[C@@]2(CO)O[C@H](CO)[C@@H](O)[C@H]2O)[C@H](O)[C@H](O)[C@@H]1O
REMARK SMILES IDX 6 1 5 2 3 3 22 4 4 5 20 6 18 7 2 8 1 9 23 11 21 13 19 15
REMARK SMILES IDX 7 17 16 18 10 19 14 20 11 21 8 22 9 23 17 25 15 27 12 29
REMARK SMILES IDX 13 30
REMARK H PARENT 1 10 23 12 21 14 19 16 9 24 17 26 15 28 13 31
REMARK Flexibility Score: inf
ROOT
ATOM      1  O   UNL     1       9.652  -5.927  36.333  1.00  0.00    -0.313 OA
ENDROOT
BRANCH   1   2
ATOM      2  C   UNL     1       9.842  -6.349  34.987  1.00  0.00     0.285 C 
ATOM      3  C   UNL     1       7.504  -6.532  34.494  1.00  0.00     0.178 C 
ATOM      4  C   UNL     1       7.560  -8.082  34.483  1.00  0.00     0.177 C 
ATOM      5  O   UNL     1       8.753  -5.922  34.177  1.00  0.00    -0.341 OA
ATOM      6  C   UNL     1       8.759  -8.614  35.290  1.00  0.00     0.179 C 
ATOM      7  C   UNL     1      10.052  -7.874  34.918  1.00  0.00     0.202 C 
BRANCH   3   8
ATOM      8  C   UNL     1       6.860  -5.963  35.775  1.00  0.00     0.191 C 
BRANCH   8   9
ATOM      9  O   UNL     1       6.930  -4.563  35.765  1.00  0.00    -0.394 OA
ATOM     10  H   UNL     1       6.398  -4.267  34.980  1.00  0.00     0.210 HD
ENDBRANCH   8   9
ENDBRANCH   3   8
BRANCH   4  11
ATOM     11  O   UNL     1       7.572  -8.589  33.168  1.00  0.00    -0.387 OA
ATOM     12  H   UNL     1       7.883  -7.874  32.558  1.00  0.00     0.211 HD
ENDBRANCH   4  11
BRANCH   6  13
ATOM     13  O   UNL     1       8.922  -9.994  35.084  1.00  0.00    -0.387 OA
ATOM     14  H   UNL     1       9.851 -10.218  35.355  1.00  0.00     0.211 HD
ENDBRANCH   6  13
BRANCH   7  15
ATOM     15  O   UNL     1      10.480  -8.225  33.626  1.00  0.00    -0.385 OA
ATOM     16  H   UNL     1      10.461  -9.216  33.570  1.00  0.00     0.211 HD
ENDBRANCH   7  15
ENDBRANCH   1   2
BRANCH   1  17
ATOM     17  C   UNL     1      10.775  -5.277  36.925  1.00  0.00     0.224 C 
ATOM     18  C   UNL     1      10.348  -3.989  37.665  1.00  0.00     0.208 C 
ATOM     19  O   UNL     1      11.784  -4.961  35.974  1.00  0.00    -0.337 OA
ATOM     20  C   UNL     1      11.550  -3.095  37.459  1.00  0.00     0.180 C 
ATOM     21  C   UNL     1      12.140  -3.605  36.140  1.00  0.00     0.179 C 
BRANCH  17  22
ATOM     22  C   UNL     1      11.388  -6.273  37.932  1.00  0.00     0.225 C 
BRANCH  22  23
ATOM     23  O   UNL     1      12.730  -6.534  37.617  1.00  0.00    -0.391 OA
ATOM     24  H   UNL     1      13.020  -5.827  36.985  1.00  0.00     0.210 HD
ENDBRANCH  22  23
ENDBRANCH  17  22
BRANCH  18  25
ATOM     25  O   UNL     1       9.192  -3.436  37.087  1.00  0.00    -0.385 OA
ATOM     26  H   UNL     1       8.418  -3.786  37.601  1.00  0.00     0.211 HD
ENDBRANCH  18  25
BRANCH  20  27
ATOM     27  O   UNL     1      11.235  -1.721  37.438  1.00  0.00    -0.387 OA
ATOM     28  H   UNL     1      11.022  -1.427  38.361  1.00  0.00     0.211 HD
ENDBRANCH  20  27
BRANCH  21  29
ATOM     29  C   UNL     1      13.665  -3.448  36.076  1.00  0.00     0.191 C 
BRANCH  29  30
ATOM     30  O   UNL     1      14.262  -3.872  37.275  1.00  0.00    -0.394 OA
ATOM     31  H   UNL     1      13.951  -4.799  37.445  1.00  0.00     0.210 HD
ENDBRANCH  29  30
ENDBRANCH  21  29
ENDBRANCH   1  17
TORSDOF 13
ENDMDL
MODEL 5
REMARK VINA RESULT:    -4.715      1.606      5.897
REMARK INTER + INTRA:          -8.799
REMARK INTER:                  -7.388
REMARK INTRA:                  -1.411
REMARK UNBOUND:                -1.603
REMARK SMILES OC[C@H]1O[C@@H](O[C@@]2(CO)O[C@H](CO)[C@@H](O)[C@H]2O)[C@H](O)[C@H](O)[C@@H]1O
REMARK SMILES IDX 6 1 5 2 3 3 22 4 4 5 20 6 18 7 2 8 1 9 23 11 21 13 19 15
REMARK SMILES IDX 7 17 16 18 10 19 14 20 11 21 8 22 9 23 17 25 15 27 12 29
REMARK SMILES IDX 13 30
REMARK H PARENT 1 10 23 12 21 14 19 16 9 24 17 26 15 28 13 31
REMARK Flexibility Score: inf
ROOT
ATOM      1  O   UNL     1       9.205  -6.241  35.982  1.00  0.00    -0.313 OA
ENDROOT
BRANCH   1   2
ATOM      2  C   UNL     1       8.923  -6.872  34.738  1.00  0.00     0.285 C 
ATOM      3  C   UNL     1       6.570  -7.080  35.138  1.00  0.00     0.178 C 
ATOM      4  C   UNL     1       6.673  -8.614  35.347  1.00  0.00     0.177 C 
ATOM      5  O   UNL     1       7.604  -6.554  34.310  1.00  0.00    -0.341 OA
ATOM      6  C   UNL     1       8.099  -9.038  35.749  1.00  0.00     0.179 C 
ATOM      7  C   UNL     1       9.150  -8.394  34.835  1.00  0.00     0.202 C 
BRANCH   3   8
ATOM      8  C   UNL     1       6.398  -6.304  36.461  1.00  0.00     0.191 C 
BRANCH   8   9
ATOM      9  O   UNL     1       6.524  -4.928  36.228  1.00  0.00    -0.394 OA
ATOM     10  H   UNL     1       7.446  -4.686  36.507  1.00  0.00     0.210 HD
ENDBRANCH   8   9
ENDBRANCH   3   8
BRANCH   4  11
ATOM     11  O   UNL     1       6.239  -9.321  34.207  1.00  0.00    -0.387 OA
ATOM     12  H   UNL     1       5.561  -9.985  34.489  1.00  0.00     0.211 HD
ENDBRANCH   4  11
BRANCH   6  13
ATOM     13  O   UNL     1       8.227 -10.437  35.714  1.00  0.00    -0.387 OA
ATOM     14  H   UNL     1       7.307 -10.809  35.672  1.00  0.00     0.211 HD
ENDBRANCH   6  13
BRANCH   7  15
ATOM     15  O   UNL     1       9.108  -8.951  33.545  1.00  0.00    -0.385 OA
ATOM     16  H   UNL     1       9.707  -9.743  33.549  1.00  0.00     0.211 HD
ENDBRANCH   7  15
ENDBRANCH   1   2
BRANCH   1  17
ATOM     17  C   UNL     1       9.945  -5.025  35.888  1.00  0.00     0.224 C 
ATOM     18  C   UNL     1      11.462  -5.283  36.023  1.00  0.00     0.208 C 
ATOM     19  O   UNL     1       9.542  -4.068  36.858  1.00  0.00    -0.337 OA
ATOM     20  C   UNL     1      11.934  -4.028  36.722  1.00  0.00     0.180 C 
ATOM     21  C   UNL     1      10.698  -3.586  37.511  1.00  0.00     0.179 C 
BRANCH  17  22
ATOM     22  C   UNL     1       9.644  -4.426  34.498  1.00  0.00     0.225 C 
BRANCH  22  23
ATOM     23  O   UNL     1       8.435  -3.714  34.516  1.00  0.00    -0.391 OA
ATOM     24  H   UNL     1       8.335  -3.341  35.430  1.00  0.00     0.210 HD
ENDBRANCH  22  23
ENDBRANCH  17  22
BRANCH  18  25
ATOM     25  O   UNL     1      11.711  -6.429  36.800  1.00  0.00    -0.385 OA
ATOM     26  H   UNL     1      12.096  -7.112  36.190  1.00  0.00     0.211 HD
ENDBRANCH  18  25
BRANCH  20  27
ATOM     27  O   UNL     1      13.073  -4.226  37.529  1.00  0.00    -0.387 OA
ATOM     28  H   UNL     1      13.317  -5.187  37.507  1.00  0.00     0.211 HD
ENDBRANCH  20  27
BRANCH  21  29
ATOM     29  C   UNL     1      10.616  -2.062  37.673  1.00  0.00     0.191 C 
BRANCH  29  30
ATOM     30  O   UNL     1      11.815  -1.451  37.269  1.00  0.00    -0.394 OA
ATOM     31  H   UNL     1      12.383  -2.157  36.865  1.00  0.00     0.210 HD
ENDBRANCH  29  30
ENDBRANCH  21  29
ENDBRANCH   1  17
TORSDOF 13
ENDMDL
MODEL 6
REMARK VINA RESULT:    -4.696      1.756      6.144
REMARK INTER + INTRA:          -8.770
REMARK INTER:                  -7.265
REMARK INTRA:                  -1.505
REMARK UNBOUND:                -1.603
REMARK SMILES OC[C@H]1O[C@@H](O[C@@]2(CO)O[C@H](CO)[C@@H](O)[C@H]2O)[C@H](O)[C@H](O)[C@@H]1O
REMARK SMILES IDX 6 1 5 2 3 3 22 4 4 5 20 6 18 7 2 8 1 9 23 11 21 13 19 15
REMARK SMILES IDX 7 17 16 18 10 19 14 20 11 21 8 22 9 23 17 25 15 27 12 29
REMARK SMILES IDX 13 30
REMARK H PARENT 1 10 23 12 21 14 19 16 9 24 17 26 15 28 13 31
REMARK Flexibility Score: inf
ROOT
ATOM      1  O   UNL     1       7.606  -6.033  35.220  1.00  0.00    -0.313 OA
ENDROOT
BRANCH   1   2
ATOM      2  C   UNL     1       6.525  -5.920  36.138  1.00  0.00     0.285 C 
ATOM      3  C   UNL     1       6.813  -8.107  37.073  1.00  0.00     0.178 C 
ATOM      4  C   UNL     1       5.536  -8.646  36.375  1.00  0.00     0.177 C 
ATOM      5  O   UNL     1       6.778  -6.700  37.300  1.00  0.00    -0.341 OA
ATOM      6  C   UNL     1       5.165  -7.803  35.140  1.00  0.00     0.179 C 
ATOM      7  C   UNL     1       5.193  -6.302  35.461  1.00  0.00     0.202 C 
BRANCH   3   8
ATOM      8  C   UNL     1       8.115  -8.579  36.392  1.00  0.00     0.191 C 
BRANCH   8   9
ATOM      9  O   UNL     1       9.209  -7.872  36.909  1.00  0.00    -0.394 OA
ATOM     10  H   UNL     1       9.997  -8.159  36.377  1.00  0.00     0.210 HD
ENDBRANCH   8   9
ENDBRANCH   3   8
BRANCH   4  11
ATOM     11  O   UNL     1       4.454  -8.731  37.273  1.00  0.00    -0.387 OA
ATOM     12  H   UNL     1       3.990  -7.856  37.290  1.00  0.00     0.211 HD
ENDBRANCH   4  11
BRANCH   6  13
ATOM     13  O   UNL     1       3.895  -8.165  34.659  1.00  0.00    -0.387 OA
ATOM     14  H   UNL     1       3.948  -9.122  34.398  1.00  0.00     0.211 HD
ENDBRANCH   6  13
BRANCH   7  15
ATOM     15  O   UNL     1       4.127  -5.946  36.304  1.00  0.00    -0.385 OA
ATOM     16  H   UNL     1       4.099  -6.612  37.040  1.00  0.00     0.211 HD
ENDBRANCH   7  15
ENDBRANCH   1   2
BRANCH   1  17
ATOM     17  C   UNL     1       8.532  -4.948  35.242  1.00  0.00     0.224 C 
ATOM     18  C   UNL     1       9.750  -5.235  34.335  1.00  0.00     0.208 C 
ATOM     19  O   UNL     1       8.985  -4.647  36.556  1.00  0.00    -0.337 OA
ATOM     20  C   UNL     1      10.867  -4.536  35.076  1.00  0.00     0.180 C 
ATOM     21  C   UNL     1      10.395  -4.579  36.534  1.00  0.00     0.179 C 
BRANCH  17  22
ATOM     22  C   UNL     1       7.779  -3.708  34.719  1.00  0.00     0.225 C 
BRANCH  22  23
ATOM     23  O   UNL     1       8.167  -3.410  33.404  1.00  0.00    -0.391 OA
ATOM     24  H   UNL     1       8.091  -2.427  33.298  1.00  0.00     0.210 HD
ENDBRANCH  22  23
ENDBRANCH  17  22
BRANCH  18  25
ATOM     25  O   UNL     1       9.987  -6.618  34.233  1.00  0.00    -0.385 OA
ATOM     26  H   UNL     1       9.244  -7.073  34.709  1.00  0.00     0.211 HD
ENDBRANCH  18  25
BRANCH  20  27
ATOM     27  O   UNL     1      12.132  -5.127  34.879  1.00  0.00    -0.387 OA
ATOM     28  H   UNL     1      12.523  -4.771  34.040  1.00  0.00     0.211 HD
ENDBRANCH  20  27
BRANCH  21  29
ATOM     29  C   UNL     1      10.878  -3.369  37.345  1.00  0.00     0.191 C 
BRANCH  29  30
ATOM     30  O   UNL     1      12.078  -2.860  36.819  1.00  0.00    -0.394 OA
ATOM     31  H   UNL     1      12.648  -3.638  36.584  1.00  0.00     0.210 HD
ENDBRANCH  29  30
ENDBRANCH  21  29
ENDBRANCH   1  17
TORSDOF 13
ENDMDL
MODEL 7
REMARK VINA RESULT:    -4.536      2.041      6.144
REMARK INTER + INTRA:          -8.525
REMARK INTER:                  -6.911
REMARK INTRA:                  -1.614
REMARK UNBOUND:                -1.603
REMARK SMILES OC[C@H]1O[C@@H](O[C@@]2(CO)O[C@H](CO)[C@@H](O)[C@H]2O)[C@H](O)[C@H](O)[C@@H]1O
REMARK SMILES IDX 6 1 5 2 3 3 22 4 4 5 20 6 18 7 2 8 1 9 23 11 21 13 19 15
REMARK SMILES IDX 7 17 16 18 10 19 14 20 11 21 8 22 9 23 17 25 15 27 12 29
REMARK SMILES IDX 13 30
REMARK H PARENT 1 10 23 12 21 14 19 16 9 24 17 26 15 28 13 31
REMARK Flexibility Score: inf
ROOT
ATOM      1  O   UNL     1       7.558  -7.495  35.767  1.00  0.00    -0.313 OA
ENDROOT
BRANCH   1   2
ATOM      2  C   UNL     1       6.700  -6.505  36.321  1.00  0.00     0.285 C 
ATOM      3  C   UNL     1       5.476  -8.037  37.698  1.00  0.00     0.178 C 
ATOM      4  C   UNL     1       4.214  -7.941  36.799  1.00  0.00     0.177 C 
ATOM      5  O   UNL     1       6.300  -6.877  37.635  1.00  0.00    -0.341 OA
ATOM      6  C   UNL     1       4.567  -7.478  35.373  1.00  0.00     0.179 C 
ATOM      7  C   UNL     1       5.492  -6.252  35.398  1.00  0.00     0.202 C 
BRANCH   3   8
ATOM      8  C   UNL     1       6.260  -9.350  37.494  1.00  0.00     0.191 C 
BRANCH   8   9
ATOM      9  O   UNL     1       7.428  -9.335  38.268  1.00  0.00    -0.394 OA
ATOM     10  H   UNL     1       7.175  -9.704  39.155  1.00  0.00     0.210 HD
ENDBRANCH   8   9
ENDBRANCH   3   8
BRANCH   4  11
ATOM     11  O   UNL     1       3.234  -7.107  37.373  1.00  0.00    -0.387 OA
ATOM     12  H   UNL     1       2.588  -6.850  36.668  1.00  0.00     0.211 HD
ENDBRANCH   4  11
BRANCH   6  13
ATOM     13  O   UNL     1       3.401  -7.182  34.646  1.00  0.00    -0.387 OA
ATOM     14  H   UNL     1       3.413  -7.757  33.837  1.00  0.00     0.211 HD
ENDBRANCH   6  13
BRANCH   7  15
ATOM     15  O   UNL     1       4.803  -5.109  35.840  1.00  0.00    -0.385 OA
ATOM     16  H   UNL     1       4.263  -5.379  36.628  1.00  0.00     0.211 HD
ENDBRANCH   7  15
ENDBRANCH   1   2
BRANCH   1  17
ATOM     17  C   UNL     1       8.788  -7.001  35.241  1.00  0.00     0.224 C 
ATOM     18  C   UNL     1       9.998  -7.709  35.891  1.00  0.00     0.208 C 
ATOM     19  O   UNL     1       8.923  -5.595  35.404  1.00  0.00    -0.337 OA
ATOM     20  C   UNL     1      11.035  -6.608  35.910  1.00  0.00     0.180 C 
ATOM     21  C   UNL     1      10.186  -5.334  35.979  1.00  0.00     0.179 C 
BRANCH  17  22
ATOM     22  C   UNL     1       8.774  -7.290  33.725  1.00  0.00     0.225 C 
BRANCH  22  23
ATOM     23  O   UNL     1       8.616  -6.102  32.995  1.00  0.00    -0.391 OA
ATOM     24  H   UNL     1       7.660  -5.848  33.063  1.00  0.00     0.210 HD
ENDBRANCH  22  23
ENDBRANCH  17  22
BRANCH  18  25
ATOM     25  O   UNL     1       9.688  -8.144  37.192  1.00  0.00    -0.385 OA
ATOM     26  H   UNL     1      10.251  -8.943  37.370  1.00  0.00     0.211 HD
ENDBRANCH  18  25
BRANCH  20  27
ATOM     27  O   UNL     1      11.960  -6.722  36.967  1.00  0.00    -0.387 OA
ATOM     28  H   UNL     1      11.464  -6.870  37.813  1.00  0.00     0.211 HD
ENDBRANCH  20  27
BRANCH  21  29
ATOM     29  C   UNL     1      10.851  -4.143  35.275  1.00  0.00     0.191 C 
BRANCH  29  30
ATOM     30  O   UNL     1      10.469  -4.084  33.924  1.00  0.00    -0.394 OA
ATOM     31  H   UNL     1      10.585  -3.144  33.627  1.00  0.00     0.210 HD
ENDBRANCH  29  30
ENDBRANCH  21  29
ENDBRANCH   1  17
TORSDOF 13
ENDMDL
MODEL 8
REMARK VINA RESULT:    -4.531      1.789      3.338
REMARK INTER + INTRA:          -8.518
REMARK INTER:                  -7.600
REMARK INTRA:                  -0.917
REMARK UNBOUND:                -1.603
REMARK SMILES OC[C@H]1O[C@@H](O[C@@]2(CO)O[C@H](CO)[C@@H](O)[C@H]2O)[C@H](O)[C@H](O)[C@@H]1O
REMARK SMILES IDX 6 1 5 2 3 3 22 4 4 5 20 6 18 7 2 8 1 9 23 11 21 13 19 15
REMARK SMILES IDX 7 17 16 18 10 19 14 20 11 21 8 22 9 23 17 25 15 27 12 29
REMARK SMILES IDX 13 30
REMARK H PARENT 1 10 23 12 21 14 19 16 9 24 17 26 15 28 13 31
REMARK Flexibility Score: inf
ROOT
ATOM      1  O   UNL     1       8.142  -6.110  36.093  1.00  0.00    -0.313 OA
ENDROOT
BRANCH   1   2
ATOM      2  C   UNL     1       9.309  -6.376  36.862  1.00  0.00     0.285 C 
ATOM      3  C   UNL     1       9.655  -4.097  37.513  1.00  0.00     0.178 C 
ATOM      4  C   UNL     1      10.885  -3.947  36.580  1.00  0.00     0.177 C 
ATOM      5  O   UNL     1       9.423  -5.441  37.927  1.00  0.00    -0.341 OA
ATOM      6  C   UNL     1      10.860  -4.978  35.436  1.00  0.00     0.179 C 
ATOM      7  C   UNL     1      10.562  -6.389  35.964  1.00  0.00     0.202 C 
BRANCH   3   8
ATOM      8  C   UNL     1       8.392  -3.408  36.957  1.00  0.00     0.191 C 
BRANCH   8   9
ATOM      9  O   UNL     1       8.093  -2.269  37.717  1.00  0.00    -0.394 OA
ATOM     10  H   UNL     1       8.645  -2.336  38.541  1.00  0.00     0.210 HD
ENDBRANCH   8   9
ENDBRANCH   3   8
BRANCH   4  11
ATOM     11  O   UNL     1      12.093  -4.024  37.302  1.00  0.00    -0.387 OA
ATOM     12  H   UNL     1      12.159  -4.924  37.710  1.00  0.00     0.211 HD
ENDBRANCH   4  11
BRANCH   6  13
ATOM     13  O   UNL     1      12.081  -4.976  34.741  1.00  0.00    -0.387 OA
ATOM     14  H   UNL     1      12.101  -5.804  34.192  1.00  0.00     0.211 HD
ENDBRANCH   6  13
BRANCH   7  15
ATOM     15  O   UNL     1      11.650  -6.895  36.696  1.00  0.00    -0.385 OA
ATOM     16  H   UNL     1      12.471  -6.475  36.326  1.00  0.00     0.211 HD
ENDBRANCH   7  15
ENDBRANCH   1   2
BRANCH   1  17
ATOM     17  C   UNL     1       7.146  -7.131  36.133  1.00  0.00     0.224 C 
ATOM     18  C   UNL     1       7.322  -8.128  34.966  1.00  0.00     0.208 C 
ATOM     19  O   UNL     1       5.826  -6.604  36.107  1.00  0.00    -0.337 OA
ATOM     20  C   UNL     1       5.892  -8.518  34.666  1.00  0.00     0.180 C 
ATOM     21  C   UNL     1       5.097  -7.284  35.107  1.00  0.00     0.179 C 
BRANCH  17  22
ATOM     22  C   UNL     1       7.320  -7.871  37.476  1.00  0.00     0.225 C 
BRANCH  22  23
ATOM     23  O   UNL     1       6.317  -7.496  38.383  1.00  0.00    -0.391 OA
ATOM     24  H   UNL     1       5.561  -7.144  37.845  1.00  0.00     0.210 HD
ENDBRANCH  22  23
ENDBRANCH  17  22
BRANCH  18  25
ATOM     25  O   UNL     1       7.928  -7.506  33.859  1.00  0.00    -0.385 OA
ATOM     26  H   UNL     1       7.580  -7.962  33.048  1.00  0.00     0.211 HD
ENDBRANCH  18  25
BRANCH  20  27
ATOM     27  O   UNL     1       5.674  -8.874  33.320  1.00  0.00    -0.387 OA
ATOM     28  H   UNL     1       5.096  -8.188  32.897  1.00  0.00     0.211 HD
ENDBRANCH  20  27
BRANCH  21  29
ATOM     29  C   UNL     1       3.696  -7.639  35.624  1.00  0.00     0.191 C 
BRANCH  29  30
ATOM     30  O   UNL     1       3.337  -8.943  35.241  1.00  0.00    -0.394 OA
ATOM     31  H   UNL     1       4.040  -9.554  35.584  1.00  0.00     0.210 HD
ENDBRANCH  29  30
ENDBRANCH  21  29
ENDBRANCH   1  17
TORSDOF 13
ENDMDL
MODEL 9
REMARK VINA RESULT:    -4.491      1.716      2.464
REMARK INTER + INTRA:          -8.456
REMARK INTER:                  -7.311
REMARK INTRA:                  -1.145
REMARK UNBOUND:                -1.603
REMARK SMILES OC[C@H]1O[C@@H](O[C@@]2(CO)O[C@H](CO)[C@@H](O)[C@H]2O)[C@H](O)[C@H](O)[C@@H]1O
REMARK SMILES IDX 6 1 5 2 3 3 22 4 4 5 20 6 18 7 2 8 1 9 23 11 21 13 19 15
REMARK SMILES IDX 7 17 16 18 10 19 14 20 11 21 8 22 9 23 17 25 15 27 12 29
REMARK SMILES IDX 13 30
REMARK H PARENT 1 10 23 12 21 14 19 16 9 24 17 26 15 28 13 31
REMARK Flexibility Score: inf
ROOT
ATOM      1  O   UNL     1       8.428  -6.087  35.679  1.00  0.00    -0.313 OA
ENDROOT
BRANCH   1   2
ATOM      2  C   UNL     1       9.479  -6.401  36.586  1.00  0.00     0.285 C 
ATOM      3  C   UNL     1       9.597  -4.205  37.537  1.00  0.00     0.178 C 
ATOM      4  C   UNL     1      10.945  -3.900  36.830  1.00  0.00     0.177 C 
ATOM      5  O   UNL     1       9.380  -5.596  37.755  1.00  0.00    -0.341 OA
ATOM      6  C   UNL     1      11.149  -4.786  35.587  1.00  0.00     0.179 C 
ATOM      7  C   UNL     1      10.852  -6.260  35.900  1.00  0.00     0.202 C 
BRANCH   3   8
ATOM      8  C   UNL     1       8.397  -3.500  36.870  1.00  0.00     0.191 C 
BRANCH   8   9
ATOM      9  O   UNL     1       8.098  -2.314  37.554  1.00  0.00    -0.394 OA
ATOM     10  H   UNL     1       8.894  -2.113  38.115  1.00  0.00     0.210 HD
ENDBRANCH   8   9
ENDBRANCH   3   8
BRANCH   4  11
ATOM     11  O   UNL     1      12.032  -4.018  37.719  1.00  0.00    -0.387 OA
ATOM     12  H   UNL     1      11.677  -4.094  38.641  1.00  0.00     0.211 HD
ENDBRANCH   4  11
BRANCH   6  13
ATOM     13  O   UNL     1      12.459  -4.657  35.097  1.00  0.00    -0.387 OA
ATOM     14  H   UNL     1      12.666  -5.494  34.605  1.00  0.00     0.211 HD
ENDBRANCH   6  13
BRANCH   7  15
ATOM     15  O   UNL     1      11.843  -6.810  36.731  1.00  0.00    -0.385 OA
ATOM     16  H   UNL     1      12.249  -7.570  36.239  1.00  0.00     0.211 HD
ENDBRANCH   7  15
ENDBRANCH   1   2
BRANCH   1  17
ATOM     17  C   UNL     1       7.624  -7.196  35.281  1.00  0.00     0.224 C 
ATOM     18  C   UNL     1       6.124  -6.824  35.279  1.00  0.00     0.208 C 
ATOM     19  O   UNL     1       7.825  -8.336  36.105  1.00  0.00    -0.337 OA
ATOM     20  C   UNL     1       5.475  -8.130  35.681  1.00  0.00     0.180 C 
ATOM     21  C   UNL     1       6.561  -8.813  36.519  1.00  0.00     0.179 C 
BRANCH  17  22
ATOM     22  C   UNL     1       8.064  -7.577  33.852  1.00  0.00     0.225 C 
BRANCH  22  23
ATOM     23  O   UNL     1       8.759  -8.795  33.856  1.00  0.00    -0.391 OA
ATOM     24  H   UNL     1       8.626  -9.200  34.752  1.00  0.00     0.210 HD
ENDBRANCH  22  23
ENDBRANCH  17  22
BRANCH  18  25
ATOM     25  O   UNL     1       5.855  -5.809  36.214  1.00  0.00    -0.385 OA
ATOM     26  H   UNL     1       4.867  -5.763  36.312  1.00  0.00     0.211 HD
ENDBRANCH  18  25
BRANCH  20  27
ATOM     27  O   UNL     1       4.256  -7.967  36.368  1.00  0.00    -0.387 OA
ATOM     28  H   UNL     1       3.637  -8.695  36.099  1.00  0.00     0.211 HD
ENDBRANCH  20  27
BRANCH  21  29
ATOM     29  C   UNL     1       6.513 -10.343  36.413  1.00  0.00     0.191 C 
BRANCH  29  30
ATOM     30  O   UNL     1       7.656 -10.835  35.759  1.00  0.00    -0.394 OA
ATOM     31  H   UNL     1       8.079 -10.069  35.291  1.00  0.00     0.210 HD
ENDBRANCH  29  30
ENDBRANCH  21  29
ENDBRANCH   1  17
TORSDOF 13
ENDMDL
