MODEL 1
REMARK VINA RESULT:    -7.163      0.000      0.000
REMARK INTER + INTRA:         -12.170
REMARK INTER:                 -10.723
REMARK INTRA:                  -1.447
REMARK UNBOUND:                -1.447
REMARK SMILES O=c1c(O[C@H]2O[C@H](CO)[C@H](O)[C@H](O)[C@@H]2O)c(-c2cc(O)c(O)c(O)c2)oc2cc(O)cc(O)c12
REMARK SMILES IDX 4 1 3 2 16 3 26 4 2 5 27 6 1 7 34 8 28 9 32 10 29 11 31 12
REMARK SMILES IDX 17 13 18 14 19 15 25 16 21 17 23 18 20 19 22 21 24 23 33 25
REMARK SMILES IDX 30 27 5 29 14 30 6 31 12 32 7 33 10 34 15 35 13 37 8 39 9 40
REMARK SMILES IDX 11 42
REMARK H PARENT 20 20 22 22 24 24 33 26 30 28 15 36 13 38 9 41 11 43
REMARK Flexibility Score: inf
ROOT
ATOM      1  O   UNL     1      54.343   6.422  80.924  1.00  0.00    -0.454 OA
ENDROOT
BRANCH   1   2
ATOM      2  C   UNL     1      55.156   6.810  79.853  1.00  0.00     0.214 A 
ATOM      3  C   UNL     1      54.989   6.267  78.564  1.00  0.00     0.181 A 
ATOM      4  O   UNL     1      55.715   6.736  77.556  1.00  0.00    -0.452 OA
ATOM      5  C   UNL     1      56.150   7.771  80.063  1.00  0.00     0.239 A 
ATOM      6  C   UNL     1      56.652   7.666  77.702  1.00  0.00     0.146 A 
ATOM      7  O   UNL     1      56.271   8.264  81.214  1.00  0.00    -0.285 OA
ATOM      8  C   UNL     1      56.955   8.202  78.980  1.00  0.00     0.111 A 
ATOM      9  C   UNL     1      57.336   8.108  76.567  1.00  0.00     0.094 A 
ATOM     10  C   UNL     1      58.009   9.158  79.086  1.00  0.00     0.134 A 
ATOM     11  C   UNL     1      58.325   9.087  76.674  1.00  0.00     0.123 A 
ATOM     12  C   UNL     1      58.653   9.607  77.925  1.00  0.00     0.093 A 
BRANCH   3  13
ATOM     13  C   UNL     1      54.022   5.180  78.282  1.00  0.00     0.029 A 
ATOM     14  C   UNL     1      54.456   3.884  77.956  1.00  0.00     0.062 A 
ATOM     15  C   UNL     1      53.529   2.865  77.703  1.00  0.00     0.162 A 
ATOM     16  C   UNL     1      52.647   5.454  78.305  1.00  0.00     0.062 A 
ATOM     17  C   UNL     1      52.153   3.142  77.751  1.00  0.00     0.200 A 
ATOM     18  C   UNL     1      51.714   4.444  78.048  1.00  0.00     0.162 A 
BRANCH  15  19
ATOM     19  O   UNL     1      53.972   1.577  77.403  1.00  0.00    -0.504 OA
ATOM     20  H   UNL     1      53.575   1.043  76.638  1.00  0.00     0.293 HD
ENDBRANCH  15  19
BRANCH  17  21
ATOM     21  O   UNL     1      51.215   2.138  77.502  1.00  0.00    -0.502 OA
ATOM     22  H   UNL     1      50.951   1.460  78.207  1.00  0.00     0.293 HD
ENDBRANCH  17  21
BRANCH  18  23
ATOM     23  O   UNL     1      50.354   4.753  78.095  1.00  0.00    -0.504 OA
ATOM     24  H   UNL     1      49.983   5.611  77.705  1.00  0.00     0.293 HD
ENDBRANCH  18  23
ENDBRANCH   3  13
BRANCH  10  25
ATOM     25  O   UNL     1      58.476   9.676  80.298  1.00  0.00    -0.507 OA
ATOM     26  H   UNL     1      59.247  10.319  80.390  1.00  0.00     0.293 HD
ENDBRANCH  10  25
BRANCH  11  27
ATOM     27  O   UNL     1      58.996   9.546  75.542  1.00  0.00    -0.508 OA
ATOM     28  H   UNL     1      58.882  10.495  75.207  1.00  0.00     0.293 HD
ENDBRANCH  11  27
ENDBRANCH   1   2
BRANCH   1  29
ATOM     29  C   UNL     1      54.833   5.657  82.032  1.00  0.00     0.339 C 
ATOM     30  C   UNL     1      54.965   4.170  81.653  1.00  0.00     0.214 C 
ATOM     31  O   UNL     1      54.002   5.833  83.170  1.00  0.00    -0.332 OA
ATOM     32  C   UNL     1      53.570   3.549  81.453  1.00  0.00     0.180 C 
ATOM     33  C   UNL     1      52.677   5.386  82.922  1.00  0.00     0.179 C 
ATOM     34  C   UNL     1      52.655   3.863  82.656  1.00  0.00     0.177 C 
BRANCH  30  35
ATOM     35  O   UNL     1      55.666   3.499  82.670  1.00  0.00    -0.384 OA
ATOM     36  H   UNL     1      55.430   2.537  82.600  1.00  0.00     0.211 HD
ENDBRANCH  30  35
BRANCH  32  37
ATOM     37  O   UNL     1      53.684   2.162  81.263  1.00  0.00    -0.387 OA
ATOM     38  H   UNL     1      54.648   1.940  81.355  1.00  0.00     0.211 HD
ENDBRANCH  32  37
BRANCH  33  39
ATOM     39  C   UNL     1      51.804   5.764  84.124  1.00  0.00     0.191 C 
BRANCH  39  40
ATOM     40  O   UNL     1      50.597   5.052  84.092  1.00  0.00    -0.394 OA
ATOM     41  H   UNL     1      50.802   4.147  84.444  1.00  0.00     0.210 HD
ENDBRANCH  39  40
ENDBRANCH  33  39
BRANCH  34  42
ATOM     42  O   UNL     1      53.092   3.171  83.799  1.00  0.00    -0.387 OA
ATOM     43  H   UNL     1      52.616   3.564  84.575  1.00  0.00     0.211 HD
ENDBRANCH  34  42
ENDBRANCH   1  29
TORSDOF 13
ENDMDL
MODEL 2
REMARK VINA RESULT:    -7.161      0.075      1.445
REMARK INTER + INTRA:         -12.166
REMARK INTER:                 -10.709
REMARK INTRA:                  -1.457
REMARK UNBOUND:                -1.447
REMARK SMILES O=c1c(O[C@H]2O[C@H](CO)[C@H](O)[C@H](O)[C@@H]2O)c(-c2cc(O)c(O)c(O)c2)oc2cc(O)cc(O)c12
REMARK SMILES IDX 4 1 3 2 16 3 26 4 2 5 27 6 1 7 34 8 28 9 32 10 29 11 31 12
REMARK SMILES IDX 17 13 18 14 19 15 25 16 21 17 23 18 20 19 22 21 24 23 33 25
REMARK SMILES IDX 30 27 5 29 14 30 6 31 12 32 7 33 10 34 15 35 13 37 8 39 9 40
REMARK SMILES IDX 11 42
REMARK H PARENT 20 20 22 22 24 24 33 26 30 28 15 36 13 38 9 41 11 43
REMARK Flexibility Score: inf
ROOT
ATOM      1  O   UNL     1      54.301   6.419  80.902  1.00  0.00    -0.454 OA
ENDROOT
BRANCH   1   2
ATOM      2  C   UNL     1      55.121   6.799  79.833  1.00  0.00     0.214 A 
ATOM      3  C   UNL     1      54.947   6.266  78.542  1.00  0.00     0.181 A 
ATOM      4  O   UNL     1      55.681   6.729  77.537  1.00  0.00    -0.452 OA
ATOM      5  C   UNL     1      56.132   7.742  80.050  1.00  0.00     0.239 A 
ATOM      6  C   UNL     1      56.633   7.643  77.689  1.00  0.00     0.146 A 
ATOM      7  O   UNL     1      56.260   8.227  81.204  1.00  0.00    -0.285 OA
ATOM      8  C   UNL     1      56.945   8.166  78.971  1.00  0.00     0.111 A 
ATOM      9  C   UNL     1      57.326   8.080  76.557  1.00  0.00     0.094 A 
ATOM     10  C   UNL     1      58.014   9.104  79.082  1.00  0.00     0.134 A 
ATOM     11  C   UNL     1      58.331   9.041  76.670  1.00  0.00     0.123 A 
ATOM     12  C   UNL     1      58.667   9.548  77.925  1.00  0.00     0.093 A 
BRANCH   3  13
ATOM     13  C   UNL     1      53.962   5.198  78.253  1.00  0.00     0.029 A 
ATOM     14  C   UNL     1      52.580   5.455  78.276  1.00  0.00     0.062 A 
ATOM     15  C   UNL     1      51.661   4.437  77.989  1.00  0.00     0.162 A 
ATOM     16  C   UNL     1      54.409   3.896  77.986  1.00  0.00     0.062 A 
ATOM     17  C   UNL     1      52.119   3.141  77.700  1.00  0.00     0.200 A 
ATOM     18  C   UNL     1      53.499   2.872  77.705  1.00  0.00     0.162 A 
BRANCH  15  19
ATOM     19  O   UNL     1      50.294   4.711  77.991  1.00  0.00    -0.504 OA
ATOM     20  H   UNL     1      49.684   4.378  77.252  1.00  0.00     0.293 HD
ENDBRANCH  15  19
BRANCH  17  21
ATOM     21  O   UNL     1      51.218   2.115  77.412  1.00  0.00    -0.502 OA
ATOM     22  H   UNL     1      50.801   1.543  78.137  1.00  0.00     0.293 HD
ENDBRANCH  17  21
BRANCH  18  23
ATOM     23  O   UNL     1      53.985   1.593  77.431  1.00  0.00    -0.504 OA
ATOM     24  H   UNL     1      54.943   1.431  77.145  1.00  0.00     0.293 HD
ENDBRANCH  18  23
ENDBRANCH   3  13
BRANCH  10  25
ATOM     25  O   UNL     1      58.489   9.607  80.298  1.00  0.00    -0.507 OA
ATOM     26  H   UNL     1      58.632  10.584  80.499  1.00  0.00     0.293 HD
ENDBRANCH  10  25
BRANCH  11  27
ATOM     27  O   UNL     1      59.011   9.495  75.541  1.00  0.00    -0.508 OA
ATOM     28  H   UNL     1      59.251  10.472  75.425  1.00  0.00     0.293 HD
ENDBRANCH  11  27
ENDBRANCH   1   2
BRANCH   1  29
ATOM     29  C   UNL     1      54.780   5.649  82.011  1.00  0.00     0.339 C 
ATOM     30  C   UNL     1      54.873   4.157  81.641  1.00  0.00     0.214 C 
ATOM     31  O   UNL     1      53.961   5.852  83.154  1.00  0.00    -0.332 OA
ATOM     32  C   UNL     1      53.461   3.569  81.455  1.00  0.00     0.180 C 
ATOM     33  C   UNL     1      52.625   5.438  82.918  1.00  0.00     0.179 C 
ATOM     34  C   UNL     1      52.563   3.914  82.662  1.00  0.00     0.177 C 
BRANCH  30  35
ATOM     35  O   UNL     1      55.563   3.475  82.658  1.00  0.00    -0.384 OA
ATOM     36  H   UNL     1      56.514   3.758  82.604  1.00  0.00     0.211 HD
ENDBRANCH  30  35
BRANCH  32  37
ATOM     37  O   UNL     1      53.540   2.179  81.272  1.00  0.00    -0.387 OA
ATOM     38  H   UNL     1      52.661   1.805  81.544  1.00  0.00     0.211 HD
ENDBRANCH  32  37
BRANCH  33  39
ATOM     39  C   UNL     1      51.769   5.844  84.124  1.00  0.00     0.191 C 
BRANCH  39  40
ATOM     40  O   UNL     1      50.549   5.156  84.109  1.00  0.00    -0.394 OA
ATOM     41  H   UNL     1      49.924   5.691  84.665  1.00  0.00     0.210 HD
ENDBRANCH  39  40
ENDBRANCH  33  39
BRANCH  34  42
ATOM     42  O   UNL     1      52.991   3.218  83.806  1.00  0.00    -0.387 OA
ATOM     43  H   UNL     1      53.171   3.896  84.507  1.00  0.00     0.211 HD
ENDBRANCH  34  42
ENDBRANCH   1  29
TORSDOF 13
ENDMDL
MODEL 3
REMARK VINA RESULT:    -7.020      1.365      2.169
REMARK INTER + INTRA:         -11.955
REMARK INTER:                 -11.103
REMARK INTRA:                  -0.852
REMARK UNBOUND:                -1.447
REMARK SMILES O=c1c(O[C@H]2O[C@H](CO)[C@H](O)[C@H](O)[C@@H]2O)c(-c2cc(O)c(O)c(O)c2)oc2cc(O)cc(O)c12
REMARK SMILES IDX 4 1 3 2 16 3 26 4 2 5 27 6 1 7 34 8 28 9 32 10 29 11 31 12
REMARK SMILES IDX 17 13 18 14 19 15 25 16 21 17 23 18 20 19 22 21 24 23 33 25
REMARK SMILES IDX 30 27 5 29 14 30 6 31 12 32 7 33 10 34 15 35 13 37 8 39 9 40
REMARK SMILES IDX 11 42
REMARK H PARENT 20 20 22 22 24 24 33 26 30 28 15 36 13 38 9 41 11 43
REMARK Flexibility Score: inf
ROOT
ATOM      1  O   UNL     1      56.306   4.603  80.414  1.00  0.00    -0.454 OA
ENDROOT
BRANCH   1   2
ATOM      2  C   UNL     1      56.504   5.581  79.432  1.00  0.00     0.214 A 
ATOM      3  C   UNL     1      55.570   5.791  78.399  1.00  0.00     0.181 A 
ATOM      4  O   UNL     1      55.749   6.794  77.548  1.00  0.00    -0.452 OA
ATOM      5  C   UNL     1      57.652   6.379  79.484  1.00  0.00     0.239 A 
ATOM      6  C   UNL     1      56.809   7.594  77.575  1.00  0.00     0.146 A 
ATOM      7  O   UNL     1      58.465   6.195  80.427  1.00  0.00    -0.285 OA
ATOM      8  C   UNL     1      57.848   7.397  78.520  1.00  0.00     0.111 A 
ATOM      9  C   UNL     1      56.881   8.638  76.648  1.00  0.00     0.094 A 
ATOM     10  C   UNL     1      58.989   8.252  78.467  1.00  0.00     0.134 A 
ATOM     11  C   UNL     1      57.974   9.505  76.644  1.00  0.00     0.123 A 
ATOM     12  C   UNL     1      59.016   9.311  77.550  1.00  0.00     0.093 A 
BRANCH   3  13
ATOM     13  C   UNL     1      54.379   4.929  78.222  1.00  0.00     0.029 A 
ATOM     14  C   UNL     1      53.080   5.435  78.399  1.00  0.00     0.062 A 
ATOM     15  C   UNL     1      51.962   4.610  78.217  1.00  0.00     0.162 A 
ATOM     16  C   UNL     1      54.545   3.572  77.907  1.00  0.00     0.062 A 
ATOM     17  C   UNL     1      52.137   3.258  77.879  1.00  0.00     0.200 A 
ATOM     18  C   UNL     1      53.435   2.739  77.729  1.00  0.00     0.162 A 
BRANCH  15  19
ATOM     19  O   UNL     1      50.678   5.131  78.372  1.00  0.00    -0.504 OA
ATOM     20  H   UNL     1      49.864   4.528  78.434  1.00  0.00     0.293 HD
ENDBRANCH  15  19
BRANCH  17  21
ATOM     21  O   UNL     1      51.035   2.421  77.693  1.00  0.00    -0.502 OA
ATOM     22  H   UNL     1      50.547   1.992  78.470  1.00  0.00     0.293 HD
ENDBRANCH  17  21
BRANCH  18  23
ATOM     23  O   UNL     1      53.643   1.399  77.403  1.00  0.00    -0.504 OA
ATOM     24  H   UNL     1      53.410   1.024  76.491  1.00  0.00     0.293 HD
ENDBRANCH  18  23
ENDBRANCH   3  13
BRANCH  10  25
ATOM     25  O   UNL     1      60.124   8.092  79.268  1.00  0.00    -0.507 OA
ATOM     26  H   UNL     1      60.170   7.512  80.091  1.00  0.00     0.293 HD
ENDBRANCH  10  25
BRANCH  11  27
ATOM     27  O   UNL     1      58.041  10.559  75.735  1.00  0.00    -0.508 OA
ATOM     28  H   UNL     1      58.469  11.444  75.981  1.00  0.00     0.293 HD
ENDBRANCH  11  27
ENDBRANCH   1   2
BRANCH   1  29
ATOM     29  C   UNL     1      56.291   4.903  81.815  1.00  0.00     0.339 C 
ATOM     30  C   UNL     1      55.873   3.666  82.633  1.00  0.00     0.214 C 
ATOM     31  O   UNL     1      55.447   6.013  82.082  1.00  0.00    -0.332 OA
ATOM     32  C   UNL     1      54.388   3.341  82.379  1.00  0.00     0.180 C 
ATOM     33  C   UNL     1      54.104   5.750  81.709  1.00  0.00     0.179 C 
ATOM     34  C   UNL     1      53.515   4.601  82.561  1.00  0.00     0.177 C 
BRANCH  30  35
ATOM     35  O   UNL     1      56.099   3.922  83.996  1.00  0.00    -0.384 OA
ATOM     36  H   UNL     1      56.829   4.592  84.049  1.00  0.00     0.211 HD
ENDBRANCH  30  35
BRANCH  32  37
ATOM     37  O   UNL     1      53.968   2.315  83.241  1.00  0.00    -0.387 OA
ATOM     38  H   UNL     1      52.992   2.440  83.379  1.00  0.00     0.211 HD
ENDBRANCH  32  37
BRANCH  33  39
ATOM     39  C   UNL     1      53.294   7.042  81.863  1.00  0.00     0.191 C 
BRANCH  39  40
ATOM     40  O   UNL     1      53.606   7.671  83.077  1.00  0.00    -0.394 OA
ATOM     41  H   UNL     1      54.022   6.974  83.648  1.00  0.00     0.210 HD
ENDBRANCH  39  40
ENDBRANCH  33  39
BRANCH  34  42
ATOM     42  O   UNL     1      53.476   4.981  83.915  1.00  0.00    -0.387 OA
ATOM     43  H   UNL     1      53.601   5.964  83.943  1.00  0.00     0.211 HD
ENDBRANCH  34  42
ENDBRANCH   1  29
TORSDOF 13
ENDMDL
MODEL 4
REMARK VINA RESULT:    -6.903      2.092      2.980
REMARK INTER + INTRA:         -11.780
REMARK INTER:                 -10.919
REMARK INTRA:                  -0.861
REMARK UNBOUND:                -1.447
REMARK SMILES O=c1c(O[C@H]2O[C@H](CO)[C@H](O)[C@H](O)[C@@H]2O)c(-c2cc(O)c(O)c(O)c2)oc2cc(O)cc(O)c12
REMARK SMILES IDX 4 1 3 2 16 3 26 4 2 5 27 6 1 7 34 8 28 9 32 10 29 11 31 12
REMARK SMILES IDX 17 13 18 14 19 15 25 16 21 17 23 18 20 19 22 21 24 23 33 25
REMARK SMILES IDX 30 27 5 29 14 30 6 31 12 32 7 33 10 34 15 35 13 37 8 39 9 40
REMARK SMILES IDX 11 42
REMARK H PARENT 20 20 22 22 24 24 33 26 30 28 15 36 13 38 9 41 11 43
REMARK Flexibility Score: inf
ROOT
ATOM      1  O   UNL     1      55.076   5.549  79.813  1.00  0.00    -0.454 OA
ENDROOT
BRANCH   1   2
ATOM      2  C   UNL     1      54.798   6.432  78.764  1.00  0.00     0.214 A 
ATOM      3  C   UNL     1      53.551   6.433  78.109  1.00  0.00     0.181 A 
ATOM      4  O   UNL     1      53.295   7.354  77.187  1.00  0.00    -0.452 OA
ATOM      5  C   UNL     1      55.778   7.346  78.362  1.00  0.00     0.239 A 
ATOM      6  C   UNL     1      54.184   8.259  76.793  1.00  0.00     0.146 A 
ATOM      7  O   UNL     1      56.878   7.349  78.972  1.00  0.00    -0.285 OA
ATOM      8  C   UNL     1      55.498   8.272  77.328  1.00  0.00     0.111 A 
ATOM      9  C   UNL     1      53.797   9.200  75.836  1.00  0.00     0.094 A 
ATOM     10  C   UNL     1      56.428   9.231  76.827  1.00  0.00     0.134 A 
ATOM     11  C   UNL     1      54.698  10.171  75.396  1.00  0.00     0.123 A 
ATOM     12  C   UNL     1      56.001  10.184  75.893  1.00  0.00     0.093 A 
BRANCH   3  13
ATOM     13  C   UNL     1      52.497   5.438  78.414  1.00  0.00     0.029 A 
ATOM     14  C   UNL     1      51.968   5.309  79.709  1.00  0.00     0.062 A 
ATOM     15  C   UNL     1      50.963   4.370  79.978  1.00  0.00     0.162 A 
ATOM     16  C   UNL     1      52.040   4.580  77.402  1.00  0.00     0.062 A 
ATOM     17  C   UNL     1      50.495   3.531  78.954  1.00  0.00     0.200 A 
ATOM     18  C   UNL     1      51.041   3.636  77.663  1.00  0.00     0.162 A 
BRANCH  15  19
ATOM     19  O   UNL     1      50.429   4.269  81.263  1.00  0.00    -0.504 OA
ATOM     20  H   UNL     1      49.934   3.438  81.568  1.00  0.00     0.293 HD
ENDBRANCH  15  19
BRANCH  17  21
ATOM     21  O   UNL     1      49.494   2.591  79.204  1.00  0.00    -0.502 OA
ATOM     22  H   UNL     1      48.777   2.372  78.523  1.00  0.00     0.293 HD
ENDBRANCH  17  21
BRANCH  18  23
ATOM     23  O   UNL     1      50.604   2.812  76.626  1.00  0.00    -0.504 OA
ATOM     24  H   UNL     1      50.194   1.902  76.797  1.00  0.00     0.293 HD
ENDBRANCH  18  23
ENDBRANCH   3  13
BRANCH  10  25
ATOM     25  O   UNL     1      57.777   9.276  77.191  1.00  0.00    -0.507 OA
ATOM     26  H   UNL     1      58.426   9.993  76.906  1.00  0.00     0.293 HD
ENDBRANCH  10  25
BRANCH  11  27
ATOM     27  O   UNL     1      54.312  11.125  74.456  1.00  0.00    -0.508 OA
ATOM     28  H   UNL     1      53.981  12.040  74.736  1.00  0.00     0.293 HD
ENDBRANCH  11  27
ENDBRANCH   1   2
BRANCH   1  29
ATOM     29  C   UNL     1      55.309   5.988  81.156  1.00  0.00     0.339 C 
ATOM     30  C   UNL     1      56.743   5.645  81.602  1.00  0.00     0.214 C 
ATOM     31  O   UNL     1      54.343   5.438  82.039  1.00  0.00    -0.332 OA
ATOM     32  C   UNL     1      56.898   4.120  81.754  1.00  0.00     0.180 C 
ATOM     33  C   UNL     1      54.403   4.021  82.060  1.00  0.00     0.179 C 
ATOM     34  C   UNL     1      55.761   3.539  82.621  1.00  0.00     0.177 C 
BRANCH  30  35
ATOM     35  O   UNL     1      57.012   6.295  82.819  1.00  0.00    -0.384 OA
ATOM     36  H   UNL     1      57.895   6.739  82.723  1.00  0.00     0.211 HD
ENDBRANCH  30  35
BRANCH  32  37
ATOM     37  O   UNL     1      58.153   3.818  82.310  1.00  0.00    -0.387 OA
ATOM     38  H   UNL     1      58.470   2.988  81.865  1.00  0.00     0.211 HD
ENDBRANCH  32  37
BRANCH  33  39
ATOM     39  C   UNL     1      53.228   3.497  82.894  1.00  0.00     0.191 C 
BRANCH  39  40
ATOM     40  O   UNL     1      52.695   2.339  82.310  1.00  0.00    -0.394 OA
ATOM     41  H   UNL     1      53.471   1.775  82.059  1.00  0.00     0.210 HD
ENDBRANCH  39  40
ENDBRANCH  33  39
BRANCH  34  42
ATOM     42  O   UNL     1      55.902   3.955  83.958  1.00  0.00    -0.387 OA
ATOM     43  H   UNL     1      54.991   4.151  84.297  1.00  0.00     0.211 HD
ENDBRANCH  34  42
ENDBRANCH   1  29
TORSDOF 13
ENDMDL
MODEL 5
REMARK VINA RESULT:    -6.819      1.263      2.281
REMARK INTER + INTRA:         -11.654
REMARK INTER:                 -10.505
REMARK INTRA:                  -1.150
REMARK UNBOUND:                -1.447
REMARK SMILES O=c1c(O[C@H]2O[C@H](CO)[C@H](O)[C@H](O)[C@@H]2O)c(-c2cc(O)c(O)c(O)c2)oc2cc(O)cc(O)c12
REMARK SMILES IDX 4 1 3 2 16 3 26 4 2 5 27 6 1 7 34 8 28 9 32 10 29 11 31 12
REMARK SMILES IDX 17 13 18 14 19 15 25 16 21 17 23 18 20 19 22 21 24 23 33 25
REMARK SMILES IDX 30 27 5 29 14 30 6 31 12 32 7 33 10 34 15 35 13 37 8 39 9 40
REMARK SMILES IDX 11 42
REMARK H PARENT 20 20 22 22 24 24 33 26 30 28 15 36 13 38 9 41 11 43
REMARK Flexibility Score: inf
ROOT
ATOM      1  O   UNL     1      54.859   6.086  80.962  1.00  0.00    -0.454 OA
ENDROOT
BRANCH   1   2
ATOM      2  C   UNL     1      55.271   6.828  79.850  1.00  0.00     0.214 A 
ATOM      3  C   UNL     1      54.774   6.565  78.559  1.00  0.00     0.181 A 
ATOM      4  O   UNL     1      55.116   7.358  77.550  1.00  0.00    -0.452 OA
ATOM      5  C   UNL     1      56.191   7.868  80.026  1.00  0.00     0.239 A 
ATOM      6  C   UNL     1      55.964   8.371  77.674  1.00  0.00     0.146 A 
ATOM      7  O   UNL     1      56.608   8.106  81.188  1.00  0.00    -0.285 OA
ATOM      8  C   UNL     1      56.590   8.652  78.916  1.00  0.00     0.111 A 
ATOM      9  C   UNL     1      56.231   9.159  76.551  1.00  0.00     0.094 A 
ATOM     10  C   UNL     1      57.534   9.720  78.977  1.00  0.00     0.134 A 
ATOM     11  C   UNL     1      57.113  10.238  76.637  1.00  0.00     0.123 A 
ATOM     12  C   UNL     1      57.755  10.513  77.844  1.00  0.00     0.093 A 
BRANCH   3  13
ATOM     13  C   UNL     1      53.870   5.426  78.277  1.00  0.00     0.029 A 
ATOM     14  C   UNL     1      54.376   4.155  77.956  1.00  0.00     0.062 A 
ATOM     15  C   UNL     1      53.508   3.085  77.703  1.00  0.00     0.162 A 
ATOM     16  C   UNL     1      52.481   5.622  78.294  1.00  0.00     0.062 A 
ATOM     17  C   UNL     1      52.118   3.285  77.745  1.00  0.00     0.200 A 
ATOM     18  C   UNL     1      51.607   4.561  78.037  1.00  0.00     0.162 A 
BRANCH  15  19
ATOM     19  O   UNL     1      54.023   1.822  77.409  1.00  0.00    -0.504 OA
ATOM     20  H   UNL     1      53.965   1.429  76.477  1.00  0.00     0.293 HD
ENDBRANCH  15  19
BRANCH  17  21
ATOM     21  O   UNL     1      51.239   2.230  77.496  1.00  0.00    -0.502 OA
ATOM     22  H   UNL     1      50.455   2.026  78.105  1.00  0.00     0.293 HD
ENDBRANCH  17  21
BRANCH  18  23
ATOM     23  O   UNL     1      50.232   4.795  78.078  1.00  0.00    -0.504 OA
ATOM     24  H   UNL     1      49.735   5.223  77.306  1.00  0.00     0.293 HD
ENDBRANCH  18  23
ENDBRANCH   3  13
BRANCH  10  25
ATOM     25  O   UNL     1      58.296  10.025  80.110  1.00  0.00    -0.507 OA
ATOM     26  H   UNL     1      58.682  10.933  80.316  1.00  0.00     0.293 HD
ENDBRANCH  10  25
BRANCH  11  27
ATOM     27  O   UNL     1      57.366  11.038  75.526  1.00  0.00    -0.508 OA
ATOM     28  H   UNL     1      57.515  10.637  74.607  1.00  0.00     0.293 HD
ENDBRANCH  11  27
ENDBRANCH   1   2
BRANCH   1  29
ATOM     29  C   UNL     1      55.142   4.689  81.111  1.00  0.00     0.339 C 
ATOM     30  C   UNL     1      53.985   3.971  81.831  1.00  0.00     0.214 C 
ATOM     31  O   UNL     1      56.376   4.497  81.787  1.00  0.00    -0.332 OA
ATOM     32  C   UNL     1      53.916   4.422  83.303  1.00  0.00     0.180 C 
ATOM     33  C   UNL     1      56.345   5.047  83.095  1.00  0.00     0.179 C 
ATOM     34  C   UNL     1      55.303   4.314  83.972  1.00  0.00     0.177 C 
BRANCH  30  35
ATOM     35  O   UNL     1      54.185   2.582  81.747  1.00  0.00    -0.384 OA
ATOM     36  H   UNL     1      54.251   2.356  80.783  1.00  0.00     0.211 HD
ENDBRANCH  30  35
BRANCH  32  37
ATOM     37  O   UNL     1      52.966   3.655  83.996  1.00  0.00    -0.387 OA
ATOM     38  H   UNL     1      52.495   4.274  84.614  1.00  0.00     0.211 HD
ENDBRANCH  32  37
BRANCH  33  39
ATOM     39  C   UNL     1      57.754   4.956  83.694  1.00  0.00     0.191 C 
BRANCH  39  40
ATOM     40  O   UNL     1      58.528   4.031  82.979  1.00  0.00    -0.394 OA
ATOM     41  H   UNL     1      58.241   3.133  83.291  1.00  0.00     0.210 HD
ENDBRANCH  39  40
ENDBRANCH  33  39
BRANCH  34  42
ATOM     42  O   UNL     1      55.670   2.965  84.125  1.00  0.00    -0.387 OA
ATOM     43  H   UNL     1      54.961   2.532  84.668  1.00  0.00     0.211 HD
ENDBRANCH  34  42
ENDBRANCH   1  29
TORSDOF 13
ENDMDL
MODEL 6
REMARK VINA RESULT:    -6.438      3.245      5.669
REMARK INTER + INTRA:         -11.084
REMARK INTER:                  -9.325
REMARK INTRA:                  -1.759
REMARK UNBOUND:                -1.447
REMARK SMILES O=c1c(O[C@H]2O[C@H](CO)[C@H](O)[C@H](O)[C@@H]2O)c(-c2cc(O)c(O)c(O)c2)oc2cc(O)cc(O)c12
REMARK SMILES IDX 4 1 3 2 16 3 26 4 2 5 27 6 1 7 34 8 28 9 32 10 29 11 31 12
REMARK SMILES IDX 17 13 18 14 19 15 25 16 21 17 23 18 20 19 22 21 24 23 33 25
REMARK SMILES IDX 30 27 5 29 14 30 6 31 12 32 7 33 10 34 15 35 13 37 8 39 9 40
REMARK SMILES IDX 11 42
REMARK H PARENT 20 20 22 22 24 24 33 26 30 28 15 36 13 38 9 41 11 43
REMARK Flexibility Score: inf
ROOT
ATOM      1  O   UNL     1      55.416   7.525  77.779  1.00  0.00    -0.454 OA
ENDROOT
BRANCH   1   2
ATOM      2  C   UNL     1      54.140   7.916  77.359  1.00  0.00     0.214 A 
ATOM      3  C   UNL     1      52.978   7.270  77.825  1.00  0.00     0.181 A 
ATOM      4  O   UNL     1      51.785   7.739  77.479  1.00  0.00    -0.452 OA
ATOM      5  C   UNL     1      54.013   8.984  76.465  1.00  0.00     0.239 A 
ATOM      6  C   UNL     1      51.615   8.766  76.654  1.00  0.00     0.146 A 
ATOM      7  O   UNL     1      55.059   9.566  76.077  1.00  0.00    -0.285 OA
ATOM      8  C   UNL     1      52.727   9.417  76.061  1.00  0.00     0.111 A 
ATOM      9  C   UNL     1      50.313   9.194  76.381  1.00  0.00     0.094 A 
ATOM     10  C   UNL     1      52.482  10.479  75.140  1.00  0.00     0.134 A 
ATOM     11  C   UNL     1      50.088  10.272  75.524  1.00  0.00     0.123 A 
ATOM     12  C   UNL     1      51.168  10.908  74.913  1.00  0.00     0.093 A 
BRANCH   3  13
ATOM     13  C   UNL     1      53.033   6.076  78.699  1.00  0.00     0.029 A 
ATOM     14  C   UNL     1      53.330   4.805  78.179  1.00  0.00     0.062 A 
ATOM     15  C   UNL     1      53.390   3.686  79.021  1.00  0.00     0.162 A 
ATOM     16  C   UNL     1      52.750   6.204  80.067  1.00  0.00     0.062 A 
ATOM     17  C   UNL     1      53.127   3.828  80.394  1.00  0.00     0.200 A 
ATOM     18  C   UNL     1      52.802   5.093  80.914  1.00  0.00     0.162 A 
BRANCH  15  19
ATOM     19  O   UNL     1      53.709   2.434  78.496  1.00  0.00    -0.504 OA
ATOM     20  H   UNL     1      53.199   1.600  78.766  1.00  0.00     0.293 HD
ENDBRANCH  15  19
BRANCH  17  21
ATOM     21  O   UNL     1      53.183   2.725  81.247  1.00  0.00    -0.502 OA
ATOM     22  H   UNL     1      52.813   1.819  80.984  1.00  0.00     0.293 HD
ENDBRANCH  17  21
BRANCH  18  23
ATOM     23  O   UNL     1      52.527   5.265  82.271  1.00  0.00    -0.504 OA
ATOM     24  H   UNL     1      52.049   4.559  82.818  1.00  0.00     0.293 HD
ENDBRANCH  18  23
ENDBRANCH   3  13
BRANCH  10  25
ATOM     25  O   UNL     1      53.484  11.124  74.407  1.00  0.00    -0.507 OA
ATOM     26  H   UNL     1      53.330  11.901  73.783  1.00  0.00     0.293 HD
ENDBRANCH  10  25
BRANCH  11  27
ATOM     27  O   UNL     1      48.793  10.715  75.264  1.00  0.00    -0.508 OA
ATOM     28  H   UNL     1      48.562  11.701  75.259  1.00  0.00     0.293 HD
ENDBRANCH  11  27
ENDBRANCH   1   2
BRANCH   1  29
ATOM     29  C   UNL     1      56.054   8.074  78.938  1.00  0.00     0.339 C 
ATOM     30  C   UNL     1      57.475   8.562  78.599  1.00  0.00     0.214 C 
ATOM     31  O   UNL     1      56.067   7.130  79.999  1.00  0.00    -0.332 OA
ATOM     32  C   UNL     1      58.389   7.360  78.295  1.00  0.00     0.180 C 
ATOM     33  C   UNL     1      56.795   5.963  79.650  1.00  0.00     0.179 C 
ATOM     34  C   UNL     1      58.285   6.299  79.411  1.00  0.00     0.177 C 
BRANCH  30  35
ATOM     35  O   UNL     1      57.976   9.304  79.684  1.00  0.00    -0.384 OA
ATOM     36  H   UNL     1      58.728   9.851  79.339  1.00  0.00     0.211 HD
ENDBRANCH  30  35
BRANCH  32  37
ATOM     37  O   UNL     1      59.716   7.793  78.141  1.00  0.00    -0.387 OA
ATOM     38  H   UNL     1      59.923   8.367  78.925  1.00  0.00     0.211 HD
ENDBRANCH  32  37
BRANCH  33  39
ATOM     39  C   UNL     1      56.620   4.928  80.768  1.00  0.00     0.191 C 
BRANCH  39  40
ATOM     40  O   UNL     1      57.838   4.287  81.033  1.00  0.00    -0.394 OA
ATOM     41  H   UNL     1      57.648   3.314  81.007  1.00  0.00     0.210 HD
ENDBRANCH  39  40
ENDBRANCH  33  39
BRANCH  34  42
ATOM     42  O   UNL     1      58.865   6.779  80.600  1.00  0.00    -0.387 OA
ATOM     43  H   UNL     1      59.529   7.468  80.341  1.00  0.00     0.211 HD
ENDBRANCH  34  42
ENDBRANCH   1  29
TORSDOF 13
ENDMDL
MODEL 7
REMARK VINA RESULT:    -6.429      3.316      5.671
REMARK INTER + INTRA:         -11.071
REMARK INTER:                  -9.971
REMARK INTRA:                  -1.099
REMARK UNBOUND:                -1.447
REMARK SMILES O=c1c(O[C@H]2O[C@H](CO)[C@H](O)[C@H](O)[C@@H]2O)c(-c2cc(O)c(O)c(O)c2)oc2cc(O)cc(O)c12
REMARK SMILES IDX 4 1 3 2 16 3 26 4 2 5 27 6 1 7 34 8 28 9 32 10 29 11 31 12
REMARK SMILES IDX 17 13 18 14 19 15 25 16 21 17 23 18 20 19 22 21 24 23 33 25
REMARK SMILES IDX 30 27 5 29 14 30 6 31 12 32 7 33 10 34 15 35 13 37 8 39 9 40
REMARK SMILES IDX 11 42
REMARK H PARENT 20 20 22 22 24 24 33 26 30 28 15 36 13 38 9 41 11 43
REMARK Flexibility Score: inf
ROOT
ATOM      1  O   UNL     1      54.808   7.303  78.708  1.00  0.00    -0.454 OA
ENDROOT
BRANCH   1   2
ATOM      2  C   UNL     1      53.732   7.821  77.978  1.00  0.00     0.214 A 
ATOM      3  C   UNL     1      52.415   7.366  78.181  1.00  0.00     0.181 A 
ATOM      4  O   UNL     1      51.412   7.955  77.539  1.00  0.00    -0.452 OA
ATOM      5  C   UNL     1      53.967   8.826  77.034  1.00  0.00     0.239 A 
ATOM      6  C   UNL     1      51.584   8.929  76.654  1.00  0.00     0.146 A 
ATOM      7  O   UNL     1      55.146   9.239  76.882  1.00  0.00    -0.285 OA
ATOM      8  C   UNL     1      52.884   9.387  76.315  1.00  0.00     0.111 A 
ATOM      9  C   UNL     1      50.454   9.498  76.060  1.00  0.00     0.094 A 
ATOM     10  C   UNL     1      53.011  10.398  75.317  1.00  0.00     0.134 A 
ATOM     11  C   UNL     1      50.589  10.528  75.127  1.00  0.00     0.123 A 
ATOM     12  C   UNL     1      51.860  10.972  74.764  1.00  0.00     0.093 A 
BRANCH   3  13
ATOM     13  C   UNL     1      52.097   6.244  79.094  1.00  0.00     0.029 A 
ATOM     14  C   UNL     1      52.597   6.209  80.407  1.00  0.00     0.062 A 
ATOM     15  C   UNL     1      52.278   5.147  81.263  1.00  0.00     0.162 A 
ATOM     16  C   UNL     1      51.312   5.177  78.635  1.00  0.00     0.062 A 
ATOM     17  C   UNL     1      51.472   4.093  80.802  1.00  0.00     0.200 A 
ATOM     18  C   UNL     1      50.993   4.109  79.480  1.00  0.00     0.162 A 
BRANCH  15  19
ATOM     19  O   UNL     1      52.762   5.135  82.571  1.00  0.00    -0.504 OA
ATOM     20  H   UNL     1      53.604   4.629  82.822  1.00  0.00     0.293 HD
ENDBRANCH  15  19
BRANCH  17  21
ATOM     21  O   UNL     1      51.144   3.027  81.641  1.00  0.00    -0.502 OA
ATOM     22  H   UNL     1      51.329   3.047  82.637  1.00  0.00     0.293 HD
ENDBRANCH  17  21
BRANCH  18  23
ATOM     23  O   UNL     1      50.197   3.074  78.989  1.00  0.00    -0.504 OA
ATOM     24  H   UNL     1      49.893   2.305  79.574  1.00  0.00     0.293 HD
ENDBRANCH  18  23
ENDBRANCH   3  13
BRANCH  10  25
ATOM     25  O   UNL     1      54.236  10.853  74.818  1.00  0.00    -0.507 OA
ATOM     26  H   UNL     1      55.074  10.297  74.756  1.00  0.00     0.293 HD
ENDBRANCH  10  25
BRANCH  11  27
ATOM     27  O   UNL     1      49.465  11.111  74.546  1.00  0.00    -0.508 OA
ATOM     28  H   UNL     1      48.942  11.839  75.019  1.00  0.00     0.293 HD
ENDBRANCH  11  27
ENDBRANCH   1   2
BRANCH   1  29
ATOM     29  C   UNL     1      55.571   6.173  78.269  1.00  0.00     0.339 C 
ATOM     30  C   UNL     1      55.879   5.231  79.448  1.00  0.00     0.214 C 
ATOM     31  O   UNL     1      56.758   6.592  77.613  1.00  0.00    -0.332 OA
ATOM     32  C   UNL     1      56.870   5.903  80.417  1.00  0.00     0.180 C 
ATOM     33  C   UNL     1      57.599   7.336  78.482  1.00  0.00     0.179 C 
ATOM     34  C   UNL     1      58.092   6.454  79.652  1.00  0.00     0.177 C 
BRANCH  30  35
ATOM     35  O   UNL     1      56.412   4.030  78.947  1.00  0.00    -0.384 OA
ATOM     36  H   UNL     1      56.122   3.956  78.001  1.00  0.00     0.211 HD
ENDBRANCH  30  35
BRANCH  32  37
ATOM     37  O   UNL     1      57.270   4.988  81.405  1.00  0.00    -0.387 OA
ATOM     38  H   UNL     1      58.262   4.939  81.364  1.00  0.00     0.211 HD
ENDBRANCH  32  37
BRANCH  33  39
ATOM     39  C   UNL     1      58.768   7.898  77.664  1.00  0.00     0.191 C 
BRANCH  39  40
ATOM     40  O   UNL     1      59.971   7.749  78.368  1.00  0.00    -0.394 OA
ATOM     41  H   UNL     1      60.181   8.642  78.745  1.00  0.00     0.210 HD
ENDBRANCH  39  40
ENDBRANCH  33  39
BRANCH  34  42
ATOM     42  O   UNL     1      58.879   5.399  79.158  1.00  0.00    -0.387 OA
ATOM     43  H   UNL     1      59.319   4.975  79.940  1.00  0.00     0.211 HD
ENDBRANCH  34  42
ENDBRANCH   1  29
TORSDOF 13
ENDMDL
MODEL 8
REMARK VINA RESULT:    -6.366      2.160      4.577
REMARK INTER + INTRA:         -10.976
REMARK INTER:                  -9.777
REMARK INTRA:                  -1.199
REMARK UNBOUND:                -1.447
REMARK SMILES O=c1c(O[C@H]2O[C@H](CO)[C@H](O)[C@H](O)[C@@H]2O)c(-c2cc(O)c(O)c(O)c2)oc2cc(O)cc(O)c12
REMARK SMILES IDX 4 1 3 2 16 3 26 4 2 5 27 6 1 7 34 8 28 9 32 10 29 11 31 12
REMARK SMILES IDX 17 13 18 14 19 15 25 16 21 17 23 18 20 19 22 21 24 23 33 25
REMARK SMILES IDX 30 27 5 29 14 30 6 31 12 32 7 33 10 34 15 35 13 37 8 39 9 40
REMARK SMILES IDX 11 42
REMARK H PARENT 20 20 22 22 24 24 33 26 30 28 15 36 13 38 9 41 11 43
REMARK Flexibility Score: inf
ROOT
ATOM      1  O   UNL     1      52.999   6.270  79.333  1.00  0.00    -0.454 OA
ENDROOT
BRANCH   1   2
ATOM      2  C   UNL     1      53.962   7.156  78.836  1.00  0.00     0.214 A 
ATOM      3  C   UNL     1      55.254   7.230  79.392  1.00  0.00     0.181 A 
ATOM      4  O   UNL     1      56.167   8.012  78.827  1.00  0.00    -0.452 OA
ATOM      5  C   UNL     1      53.639   7.979  77.752  1.00  0.00     0.239 A 
ATOM      6  C   UNL     1      55.915   8.790  77.781  1.00  0.00     0.146 A 
ATOM      7  O   UNL     1      52.489   7.884  77.251  1.00  0.00    -0.285 OA
ATOM      8  C   UNL     1      54.615   8.853  77.215  1.00  0.00     0.111 A 
ATOM      9  C   UNL     1      56.959   9.551  77.248  1.00  0.00     0.094 A 
ATOM     10  C   UNL     1      54.389   9.748  76.127  1.00  0.00     0.134 A 
ATOM     11  C   UNL     1      56.739  10.379  76.147  1.00  0.00     0.123 A 
ATOM     12  C   UNL     1      55.463  10.471  75.592  1.00  0.00     0.093 A 
BRANCH   3  13
ATOM     13  C   UNL     1      55.643   6.460  80.596  1.00  0.00     0.029 A 
ATOM     14  C   UNL     1      56.682   5.515  80.553  1.00  0.00     0.062 A 
ATOM     15  C   UNL     1      57.046   4.803  81.703  1.00  0.00     0.162 A 
ATOM     16  C   UNL     1      54.940   6.647  81.796  1.00  0.00     0.062 A 
ATOM     17  C   UNL     1      56.352   5.013  82.906  1.00  0.00     0.200 A 
ATOM     18  C   UNL     1      55.292   5.936  82.948  1.00  0.00     0.162 A 
BRANCH  15  19
ATOM     19  O   UNL     1      58.095   3.885  81.653  1.00  0.00    -0.504 OA
ATOM     20  H   UNL     1      58.821   3.947  80.949  1.00  0.00     0.293 HD
ENDBRANCH  15  19
BRANCH  17  21
ATOM     21  O   UNL     1      56.701   4.312  84.062  1.00  0.00    -0.502 OA
ATOM     22  H   UNL     1      57.176   4.756  84.839  1.00  0.00     0.293 HD
ENDBRANCH  17  21
BRANCH  18  23
ATOM     23  O   UNL     1      54.578   6.161  84.125  1.00  0.00    -0.504 OA
ATOM     24  H   UNL     1      54.764   5.645  84.975  1.00  0.00     0.293 HD
ENDBRANCH  18  23
ENDBRANCH   3  13
BRANCH  10  25
ATOM     25  O   UNL     1      53.134   9.982  75.556  1.00  0.00    -0.507 OA
ATOM     26  H   UNL     1      52.254   9.724  75.975  1.00  0.00     0.293 HD
ENDBRANCH  10  25
BRANCH  11  27
ATOM     27  O   UNL     1      57.782  11.124  75.599  1.00  0.00    -0.508 OA
ATOM     28  H   UNL     1      57.953  11.140  74.601  1.00  0.00     0.293 HD
ENDBRANCH  11  27
ENDBRANCH   1   2
BRANCH   1  29
ATOM     29  C   UNL     1      53.163   4.848  79.300  1.00  0.00     0.339 C 
ATOM     30  C   UNL     1      52.805   4.289  77.910  1.00  0.00     0.214 C 
ATOM     31  O   UNL     1      52.396   4.230  80.323  1.00  0.00    -0.332 OA
ATOM     32  C   UNL     1      51.290   4.422  77.660  1.00  0.00     0.180 C 
ATOM     33  C   UNL     1      51.009   4.483  80.160  1.00  0.00     0.179 C 
ATOM     34  C   UNL     1      50.489   3.849  78.848  1.00  0.00     0.177 C 
BRANCH  30  35
ATOM     35  O   UNL     1      53.202   2.942  77.842  1.00  0.00    -0.384 OA
ATOM     36  H   UNL     1      52.433   2.396  78.153  1.00  0.00     0.211 HD
ENDBRANCH  30  35
BRANCH  32  37
ATOM     37  O   UNL     1      50.942   3.773  76.464  1.00  0.00    -0.387 OA
ATOM     38  H   UNL     1      50.047   4.116  76.203  1.00  0.00     0.211 HD
ENDBRANCH  32  37
BRANCH  33  39
ATOM     39  C   UNL     1      50.268   3.936  81.386  1.00  0.00     0.191 C 
BRANCH  39  40
ATOM     40  O   UNL     1      50.893   2.772  81.854  1.00  0.00    -0.394 OA
ATOM     41  H   UNL     1      51.744   2.695  81.349  1.00  0.00     0.210 HD
ENDBRANCH  39  40
ENDBRANCH  33  39
BRANCH  34  42
ATOM     42  O   UNL     1      50.626   2.451  78.905  1.00  0.00    -0.387 OA
ATOM     43  H   UNL     1      49.769   2.089  79.249  1.00  0.00     0.211 HD
ENDBRANCH  34  42
ENDBRANCH   1  29
TORSDOF 13
ENDMDL
MODEL 9
REMARK VINA RESULT:    -6.176      2.484      7.128
REMARK INTER + INTRA:         -10.691
REMARK INTER:                  -9.170
REMARK INTRA:                  -1.521
REMARK UNBOUND:                -1.447
REMARK SMILES O=c1c(O[C@H]2O[C@H](CO)[C@H](O)[C@H](O)[C@@H]2O)c(-c2cc(O)c(O)c(O)c2)oc2cc(O)cc(O)c12
REMARK SMILES IDX 4 1 3 2 16 3 26 4 2 5 27 6 1 7 34 8 28 9 32 10 29 11 31 12
REMARK SMILES IDX 17 13 18 14 19 15 25 16 21 17 23 18 20 19 22 21 24 23 33 25
REMARK SMILES IDX 30 27 5 29 14 30 6 31 12 32 7 33 10 34 15 35 13 37 8 39 9 40
REMARK SMILES IDX 11 42
REMARK H PARENT 20 20 22 22 24 24 33 26 30 28 15 36 13 38 9 41 11 43
REMARK Flexibility Score: inf
ROOT
ATOM      1  O   UNL     1      55.454   6.931  80.031  1.00  0.00    -0.454 OA
ENDROOT
BRANCH   1   2
ATOM      2  C   UNL     1      54.368   6.166  80.473  1.00  0.00     0.214 A 
ATOM      3  C   UNL     1      53.109   6.240  79.848  1.00  0.00     0.181 A 
ATOM      4  O   UNL     1      52.136   5.424  80.236  1.00  0.00    -0.452 OA
ATOM      5  C   UNL     1      54.541   5.297  81.556  1.00  0.00     0.239 A 
ATOM      6  C   UNL     1      52.261   4.564  81.239  1.00  0.00     0.146 A 
ATOM      7  O   UNL     1      55.678   5.225  82.089  1.00  0.00    -0.285 OA
ATOM      8  C   UNL     1      53.463   4.488  81.990  1.00  0.00     0.111 A 
ATOM      9  C   UNL     1      51.181   3.731  81.544  1.00  0.00     0.094 A 
ATOM     10  C   UNL     1      53.522   3.585  83.093  1.00  0.00     0.134 A 
ATOM     11  C   UNL     1      51.271   2.810  82.588  1.00  0.00     0.123 A 
ATOM     12  C   UNL     1      52.436   2.739  83.352  1.00  0.00     0.093 A 
BRANCH   3  13
ATOM     13  C   UNL     1      52.822   7.201  78.757  1.00  0.00     0.029 A 
ATOM     14  C   UNL     1      52.170   8.419  79.013  1.00  0.00     0.062 A 
ATOM     15  C   UNL     1      51.916   9.323  77.972  1.00  0.00     0.162 A 
ATOM     16  C   UNL     1      53.173   6.878  77.438  1.00  0.00     0.062 A 
ATOM     17  C   UNL     1      52.292   9.001  76.658  1.00  0.00     0.200 A 
ATOM     18  C   UNL     1      52.918   7.771  76.393  1.00  0.00     0.162 A 
BRANCH  15  19
ATOM     19  O   UNL     1      51.289  10.539  78.242  1.00  0.00    -0.504 OA
ATOM     20  H   UNL     1      50.341  10.727  77.937  1.00  0.00     0.293 HD
ENDBRANCH  15  19
BRANCH  17  21
ATOM     21  O   UNL     1      52.047   9.890  75.609  1.00  0.00    -0.502 OA
ATOM     22  H   UNL     1      52.246   9.654  74.644  1.00  0.00     0.293 HD
ENDBRANCH  17  21
BRANCH  18  23
ATOM     23  O   UNL     1      53.296   7.419  75.097  1.00  0.00    -0.504 OA
ATOM     24  H   UNL     1      54.216   7.053  74.885  1.00  0.00     0.293 HD
ENDBRANCH  18  23
ENDBRANCH   3  13
BRANCH  10  25
ATOM     25  O   UNL     1      54.604   3.497  83.974  1.00  0.00    -0.507 OA
ATOM     26  H   UNL     1      54.762   2.737  84.617  1.00  0.00     0.293 HD
ENDBRANCH  10  25
BRANCH  11  27
ATOM     27  O   UNL     1      50.204   1.964  82.883  1.00  0.00    -0.508 OA
ATOM     28  H   UNL     1      49.567   1.645  82.163  1.00  0.00     0.293 HD
ENDBRANCH  11  27
ENDBRANCH   1   2
BRANCH   1  29
ATOM     29  C   UNL     1      56.442   6.425  79.127  1.00  0.00     0.339 C 
ATOM     30  C   UNL     1      57.854   6.557  79.730  1.00  0.00     0.214 C 
ATOM     31  O   UNL     1      56.352   7.076  77.868  1.00  0.00    -0.332 OA
ATOM     32  C   UNL     1      58.256   8.041  79.815  1.00  0.00     0.180 C 
ATOM     33  C   UNL     1      56.584   8.471  77.985  1.00  0.00     0.179 C 
ATOM     34  C   UNL     1      58.030   8.746  78.461  1.00  0.00     0.177 C 
BRANCH  30  35
ATOM     35  O   UNL     1      58.762   5.841  78.931  1.00  0.00    -0.384 OA
ATOM     36  H   UNL     1      58.245   5.457  78.176  1.00  0.00     0.211 HD
ENDBRANCH  30  35
BRANCH  32  37
ATOM     37  O   UNL     1      59.597   8.152  80.217  1.00  0.00    -0.387 OA
ATOM     38  H   UNL     1      60.021   8.822  79.618  1.00  0.00     0.211 HD
ENDBRANCH  32  37
BRANCH  33  39
ATOM     39  C   UNL     1      56.301   9.127  76.628  1.00  0.00     0.191 C 
BRANCH  39  40
ATOM     40  O   UNL     1      57.220  10.157  76.383  1.00  0.00    -0.394 OA
ATOM     41  H   UNL     1      58.056   9.896  76.850  1.00  0.00     0.210 HD
ENDBRANCH  39  40
ENDBRANCH  33  39
BRANCH  34  42
ATOM     42  O   UNL     1      58.947   8.277  77.504  1.00  0.00    -0.387 OA
ATOM     43  H   UNL     1      58.454   7.650  76.914  1.00  0.00     0.211 HD
ENDBRANCH  34  42
ENDBRANCH   1  29
TORSDOF 13
ENDMDL
