MODEL 1
REMARK VINA RESULT:    -3.482      0.000      0.000
REMARK INTER + INTRA:          -6.011
REMARK INTER:                  -5.314
REMARK INTRA:                  -0.697
REMARK UNBOUND:                -0.697
REMARK SMILES O=C([O-])CCCCCCCCC(=O)[O-]
REMARK SMILES IDX 7 1 6 2 5 3 4 4 2 5 1 6 3 7 8 8 9 9 10 10 11 11 12 12 13 13
REMARK SMILES IDX 14 14
REMARK H PARENT
REMARK Flexibility Score: inf
ROOT
ATOM      1  C   UNL     1     -99.753  69.554  23.143  1.00  0.00     0.000 C 
ENDROOT
BRANCH   1   2
ATOM      2  C   UNL     1     -98.693  70.350  22.364  1.00  0.00     0.000 C 
BRANCH   2   3
ATOM      3  C   UNL     1     -98.599  71.792  22.886  1.00  0.00     0.006 C 
BRANCH   3   4
ATOM      4  C   UNL     1     -97.521  71.949  23.966  1.00  0.00     0.053 C 
BRANCH   4   5
ATOM      5  C   UNL     1     -96.332  72.704  23.456  1.00  0.00     0.041 C 
ATOM      6  O   UNL     1     -95.795  72.382  22.364  1.00  0.00    -0.550 OA
ATOM      7  O   UNL     1     -95.835  73.785  24.174  1.00  0.00    -0.550 OA
ENDBRANCH   4   5
ENDBRANCH   3   4
ENDBRANCH   2   3
ENDBRANCH   1   2
BRANCH   1   8
ATOM      8  C   UNL     1     -99.138  68.458  24.030  1.00  0.00     0.000 C 
BRANCH   8   9
ATOM      9  C   UNL     1     -99.197  68.805  25.525  1.00  0.00     0.000 C 
BRANCH   9  10
ATOM     10  C   UNL     1    -100.486  69.567  25.861  1.00  0.00     0.006 C 
BRANCH  10  11
ATOM     11  C   UNL     1    -101.217  68.966  27.070  1.00  0.00     0.053 C 
BRANCH  11  12
ATOM     12  C   UNL     1    -100.409  69.089  28.325  1.00  0.00     0.041 C 
ATOM     13  O   UNL     1    -100.060  70.223  28.747  1.00  0.00    -0.550 OA
ATOM     14  O   UNL     1    -100.012  67.947  29.010  1.00  0.00    -0.550 OA
ENDBRANCH  11  12
ENDBRANCH  10  11
ENDBRANCH   9  10
ENDBRANCH   8   9
ENDBRANCH   1   8
TORSDOF 9
ENDMDL
MODEL 2
REMARK VINA RESULT:    -3.478      1.798      2.576
REMARK INTER + INTRA:          -6.005
REMARK INTER:                  -5.005
REMARK INTRA:                  -0.999
REMARK UNBOUND:                -0.697
REMARK SMILES O=C([O-])CCCCCCCCC(=O)[O-]
REMARK SMILES IDX 7 1 6 2 5 3 4 4 2 5 1 6 3 7 8 8 9 9 10 10 11 11 12 12 13 13
REMARK SMILES IDX 14 14
REMARK H PARENT
REMARK Flexibility Score: inf
ROOT
ATOM      1  C   UNL     1     -99.256  68.773  25.383  1.00  0.00     0.000 C 
ENDROOT
BRANCH   1   2
ATOM      2  C   UNL     1     -99.248  68.468  23.877  1.00  0.00     0.000 C 
BRANCH   2   3
ATOM      3  C   UNL     1     -99.610  69.719  23.063  1.00  0.00     0.006 C 
BRANCH   3   4
ATOM      4  C   UNL     1     -98.368  70.512  22.636  1.00  0.00     0.053 C 
BRANCH   4   5
ATOM      5  C   UNL     1     -98.204  71.763  23.443  1.00  0.00     0.041 C 
ATOM      6  O   UNL     1     -99.216  72.397  23.844  1.00  0.00    -0.550 OA
ATOM      7  O   UNL     1     -96.933  72.213  23.779  1.00  0.00    -0.550 OA
ENDBRANCH   4   5
ENDBRANCH   3   4
ENDBRANCH   2   3
ENDBRANCH   1   2
BRANCH   1   8
ATOM      8  C   UNL     1    -100.429  69.677  25.798  1.00  0.00     0.000 C 
BRANCH   8   9
ATOM      9  C   UNL     1    -100.016  70.753  26.814  1.00  0.00     0.000 C 
BRANCH   9  10
ATOM     10  C   UNL     1     -98.509  70.687  27.101  1.00  0.00     0.006 C 
BRANCH  10  11
ATOM     11  C   UNL     1     -98.204  70.666  28.605  1.00  0.00     0.053 C 
BRANCH  11  12
ATOM     12  C   UNL     1     -98.611  69.370  29.236  1.00  0.00     0.041 C 
ATOM     13  O   UNL     1     -98.255  68.276  28.726  1.00  0.00    -0.550 OA
ATOM     14  O   UNL     1     -99.412  69.372  30.371  1.00  0.00    -0.550 OA
ENDBRANCH  11  12
ENDBRANCH  10  11
ENDBRANCH   9  10
ENDBRANCH   8   9
ENDBRANCH   1   8
TORSDOF 9
ENDMDL
MODEL 3
REMARK VINA RESULT:    -3.435      1.924      3.295
REMARK INTER + INTRA:          -5.940
REMARK INTER:                  -5.260
REMARK INTRA:                  -0.680
REMARK UNBOUND:                -0.697
REMARK SMILES O=C([O-])CCCCCCCCC(=O)[O-]
REMARK SMILES IDX 7 1 6 2 5 3 4 4 2 5 1 6 3 7 8 8 9 9 10 10 11 11 12 12 13 13
REMARK SMILES IDX 14 14
REMARK H PARENT
REMARK Flexibility Score: inf
ROOT
ATOM      1  C   UNL     1     -97.482  72.019  24.082  1.00  0.00     0.000 C 
ENDROOT
BRANCH   1   2
ATOM      2  C   UNL     1     -96.675  73.263  23.681  1.00  0.00     0.000 C 
BRANCH   2   3
ATOM      3  C   UNL     1     -95.407  72.868  22.909  1.00  0.00     0.006 C 
BRANCH   3   4
ATOM      4  C   UNL     1     -95.263  73.644  21.594  1.00  0.00     0.053 C 
BRANCH   4   5
ATOM      5  C   UNL     1     -95.885  72.910  20.446  1.00  0.00     0.041 C 
ATOM      6  O   UNL     1     -96.139  73.513  19.369  1.00  0.00    -0.550 OA
ATOM      7  O   UNL     1     -96.155  71.552  20.553  1.00  0.00    -0.550 OA
ENDBRANCH   4   5
ENDBRANCH   3   4
ENDBRANCH   2   3
ENDBRANCH   1   2
BRANCH   1   8
ATOM      8  C   UNL     1     -98.620  71.706  23.096  1.00  0.00     0.000 C 
BRANCH   8   9
ATOM      9  C   UNL     1     -98.630  70.236  22.650  1.00  0.00     0.000 C 
BRANCH   9  10
ATOM     10  C   UNL     1     -99.741  69.454  23.366  1.00  0.00     0.006 C 
BRANCH  10  11
ATOM     11  C   UNL     1     -99.188  68.531  24.460  1.00  0.00     0.053 C 
BRANCH  11  12
ATOM     12  C   UNL     1     -99.477  69.059  25.831  1.00  0.00     0.041 C 
ATOM     13  O   UNL     1     -98.606  69.720  26.454  1.00  0.00    -0.550 OA
ATOM     14  O   UNL     1    -100.699  68.791  26.435  1.00  0.00    -0.550 OA
ENDBRANCH  11  12
ENDBRANCH  10  11
ENDBRANCH   9  10
ENDBRANCH   8   9
ENDBRANCH   1   8
TORSDOF 9
ENDMDL
MODEL 4
REMARK VINA RESULT:    -3.356      1.514      5.776
REMARK INTER + INTRA:          -5.819
REMARK INTER:                  -4.894
REMARK INTRA:                  -0.924
REMARK UNBOUND:                -0.697
REMARK SMILES O=C([O-])CCCCCCCCC(=O)[O-]
REMARK SMILES IDX 7 1 6 2 5 3 4 4 2 5 1 6 3 7 8 8 9 9 10 10 11 11 12 12 13 13
REMARK SMILES IDX 14 14
REMARK H PARENT
REMARK Flexibility Score: inf
ROOT
ATOM      1  C   UNL     1    -100.345  70.069  25.560  1.00  0.00     0.000 C 
ENDROOT
BRANCH   1   2
ATOM      2  C   UNL     1     -99.753  70.839  26.751  1.00  0.00     0.000 C 
BRANCH   2   3
ATOM      3  C   UNL     1     -98.462  70.172  27.247  1.00  0.00     0.006 C 
BRANCH   3   4
ATOM      4  C   UNL     1     -98.480  69.930  28.763  1.00  0.00     0.053 C 
BRANCH   4   5
ATOM      5  C   UNL     1     -99.756  69.284  29.206  1.00  0.00     0.041 C 
ATOM      6  O   UNL     1    -100.018  68.099  28.871  1.00  0.00    -0.550 OA
ATOM      7  O   UNL     1    -100.643  69.981  30.018  1.00  0.00    -0.550 OA
ENDBRANCH   4   5
ENDBRANCH   3   4
ENDBRANCH   2   3
ENDBRANCH   1   2
BRANCH   1   8
ATOM      8  C   UNL     1     -99.640  68.725  25.314  1.00  0.00     0.000 C 
BRANCH   8   9
ATOM      9  C   UNL     1     -99.166  68.561  23.862  1.00  0.00     0.000 C 
BRANCH   9  10
ATOM     10  C   UNL     1     -99.630  69.742  22.997  1.00  0.00     0.006 C 
BRANCH  10  11
ATOM     11  C   UNL     1     -98.453  70.493  22.359  1.00  0.00     0.053 C 
BRANCH  11  12
ATOM     12  C   UNL     1     -98.135  71.757  23.097  1.00  0.00     0.041 C 
ATOM     13  O   UNL     1     -97.481  71.717  24.172  1.00  0.00    -0.550 OA
ATOM     14  O   UNL     1     -98.592  72.977  22.615  1.00  0.00    -0.550 OA
ENDBRANCH  11  12
ENDBRANCH  10  11
ENDBRANCH   9  10
ENDBRANCH   8   9
ENDBRANCH   1   8
TORSDOF 9
ENDMDL
MODEL 5
REMARK VINA RESULT:    -3.345      1.606      2.682
REMARK INTER + INTRA:          -5.802
REMARK INTER:                  -5.097
REMARK INTRA:                  -0.705
REMARK UNBOUND:                -0.697
REMARK SMILES O=C([O-])CCCCCCCCC(=O)[O-]
REMARK SMILES IDX 7 1 6 2 5 3 4 4 2 5 1 6 3 7 8 8 9 9 10 10 11 11 12 12 13 13
REMARK SMILES IDX 14 14
REMARK H PARENT
REMARK Flexibility Score: inf
ROOT
ATOM      1  C   UNL     1     -98.560  71.789  22.964  1.00  0.00     0.000 C 
ENDROOT
BRANCH   1   2
ATOM      2  C   UNL     1     -97.501  72.023  24.052  1.00  0.00     0.000 C 
BRANCH   2   3
ATOM      3  C   UNL     1     -96.626  73.240  23.711  1.00  0.00     0.006 C 
BRANCH   3   4
ATOM      4  C   UNL     1     -95.408  72.858  22.860  1.00  0.00     0.053 C 
BRANCH   4   5
ATOM      5  C   UNL     1     -95.596  73.233  21.423  1.00  0.00     0.041 C 
ATOM      6  O   UNL     1     -95.963  72.368  20.584  1.00  0.00    -0.550 OA
ATOM      7  O   UNL     1     -95.395  74.546  21.014  1.00  0.00    -0.550 OA
ENDBRANCH   4   5
ENDBRANCH   3   4
ENDBRANCH   2   3
ENDBRANCH   1   2
BRANCH   1   8
ATOM      8  C   UNL     1     -98.635  70.320  22.516  1.00  0.00     0.000 C 
BRANCH   8   9
ATOM      9  C   UNL     1     -99.802  69.561  23.166  1.00  0.00     0.000 C 
BRANCH   9  10
ATOM     10  C   UNL     1     -99.289  68.395  24.022  1.00  0.00     0.006 C 
BRANCH  10  11
ATOM     11  C   UNL     1     -98.879  68.846  25.431  1.00  0.00     0.053 C 
BRANCH  11  12
ATOM     12  C   UNL     1    -100.016  69.490  26.161  1.00  0.00     0.041 C 
ATOM     13  O   UNL     1    -100.954  68.788  26.622  1.00  0.00    -0.550 OA
ATOM     14  O   UNL     1    -100.057  70.872  26.303  1.00  0.00    -0.550 OA
ENDBRANCH  11  12
ENDBRANCH  10  11
ENDBRANCH   9  10
ENDBRANCH   8   9
ENDBRANCH   1   8
TORSDOF 9
ENDMDL
MODEL 6
REMARK VINA RESULT:    -3.336      1.284      6.616
REMARK INTER + INTRA:          -5.788
REMARK INTER:                  -5.241
REMARK INTRA:                  -0.547
REMARK UNBOUND:                -0.697
REMARK SMILES O=C([O-])CCCCCCCCC(=O)[O-]
REMARK SMILES IDX 7 1 6 2 5 3 4 4 2 5 1 6 3 7 8 8 9 9 10 10 11 11 12 12 13 13
REMARK SMILES IDX 14 14
REMARK H PARENT
REMARK Flexibility Score: inf
ROOT
ATOM      1  C   UNL     1     -98.619  71.164  24.780  1.00  0.00     0.000 C 
ENDROOT
BRANCH   1   2
ATOM      2  C   UNL     1     -98.976  70.658  26.186  1.00  0.00     0.000 C 
BRANCH   2   3
ATOM      3  C   UNL     1     -99.373  69.174  26.150  1.00  0.00     0.006 C 
BRANCH   3   4
ATOM      4  C   UNL     1    -100.796  68.942  26.675  1.00  0.00     0.053 C 
BRANCH   4   5
ATOM      5  C   UNL     1    -100.832  68.878  28.171  1.00  0.00     0.041 C 
ATOM      6  O   UNL     1    -100.109  68.053  28.789  1.00  0.00    -0.550 OA
ATOM      7  O   UNL     1    -101.641  69.753  28.885  1.00  0.00    -0.550 OA
ENDBRANCH   4   5
ENDBRANCH   3   4
ENDBRANCH   2   3
ENDBRANCH   1   2
BRANCH   1   8
ATOM      8  C   UNL     1     -98.725  70.064  23.710  1.00  0.00     0.000 C 
BRANCH   8   9
ATOM      9  C   UNL     1     -98.846  70.632  22.288  1.00  0.00     0.000 C 
BRANCH   9  10
ATOM     10  C   UNL     1     -98.125  71.983  22.174  1.00  0.00     0.006 C 
BRANCH  10  11
ATOM     11  C   UNL     1     -96.723  71.844  21.565  1.00  0.00     0.053 C 
BRANCH  11  12
ATOM     12  C   UNL     1     -95.723  72.705  22.272  1.00  0.00     0.041 C 
ATOM     13  O   UNL     1     -95.660  72.703  23.529  1.00  0.00    -0.550 OA
ATOM     14  O   UNL     1     -94.882  73.536  21.542  1.00  0.00    -0.550 OA
ENDBRANCH  11  12
ENDBRANCH  10  11
ENDBRANCH   9  10
ENDBRANCH   8   9
ENDBRANCH   1   8
TORSDOF 9
ENDMDL
MODEL 7
REMARK VINA RESULT:    -3.319      2.575      3.711
REMARK INTER + INTRA:          -5.763
REMARK INTER:                  -4.743
REMARK INTRA:                  -1.020
REMARK UNBOUND:                -0.697
REMARK SMILES O=C([O-])CCCCCCCCC(=O)[O-]
REMARK SMILES IDX 7 1 6 2 5 3 4 4 2 5 1 6 3 7 8 8 9 9 10 10 11 11 12 12 13 13
REMARK SMILES IDX 14 14
REMARK H PARENT
REMARK Flexibility Score: inf
ROOT
ATOM      1  C   UNL     1     -98.617  71.631  27.148  1.00  0.00     0.000 C 
ENDROOT
BRANCH   1   2
ATOM      2  C   UNL     1     -98.526  70.896  25.802  1.00  0.00     0.000 C 
BRANCH   2   3
ATOM      3  C   UNL     1     -99.689  71.293  24.882  1.00  0.00     0.006 C 
BRANCH   3   4
ATOM      4  C   UNL     1    -100.334  70.077  24.204  1.00  0.00     0.053 C 
BRANCH   4   5
ATOM      5  C   UNL     1     -99.324  69.251  23.468  1.00  0.00     0.041 C 
ATOM      6  O   UNL     1     -98.673  69.748  22.511  1.00  0.00    -0.550 OA
ATOM      7  O   UNL     1     -99.078  67.941  23.861  1.00  0.00    -0.550 OA
ENDBRANCH   4   5
ENDBRANCH   3   4
ENDBRANCH   2   3
ENDBRANCH   1   2
BRANCH   1   8
ATOM      8  C   UNL     1     -98.405  70.696  28.351  1.00  0.00     0.000 C 
BRANCH   8   9
ATOM      9  C   UNL     1     -98.504  69.211  27.971  1.00  0.00     0.000 C 
BRANCH   9  10
ATOM     10  C   UNL     1     -99.779  68.581  28.550  1.00  0.00     0.006 C 
BRANCH  10  11
ATOM     11  C   UNL     1    -100.963  68.665  27.577  1.00  0.00     0.053 C 
BRANCH  11  12
ATOM     12  C   UNL     1    -101.854  69.828  27.885  1.00  0.00     0.041 C 
ATOM     13  O   UNL     1    -102.475  70.415  26.960  1.00  0.00    -0.550 OA
ATOM     14  O   UNL     1    -101.972  70.286  29.192  1.00  0.00    -0.550 OA
ENDBRANCH  11  12
ENDBRANCH  10  11
ENDBRANCH   9  10
ENDBRANCH   8   9
ENDBRANCH   1   8
TORSDOF 9
ENDMDL
MODEL 8
REMARK VINA RESULT:    -3.305      1.091      5.719
REMARK INTER + INTRA:          -5.741
REMARK INTER:                  -4.942
REMARK INTRA:                  -0.799
REMARK UNBOUND:                -0.697
REMARK SMILES O=C([O-])CCCCCCCCC(=O)[O-]
REMARK SMILES IDX 7 1 6 2 5 3 4 4 2 5 1 6 3 7 8 8 9 9 10 10 11 11 12 12 13 13
REMARK SMILES IDX 14 14
REMARK H PARENT
REMARK Flexibility Score: inf
ROOT
ATOM      1  C   UNL     1     -99.754  69.400  23.441  1.00  0.00     0.000 C 
ENDROOT
BRANCH   1   2
ATOM      2  C   UNL     1     -99.185  68.569  24.602  1.00  0.00     0.000 C 
BRANCH   2   3
ATOM      3  C   UNL     1     -99.714  69.080  25.950  1.00  0.00     0.006 C 
BRANCH   3   4
ATOM      4  C   UNL     1     -98.646  69.848  26.740  1.00  0.00     0.053 C 
BRANCH   4   5
ATOM      5  C   UNL     1     -98.720  69.553  28.206  1.00  0.00     0.041 C 
ATOM      6  O   UNL     1     -99.261  70.374  28.993  1.00  0.00    -0.550 OA
ATOM      7  O   UNL     1     -98.220  68.354  28.701  1.00  0.00    -0.550 OA
ENDBRANCH   4   5
ENDBRANCH   3   4
ENDBRANCH   2   3
ENDBRANCH   1   2
BRANCH   1   8
ATOM      8  C   UNL     1     -98.656  69.986  22.537  1.00  0.00     0.000 C 
BRANCH   8   9
ATOM      9  C   UNL     1     -98.875  71.475  22.229  1.00  0.00     0.000 C 
BRANCH   9  10
ATOM     10  C   UNL     1     -98.825  72.314  23.513  1.00  0.00     0.006 C 
BRANCH  10  11
ATOM     11  C   UNL     1     -97.455  72.243  24.201  1.00  0.00     0.053 C 
BRANCH  11  12
ATOM     12  C   UNL     1     -96.431  73.069  23.485  1.00  0.00     0.041 C 
ATOM     13  O   UNL     1     -96.690  74.257  23.157  1.00  0.00    -0.550 OA
ATOM     14  O   UNL     1     -95.202  72.515  23.149  1.00  0.00    -0.550 OA
ENDBRANCH  11  12
ENDBRANCH  10  11
ENDBRANCH   9  10
ENDBRANCH   8   9
ENDBRANCH   1   8
TORSDOF 9
ENDMDL
MODEL 9
REMARK VINA RESULT:    -3.242      2.638      7.212
REMARK INTER + INTRA:          -5.645
REMARK INTER:                  -5.014
REMARK INTRA:                  -0.631
REMARK UNBOUND:                -0.697
REMARK SMILES O=C([O-])CCCCCCCCC(=O)[O-]
REMARK SMILES IDX 7 1 6 2 5 3 4 4 2 5 1 6 3 7 8 8 9 9 10 10 11 11 12 12 13 13
REMARK SMILES IDX 14 14
REMARK H PARENT
REMARK Flexibility Score: inf
ROOT
ATOM      1  C   UNL     1     -97.438  71.987  23.528  1.00  0.00     0.000 C 
ENDROOT
BRANCH   1   2
ATOM      2  C   UNL     1     -97.753  71.230  22.228  1.00  0.00     0.000 C 
BRANCH   2   3
ATOM      3  C   UNL     1     -98.823  70.154  22.467  1.00  0.00     0.006 C 
BRANCH   3   4
ATOM      4  C   UNL     1     -99.388  70.204  23.892  1.00  0.00     0.053 C 
BRANCH   4   5
ATOM      5  C   UNL     1     -99.337  68.863  24.557  1.00  0.00     0.041 C 
ATOM      6  O   UNL     1     -98.992  67.843  23.903  1.00  0.00    -0.550 OA
ATOM      7  O   UNL     1     -99.639  68.744  25.908  1.00  0.00    -0.550 OA
ENDBRANCH   4   5
ENDBRANCH   3   4
ENDBRANCH   2   3
ENDBRANCH   1   2
BRANCH   1   8
ATOM      8  C   UNL     1     -96.153  72.825  23.430  1.00  0.00     0.000 C 
BRANCH   8   9
ATOM      9  C   UNL     1     -96.435  74.320  23.223  1.00  0.00     0.000 C 
BRANCH   9  10
ATOM     10  C   UNL     1     -95.875  74.803  21.877  1.00  0.00     0.006 C 
BRANCH  10  11
ATOM     11  C   UNL     1     -95.128  73.692  21.126  1.00  0.00     0.053 C 
BRANCH  11  12
ATOM     12  C   UNL     1     -95.737  73.421  19.785  1.00  0.00     0.041 C 
ATOM     13  O   UNL     1     -96.954  73.669  19.579  1.00  0.00    -0.550 OA
ATOM     14  O   UNL     1     -94.967  72.862  18.773  1.00  0.00    -0.550 OA
ENDBRANCH  11  12
ENDBRANCH  10  11
ENDBRANCH   9  10
ENDBRANCH   8   9
ENDBRANCH   1   8
TORSDOF 9
ENDMDL
