MODEL 1
REMARK VINA RESULT:    -5.505      0.000      0.000
REMARK INTER + INTRA:          -9.175
REMARK INTER:                  -8.080
REMARK INTRA:                  -1.095
REMARK UNBOUND:                -1.095
REMARK SMILES CC(C)COC(=O)c1ccccc1C(=O)OCC(C)C
REMARK SMILES IDX 8 1 9 2 10 3 11 4 12 5 13 6 6 7 7 8 5 9 4 10 2 11 1 12 3 13
REMARK SMILES IDX 14 14 15 15 16 16 17 17 18 18 19 19 20 20
REMARK H PARENT
REMARK Flexibility Score: inf
ROOT
ATOM      1  C   UNL     1     111.512  93.519 117.545  1.00  0.00     0.074 A 
ATOM      2  C   UNL     1     112.513  93.261 118.501  1.00  0.00     0.016 A 
ATOM      3  C   UNL     1     112.876  91.952 118.818  1.00  0.00     0.001 A 
ATOM      4  C   UNL     1     112.248  90.880 118.188  1.00  0.00     0.001 A 
ATOM      5  C   UNL     1     111.269  91.113 117.222  1.00  0.00     0.016 A 
ATOM      6  C   UNL     1     110.904  92.425 116.869  1.00  0.00     0.074 A 
ENDROOT
BRANCH   1   7
ATOM      7  C   UNL     1     111.098  94.925 117.340  1.00  0.00     0.339 C 
ATOM      8  O   UNL     1     111.947  95.797 117.006  1.00  0.00    -0.246 OA
BRANCH   7   9
ATOM      9  O   UNL     1     109.743  95.267 117.457  1.00  0.00    -0.462 OA
BRANCH   9  10
ATOM     10  C   UNL     1     109.039  96.068 116.508  1.00  0.00     0.236 C 
BRANCH  10  11
ATOM     11  C   UNL     1     108.207  97.157 117.210  1.00  0.00     0.021 C 
ATOM     12  C   UNL     1     106.840  97.300 116.530  1.00  0.00     0.011 C 
ATOM     13  C   UNL     1     108.933  98.508 117.222  1.00  0.00     0.011 C 
ENDBRANCH  10  11
ENDBRANCH   9  10
ENDBRANCH   7   9
ENDBRANCH   1   7
BRANCH   6  14
ATOM     14  C   UNL     1     109.940  92.596 115.757  1.00  0.00     0.339 C 
ATOM     15  O   UNL     1     110.270  93.234 114.719  1.00  0.00    -0.246 OA
BRANCH  14  16
ATOM     16  O   UNL     1     108.682  91.992 115.841  1.00  0.00    -0.462 OA
BRANCH  16  17
ATOM     17  C   UNL     1     107.529  92.676 116.323  1.00  0.00     0.236 C 
BRANCH  17  18
ATOM     18  C   UNL     1     107.519  92.700 117.859  1.00  0.00     0.021 C 
ATOM     19  C   UNL     1     106.498  93.714 118.391  1.00  0.00     0.011 C 
ATOM     20  C   UNL     1     107.247  91.304 118.432  1.00  0.00     0.011 C 
ENDBRANCH  17  18
ENDBRANCH  16  17
ENDBRANCH  14  16
ENDBRANCH   6  14
TORSDOF 8
ENDMDL
MODEL 2
REMARK VINA RESULT:    -5.504      0.052      3.924
REMARK INTER + INTRA:          -9.174
REMARK INTER:                  -8.052
REMARK INTRA:                  -1.121
REMARK UNBOUND:                -1.095
REMARK SMILES CC(C)COC(=O)c1ccccc1C(=O)OCC(C)C
REMARK SMILES IDX 8 1 9 2 10 3 11 4 12 5 13 6 6 7 7 8 5 9 4 10 2 11 1 12 3 13
REMARK SMILES IDX 14 14 15 15 16 16 17 17 18 18 19 19 20 20
REMARK H PARENT
REMARK Flexibility Score: inf
ROOT
ATOM      1  C   UNL     1     110.923  92.420 116.880  1.00  0.00     0.074 A 
ATOM      2  C   UNL     1     111.296  91.112 117.245  1.00  0.00     0.016 A 
ATOM      3  C   UNL     1     112.272  90.894 118.216  1.00  0.00     0.001 A 
ATOM      4  C   UNL     1     112.893  91.973 118.840  1.00  0.00     0.001 A 
ATOM      5  C   UNL     1     112.522  93.278 118.511  1.00  0.00     0.016 A 
ATOM      6  C   UNL     1     111.523  93.522 117.551  1.00  0.00     0.074 A 
ENDROOT
BRANCH   1   7
ATOM      7  C   UNL     1     109.964  92.580 115.764  1.00  0.00     0.339 C 
ATOM      8  O   UNL     1     110.287  93.238 114.737  1.00  0.00    -0.246 OA
BRANCH   7   9
ATOM      9  O   UNL     1     108.718  91.941 115.831  1.00  0.00    -0.462 OA
BRANCH   9  10
ATOM     10  C   UNL     1     107.525  92.570 116.300  1.00  0.00     0.236 C 
BRANCH  10  11
ATOM     11  C   UNL     1     107.531  92.697 117.835  1.00  0.00     0.021 C 
ATOM     12  C   UNL     1     107.243  91.335 118.480  1.00  0.00     0.011 C 
ATOM     13  C   UNL     1     106.517  93.738 118.324  1.00  0.00     0.011 C 
ENDBRANCH  10  11
ENDBRANCH   9  10
ENDBRANCH   7   9
ENDBRANCH   1   7
BRANCH   6  14
ATOM     14  C   UNL     1     111.105  94.926 117.335  1.00  0.00     0.339 C 
ATOM     15  O   UNL     1     111.938  95.787 116.939  1.00  0.00    -0.246 OA
BRANCH  14  16
ATOM     16  O   UNL     1     109.764  95.277 117.514  1.00  0.00    -0.462 OA
BRANCH  16  17
ATOM     17  C   UNL     1     109.020  96.006 116.541  1.00  0.00     0.236 C 
BRANCH  17  18
ATOM     18  C   UNL     1     108.195  97.115 117.212  1.00  0.00     0.021 C 
ATOM     19  C   UNL     1     108.964  98.442 117.232  1.00  0.00     0.011 C 
ATOM     20  C   UNL     1     106.835  97.285 116.526  1.00  0.00     0.011 C 
ENDBRANCH  17  18
ENDBRANCH  16  17
ENDBRANCH  14  16
ENDBRANCH   6  14
TORSDOF 8
ENDMDL
MODEL 3
REMARK VINA RESULT:    -5.472      2.056      5.917
REMARK INTER + INTRA:          -9.126
REMARK INTER:                  -8.224
REMARK INTRA:                  -0.902
REMARK UNBOUND:                -1.095
REMARK SMILES CC(C)COC(=O)c1ccccc1C(=O)OCC(C)C
REMARK SMILES IDX 8 1 9 2 10 3 11 4 12 5 13 6 6 7 7 8 5 9 4 10 2 11 1 12 3 13
REMARK SMILES IDX 14 14 15 15 16 16 17 17 18 18 19 19 20 20
REMARK H PARENT
REMARK Flexibility Score: inf
ROOT
ATOM      1  C   UNL     1     109.243  92.465 116.995  1.00  0.00     0.074 A 
ATOM      2  C   UNL     1     107.981  91.888 117.231  1.00  0.00     0.016 A 
ATOM      3  C   UNL     1     106.909  92.668 117.663  1.00  0.00     0.001 A 
ATOM      4  C   UNL     1     107.077  94.036 117.868  1.00  0.00     0.001 A 
ATOM      5  C   UNL     1     108.313  94.633 117.620  1.00  0.00     0.016 A 
ATOM      6  C   UNL     1     109.402  93.870 117.160  1.00  0.00     0.074 A 
ENDROOT
BRANCH   1   7
ATOM      7  C   UNL     1     110.363  91.561 116.648  1.00  0.00     0.339 C 
ATOM      8  O   UNL     1     110.726  91.431 115.447  1.00  0.00    -0.246 OA
BRANCH   7   9
ATOM      9  O   UNL     1     111.058  90.903 117.672  1.00  0.00    -0.462 OA
BRANCH   9  10
ATOM     10  C   UNL     1     110.862  91.161 119.062  1.00  0.00     0.236 C 
BRANCH  10  11
ATOM     11  C   UNL     1     112.129  91.761 119.699  1.00  0.00     0.021 C 
ATOM     12  C   UNL     1     113.359  91.428 118.845  1.00  0.00     0.011 C 
ATOM     13  C   UNL     1     112.334  91.264 121.135  1.00  0.00     0.011 C 
ENDBRANCH  10  11
ENDBRANCH   9  10
ENDBRANCH   7   9
ENDBRANCH   1   7
BRANCH   6  14
ATOM     14  C   UNL     1     110.649  94.588 116.812  1.00  0.00     0.339 C 
ATOM     15  O   UNL     1     110.922  94.844 115.606  1.00  0.00    -0.246 OA
BRANCH  14  16
ATOM     16  O   UNL     1     111.491  95.036 117.833  1.00  0.00    -0.462 OA
BRANCH  16  17
ATOM     17  C   UNL     1     112.913  94.980 117.741  1.00  0.00     0.236 C 
BRANCH  17  18
ATOM     18  C   UNL     1     113.477  96.337 117.293  1.00  0.00     0.021 C 
ATOM     19  C   UNL     1     114.311  96.985 118.405  1.00  0.00     0.011 C 
ATOM     20  C   UNL     1     114.303  96.196 116.008  1.00  0.00     0.011 C 
ENDBRANCH  17  18
ENDBRANCH  16  17
ENDBRANCH  14  16
ENDBRANCH   6  14
TORSDOF 8
ENDMDL
MODEL 4
REMARK VINA RESULT:    -5.436      2.256      4.281
REMARK INTER + INTRA:          -9.074
REMARK INTER:                  -7.660
REMARK INTRA:                  -1.414
REMARK UNBOUND:                -1.095
REMARK SMILES CC(C)COC(=O)c1ccccc1C(=O)OCC(C)C
REMARK SMILES IDX 8 1 9 2 10 3 11 4 12 5 13 6 6 7 7 8 5 9 4 10 2 11 1 12 3 13
REMARK SMILES IDX 14 14 15 15 16 16 17 17 18 18 19 19 20 20
REMARK H PARENT
REMARK Flexibility Score: inf
ROOT
ATOM      1  C   UNL     1     109.956  93.700 116.850  1.00  0.00     0.074 A 
ATOM      2  C   UNL     1     110.540  94.322 115.730  1.00  0.00     0.016 A 
ATOM      3  C   UNL     1     110.455  93.740 114.465  1.00  0.00     0.001 A 
ATOM      4  C   UNL     1     109.787  92.529 114.296  1.00  0.00     0.001 A 
ATOM      5  C   UNL     1     109.182  91.906 115.388  1.00  0.00     0.016 A 
ATOM      6  C   UNL     1     109.234  92.487 116.668  1.00  0.00     0.074 A 
ENDROOT
BRANCH   1   7
ATOM      7  C   UNL     1     110.182  94.314 118.177  1.00  0.00     0.339 C 
ATOM      8  O   UNL     1     109.417  95.227 118.595  1.00  0.00    -0.246 OA
BRANCH   7   9
ATOM      9  O   UNL     1     111.212  93.827 118.994  1.00  0.00    -0.462 OA
BRANCH   9  10
ATOM     10  C   UNL     1     112.478  93.386 118.502  1.00  0.00     0.236 C 
BRANCH  10  11
ATOM     11  C   UNL     1     112.787  91.953 118.974  1.00  0.00     0.021 C 
ATOM     12  C   UNL     1     112.385  90.941 117.893  1.00  0.00     0.011 C 
ATOM     13  C   UNL     1     112.080  91.624 120.294  1.00  0.00     0.011 C 
ENDBRANCH  10  11
ENDBRANCH   9  10
ENDBRANCH   7   9
ENDBRANCH   1   7
BRANCH   6  14
ATOM     14  C   UNL     1     108.475  91.828 117.755  1.00  0.00     0.339 C 
ATOM     15  O   UNL     1     109.053  91.031 118.545  1.00  0.00    -0.246 OA
BRANCH  14  16
ATOM     16  O   UNL     1     107.126  92.142 117.937  1.00  0.00    -0.462 OA
BRANCH  16  17
ATOM     17  C   UNL     1     106.478  93.200 117.235  1.00  0.00     0.236 C 
BRANCH  17  18
ATOM     18  C   UNL     1     106.093  94.332 118.201  1.00  0.00     0.021 C 
ATOM     19  C   UNL     1     104.817  95.045 117.738  1.00  0.00     0.011 C 
ATOM     20  C   UNL     1     105.934  93.807 119.633  1.00  0.00     0.011 C 
ENDBRANCH  17  18
ENDBRANCH  16  17
ENDBRANCH  14  16
ENDBRANCH   6  14
TORSDOF 8
ENDMDL
MODEL 5
REMARK VINA RESULT:    -5.372      1.901      4.448
REMARK INTER + INTRA:          -8.979
REMARK INTER:                  -8.070
REMARK INTRA:                  -0.909
REMARK UNBOUND:                -1.095
REMARK SMILES CC(C)COC(=O)c1ccccc1C(=O)OCC(C)C
REMARK SMILES IDX 8 1 9 2 10 3 11 4 12 5 13 6 6 7 7 8 5 9 4 10 2 11 1 12 3 13
REMARK SMILES IDX 14 14 15 15 16 16 17 17 18 18 19 19 20 20
REMARK H PARENT
REMARK Flexibility Score: inf
ROOT
ATOM      1  C   UNL     1     109.049  94.160 117.357  1.00  0.00     0.074 A 
ATOM      2  C   UNL     1     107.881  94.658 117.965  1.00  0.00     0.016 A 
ATOM      3  C   UNL     1     106.760  93.844 118.131  1.00  0.00     0.001 A 
ATOM      4  C   UNL     1     106.785  92.522 117.694  1.00  0.00     0.001 A 
ATOM      5  C   UNL     1     107.939  92.000 117.110  1.00  0.00     0.016 A 
ATOM      6  C   UNL     1     109.089  92.795 116.953  1.00  0.00     0.074 A 
ENDROOT
BRANCH   1   7
ATOM      7  C   UNL     1     110.158  95.107 117.110  1.00  0.00     0.339 C 
ATOM      8  O   UNL     1     110.010  96.065 116.302  1.00  0.00    -0.246 OA
BRANCH   7   9
ATOM      9  O   UNL     1     111.353  94.970 117.830  1.00  0.00    -0.462 OA
BRANCH   9  10
ATOM     10  C   UNL     1     112.643  94.886 117.224  1.00  0.00     0.236 C 
BRANCH  10  11
ATOM     11  C   UNL     1     113.316  96.270 117.157  1.00  0.00     0.021 C 
ATOM     12  C   UNL     1     114.327  96.312 116.004  1.00  0.00     0.011 C 
ATOM     13  C   UNL     1     114.006  96.631 118.478  1.00  0.00     0.011 C 
ENDBRANCH  10  11
ENDBRANCH   9  10
ENDBRANCH   7   9
ENDBRANCH   1   7
BRANCH   6  14
ATOM     14  C   UNL     1     110.311  92.144 116.428  1.00  0.00     0.339 C 
ATOM     15  O   UNL     1     110.564  92.163 115.192  1.00  0.00    -0.246 OA
BRANCH  14  16
ATOM     16  O   UNL     1     111.214  91.559 117.320  1.00  0.00    -0.462 OA
BRANCH  16  17
ATOM     17  C   UNL     1     110.949  91.433 118.715  1.00  0.00     0.236 C 
BRANCH  17  18
ATOM     18  C   UNL     1     112.138  91.952 119.539  1.00  0.00     0.021 C 
ATOM     19  C   UNL     1     112.152  91.334 120.942  1.00  0.00     0.011 C 
ATOM     20  C   UNL     1     113.466  91.693 118.817  1.00  0.00     0.011 C 
ENDBRANCH  17  18
ENDBRANCH  16  17
ENDBRANCH  14  16
ENDBRANCH   6  14
TORSDOF 8
ENDMDL
MODEL 6
REMARK VINA RESULT:    -5.372      2.273      4.605
REMARK INTER + INTRA:          -8.979
REMARK INTER:                  -7.635
REMARK INTRA:                  -1.344
REMARK UNBOUND:                -1.095
REMARK SMILES CC(C)COC(=O)c1ccccc1C(=O)OCC(C)C
REMARK SMILES IDX 8 1 9 2 10 3 11 4 12 5 13 6 6 7 7 8 5 9 4 10 2 11 1 12 3 13
REMARK SMILES IDX 14 14 15 15 16 16 17 17 18 18 19 19 20 20
REMARK H PARENT
REMARK Flexibility Score: inf
ROOT
ATOM      1  C   UNL     1     109.302  92.527 116.702  1.00  0.00     0.074 A 
ATOM      2  C   UNL     1     109.225  92.003 115.397  1.00  0.00     0.016 A 
ATOM      3  C   UNL     1     109.828  92.663 114.327  1.00  0.00     0.001 A 
ATOM      4  C   UNL     1     110.516  93.856 114.539  1.00  0.00     0.001 A 
ATOM      5  C   UNL     1     110.624  94.382 115.827  1.00  0.00     0.016 A 
ATOM      6  C   UNL     1     110.044  93.721 116.925  1.00  0.00     0.074 A 
ENDROOT
BRANCH   1   7
ATOM      7  C   UNL     1     108.545  91.837 117.770  1.00  0.00     0.339 C 
ATOM      8  O   UNL     1     109.121  91.000 118.519  1.00  0.00    -0.246 OA
BRANCH   7   9
ATOM      9  O   UNL     1     107.199  92.168 117.984  1.00  0.00    -0.462 OA
BRANCH   9  10
ATOM     10  C   UNL     1     106.508  93.192 117.270  1.00  0.00     0.236 C 
BRANCH  10  11
ATOM     11  C   UNL     1     106.118  94.353 118.204  1.00  0.00     0.021 C 
ATOM     12  C   UNL     1     106.024  93.858 119.653  1.00  0.00     0.011 C 
ATOM     13  C   UNL     1     104.794  95.002 117.782  1.00  0.00     0.011 C 
ENDBRANCH  10  11
ENDBRANCH   9  10
ENDBRANCH   7   9
ENDBRANCH   1   7
BRANCH   6  14
ATOM     14  C   UNL     1     110.294  94.278 118.274  1.00  0.00     0.339 C 
ATOM     15  O   UNL     1     109.450  95.045 118.814  1.00  0.00    -0.246 OA
BRANCH  14  16
ATOM     16  O   UNL     1     111.444  93.897 118.971  1.00  0.00    -0.462 OA
BRANCH  16  17
ATOM     17  C   UNL     1     112.592  93.352 118.326  1.00  0.00     0.236 C 
BRANCH  17  18
ATOM     18  C   UNL     1     112.868  91.927 118.830  1.00  0.00     0.021 C 
ATOM     19  C   UNL     1     112.155  91.663 120.162  1.00  0.00     0.011 C 
ATOM     20  C   UNL     1     112.467  90.882 117.782  1.00  0.00     0.011 C 
ENDBRANCH  17  18
ENDBRANCH  16  17
ENDBRANCH  14  16
ENDBRANCH   6  14
TORSDOF 8
ENDMDL
MODEL 7
REMARK VINA RESULT:    -5.247      2.394      3.710
REMARK INTER + INTRA:          -8.797
REMARK INTER:                  -7.964
REMARK INTRA:                  -0.832
REMARK UNBOUND:                -1.095
REMARK SMILES CC(C)COC(=O)c1ccccc1C(=O)OCC(C)C
REMARK SMILES IDX 8 1 9 2 10 3 11 4 12 5 13 6 6 7 7 8 5 9 4 10 2 11 1 12 3 13
REMARK SMILES IDX 14 14 15 15 16 16 17 17 18 18 19 19 20 20
REMARK H PARENT
REMARK Flexibility Score: inf
ROOT
ATOM      1  C   UNL     1     110.106  93.880 116.779  1.00  0.00     0.074 A 
ATOM      2  C   UNL     1     110.436  94.510 115.564  1.00  0.00     0.016 A 
ATOM      3  C   UNL     1     110.313  93.832 114.352  1.00  0.00     0.001 A 
ATOM      4  C   UNL     1     109.860  92.515 114.329  1.00  0.00     0.001 A 
ATOM      5  C   UNL     1     109.505  91.878 115.519  1.00  0.00     0.016 A 
ATOM      6  C   UNL     1     109.598  92.550 116.751  1.00  0.00     0.074 A 
ENDROOT
BRANCH   1   7
ATOM      7  C   UNL     1     110.367  94.617 118.035  1.00  0.00     0.339 C 
ATOM      8  O   UNL     1     109.425  95.202 118.637  1.00  0.00    -0.246 OA
BRANCH   7   9
ATOM      9  O   UNL     1     111.657  94.606 118.584  1.00  0.00    -0.462 OA
BRANCH   9  10
ATOM     10  C   UNL     1     112.854  94.624 117.805  1.00  0.00     0.236 C 
BRANCH  10  11
ATOM     11  C   UNL     1     113.264  96.066 117.452  1.00  0.00     0.021 C 
ATOM     12  C   UNL     1     114.079  96.082 116.153  1.00  0.00     0.011 C 
ATOM     13  C   UNL     1     114.062  96.724 118.585  1.00  0.00     0.011 C 
ENDBRANCH  10  11
ENDBRANCH   9  10
ENDBRANCH   7   9
ENDBRANCH   1   7
BRANCH   6  14
ATOM     14  C   UNL     1     109.099  91.850 117.957  1.00  0.00     0.339 C 
ATOM     15  O   UNL     1     109.896  91.217 118.704  1.00  0.00    -0.246 OA
BRANCH  14  16
ATOM     16  O   UNL     1     107.747  91.947 118.296  1.00  0.00    -0.462 OA
BRANCH  16  17
ATOM     17  C   UNL     1     106.815  92.716 117.540  1.00  0.00     0.236 C 
BRANCH  17  18
ATOM     18  C   UNL     1     106.415  93.985 118.308  1.00  0.00     0.021 C 
ATOM     19  C   UNL     1     105.295  94.742 117.584  1.00  0.00     0.011 C 
ATOM     20  C   UNL     1     106.004  93.654 119.748  1.00  0.00     0.011 C 
ENDBRANCH  17  18
ENDBRANCH  16  17
ENDBRANCH  14  16
ENDBRANCH   6  14
TORSDOF 8
ENDMDL
MODEL 8
REMARK VINA RESULT:    -5.075      1.914      4.351
REMARK INTER + INTRA:          -8.544
REMARK INTER:                  -8.292
REMARK INTRA:                  -0.251
REMARK UNBOUND:                -1.095
REMARK SMILES CC(C)COC(=O)c1ccccc1C(=O)OCC(C)C
REMARK SMILES IDX 8 1 9 2 10 3 11 4 12 5 13 6 6 7 7 8 5 9 4 10 2 11 1 12 3 13
REMARK SMILES IDX 14 14 15 15 16 16 17 17 18 18 19 19 20 20
REMARK H PARENT
REMARK Flexibility Score: inf
ROOT
ATOM      1  C   UNL     1     109.230  93.186 117.037  1.00  0.00     0.074 A 
ATOM      2  C   UNL     1     107.846  92.932 116.980  1.00  0.00     0.016 A 
ATOM      3  C   UNL     1     107.291  91.848 117.661  1.00  0.00     0.001 A 
ATOM      4  C   UNL     1     108.105  90.999 118.407  1.00  0.00     0.001 A 
ATOM      5  C   UNL     1     109.476  91.245 118.496  1.00  0.00     0.016 A 
ATOM      6  C   UNL     1     110.054  92.346 117.838  1.00  0.00     0.074 A 
ENDROOT
BRANCH   1   7
ATOM      7  C   UNL     1     109.766  94.283 116.202  1.00  0.00     0.339 C 
ATOM      8  O   UNL     1     110.259  94.036 115.067  1.00  0.00    -0.246 OA
BRANCH   7   9
ATOM      9  O   UNL     1     109.664  95.606 116.655  1.00  0.00    -0.462 OA
BRANCH   9  10
ATOM     10  C   UNL     1     108.505  96.141 117.294  1.00  0.00     0.236 C 
BRANCH  10  11
ATOM     11  C   UNL     1     108.075  97.469 116.642  1.00  0.00     0.021 C 
ATOM     12  C   UNL     1     108.720  98.652 117.375  1.00  0.00     0.011 C 
ATOM     13  C   UNL     1     106.550  97.626 116.625  1.00  0.00     0.011 C 
ENDBRANCH  10  11
ENDBRANCH   9  10
ENDBRANCH   7   9
ENDBRANCH   1   7
BRANCH   6  14
ATOM     14  C   UNL     1     111.493  92.608 118.068  1.00  0.00     0.339 C 
ATOM     15  O   UNL     1     112.316  91.652 118.122  1.00  0.00    -0.246 OA
BRANCH  14  16
ATOM     16  O   UNL     1     111.943  93.928 118.165  1.00  0.00    -0.462 OA
BRANCH  16  17
ATOM     17  C   UNL     1     113.246  94.331 117.752  1.00  0.00     0.236 C 
BRANCH  17  18
ATOM     18  C   UNL     1     113.276  95.839 117.458  1.00  0.00     0.021 C 
ATOM     19  C   UNL     1     113.996  96.606 118.574  1.00  0.00     0.011 C 
ATOM     20  C   UNL     1     113.923  96.125 116.097  1.00  0.00     0.011 C 
ENDBRANCH  17  18
ENDBRANCH  16  17
ENDBRANCH  14  16
ENDBRANCH   6  14
TORSDOF 8
ENDMDL
MODEL 9
REMARK VINA RESULT:    -5.014      1.764      2.956
REMARK INTER + INTRA:          -8.454
REMARK INTER:                  -7.390
REMARK INTRA:                  -1.064
REMARK UNBOUND:                -1.095
REMARK SMILES CC(C)COC(=O)c1ccccc1C(=O)OCC(C)C
REMARK SMILES IDX 8 1 9 2 10 3 11 4 12 5 13 6 6 7 7 8 5 9 4 10 2 11 1 12 3 13
REMARK SMILES IDX 14 14 15 15 16 16 17 17 18 18 19 19 20 20
REMARK H PARENT
REMARK Flexibility Score: inf
ROOT
ATOM      1  C   UNL     1     111.071  93.324 117.798  1.00  0.00     0.074 A 
ATOM      2  C   UNL     1     111.903  93.233 118.930  1.00  0.00     0.016 A 
ATOM      3  C   UNL     1     112.075  92.018 119.593  1.00  0.00     0.001 A 
ATOM      4  C   UNL     1     111.422  90.875 119.139  1.00  0.00     0.001 A 
ATOM      5  C   UNL     1     110.611  90.937 118.006  1.00  0.00     0.016 A 
ATOM      6  C   UNL     1     110.441  92.146 117.307  1.00  0.00     0.074 A 
ENDROOT
BRANCH   1   7
ATOM      7  C   UNL     1     110.843  94.664 117.212  1.00  0.00     0.339 C 
ATOM      8  O   UNL     1     109.744  95.258 117.389  1.00  0.00    -0.246 OA
BRANCH   7   9
ATOM      9  O   UNL     1     111.882  95.295 116.513  1.00  0.00    -0.462 OA
BRANCH   9  10
ATOM     10  C   UNL     1     112.619  96.409 117.017  1.00  0.00     0.236 C 
BRANCH  10  11
ATOM     11  C   UNL     1     114.134  96.128 116.995  1.00  0.00     0.021 C 
ATOM     12  C   UNL     1     114.830  96.889 118.130  1.00  0.00     0.011 C 
ATOM     13  C   UNL     1     114.761  96.502 115.647  1.00  0.00     0.011 C 
ENDBRANCH  10  11
ENDBRANCH   9  10
ENDBRANCH   7   9
ENDBRANCH   1   7
BRANCH   6  14
ATOM     14  C   UNL     1     109.657  92.111 116.051  1.00  0.00     0.339 C 
ATOM     15  O   UNL     1     110.225  92.289 114.938  1.00  0.00    -0.246 OA
BRANCH  14  16
ATOM     16  O   UNL     1     108.291  91.819 116.103  1.00  0.00    -0.462 OA
BRANCH  16  17
ATOM     17  C   UNL     1     107.322  92.742 116.595  1.00  0.00     0.236 C 
BRANCH  17  18
ATOM     18  C   UNL     1     107.285  92.716 118.131  1.00  0.00     0.021 C 
ATOM     19  C   UNL     1     106.325  93.780 118.679  1.00  0.00     0.011 C 
ATOM     20  C   UNL     1     106.908  91.324 118.652  1.00  0.00     0.011 C 
ENDBRANCH  17  18
ENDBRANCH  16  17
ENDBRANCH  14  16
ENDBRANCH   6  14
TORSDOF 8
ENDMDL
