MODEL 1
REMARK VINA RESULT:    -3.856      0.000      0.000
REMARK INTER + INTRA:          -4.850
REMARK INTER:                  -4.532
REMARK INTRA:                  -0.318
REMARK UNBOUND:                -0.318
REMARK SMILES O=c1c(O)c(-c2ccc(O)c(O)c2)oc2cc(O)ccc12
REMARK SMILES IDX 5 1 3 2 2 3 1 4 21 5 15 6 14 7 16 8 17 9 19 10 20 11 6 12
REMARK SMILES IDX 7 13 8 14 9 15 13 16 11 17 10 18 12 20 4 22 18 24
REMARK H PARENT 10 19 12 21 4 23 18 25
REMARK Flexibility Score: inf
ROOT
ATOM      1  C   UNL     1      21.474  48.981  87.664  1.00  0.00     0.180 A 
ATOM      2  C   UNL     1      20.772  50.162  87.986  1.00  0.00     0.208 A 
ATOM      3  C   UNL     1      19.444  50.060  88.429  1.00  0.00     0.235 A 
ATOM      4  O   UNL     1      18.792  51.102  88.713  1.00  0.00    -0.285 OA
ATOM      5  C   UNL     1      18.856  48.792  88.560  1.00  0.00     0.069 A 
ATOM      6  C   UNL     1      19.632  47.657  88.240  1.00  0.00     0.142 A 
ATOM      7  O   UNL     1      20.883  47.798  87.815  1.00  0.00    -0.452 OA
ATOM      8  C   UNL     1      19.085  46.376  88.366  1.00  0.00     0.094 A 
ATOM      9  C   UNL     1      17.765  46.213  88.809  1.00  0.00     0.119 A 
ATOM     10  C   UNL     1      16.994  47.335  89.125  1.00  0.00     0.047 A 
ATOM     11  C   UNL     1      17.532  48.620  89.004  1.00  0.00     0.020 A 
ENDROOT
BRANCH   1  12
ATOM     12  C   UNL     1      22.870  49.006  87.172  1.00  0.00     0.025 A 
ATOM     13  C   UNL     1      23.163  49.009  85.796  1.00  0.00     0.016 A 
ATOM     14  C   UNL     1      24.489  49.009  85.356  1.00  0.00     0.051 A 
ATOM     15  C   UNL     1      25.540  48.992  86.281  1.00  0.00     0.157 A 
ATOM     16  C   UNL     1      23.929  48.968  88.094  1.00  0.00     0.062 A 
ATOM     17  C   UNL     1      25.260  48.968  87.654  1.00  0.00     0.158 A 
BRANCH  15  18
ATOM     18  O   UNL     1      26.864  48.994  85.846  1.00  0.00    -0.504 OA
ATOM     19  H   UNL     1      27.128  48.603  84.950  1.00  0.00     0.293 HD
ENDBRANCH  15  18
BRANCH  17  20
ATOM     20  O   UNL     1      26.307  48.945  88.572  1.00  0.00    -0.504 OA
ATOM     21  H   UNL     1      26.784  48.084  88.812  1.00  0.00     0.293 HD
ENDBRANCH  17  20
ENDBRANCH   1  12
BRANCH   2  22
ATOM     22  O   UNL     1      21.400  51.407  87.893  1.00  0.00    -0.502 OA
ATOM     23  H   UNL     1      22.330  51.572  88.259  1.00  0.00     0.293 HD
ENDBRANCH   2  22
BRANCH   9  24
ATOM     24  O   UNL     1      17.212  44.941  88.937  1.00  0.00    -0.508 OA
ATOM     25  H   UNL     1      16.668  44.522  88.192  1.00  0.00     0.293 HD
ENDBRANCH   9  24
TORSDOF 5
ENDMDL
MODEL 2
REMARK VINA RESULT:    -3.831      2.891      7.163
REMARK INTER + INTRA:          -4.822
REMARK INTER:                  -4.562
REMARK INTRA:                  -0.260
REMARK UNBOUND:                -0.318
REMARK SMILES O=c1c(O)c(-c2ccc(O)c(O)c2)oc2cc(O)ccc12
REMARK SMILES IDX 5 1 3 2 2 3 1 4 21 5 15 6 14 7 16 8 17 9 19 10 20 11 6 12
REMARK SMILES IDX 7 13 8 14 9 15 13 16 11 17 10 18 12 20 4 22 18 24
REMARK H PARENT 10 19 12 21 4 23 18 25
REMARK Flexibility Score: inf
ROOT
ATOM      1  C   UNL     1      23.038  49.646  87.467  1.00  0.00     0.180 A 
ATOM      2  C   UNL     1      23.160  48.335  87.975  1.00  0.00     0.208 A 
ATOM      3  C   UNL     1      24.250  47.552  87.569  1.00  0.00     0.235 A 
ATOM      4  O   UNL     1      24.376  46.373  88.000  1.00  0.00    -0.285 OA
ATOM      5  C   UNL     1      25.200  48.093  86.688  1.00  0.00     0.069 A 
ATOM      6  C   UNL     1      25.019  49.421  86.243  1.00  0.00     0.142 A 
ATOM      7  O   UNL     1      23.968  50.126  86.644  1.00  0.00    -0.452 OA
ATOM      8  C   UNL     1      25.948  50.000  85.371  1.00  0.00     0.094 A 
ATOM      9  C   UNL     1      27.061  49.266  84.936  1.00  0.00     0.119 A 
ATOM     10  C   UNL     1      27.240  47.950  85.374  1.00  0.00     0.047 A 
ATOM     11  C   UNL     1      26.318  47.363  86.246  1.00  0.00     0.020 A 
ENDROOT
BRANCH   1  12
ATOM     12  C   UNL     1      21.906  50.528  87.832  1.00  0.00     0.025 A 
ATOM     13  C   UNL     1      22.056  51.558  88.779  1.00  0.00     0.016 A 
ATOM     14  C   UNL     1      20.967  52.363  89.125  1.00  0.00     0.051 A 
ATOM     15  C   UNL     1      19.713  52.144  88.542  1.00  0.00     0.157 A 
ATOM     16  C   UNL     1      20.641  50.300  87.267  1.00  0.00     0.062 A 
ATOM     17  C   UNL     1      19.548  51.108  87.613  1.00  0.00     0.158 A 
BRANCH  15  18
ATOM     18  O   UNL     1      18.626  52.946  88.883  1.00  0.00    -0.504 OA
ATOM     19  H   UNL     1      18.711  53.693  89.562  1.00  0.00     0.293 HD
ENDBRANCH  15  18
BRANCH  17  20
ATOM     20  O   UNL     1      18.298  50.886  87.040  1.00  0.00    -0.504 OA
ATOM     21  H   UNL     1      17.912  51.517  86.348  1.00  0.00     0.293 HD
ENDBRANCH  17  20
ENDBRANCH   1  12
BRANCH   2  22
ATOM     22  O   UNL     1      22.226  47.841  88.889  1.00  0.00    -0.502 OA
ATOM     23  H   UNL     1      21.661  47.023  88.696  1.00  0.00     0.293 HD
ENDBRANCH   2  22
BRANCH   9  24
ATOM     24  O   UNL     1      27.990  49.834  84.069  1.00  0.00    -0.508 OA
ATOM     25  H   UNL     1      27.736  50.586  83.438  1.00  0.00     0.293 HD
ENDBRANCH   9  24
TORSDOF 5
ENDMDL
MODEL 3
REMARK VINA RESULT:    -3.751      3.289      7.908
REMARK INTER + INTRA:          -4.727
REMARK INTER:                  -4.448
REMARK INTRA:                  -0.279
REMARK UNBOUND:                -0.318
REMARK SMILES O=c1c(O)c(-c2ccc(O)c(O)c2)oc2cc(O)ccc12
REMARK SMILES IDX 5 1 3 2 2 3 1 4 21 5 15 6 14 7 16 8 17 9 19 10 20 11 6 12
REMARK SMILES IDX 7 13 8 14 9 15 13 16 11 17 10 18 12 20 4 22 18 24
REMARK H PARENT 10 19 12 21 4 23 18 25
REMARK Flexibility Score: inf
ROOT
ATOM      1  C   UNL     1      25.200  48.978  86.517  1.00  0.00     0.180 A 
ATOM      2  C   UNL     1      26.253  48.567  85.672  1.00  0.00     0.208 A 
ATOM      3  C   UNL     1      27.175  49.525  85.225  1.00  0.00     0.235 A 
ATOM      4  O   UNL     1      28.119  49.185  84.461  1.00  0.00    -0.285 OA
ATOM      5  C   UNL     1      27.041  50.859  85.642  1.00  0.00     0.069 A 
ATOM      6  C   UNL     1      25.974  51.187  86.507  1.00  0.00     0.142 A 
ATOM      7  O   UNL     1      25.117  50.251  86.899  1.00  0.00    -0.452 OA
ATOM      8  C   UNL     1      25.812  52.503  86.952  1.00  0.00     0.094 A 
ATOM      9  C   UNL     1      26.706  53.502  86.542  1.00  0.00     0.119 A 
ATOM     10  C   UNL     1      27.762  53.180  85.685  1.00  0.00     0.047 A 
ATOM     11  C   UNL     1      27.934  51.868  85.235  1.00  0.00     0.020 A 
ENDROOT
BRANCH   1  12
ATOM     12  C   UNL     1      24.176  48.032  87.015  1.00  0.00     0.025 A 
ATOM     13  C   UNL     1      24.444  47.160  88.086  1.00  0.00     0.016 A 
ATOM     14  C   UNL     1      23.470  46.258  88.523  1.00  0.00     0.051 A 
ATOM     15  C   UNL     1      22.222  46.205  87.891  1.00  0.00     0.157 A 
ATOM     16  C   UNL     1      22.930  47.958  86.372  1.00  0.00     0.062 A 
ATOM     17  C   UNL     1      21.952  47.054  86.810  1.00  0.00     0.158 A 
BRANCH  15  18
ATOM     18  O   UNL     1      21.248  45.309  88.326  1.00  0.00    -0.504 OA
ATOM     19  H   UNL     1      20.816  44.646  87.693  1.00  0.00     0.293 HD
ENDBRANCH  15  18
BRANCH  17  20
ATOM     20  O   UNL     1      20.712  46.995  86.178  1.00  0.00    -0.504 OA
ATOM     21  H   UNL     1      20.515  47.535  85.344  1.00  0.00     0.293 HD
ENDBRANCH  17  20
ENDBRANCH   1  12
BRANCH   2  22
ATOM     22  O   UNL     1      26.389  47.223  85.314  1.00  0.00    -0.502 OA
ATOM     23  H   UNL     1      25.610  46.673  84.971  1.00  0.00     0.293 HD
ENDBRANCH   2  22
BRANCH   9  24
ATOM     24  O   UNL     1      26.552  54.815  86.980  1.00  0.00    -0.508 OA
ATOM     25  H   UNL     1      26.742  55.602  86.372  1.00  0.00     0.293 HD
ENDBRANCH   9  24
TORSDOF 5
ENDMDL
MODEL 4
REMARK VINA RESULT:    -3.713      1.523      3.247
REMARK INTER + INTRA:          -4.683
REMARK INTER:                  -4.366
REMARK INTRA:                  -0.317
REMARK UNBOUND:                -0.318
REMARK SMILES O=c1c(O)c(-c2ccc(O)c(O)c2)oc2cc(O)ccc12
REMARK SMILES IDX 5 1 3 2 2 3 1 4 21 5 15 6 14 7 16 8 17 9 19 10 20 11 6 12
REMARK SMILES IDX 7 13 8 14 9 15 13 16 11 17 10 18 12 20 4 22 18 24
REMARK H PARENT 10 19 12 21 4 23 18 25
REMARK Flexibility Score: inf
ROOT
ATOM      1  C   UNL     1      21.804  48.004  87.705  1.00  0.00     0.180 A 
ATOM      2  C   UNL     1      20.954  46.953  88.111  1.00  0.00     0.208 A 
ATOM      3  C   UNL     1      19.673  47.268  88.592  1.00  0.00     0.235 A 
ATOM      4  O   UNL     1      18.898  46.347  88.971  1.00  0.00    -0.285 OA
ATOM      5  C   UNL     1      19.264  48.609  88.639  1.00  0.00     0.069 A 
ATOM      6  C   UNL     1      20.165  49.601  88.193  1.00  0.00     0.142 A 
ATOM      7  O   UNL     1      21.372  49.262  87.753  1.00  0.00    -0.452 OA
ATOM      8  C   UNL     1      19.791  50.949  88.216  1.00  0.00     0.094 A 
ATOM      9  C   UNL     1      18.522  51.321  88.681  1.00  0.00     0.119 A 
ATOM     10  C   UNL     1      17.629  50.341  89.125  1.00  0.00     0.047 A 
ATOM     11  C   UNL     1      17.993  48.992  89.105  1.00  0.00     0.020 A 
ENDROOT
BRANCH   1  12
ATOM     12  C   UNL     1      23.175  47.756  87.204  1.00  0.00     0.025 A 
ATOM     13  C   UNL     1      23.423  47.498  85.844  1.00  0.00     0.016 A 
ATOM     14  C   UNL     1      24.723  47.244  85.399  1.00  0.00     0.051 A 
ATOM     15  C   UNL     1      25.790  47.229  86.305  1.00  0.00     0.157 A 
ATOM     16  C   UNL     1      24.246  47.719  88.111  1.00  0.00     0.062 A 
ATOM     17  C   UNL     1      25.551  47.463  87.665  1.00  0.00     0.158 A 
BRANCH  15  18
ATOM     18  O   UNL     1      27.088  46.978  85.864  1.00  0.00    -0.504 OA
ATOM     19  H   UNL     1      27.848  47.617  86.061  1.00  0.00     0.293 HD
ENDBRANCH  15  18
BRANCH  17  20
ATOM     20  O   UNL     1      26.613  47.441  88.567  1.00  0.00    -0.504 OA
ATOM     21  H   UNL     1      26.479  47.642  89.551  1.00  0.00     0.293 HD
ENDBRANCH  17  20
ENDBRANCH   1  12
BRANCH   2  22
ATOM     22  O   UNL     1      21.371  45.624  88.006  1.00  0.00    -0.502 OA
ATOM     23  H   UNL     1      21.615  45.068  88.817  1.00  0.00     0.293 HD
ENDBRANCH   2  22
BRANCH   9  24
ATOM     24  O   UNL     1      18.142  52.661  88.708  1.00  0.00    -0.508 OA
ATOM     25  H   UNL     1      17.523  53.022  89.424  1.00  0.00     0.293 HD
ENDBRANCH   9  24
TORSDOF 5
ENDMDL
MODEL 5
REMARK VINA RESULT:    -3.614      1.956      3.784
REMARK INTER + INTRA:          -4.566
REMARK INTER:                  -4.327
REMARK INTRA:                  -0.240
REMARK UNBOUND:                -0.318
REMARK SMILES O=c1c(O)c(-c2ccc(O)c(O)c2)oc2cc(O)ccc12
REMARK SMILES IDX 5 1 3 2 2 3 1 4 21 5 15 6 14 7 16 8 17 9 19 10 20 11 6 12
REMARK SMILES IDX 7 13 8 14 9 15 13 16 11 17 10 18 12 20 4 22 18 24
REMARK H PARENT 10 19 12 21 4 23 18 25
REMARK Flexibility Score: inf
ROOT
ATOM      1  C   UNL     1      22.128  47.477  88.263  1.00  0.00     0.180 A 
ATOM      2  C   UNL     1      21.090  46.525  88.358  1.00  0.00     0.208 A 
ATOM      3  C   UNL     1      19.775  46.976  88.548  1.00  0.00     0.235 A 
ATOM      4  O   UNL     1      18.831  46.144  88.646  1.00  0.00    -0.285 OA
ATOM      5  C   UNL     1      19.521  48.355  88.617  1.00  0.00     0.069 A 
ATOM      6  C   UNL     1      20.610  49.244  88.490  1.00  0.00     0.142 A 
ATOM      7  O   UNL     1      21.842  48.776  88.321  1.00  0.00    -0.452 OA
ATOM      8  C   UNL     1      20.397  50.625  88.545  1.00  0.00     0.094 A 
ATOM      9  C   UNL     1      19.103  51.133  88.727  1.00  0.00     0.119 A 
ATOM     10  C   UNL     1      18.023  50.254  88.855  1.00  0.00     0.047 A 
ATOM     11  C   UNL     1      18.225  48.872  88.801  1.00  0.00     0.020 A 
ENDROOT
BRANCH   1  12
ATOM     12  C   UNL     1      23.543  47.081  88.082  1.00  0.00     0.025 A 
ATOM     13  C   UNL     1      24.270  46.466  89.117  1.00  0.00     0.016 A 
ATOM     14  C   UNL     1      25.612  46.124  88.931  1.00  0.00     0.051 A 
ATOM     15  C   UNL     1      26.250  46.401  87.715  1.00  0.00     0.157 A 
ATOM     16  C   UNL     1      24.194  47.376  86.874  1.00  0.00     0.062 A 
ATOM     17  C   UNL     1      25.540  47.032  86.685  1.00  0.00     0.158 A 
BRANCH  15  18
ATOM     18  O   UNL     1      27.587  46.059  87.525  1.00  0.00    -0.504 OA
ATOM     19  H   UNL     1      27.945  45.150  87.794  1.00  0.00     0.293 HD
ENDBRANCH  15  18
BRANCH  17  20
ATOM     20  O   UNL     1      26.179  47.314  85.479  1.00  0.00    -0.504 OA
ATOM     21  H   UNL     1      25.960  46.805  84.632  1.00  0.00     0.293 HD
ENDBRANCH  17  20
ENDBRANCH   1  12
BRANCH   2  22
ATOM     22  O   UNL     1      21.367  45.161  88.236  1.00  0.00    -0.502 OA
ATOM     23  H   UNL     1      22.281  44.775  88.439  1.00  0.00     0.293 HD
ENDBRANCH   2  22
BRANCH   9  24
ATOM     24  O   UNL     1      18.881  52.507  88.783  1.00  0.00    -0.508 OA
ATOM     25  H   UNL     1      18.206  52.960  88.179  1.00  0.00     0.293 HD
ENDBRANCH   9  24
TORSDOF 5
ENDMDL
MODEL 6
REMARK VINA RESULT:    -3.543      3.648      6.750
REMARK INTER + INTRA:          -4.482
REMARK INTER:                  -4.202
REMARK INTRA:                  -0.281
REMARK UNBOUND:                -0.318
REMARK SMILES O=c1c(O)c(-c2ccc(O)c(O)c2)oc2cc(O)ccc12
REMARK SMILES IDX 5 1 3 2 2 3 1 4 21 5 15 6 14 7 16 8 17 9 19 10 20 11 6 12
REMARK SMILES IDX 7 13 8 14 9 15 13 16 11 17 10 18 12 20 4 22 18 24
REMARK H PARENT 10 19 12 21 4 23 18 25
REMARK Flexibility Score: inf
ROOT
ATOM      1  C   UNL     1      22.601  51.264  88.133  1.00  0.00     0.180 A 
ATOM      2  C   UNL     1      21.599  52.113  88.650  1.00  0.00     0.208 A 
ATOM      3  C   UNL     1      21.822  53.499  88.649  1.00  0.00     0.235 A 
ATOM      4  O   UNL     1      20.947  54.279  89.115  1.00  0.00    -0.285 OA
ATOM      5  C   UNL     1      23.019  54.005  88.120  1.00  0.00     0.069 A 
ATOM      6  C   UNL     1      23.961  53.091  87.600  1.00  0.00     0.142 A 
ATOM      7  O   UNL     1      23.716  51.786  87.628  1.00  0.00    -0.452 OA
ATOM      8  C   UNL     1      25.163  53.557  87.055  1.00  0.00     0.094 A 
ATOM      9  C   UNL     1      25.437  54.932  87.023  1.00  0.00     0.119 A 
ATOM     10  C   UNL     1      24.506  55.839  87.539  1.00  0.00     0.047 A 
ATOM     11  C   UNL     1      23.302  55.383  88.084  1.00  0.00     0.020 A 
ENDROOT
BRANCH   1  12
ATOM     12  C   UNL     1      22.449  49.791  88.116  1.00  0.00     0.025 A 
ATOM     13  C   UNL     1      23.110  48.975  89.052  1.00  0.00     0.016 A 
ATOM     14  C   UNL     1      22.971  47.586  89.001  1.00  0.00     0.051 A 
ATOM     15  C   UNL     1      22.182  46.991  88.008  1.00  0.00     0.157 A 
ATOM     16  C   UNL     1      21.678  49.187  87.110  1.00  0.00     0.062 A 
ATOM     17  C   UNL     1      21.537  47.793  87.058  1.00  0.00     0.158 A 
BRANCH  15  18
ATOM     18  O   UNL     1      22.040  45.606  87.955  1.00  0.00    -0.504 OA
ATOM     19  H   UNL     1      22.183  45.027  88.774  1.00  0.00     0.293 HD
ENDBRANCH  15  18
BRANCH  17  20
ATOM     20  O   UNL     1      20.759  47.199  86.066  1.00  0.00    -0.504 OA
ATOM     21  H   UNL     1      20.758  46.196  85.922  1.00  0.00     0.293 HD
ENDBRANCH  17  20
ENDBRANCH   1  12
BRANCH   2  22
ATOM     22  O   UNL     1      20.397  51.583  89.125  1.00  0.00    -0.502 OA
ATOM     23  H   UNL     1      19.575  52.156  89.274  1.00  0.00     0.293 HD
ENDBRANCH   2  22
BRANCH   9  24
ATOM     24  O   UNL     1      26.630  55.404  86.483  1.00  0.00    -0.508 OA
ATOM     25  H   UNL     1      27.061  54.961  85.680  1.00  0.00     0.293 HD
ENDBRANCH   9  24
TORSDOF 5
ENDMDL
MODEL 7
REMARK VINA RESULT:    -3.498      2.330      7.152
REMARK INTER + INTRA:          -4.430
REMARK INTER:                  -4.295
REMARK INTRA:                  -0.134
REMARK UNBOUND:                -0.318
REMARK SMILES O=c1c(O)c(-c2ccc(O)c(O)c2)oc2cc(O)ccc12
REMARK SMILES IDX 5 1 3 2 2 3 1 4 21 5 15 6 14 7 16 8 17 9 19 10 20 11 6 12
REMARK SMILES IDX 7 13 8 14 9 15 13 16 11 17 10 18 12 20 4 22 18 24
REMARK H PARENT 10 19 12 21 4 23 18 25
REMARK Flexibility Score: inf
ROOT
ATOM      1  C   UNL     1      23.940  49.331  86.884  1.00  0.00     0.180 A 
ATOM      2  C   UNL     1      24.749  50.487  86.874  1.00  0.00     0.208 A 
ATOM      3  C   UNL     1      26.032  50.409  86.310  1.00  0.00     0.235 A 
ATOM      4  O   UNL     1      26.779  51.426  86.299  1.00  0.00    -0.285 OA
ATOM      5  C   UNL     1      26.468  49.197  85.753  1.00  0.00     0.069 A 
ATOM      6  C   UNL     1      25.590  48.092  85.780  1.00  0.00     0.142 A 
ATOM      7  O   UNL     1      24.387  48.205  86.333  1.00  0.00    -0.452 OA
ATOM      8  C   UNL     1      25.985  46.869  85.227  1.00  0.00     0.094 A 
ATOM      9  C   UNL     1      27.253  46.735  84.645  1.00  0.00     0.119 A 
ATOM     10  C   UNL     1      28.125  47.827  84.618  1.00  0.00     0.047 A 
ATOM     11  C   UNL     1      27.740  49.053  85.167  1.00  0.00     0.020 A 
ENDROOT
BRANCH   1  12
ATOM     12  C   UNL     1      22.583  49.327  87.478  1.00  0.00     0.025 A 
ATOM     13  C   UNL     1      22.264  48.499  88.569  1.00  0.00     0.016 A 
ATOM     14  C   UNL     1      20.970  48.494  89.097  1.00  0.00     0.051 A 
ATOM     15  C   UNL     1      19.975  49.305  88.536  1.00  0.00     0.157 A 
ATOM     16  C   UNL     1      21.576  50.121  86.906  1.00  0.00     0.062 A 
ATOM     17  C   UNL     1      20.278  50.117  87.436  1.00  0.00     0.158 A 
BRANCH  15  18
ATOM     18  O   UNL     1      18.685  49.305  89.062  1.00  0.00    -0.504 OA
ATOM     19  H   UNL     1      18.240  50.159  89.376  1.00  0.00     0.293 HD
ENDBRANCH  15  18
BRANCH  17  20
ATOM     20  O   UNL     1      19.285  50.918  86.875  1.00  0.00    -0.504 OA
ATOM     21  H   UNL     1      18.372  51.010  87.304  1.00  0.00     0.293 HD
ENDBRANCH  17  20
ENDBRANCH   1  12
BRANCH   2  22
ATOM     22  O   UNL     1      24.268  51.692  87.392  1.00  0.00    -0.502 OA
ATOM     23  H   UNL     1      24.849  52.315  87.941  1.00  0.00     0.293 HD
ENDBRANCH   2  22
BRANCH   9  24
ATOM     24  O   UNL     1      27.654  45.521  84.092  1.00  0.00    -0.508 OA
ATOM     25  H   UNL     1      27.138  45.086  83.337  1.00  0.00     0.293 HD
ENDBRANCH   9  24
TORSDOF 5
ENDMDL
MODEL 8
REMARK VINA RESULT:    -3.403      2.420      7.227
REMARK INTER + INTRA:          -4.317
REMARK INTER:                  -4.085
REMARK INTRA:                  -0.232
REMARK UNBOUND:                -0.318
REMARK SMILES O=c1c(O)c(-c2ccc(O)c(O)c2)oc2cc(O)ccc12
REMARK SMILES IDX 5 1 3 2 2 3 1 4 21 5 15 6 14 7 16 8 17 9 19 10 20 11 6 12
REMARK SMILES IDX 7 13 8 14 9 15 13 16 11 17 10 18 12 20 4 22 18 24
REMARK H PARENT 10 19 12 21 4 23 18 25
REMARK Flexibility Score: inf
ROOT
ATOM      1  C   UNL     1      23.026  50.909  87.579  1.00  0.00     0.180 A 
ATOM      2  C   UNL     1      23.615  52.121  88.002  1.00  0.00     0.208 A 
ATOM      3  C   UNL     1      24.952  52.378  87.662  1.00  0.00     0.235 A 
ATOM      4  O   UNL     1      25.504  53.448  88.037  1.00  0.00    -0.285 OA
ATOM      5  C   UNL     1      25.662  51.439  86.897  1.00  0.00     0.069 A 
ATOM      6  C   UNL     1      24.995  50.262  86.492  1.00  0.00     0.142 A 
ATOM      7  O   UNL     1      23.731  50.053  86.843  1.00  0.00    -0.452 OA
ATOM      8  C   UNL     1      25.666  49.307  85.721  1.00  0.00     0.094 A 
ATOM      9  C   UNL     1      27.001  49.513  85.347  1.00  0.00     0.119 A 
ATOM     10  C   UNL     1      27.664  50.677  85.748  1.00  0.00     0.047 A 
ATOM     11  C   UNL     1      27.002  51.638  86.518  1.00  0.00     0.020 A 
ENDROOT
BRANCH   1  12
ATOM     12  C   UNL     1      21.628  50.556  87.914  1.00  0.00     0.025 A 
ATOM     13  C   UNL     1      21.330  49.543  88.842  1.00  0.00     0.016 A 
ATOM     14  C   UNL     1      20.002  49.211  89.124  1.00  0.00     0.051 A 
ATOM     15  C   UNL     1      18.955  49.876  88.474  1.00  0.00     0.157 A 
ATOM     16  C   UNL     1      20.574  51.204  87.250  1.00  0.00     0.062 A 
ATOM     17  C   UNL     1      19.241  50.872  87.532  1.00  0.00     0.158 A 
BRANCH  15  18
ATOM     18  O   UNL     1      17.629  49.549  88.754  1.00  0.00    -0.504 OA
ATOM     19  H   UNL     1      17.229  49.698  89.672  1.00  0.00     0.293 HD
ENDBRANCH  15  18
BRANCH  17  20
ATOM     20  O   UNL     1      18.198  51.528  86.881  1.00  0.00    -0.504 OA
ATOM     21  H   UNL     1      18.371  52.274  86.218  1.00  0.00     0.293 HD
ENDBRANCH  17  20
ENDBRANCH   1  12
BRANCH   2  22
ATOM     22  O   UNL     1      22.867  53.057  88.721  1.00  0.00    -0.502 OA
ATOM     23  H   UNL     1      23.243  53.548  89.523  1.00  0.00     0.293 HD
ENDBRANCH   2  22
BRANCH   9  24
ATOM     24  O   UNL     1      27.676  48.567  84.579  1.00  0.00    -0.508 OA
ATOM     25  H   UNL     1      28.444  48.026  84.960  1.00  0.00     0.293 HD
ENDBRANCH   9  24
TORSDOF 5
ENDMDL
MODEL 9
REMARK VINA RESULT:    -2.438      2.212      7.290
REMARK INTER + INTRA:          -3.184
REMARK INTER:                  -3.085
REMARK INTRA:                  -0.098
REMARK UNBOUND:                -0.318
REMARK SMILES O=c1c(O)c(-c2ccc(O)c(O)c2)oc2cc(O)ccc12
REMARK SMILES IDX 5 1 3 2 2 3 1 4 21 5 15 6 14 7 16 8 17 9 19 10 20 11 6 12
REMARK SMILES IDX 7 13 8 14 9 15 13 16 11 17 10 18 12 20 4 22 18 24
REMARK H PARENT 10 19 12 21 4 23 18 25
REMARK Flexibility Score: inf
ROOT
ATOM      1  C   UNL     1      22.307  49.205  86.959  1.00  0.00     0.180 A 
ATOM      2  C   UNL     1      22.576  48.014  86.252  1.00  0.00     0.208 A 
ATOM      3  C   UNL     1      23.855  47.827  85.705  1.00  0.00     0.235 A 
ATOM      4  O   UNL     1      24.117  46.776  85.058  1.00  0.00    -0.285 OA
ATOM      5  C   UNL     1      24.836  48.813  85.890  1.00  0.00     0.069 A 
ATOM      6  C   UNL     1      24.496  49.966  86.631  1.00  0.00     0.142 A 
ATOM      7  O   UNL     1      23.271  50.109  87.124  1.00  0.00    -0.452 OA
ATOM      8  C   UNL     1      25.449  50.968  86.845  1.00  0.00     0.094 A 
ATOM      9  C   UNL     1      26.744  50.832  86.326  1.00  0.00     0.119 A 
ATOM     10  C   UNL     1      27.083  49.692  85.591  1.00  0.00     0.047 A 
ATOM     11  C   UNL     1      26.138  48.685  85.372  1.00  0.00     0.020 A 
ENDROOT
BRANCH   1  12
ATOM     12  C   UNL     1      20.979  49.486  87.550  1.00  0.00     0.025 A 
ATOM     13  C   UNL     1      20.405  48.627  88.505  1.00  0.00     0.016 A 
ATOM     14  C   UNL     1      19.140  48.900  89.030  1.00  0.00     0.051 A 
ATOM     15  C   UNL     1      18.424  50.025  88.601  1.00  0.00     0.157 A 
ATOM     16  C   UNL     1      20.248  50.600  87.108  1.00  0.00     0.062 A 
ATOM     17  C   UNL     1      18.978  50.876  87.636  1.00  0.00     0.158 A 
BRANCH  15  18
ATOM     18  O   UNL     1      17.163  50.302  89.125  1.00  0.00    -0.504 OA
ATOM     19  H   UNL     1      16.538  49.562  89.421  1.00  0.00     0.293 HD
ENDBRANCH  15  18
BRANCH  17  20
ATOM     20  O   UNL     1      18.261  51.991  87.205  1.00  0.00    -0.504 OA
ATOM     21  H   UNL     1      18.706  52.739  86.688  1.00  0.00     0.293 HD
ENDBRANCH  17  20
ENDBRANCH   1  12
BRANCH   2  22
ATOM     22  O   UNL     1      21.594  47.029  86.126  1.00  0.00    -0.502 OA
ATOM     23  H   UNL     1      20.823  47.113  85.474  1.00  0.00     0.293 HD
ENDBRANCH   2  22
BRANCH   9  24
ATOM     24  O   UNL     1      27.699  51.824  86.535  1.00  0.00    -0.508 OA
ATOM     25  H   UNL     1      28.686  51.649  86.389  1.00  0.00     0.293 HD
ENDBRANCH   9  24
TORSDOF 5
ENDMDL
