MODEL 1
REMARK VINA RESULT:    -2.972      0.000      0.000
REMARK INTER + INTRA:          -2.972
REMARK INTER:                  -2.972
REMARK INTRA:                   0.000
REMARK UNBOUND:                 0.000
REMARK SMILES c1cc[nH]c1
REMARK SMILES IDX 1 1 5 2 4 3 3 4 2 5
REMARK H PARENT 4 6
REMARK Flexibility Score: inf
ROOT
ATOM      1  C   UNL     1       9.348  49.266   2.935  1.00  0.00     0.019 A 
ATOM      2  C   UNL     1      10.507  48.778   3.503  1.00  0.00     0.082 A 
ATOM      3  N   UNL     1      11.257  49.795   3.962  1.00  0.00    -0.368 N 
ATOM      4  C   UNL     1      10.588  50.932   3.696  1.00  0.00     0.082 A 
ATOM      5  C   UNL     1       9.400  50.640   3.059  1.00  0.00     0.019 A 
ATOM      6  H   UNL     1      12.183  49.717   4.438  1.00  0.00     0.165 HD
ENDROOT
TORSDOF 0
ENDMDL
MODEL 2
REMARK VINA RESULT:    -2.970      0.218      1.638
REMARK INTER + INTRA:          -2.970
REMARK INTER:                  -2.970
REMARK INTRA:                   0.000
REMARK UNBOUND:                 0.000
REMARK SMILES c1cc[nH]c1
REMARK SMILES IDX 1 1 5 2 4 3 3 4 2 5
REMARK H PARENT 4 6
REMARK Flexibility Score: inf
ROOT
ATOM      1  C   UNL     1       9.552  50.648   3.161  1.00  0.00     0.019 A 
ATOM      2  C   UNL     1      10.817  50.924   3.638  1.00  0.00     0.082 A 
ATOM      3  N   UNL     1      11.504  49.782   3.807  1.00  0.00    -0.368 N 
ATOM      4  C   UNL     1      10.692  48.773   3.442  1.00  0.00     0.082 A 
ATOM      5  C   UNL     1       9.473  49.275   3.036  1.00  0.00     0.019 A 
ATOM      6  H   UNL     1      12.485  49.693   4.156  1.00  0.00     0.165 HD
ENDROOT
TORSDOF 0
ENDMDL
MODEL 3
REMARK VINA RESULT:    -2.848      8.913      9.492
REMARK INTER + INTRA:          -2.848
REMARK INTER:                  -2.848
REMARK INTRA:                   0.000
REMARK UNBOUND:                 0.000
REMARK SMILES c1cc[nH]c1
REMARK SMILES IDX 1 1 5 2 4 3 3 4 2 5
REMARK H PARENT 4 6
REMARK Flexibility Score: inf
ROOT
ATOM      1  C   UNL     1       4.875  57.433   7.841  1.00  0.00     0.019 A 
ATOM      2  C   UNL     1       5.091  56.614   6.752  1.00  0.00     0.082 A 
ATOM      3  N   UNL     1       5.300  55.351   7.160  1.00  0.00    -0.368 N 
ATOM      4  C   UNL     1       5.219  55.351   8.503  1.00  0.00     0.082 A 
ATOM      5  C   UNL     1       4.957  56.627   8.959  1.00  0.00     0.019 A 
ATOM      6  H   UNL     1       5.488  54.524   6.551  1.00  0.00     0.165 HD
ENDROOT
TORSDOF 0
ENDMDL
MODEL 4
REMARK VINA RESULT:    -2.758      1.259      2.002
REMARK INTER + INTRA:          -2.758
REMARK INTER:                  -2.758
REMARK INTRA:                   0.000
REMARK UNBOUND:                 0.000
REMARK SMILES c1cc[nH]c1
REMARK SMILES IDX 1 1 5 2 4 3 3 4 2 5
REMARK H PARENT 4 6
REMARK Flexibility Score: inf
ROOT
ATOM      1  C   UNL     1      10.844  49.682   3.629  1.00  0.00     0.019 A 
ATOM      2  C   UNL     1      10.546  50.957   4.062  1.00  0.00     0.082 A 
ATOM      3  N   UNL     1       9.425  51.395   3.465  1.00  0.00    -0.368 N 
ATOM      4  C   UNL     1       8.998  50.411   2.653  1.00  0.00     0.082 A 
ATOM      5  C   UNL     1       9.856  49.333   2.730  1.00  0.00     0.019 A 
ATOM      6  H   UNL     1       8.968  52.324   3.606  1.00  0.00     0.165 HD
ENDROOT
TORSDOF 0
ENDMDL
MODEL 5
REMARK VINA RESULT:    -2.742     19.732     20.199
REMARK INTER + INTRA:          -2.742
REMARK INTER:                  -2.742
REMARK INTRA:                   0.000
REMARK UNBOUND:                 0.000
REMARK SMILES c1cc[nH]c1
REMARK SMILES IDX 1 1 5 2 4 3 3 4 2 5
REMARK H PARENT 4 6
REMARK Flexibility Score: inf
ROOT
ATOM      1  C   UNL     1      15.028  64.963  14.848  1.00  0.00     0.019 A 
ATOM      2  C   UNL     1      13.956  64.693  15.673  1.00  0.00     0.082 A 
ATOM      3  N   UNL     1      14.367  64.623  16.951  1.00  0.00    -0.368 N 
ATOM      4  C   UNL     1      15.693  64.848  16.954  1.00  0.00     0.082 A 
ATOM      5  C   UNL     1      16.136  65.063  15.665  1.00  0.00     0.019 A 
ATOM      6  H   UNL     1      13.768  64.431  17.786  1.00  0.00     0.165 HD
ENDROOT
TORSDOF 0
ENDMDL
MODEL 6
REMARK VINA RESULT:    -2.729     19.473     19.989
REMARK INTER + INTRA:          -2.729
REMARK INTER:                  -2.729
REMARK INTRA:                   0.000
REMARK UNBOUND:                 0.000
REMARK SMILES c1cc[nH]c1
REMARK SMILES IDX 1 1 5 2 4 3 3 4 2 5
REMARK H PARENT 4 6
REMARK Flexibility Score: inf
ROOT
ATOM      1  C   UNL     1      15.296  64.848  16.796  1.00  0.00     0.019 A 
ATOM      2  C   UNL     1      14.134  64.569  16.107  1.00  0.00     0.082 A 
ATOM      3  N   UNL     1      14.362  64.616  14.783  1.00  0.00    -0.368 N 
ATOM      4  C   UNL     1      15.661  64.922  14.616  1.00  0.00     0.082 A 
ATOM      5  C   UNL     1      16.270  65.074  15.845  1.00  0.00     0.019 A 
ATOM      6  H   UNL     1      13.662  64.446  14.026  1.00  0.00     0.165 HD
ENDROOT
TORSDOF 0
ENDMDL
MODEL 7
REMARK VINA RESULT:    -2.435     12.385     13.009
REMARK INTER + INTRA:          -2.435
REMARK INTER:                  -2.435
REMARK INTRA:                   0.000
REMARK UNBOUND:                 0.000
REMARK SMILES c1cc[nH]c1
REMARK SMILES IDX 1 1 5 2 4 3 3 4 2 5
REMARK H PARENT 4 6
REMARK Flexibility Score: inf
ROOT
ATOM      1  C   UNL     1      22.942  46.631   7.321  1.00  0.00     0.019 A 
ATOM      2  C   UNL     1      21.572  46.706   7.173  1.00  0.00     0.082 A 
ATOM      3  N   UNL     1      21.147  47.948   7.456  1.00  0.00    -0.368 N 
ATOM      4  C   UNL     1      22.231  48.674   7.783  1.00  0.00     0.082 A 
ATOM      5  C   UNL     1      23.362  47.887   7.710  1.00  0.00     0.019 A 
ATOM      6  H   UNL     1      20.159  48.289   7.426  1.00  0.00     0.165 HD
ENDROOT
TORSDOF 0
ENDMDL
MODEL 8
REMARK VINA RESULT:    -2.419     19.063     20.012
REMARK INTER + INTRA:          -2.419
REMARK INTER:                  -2.419
REMARK INTRA:                   0.000
REMARK UNBOUND:                 0.000
REMARK SMILES c1cc[nH]c1
REMARK SMILES IDX 1 1 5 2 4 3 3 4 2 5
REMARK H PARENT 4 6
REMARK Flexibility Score: inf
ROOT
ATOM      1  C   UNL     1      20.410  63.110  14.874  1.00  0.00     0.019 A 
ATOM      2  C   UNL     1      19.480  62.725  13.930  1.00  0.00     0.082 A 
ATOM      3  N   UNL     1      18.390  63.507  14.014  1.00  0.00    -0.368 N 
ATOM      4  C   UNL     1      18.612  64.392  15.003  1.00  0.00     0.082 A 
ATOM      5  C   UNL     1      19.856  64.173  15.558  1.00  0.00     0.019 A 
ATOM      6  H   UNL     1      17.532  63.441  13.422  1.00  0.00     0.165 HD
ENDROOT
TORSDOF 0
ENDMDL
MODEL 9
REMARK VINA RESULT:    -2.189     19.719     20.361
REMARK INTER + INTRA:          -2.189
REMARK INTER:                  -2.189
REMARK INTRA:                   0.000
REMARK UNBOUND:                 0.000
REMARK SMILES c1cc[nH]c1
REMARK SMILES IDX 1 1 5 2 4 3 3 4 2 5
REMARK H PARENT 4 6
REMARK Flexibility Score: inf
ROOT
ATOM      1  C   UNL     1      17.584  65.036  16.301  1.00  0.00     0.019 A 
ATOM      2  C   UNL     1      17.904  64.632  15.021  1.00  0.00     0.082 A 
ATOM      3  N   UNL     1      16.790  64.535  14.277  1.00  0.00    -0.368 N 
ATOM      4  C   UNL     1      15.755  64.874  15.068  1.00  0.00     0.082 A 
ATOM      5  C   UNL     1      16.212  65.190  16.331  1.00  0.00     0.019 A 
ATOM      6  H   UNL     1      16.736  64.252  13.273  1.00  0.00     0.165 HD
ENDROOT
TORSDOF 0
ENDMDL
