MODEL 1
REMARK VINA RESULT:    -3.422      0.000      0.000
REMARK INTER + INTRA:          -4.793
REMARK INTER:                  -4.422
REMARK INTRA:                  -0.371
REMARK UNBOUND:                -0.371
REMARK SMILES CCCCCCC(=O)[O-]
REMARK SMILES IDX 5 1 6 2 7 3 8 4 9 5 4 6 3 7 2 8 1 9
REMARK H PARENT
REMARK Flexibility Score: inf
ROOT
ATOM      1  C   UNL     1      19.106 131.924  64.829  1.00  0.00     0.006 C 
ENDROOT
BRANCH   1   2
ATOM      2  C   UNL     1      18.827 132.118  63.329  1.00  0.00     0.053 C 
BRANCH   2   3
ATOM      3  C   UNL     1      20.090 132.146  62.525  1.00  0.00     0.041 C 
ATOM      4  O   UNL     1      21.028 131.347  62.788  1.00  0.00    -0.550 OA
ATOM      5  O   UNL     1      20.223 133.038  61.467  1.00  0.00    -0.550 OA
ENDBRANCH   2   3
ENDBRANCH   1   2
BRANCH   1   6
ATOM      6  C   UNL     1      18.716 130.527  65.350  1.00  0.00     0.000 C 
BRANCH   6   7
ATOM      7  C   UNL     1      17.816 129.739  64.372  1.00  0.00    -0.000 C 
BRANCH   7   8
ATOM      8  C   UNL     1      18.298 128.301  64.118  1.00  0.00    -0.003 C 
ATOM      9  C   UNL     1      19.819 128.190  64.041  1.00  0.00     0.004 C 
ENDBRANCH   7   8
ENDBRANCH   6   7
ENDBRANCH   1   6
TORSDOF 5
ENDMDL
MODEL 2
REMARK VINA RESULT:    -3.337      0.780      1.467
REMARK INTER + INTRA:          -4.683
REMARK INTER:                  -4.363
REMARK INTRA:                  -0.320
REMARK UNBOUND:                -0.371
REMARK SMILES CCCCCCC(=O)[O-]
REMARK SMILES IDX 5 1 6 2 7 3 8 4 9 5 4 6 3 7 2 8 1 9
REMARK H PARENT
REMARK Flexibility Score: inf
ROOT
ATOM      1  C   UNL     1      18.091 131.610  63.204  1.00  0.00     0.006 C 
ENDROOT
BRANCH   1   2
ATOM      2  C   UNL     1      19.520 131.993  63.625  1.00  0.00     0.053 C 
BRANCH   2   3
ATOM      3  C   UNL     1      20.435 132.118  62.445  1.00  0.00     0.041 C 
ATOM      4  O   UNL     1      20.132 132.876  61.485  1.00  0.00    -0.550 OA
ATOM      5  O   UNL     1      21.635 131.419  62.415  1.00  0.00    -0.550 OA
ENDBRANCH   2   3
ENDBRANCH   1   2
BRANCH   1   6
ATOM      6  C   UNL     1      17.478 130.487  64.063  1.00  0.00     0.000 C 
BRANCH   6   7
ATOM      7  C   UNL     1      18.538 129.600  64.755  1.00  0.00    -0.000 C 
BRANCH   7   8
ATOM      8  C   UNL     1      18.804 128.276  64.018  1.00  0.00    -0.003 C 
ATOM      9  C   UNL     1      20.264 128.113  63.601  1.00  0.00     0.004 C 
ENDBRANCH   7   8
ENDBRANCH   6   7
ENDBRANCH   1   6
TORSDOF 5
ENDMDL
MODEL 3
REMARK VINA RESULT:    -3.309      0.773      1.345
REMARK INTER + INTRA:          -4.647
REMARK INTER:                  -4.337
REMARK INTRA:                  -0.309
REMARK UNBOUND:                -0.371
REMARK SMILES CCCCCCC(=O)[O-]
REMARK SMILES IDX 5 1 6 2 7 3 8 4 9 5 4 6 3 7 2 8 1 9
REMARK H PARENT
REMARK Flexibility Score: inf
ROOT
ATOM      1  C   UNL     1      18.569 130.632  65.032  1.00  0.00     0.006 C 
ENDROOT
BRANCH   1   2
ATOM      2  C   UNL     1      18.555 132.098  64.568  1.00  0.00     0.053 C 
BRANCH   2   3
ATOM      3  C   UNL     1      19.367 132.298  63.325  1.00  0.00     0.041 C 
ATOM      4  O   UNL     1      20.411 131.621  63.134  1.00  0.00    -0.550 OA
ATOM      5  O   UNL     1      18.956 133.214  62.364  1.00  0.00    -0.550 OA
ENDBRANCH   2   3
ENDBRANCH   1   2
BRANCH   1   6
ATOM      6  C   UNL     1      17.599 129.730  64.244  1.00  0.00     0.000 C 
BRANCH   6   7
ATOM      7  C   UNL     1      18.156 128.311  63.989  1.00  0.00    -0.000 C 
BRANCH   7   8
ATOM      8  C   UNL     1      19.616 128.137  64.440  1.00  0.00    -0.003 C 
ATOM      9  C   UNL     1      20.602 128.145  63.275  1.00  0.00     0.004 C 
ENDBRANCH   7   8
ENDBRANCH   6   7
ENDBRANCH   1   6
TORSDOF 5
ENDMDL
MODEL 4
REMARK VINA RESULT:    -3.098      2.796      4.255
REMARK INTER + INTRA:          -4.375
REMARK INTER:                  -4.148
REMARK INTRA:                  -0.226
REMARK UNBOUND:                -0.371
REMARK SMILES CCCCCCC(=O)[O-]
REMARK SMILES IDX 5 1 6 2 7 3 8 4 9 5 4 6 3 7 2 8 1 9
REMARK H PARENT
REMARK Flexibility Score: inf
ROOT
ATOM      1  C   UNL     1      18.200 131.117  64.172  1.00  0.00     0.006 C 
ENDROOT
BRANCH   1   2
ATOM      2  C   UNL     1      18.812 129.747  64.509  1.00  0.00     0.053 C 
BRANCH   2   3
ATOM      3  C   UNL     1      17.817 128.638  64.355  1.00  0.00     0.041 C 
ATOM      4  O   UNL     1      18.088 127.638  63.637  1.00  0.00    -0.550 OA
ATOM      5  O   UNL     1      16.600 128.694  65.024  1.00  0.00    -0.550 OA
ENDBRANCH   2   3
ENDBRANCH   1   2
BRANCH   1   6
ATOM      6  C   UNL     1      19.252 132.198  63.856  1.00  0.00     0.000 C 
BRANCH   6   7
ATOM      7  C   UNL     1      19.267 132.620  62.369  1.00  0.00    -0.000 C 
BRANCH   7   8
ATOM      8  C   UNL     1      20.659 132.525  61.721  1.00  0.00    -0.003 C 
ATOM      9  C   UNL     1      21.548 131.471  62.376  1.00  0.00     0.004 C 
ENDBRANCH   7   8
ENDBRANCH   6   7
ENDBRANCH   1   6
TORSDOF 5
ENDMDL
MODEL 5
REMARK VINA RESULT:    -3.086      2.929      4.246
REMARK INTER + INTRA:          -4.359
REMARK INTER:                  -4.049
REMARK INTRA:                  -0.309
REMARK UNBOUND:                -0.371
REMARK SMILES CCCCCCC(=O)[O-]
REMARK SMILES IDX 5 1 6 2 7 3 8 4 9 5 4 6 3 7 2 8 1 9
REMARK H PARENT
REMARK Flexibility Score: inf
ROOT
ATOM      1  C   UNL     1      18.881 130.963  64.417  1.00  0.00     0.006 C 
ENDROOT
BRANCH   1   2
ATOM      2  C   UNL     1      17.561 130.211  64.174  1.00  0.00     0.053 C 
BRANCH   2   3
ATOM      3  C   UNL     1      17.732 128.728  64.307  1.00  0.00     0.041 C 
ATOM      4  O   UNL     1      18.790 128.173  63.908  1.00  0.00    -0.550 OA
ATOM      5  O   UNL     1      16.733 127.962  64.895  1.00  0.00    -0.550 OA
ENDBRANCH   2   3
ENDBRANCH   1   2
BRANCH   1   6
ATOM      6  C   UNL     1      18.806 131.975  65.578  1.00  0.00     0.000 C 
BRANCH   6   7
ATOM      7  C   UNL     1      18.468 131.321  66.937  1.00  0.00    -0.000 C 
BRANCH   7   8
ATOM      8  C   UNL     1      17.099 131.744  67.496  1.00  0.00    -0.003 C 
ATOM      9  C   UNL     1      16.142 130.569  67.672  1.00  0.00     0.004 C 
ENDBRANCH   7   8
ENDBRANCH   6   7
ENDBRANCH   1   6
TORSDOF 5
ENDMDL
MODEL 6
REMARK VINA RESULT:    -3.018      2.592      4.323
REMARK INTER + INTRA:          -4.271
REMARK INTER:                  -3.980
REMARK INTRA:                  -0.291
REMARK UNBOUND:                -0.371
REMARK SMILES CCCCCCC(=O)[O-]
REMARK SMILES IDX 5 1 6 2 7 3 8 4 9 5 4 6 3 7 2 8 1 9
REMARK H PARENT
REMARK Flexibility Score: inf
ROOT
ATOM      1  C   UNL     1      18.392 130.668  65.253  1.00  0.00     0.006 C 
ENDROOT
BRANCH   1   2
ATOM      2  C   UNL     1      17.462 129.958  64.254  1.00  0.00     0.053 C 
BRANCH   2   3
ATOM      3  C   UNL     1      17.613 128.468  64.313  1.00  0.00     0.041 C 
ATOM      4  O   UNL     1      16.708 127.759  64.826  1.00  0.00    -0.550 OA
ATOM      5  O   UNL     1      18.742 127.861  63.776  1.00  0.00    -0.550 OA
ENDBRANCH   2   3
ENDBRANCH   1   2
BRANCH   1   6
ATOM      6  C   UNL     1      19.060 131.932  64.677  1.00  0.00     0.000 C 
BRANCH   6   7
ATOM      7  C   UNL     1      19.767 131.687  63.325  1.00  0.00    -0.000 C 
BRANCH   7   8
ATOM      8  C   UNL     1      19.481 132.777  62.278  1.00  0.00    -0.003 C 
ATOM      9  C   UNL     1      18.011 132.837  61.872  1.00  0.00     0.004 C 
ENDBRANCH   7   8
ENDBRANCH   6   7
ENDBRANCH   1   6
TORSDOF 5
ENDMDL
MODEL 7
REMARK VINA RESULT:    -2.991      3.484      4.195
REMARK INTER + INTRA:          -4.236
REMARK INTER:                  -3.789
REMARK INTRA:                  -0.448
REMARK UNBOUND:                -0.371
REMARK SMILES CCCCCCC(=O)[O-]
REMARK SMILES IDX 5 1 6 2 7 3 8 4 9 5 4 6 3 7 2 8 1 9
REMARK H PARENT
REMARK Flexibility Score: inf
ROOT
ATOM      1  C   UNL     1      18.524 131.322  66.615  1.00  0.00     0.006 C 
ENDROOT
BRANCH   1   2
ATOM      2  C   UNL     1      17.120 131.687  67.126  1.00  0.00     0.053 C 
BRANCH   2   3
ATOM      3  C   UNL     1      16.067 130.787  66.556  1.00  0.00     0.041 C 
ATOM      4  O   UNL     1      15.738 129.732  67.162  1.00  0.00    -0.550 OA
ATOM      5  O   UNL     1      15.430 131.125  65.368  1.00  0.00    -0.550 OA
ENDBRANCH   2   3
ENDBRANCH   1   2
BRANCH   1   6
ATOM      6  C   UNL     1      18.867 131.962  65.255  1.00  0.00     0.000 C 
BRANCH   6   7
ATOM      7  C   UNL     1      18.867 130.950  64.087  1.00  0.00    -0.000 C 
BRANCH   7   8
ATOM      8  C   UNL     1      18.987 129.486  64.546  1.00  0.00    -0.003 C 
ATOM      9  C   UNL     1      17.798 128.631  64.116  1.00  0.00     0.004 C 
ENDBRANCH   7   8
ENDBRANCH   6   7
ENDBRANCH   1   6
TORSDOF 5
ENDMDL
MODEL 8
REMARK VINA RESULT:    -2.866      2.093      3.202
REMARK INTER + INTRA:          -4.075
REMARK INTER:                  -3.813
REMARK INTRA:                  -0.262
REMARK UNBOUND:                -0.371
REMARK SMILES CCCCCCC(=O)[O-]
REMARK SMILES IDX 5 1 6 2 7 3 8 4 9 5 4 6 3 7 2 8 1 9
REMARK H PARENT
REMARK Flexibility Score: inf
ROOT
ATOM      1  C   UNL     1      18.770 130.616  65.247  1.00  0.00     0.006 C 
ENDROOT
BRANCH   1   2
ATOM      2  C   UNL     1      18.273 131.029  63.851  1.00  0.00     0.053 C 
BRANCH   2   3
ATOM      3  C   UNL     1      19.181 132.034  63.210  1.00  0.00     0.041 C 
ATOM      4  O   UNL     1      18.768 133.199  62.968  1.00  0.00    -0.550 OA
ATOM      5  O   UNL     1      20.493 131.692  62.904  1.00  0.00    -0.550 OA
ENDBRANCH   2   3
ENDBRANCH   1   2
BRANCH   1   6
ATOM      6  C   UNL     1      18.713 131.758  66.282  1.00  0.00     0.000 C 
BRANCH   6   7
ATOM      7  C   UNL     1      18.037 131.346  67.609  1.00  0.00    -0.000 C 
BRANCH   7   8
ATOM      8  C   UNL     1      16.527 131.641  67.644  1.00  0.00    -0.003 C 
ATOM      9  C   UNL     1      15.678 130.435  67.252  1.00  0.00     0.004 C 
ENDBRANCH   7   8
ENDBRANCH   6   7
ENDBRANCH   1   6
TORSDOF 5
ENDMDL
MODEL 9
REMARK VINA RESULT:    -2.848      3.325      4.704
REMARK INTER + INTRA:          -4.052
REMARK INTER:                  -3.667
REMARK INTRA:                  -0.385
REMARK UNBOUND:                -0.371
REMARK SMILES CCCCCCC(=O)[O-]
REMARK SMILES IDX 5 1 6 2 7 3 8 4 9 5 4 6 3 7 2 8 1 9
REMARK H PARENT
REMARK Flexibility Score: inf
ROOT
ATOM      1  C   UNL     1      17.759 128.823  64.004  1.00  0.00     0.006 C 
ENDROOT
BRANCH   1   2
ATOM      2  C   UNL     1      16.675 128.291  64.956  1.00  0.00     0.053 C 
BRANCH   2   3
ATOM      3  C   UNL     1      15.912 129.401  65.610  1.00  0.00     0.041 C 
ATOM      4  O   UNL     1      15.648 129.351  66.841  1.00  0.00    -0.550 OA
ATOM      5  O   UNL     1      15.513 130.506  64.867  1.00  0.00    -0.550 OA
ENDBRANCH   2   3
ENDBRANCH   1   2
BRANCH   1   6
ATOM      6  C   UNL     1      18.845 129.655  64.714  1.00  0.00     0.000 C 
BRANCH   6   7
ATOM      7  C   UNL     1      18.918 131.116  64.217  1.00  0.00    -0.000 C 
BRANCH   7   8
ATOM      8  C   UNL     1      18.959 132.149  65.357  1.00  0.00    -0.003 C 
ATOM      9  C   UNL     1      18.564 131.559  66.707  1.00  0.00     0.004 C 
ENDBRANCH   7   8
ENDBRANCH   6   7
ENDBRANCH   1   6
TORSDOF 5
ENDMDL
