MODEL 1
REMARK VINA RESULT:     7.994      0.000      0.000
REMARK INTER + INTRA:           9.884
REMARK INTER:                   8.695
REMARK INTRA:                   1.189
REMARK UNBOUND:                 1.189
REMARK SMILES CC1=C[C@H]2[C@@H](C(C)C)CC[C@](C)(O)[C@@H]2CC1
REMARK SMILES IDX 1 1 2 2 3 3 4 4 5 5 9 6 10 7 11 8 14 9 15 10 16 11 12 12
REMARK SMILES IDX 6 13 7 14 8 15 13 16
REMARK H PARENT 13 17
REMARK Flexibility Score: inf
ROOT
ATOM      1  C   UNL     1      34.388 -31.166 -11.417  1.00  0.00     0.039 C 
ATOM      2  C   UNL     1      35.356 -32.282 -11.136  1.00  0.00    -0.077 C 
ATOM      3  C   UNL     1      34.904 -33.487 -10.745  1.00  0.00    -0.024 C 
ATOM      4  C   UNL     1      35.895 -34.597 -10.459  1.00  0.00     0.021 C 
ATOM      5  C   UNL     1      35.288 -36.023 -10.203  1.00  0.00    -0.001 C 
ATOM      6  C   UNL     1      36.384 -37.125 -10.342  1.00  0.00     0.007 C 
ATOM      7  C   UNL     1      37.784 -36.605  -9.979  1.00  0.00     0.035 C 
ATOM      8  C   UNL     1      38.268 -35.444 -10.908  1.00  0.00     0.065 C 
ATOM      9  C   UNL     1      37.046 -34.661 -11.511  1.00  0.00     0.028 C 
ATOM     10  C   UNL     1      37.413 -33.269 -12.125  1.00  0.00     0.011 C 
ATOM     11  C   UNL     1      36.842 -32.090 -11.326  1.00  0.00     0.031 C 
ATOM     12  C   UNL     1      39.125 -36.046 -12.052  1.00  0.00     0.042 C 
ENDROOT
BRANCH   5  13
ATOM     13  C   UNL     1      33.985 -36.379 -11.002  1.00  0.00    -0.014 C 
ATOM     14  C   UNL     1      32.916 -37.117 -10.178  1.00  0.00     0.007 C 
ATOM     15  C   UNL     1      33.366 -35.139 -11.670  1.00  0.00     0.007 C 
ENDBRANCH   5  13
BRANCH   8  16
ATOM     16  O   UNL     1      39.044 -34.578 -10.104  1.00  0.00    -0.390 OA
ATOM     17  H   UNL     1      38.482 -34.200  -9.378  1.00  0.00     0.211 HD
ENDBRANCH   8  16
TORSDOF 2
ENDMDL
