MODEL 1
REMARK VINA RESULT:    -4.898      0.000      0.000
REMARK INTER + INTRA:          -6.401
REMARK INTER:                  -6.186
REMARK INTRA:                  -0.215
REMARK UNBOUND:                -0.215
REMARK SMILES CC(C)=CCCC(C)=CCO
REMARK SMILES IDX 7 1 9 2 8 3 6 4 5 5 4 6 1 7 2 8 3 9 10 10 11 11
REMARK H PARENT 11 12
REMARK Flexibility Score: inf
ROOT
ATOM      1  C   UNL     1      32.315  19.107  17.765  1.00  0.00    -0.075 C 
ATOM      2  C   UNL     1      31.181  18.684  17.161  1.00  0.00    -0.000 C 
ATOM      3  C   UNL     1      33.188  20.093  17.030  1.00  0.00     0.039 C 
ENDROOT
BRANCH   1   4
ATOM      4  C   UNL     1      32.739  18.645  19.148  1.00  0.00     0.034 C 
BRANCH   4   5
ATOM      5  C   UNL     1      33.949  19.433  19.676  1.00  0.00     0.032 C 
BRANCH   5   6
ATOM      6  C   UNL     1      34.433  18.905  21.005  1.00  0.00    -0.028 C 
ATOM      7  C   UNL     1      35.978  20.839  21.401  1.00  0.00     0.039 C 
ATOM      8  C   UNL     1      35.321  19.539  21.804  1.00  0.00    -0.080 C 
ATOM      9  C   UNL     1      35.672  18.909  23.128  1.00  0.00     0.039 C 
ENDBRANCH   5   6
ENDBRANCH   4   5
ENDBRANCH   1   4
BRANCH   2  10
ATOM     10  C   UNL     1      30.234  17.662  17.729  1.00  0.00     0.183 C 
BRANCH  10  11
ATOM     11  O   UNL     1      28.995  18.252  18.006  1.00  0.00    -0.392 OA
ATOM     12  H   UNL     1      28.318  17.537  17.891  1.00  0.00     0.210 HD
ENDBRANCH  10  11
ENDBRANCH   2  10
TORSDOF 5
ENDMDL
MODEL 2
REMARK VINA RESULT:    -4.603      1.444      2.015
REMARK INTER + INTRA:          -6.029
REMARK INTER:                  -5.614
REMARK INTRA:                  -0.415
REMARK UNBOUND:                -0.215
REMARK SMILES CC(C)=CCCC(C)=CCO
REMARK SMILES IDX 7 1 9 2 8 3 6 4 5 5 4 6 1 7 2 8 3 9 10 10 11 11
REMARK H PARENT 11 12
REMARK Flexibility Score: inf
ROOT
ATOM      1  C   UNL     1      32.908  19.294  18.271  1.00  0.00    -0.075 C 
ATOM      2  C   UNL     1      31.788  18.589  17.992  1.00  0.00    -0.000 C 
ATOM      3  C   UNL     1      33.468  20.195  17.199  1.00  0.00     0.039 C 
ENDROOT
BRANCH   1   4
ATOM      4  C   UNL     1      33.618  19.227  19.612  1.00  0.00     0.034 C 
BRANCH   4   5
ATOM      5  C   UNL     1      35.062  19.749  19.530  1.00  0.00     0.032 C 
BRANCH   5   6
ATOM      6  C   UNL     1      35.418  20.620  20.710  1.00  0.00    -0.028 C 
ATOM      7  C   UNL     1      35.537  22.716  19.342  1.00  0.00     0.039 C 
ATOM      8  C   UNL     1      35.605  21.957  20.647  1.00  0.00    -0.080 C 
ATOM      9  C   UNL     1      35.910  22.700  21.923  1.00  0.00     0.039 C 
ENDBRANCH   5   6
ENDBRANCH   4   5
ENDBRANCH   1   4
BRANCH   2  10
ATOM     10  C   UNL     1      31.138  17.604  18.925  1.00  0.00     0.183 C 
BRANCH  10  11
ATOM     11  O   UNL     1      30.046  16.992  18.297  1.00  0.00    -0.392 OA
ATOM     12  H   UNL     1      29.650  16.380  18.971  1.00  0.00     0.210 HD
ENDBRANCH  10  11
ENDBRANCH   2  10
TORSDOF 5
ENDMDL
MODEL 3
REMARK VINA RESULT:    -4.586      3.122      5.871
REMARK INTER + INTRA:          -6.008
REMARK INTER:                  -5.786
REMARK INTRA:                  -0.222
REMARK UNBOUND:                -0.215
REMARK SMILES CC(C)=CCCC(C)=CCO
REMARK SMILES IDX 7 1 9 2 8 3 6 4 5 5 4 6 1 7 2 8 3 9 10 10 11 11
REMARK H PARENT 11 12
REMARK Flexibility Score: inf
ROOT
ATOM      1  C   UNL     1      35.853  18.478  21.642  1.00  0.00    -0.075 C 
ATOM      2  C   UNL     1      36.162  17.658  22.674  1.00  0.00    -0.000 C 
ATOM      3  C   UNL     1      36.978  18.985  20.775  1.00  0.00     0.039 C 
ENDROOT
BRANCH   1   4
ATOM      4  C   UNL     1      34.432  18.900  21.315  1.00  0.00     0.034 C 
BRANCH   4   5
ATOM      5  C   UNL     1      34.311  19.477  19.896  1.00  0.00     0.032 C 
BRANCH   5   6
ATOM      6  C   UNL     1      33.091  18.957  19.174  1.00  0.00    -0.028 C 
ATOM      7  C   UNL     1      33.474  20.384  17.149  1.00  0.00     0.039 C 
ATOM      8  C   UNL     1      32.719  19.332  17.929  1.00  0.00    -0.080 C 
ATOM      9  C   UNL     1      31.500  18.688  17.320  1.00  0.00     0.039 C 
ENDBRANCH   5   6
ENDBRANCH   4   5
ENDBRANCH   1   4
BRANCH   2  10
ATOM     10  C   UNL     1      35.170  17.116  23.667  1.00  0.00     0.183 C 
BRANCH  10  11
ATOM     11  O   UNL     1      35.727  17.108  24.951  1.00  0.00    -0.392 OA
ATOM     12  H   UNL     1      35.130  17.667  25.513  1.00  0.00     0.210 HD
ENDBRANCH  10  11
ENDBRANCH   2  10
TORSDOF 5
ENDMDL
MODEL 4
REMARK VINA RESULT:    -4.574     11.577     14.269
REMARK INTER + INTRA:          -5.993
REMARK INTER:                  -5.666
REMARK INTRA:                  -0.327
REMARK UNBOUND:                -0.215
REMARK SMILES CC(C)=CCCC(C)=CCO
REMARK SMILES IDX 7 1 9 2 8 3 6 4 5 5 4 6 1 7 2 8 3 9 10 10 11 11
REMARK H PARENT 11 12
REMARK Flexibility Score: inf
ROOT
ATOM      1  C   UNL     1      33.339  22.943  34.052  1.00  0.00    -0.075 C 
ATOM      2  C   UNL     1      34.282  22.352  34.823  1.00  0.00    -0.000 C 
ATOM      3  C   UNL     1      32.782  24.271  34.502  1.00  0.00     0.039 C 
ENDROOT
BRANCH   1   4
ATOM      4  C   UNL     1      32.828  22.338  32.757  1.00  0.00     0.034 C 
BRANCH   4   5
ATOM      5  C   UNL     1      32.918  23.324  31.581  1.00  0.00     0.032 C 
BRANCH   5   6
ATOM      6  C   UNL     1      34.131  23.070  30.719  1.00  0.00    -0.028 C 
ATOM      7  C   UNL     1      33.513  24.822  29.038  1.00  0.00     0.039 C 
ATOM      8  C   UNL     1      34.427  23.754  29.592  1.00  0.00    -0.080 C 
ATOM      9  C   UNL     1      35.702  23.416  28.862  1.00  0.00     0.039 C 
ENDBRANCH   5   6
ENDBRANCH   4   5
ENDBRANCH   1   4
BRANCH   2  10
ATOM     10  C   UNL     1      34.894  21.005  34.550  1.00  0.00     0.183 C 
BRANCH  10  11
ATOM     11  O   UNL     1      35.997  21.139  33.698  1.00  0.00    -0.392 OA
ATOM     12  H   UNL     1      36.464  21.967  33.982  1.00  0.00     0.210 HD
ENDBRANCH  10  11
ENDBRANCH   2  10
TORSDOF 5
ENDMDL
MODEL 5
REMARK VINA RESULT:    -4.550     10.973     12.794
REMARK INTER + INTRA:          -5.962
REMARK INTER:                  -5.608
REMARK INTRA:                  -0.354
REMARK UNBOUND:                -0.215
REMARK SMILES CC(C)=CCCC(C)=CCO
REMARK SMILES IDX 7 1 9 2 8 3 6 4 5 5 4 6 1 7 2 8 3 9 10 10 11 11
REMARK H PARENT 11 12
REMARK Flexibility Score: inf
ROOT
ATOM      1  C   UNL     1      33.920  23.859  29.907  1.00  0.00    -0.075 C 
ATOM      2  C   UNL     1      34.847  24.120  28.957  1.00  0.00    -0.000 C 
ATOM      3  C   UNL     1      32.733  24.783  30.016  1.00  0.00     0.039 C 
ENDROOT
BRANCH   1   4
ATOM      4  C   UNL     1      34.015  22.678  30.857  1.00  0.00     0.034 C 
BRANCH   4   5
ATOM      5  C   UNL     1      33.100  22.843  32.081  1.00  0.00     0.032 C 
BRANCH   5   6
ATOM      6  C   UNL     1      32.203  21.646  32.285  1.00  0.00    -0.028 C 
ATOM      7  C   UNL     1      30.286  23.015  33.138  1.00  0.00     0.039 C 
ATOM      8  C   UNL     1      30.929  21.710  32.730  1.00  0.00    -0.080 C 
ATOM      9  C   UNL     1      30.142  20.428  32.837  1.00  0.00     0.039 C 
ENDBRANCH   5   6
ENDBRANCH   4   5
ENDBRANCH   1   4
BRANCH   2  10
ATOM     10  C   UNL     1      36.115  23.335  28.756  1.00  0.00     0.183 C 
BRANCH  10  11
ATOM     11  O   UNL     1      36.073  22.654  27.533  1.00  0.00    -0.392 OA
ATOM     12  H   UNL     1      35.847  23.335  26.847  1.00  0.00     0.210 HD
ENDBRANCH  10  11
ENDBRANCH   2  10
TORSDOF 5
ENDMDL
MODEL 6
REMARK VINA RESULT:    -4.504     12.034     13.235
REMARK INTER + INTRA:          -5.904
REMARK INTER:                  -5.452
REMARK INTRA:                  -0.452
REMARK UNBOUND:                -0.215
REMARK SMILES CC(C)=CCCC(C)=CCO
REMARK SMILES IDX 7 1 9 2 8 3 6 4 5 5 4 6 1 7 2 8 3 9 10 10 11 11
REMARK H PARENT 11 12
REMARK Flexibility Score: inf
ROOT
ATOM      1  C   UNL     1      29.928  20.104  32.654  1.00  0.00    -0.075 C 
ATOM      2  C   UNL     1      28.923  19.198  32.620  1.00  0.00    -0.000 C 
ATOM      3  C   UNL     1      29.582  21.540  32.958  1.00  0.00     0.039 C 
ENDROOT
BRANCH   1   4
ATOM      4  C   UNL     1      31.382  19.738  32.411  1.00  0.00     0.034 C 
BRANCH   4   5
ATOM      5  C   UNL     1      32.346  20.807  32.952  1.00  0.00     0.032 C 
BRANCH   5   6
ATOM      6  C   UNL     1      33.260  21.342  31.876  1.00  0.00    -0.028 C 
ATOM      7  C   UNL     1      32.489  23.709  32.163  1.00  0.00     0.039 C 
ATOM      8  C   UNL     1      33.357  22.646  31.532  1.00  0.00    -0.080 C 
ATOM      9  C   UNL     1      34.353  23.034  30.469  1.00  0.00     0.039 C 
ENDBRANCH   5   6
ENDBRANCH   4   5
ENDBRANCH   1   4
BRANCH   2  10
ATOM     10  C   UNL     1      29.088  17.743  32.275  1.00  0.00     0.183 C 
BRANCH  10  11
ATOM     11  O   UNL     1      28.515  17.475  31.026  1.00  0.00    -0.392 OA
ATOM     12  H   UNL     1      27.857  16.748  31.176  1.00  0.00     0.210 HD
ENDBRANCH  10  11
ENDBRANCH   2  10
TORSDOF 5
ENDMDL
MODEL 7
REMARK VINA RESULT:    -4.462     11.284     13.206
REMARK INTER + INTRA:          -5.851
REMARK INTER:                  -5.427
REMARK INTRA:                  -0.424
REMARK UNBOUND:                -0.215
REMARK SMILES CC(C)=CCCC(C)=CCO
REMARK SMILES IDX 7 1 9 2 8 3 6 4 5 5 4 6 1 7 2 8 3 9 10 10 11 11
REMARK H PARENT 11 12
REMARK Flexibility Score: inf
ROOT
ATOM      1  C   UNL     1      34.327  23.788  29.620  1.00  0.00    -0.075 C 
ATOM      2  C   UNL     1      35.397  23.895  28.797  1.00  0.00    -0.000 C 
ATOM      3  C   UNL     1      33.138  24.679  29.360  1.00  0.00     0.039 C 
ENDROOT
BRANCH   1   4
ATOM      4  C   UNL     1      34.268  22.810  30.779  1.00  0.00     0.034 C 
BRANCH   4   5
ATOM      5  C   UNL     1      32.910  22.848  31.500  1.00  0.00     0.032 C 
BRANCH   5   6
ATOM      6  C   UNL     1      33.003  23.519  32.849  1.00  0.00    -0.028 C 
ATOM      7  C   UNL     1      31.133  25.117  32.371  1.00  0.00     0.039 C 
ATOM      8  C   UNL     1      32.193  24.518  33.266  1.00  0.00    -0.080 C 
ATOM      9  C   UNL     1      32.378  25.056  34.662  1.00  0.00     0.039 C 
ENDBRANCH   5   6
ENDBRANCH   4   5
ENDBRANCH   1   4
BRANCH   2  10
ATOM     10  C   UNL     1      36.681  23.126  28.954  1.00  0.00     0.183 C 
BRANCH  10  11
ATOM     11  O   UNL     1      37.767  23.911  28.547  1.00  0.00    -0.392 OA
ATOM     12  H   UNL     1      38.113  24.347  29.369  1.00  0.00     0.210 HD
ENDBRANCH  10  11
ENDBRANCH   2  10
TORSDOF 5
ENDMDL
MODEL 8
REMARK VINA RESULT:    -4.445     11.641     13.383
REMARK INTER + INTRA:          -5.830
REMARK INTER:                  -5.359
REMARK INTRA:                  -0.471
REMARK UNBOUND:                -0.215
REMARK SMILES CC(C)=CCCC(C)=CCO
REMARK SMILES IDX 7 1 9 2 8 3 6 4 5 5 4 6 1 7 2 8 3 9 10 10 11 11
REMARK H PARENT 11 12
REMARK Flexibility Score: inf
ROOT
ATOM      1  C   UNL     1      33.188  23.627  30.908  1.00  0.00    -0.075 C 
ATOM      2  C   UNL     1      33.492  24.144  29.695  1.00  0.00    -0.000 C 
ATOM      3  C   UNL     1      33.934  22.398  31.365  1.00  0.00     0.039 C 
ENDROOT
BRANCH   1   4
ATOM      4  C   UNL     1      32.142  24.231  31.829  1.00  0.00     0.034 C 
BRANCH   4   5
ATOM      5  C   UNL     1      31.872  23.347  33.057  1.00  0.00     0.032 C 
BRANCH   5   6
ATOM      6  C   UNL     1      30.448  22.846  33.095  1.00  0.00    -0.028 C 
ATOM      7  C   UNL     1      31.091  20.475  32.601  1.00  0.00     0.039 C 
ATOM      8  C   UNL     1      30.085  21.556  32.921  1.00  0.00    -0.080 C 
ATOM      9  C   UNL     1      28.624  21.201  33.034  1.00  0.00     0.039 C 
ENDBRANCH   5   6
ENDBRANCH   4   5
ENDBRANCH   1   4
BRANCH   2  10
ATOM     10  C   UNL     1      32.802  25.325  29.068  1.00  0.00     0.183 C 
BRANCH  10  11
ATOM     11  O   UNL     1      32.362  24.999  27.779  1.00  0.00    -0.392 OA
ATOM     12  H   UNL     1      33.062  25.330  27.158  1.00  0.00     0.210 HD
ENDBRANCH  10  11
ENDBRANCH   2  10
TORSDOF 5
ENDMDL
MODEL 9
REMARK VINA RESULT:    -4.417     12.557     14.011
REMARK INTER + INTRA:          -5.794
REMARK INTER:                  -5.482
REMARK INTRA:                  -0.312
REMARK UNBOUND:                -0.215
REMARK SMILES CC(C)=CCCC(C)=CCO
REMARK SMILES IDX 7 1 9 2 8 3 6 4 5 5 4 6 1 7 2 8 3 9 10 10 11 11
REMARK H PARENT 11 12
REMARK Flexibility Score: inf
ROOT
ATOM      1  C   UNL     1      32.144  23.885  32.254  1.00  0.00    -0.075 C 
ATOM      2  C   UNL     1      33.059  23.618  31.293  1.00  0.00    -0.000 C 
ATOM      3  C   UNL     1      31.446  25.221  32.220  1.00  0.00     0.039 C 
ENDROOT
BRANCH   1   4
ATOM      4  C   UNL     1      31.782  22.900  33.351  1.00  0.00     0.034 C 
BRANCH   4   5
ATOM      5  C   UNL     1      30.501  22.114  33.026  1.00  0.00     0.032 C 
BRANCH   5   6
ATOM      6  C   UNL     1      30.792  20.678  32.666  1.00  0.00    -0.028 C 
ATOM      7  C   UNL     1      28.397  19.968  32.856  1.00  0.00     0.039 C 
ATOM      8  C   UNL     1      29.855  19.710  32.556  1.00  0.00    -0.080 C 
ATOM      9  C   UNL     1      30.295  18.329  32.140  1.00  0.00     0.039 C 
ENDBRANCH   5   6
ENDBRANCH   4   5
ENDBRANCH   1   4
BRANCH   2  10
ATOM     10  C   UNL     1      33.884  22.361  31.218  1.00  0.00     0.183 C 
BRANCH  10  11
ATOM     11  O   UNL     1      34.950  22.537  30.328  1.00  0.00    -0.392 OA
ATOM     12  H   UNL     1      35.746  22.146  30.772  1.00  0.00     0.210 HD
ENDBRANCH  10  11
ENDBRANCH   2  10
TORSDOF 5
ENDMDL
