MODEL 1
REMARK VINA RESULT:    -3.548      0.000      0.000
REMARK INTER + INTRA:         -14.724
REMARK INTER:                  -9.355
REMARK INTRA:                  -5.369
REMARK UNBOUND:                -5.369
REMARK SMILES CCCCCCCCCCCCCCCCCCCCCCCCCCCCCC(=O)[O-]
REMARK SMILES IDX 16 1 17 2 18 3 19 4 20 5 21 6 22 7 23 8 24 9 25 10 26 11
REMARK SMILES IDX 27 12 28 13 29 14 30 15 31 16 32 17 15 18 14 19 13 20 12 21
REMARK SMILES IDX 11 22 10 23 9 24 8 25 7 26 6 27 5 28 4 29 3 30 2 31 1 32
REMARK H PARENT
REMARK Flexibility Score: inf
ROOT
ATOM      1  C   UNL     1      50.075  30.375  86.502  1.00  0.00     0.000 C 
ENDROOT
BRANCH   1   2
ATOM      2  C   UNL     1      48.893  31.176  87.068  1.00  0.00     0.000 C 
BRANCH   2   3
ATOM      3  C   UNL     1      48.634  32.437  86.230  1.00  0.00     0.000 C 
BRANCH   3   4
ATOM      4  C   UNL     1      48.664  33.730  87.064  1.00  0.00     0.000 C 
BRANCH   4   5
ATOM      5  C   UNL     1      49.254  34.958  86.348  1.00  0.00     0.000 C 
BRANCH   5   6
ATOM      6  C   UNL     1      50.485  35.535  87.065  1.00  0.00     0.000 C 
BRANCH   6   7
ATOM      7  C   UNL     1      51.694  34.580  87.045  1.00  0.00     0.000 C 
BRANCH   7   8
ATOM      8  C   UNL     1      52.905  35.070  86.230  1.00  0.00     0.000 C 
BRANCH   8   9
ATOM      9  C   UNL     1      53.143  34.329  84.901  1.00  0.00     0.000 C 
BRANCH   9  10
ATOM     10  C   UNL     1      52.361  33.003  84.778  1.00  0.00     0.000 C 
BRANCH  10  11
ATOM     11  C   UNL     1      51.234  33.076  83.733  1.00  0.00     0.000 C 
BRANCH  11  12
ATOM     12  C   UNL     1      51.225  34.403  82.953  1.00  0.00     0.000 C 
BRANCH  12  13
ATOM     13  C   UNL     1      49.891  34.744  82.266  1.00  0.00     0.006 C 
BRANCH  13  14
ATOM     14  C   UNL     1      48.692  34.020  82.894  1.00  0.00     0.053 C 
BRANCH  14  15
ATOM     15  C   UNL     1      48.044  33.118  81.892  1.00  0.00     0.041 C 
ATOM     16  O   UNL     1      47.038  32.433  82.214  1.00  0.00    -0.550 OA
ATOM     17  O   UNL     1      48.583  32.993  80.618  1.00  0.00    -0.550 OA
ENDBRANCH  14  15
ENDBRANCH  13  14
ENDBRANCH  12  13
ENDBRANCH  11  12
ENDBRANCH  10  11
ENDBRANCH   9  10
ENDBRANCH   8   9
ENDBRANCH   7   8
ENDBRANCH   6   7
ENDBRANCH   5   6
ENDBRANCH   4   5
ENDBRANCH   3   4
ENDBRANCH   2   3
ENDBRANCH   1   2
BRANCH   1  18
ATOM     18  C   UNL     1      51.374  30.575  87.306  1.00  0.00     0.000 C 
BRANCH  18  19
ATOM     19  C   UNL     1      51.198  31.267  88.673  1.00  0.00     0.000 C 
BRANCH  19  20
ATOM     20  C   UNL     1      51.944  30.598  89.842  1.00  0.00     0.000 C 
BRANCH  20  21
ATOM     21  C   UNL     1      51.430  29.184  90.149  1.00  0.00     0.000 C 
BRANCH  21  22
ATOM     22  C   UNL     1      50.067  29.239  90.856  1.00  0.00     0.000 C 
BRANCH  22  23
ATOM     23  C   UNL     1      48.941  28.576  90.042  1.00  0.00     0.000 C 
BRANCH  23  24
ATOM     24  C   UNL     1      47.609  29.350  90.017  1.00  0.00    -0.000 C 
BRANCH  24  25
ATOM     25  C   UNL     1      47.778  30.840  90.356  1.00  0.00    -0.000 C 
BRANCH  25  26
ATOM     26  C   UNL     1      46.488  31.654  90.143  1.00  0.00    -0.000 C 
BRANCH  26  27
ATOM     27  C   UNL     1      45.629  31.233  88.932  1.00  0.00    -0.000 C 
BRANCH  27  28
ATOM     28  C   UNL     1      44.105  31.299  89.145  1.00  0.00    -0.000 C 
BRANCH  28  29
ATOM     29  C   UNL     1      43.466  29.913  89.330  1.00  0.00    -0.000 C 
BRANCH  29  30
ATOM     30  C   UNL     1      42.791  29.748  90.701  1.00  0.00    -0.000 C 
BRANCH  30  31
ATOM     31  C   UNL     1      43.665  30.219  91.884  1.00  0.00    -0.003 C 
ATOM     32  C   UNL     1      44.640  29.139  92.353  1.00  0.00     0.004 C 
ENDBRANCH  30  31
ENDBRANCH  29  30
ENDBRANCH  28  29
ENDBRANCH  27  28
ENDBRANCH  26  27
ENDBRANCH  25  26
ENDBRANCH  24  25
ENDBRANCH  23  24
ENDBRANCH  22  23
ENDBRANCH  21  22
ENDBRANCH  20  21
ENDBRANCH  19  20
ENDBRANCH  18  19
ENDBRANCH   1  18
TORSDOF 28
ENDMDL
MODEL 2
REMARK VINA RESULT:    -3.493     14.229     16.708
REMARK INTER + INTRA:         -14.579
REMARK INTER:                  -8.865
REMARK INTRA:                  -5.714
REMARK UNBOUND:                -5.369
REMARK SMILES CCCCCCCCCCCCCCCCCCCCCCCCCCCCCC(=O)[O-]
REMARK SMILES IDX 16 1 17 2 18 3 19 4 20 5 21 6 22 7 23 8 24 9 25 10 26 11
REMARK SMILES IDX 27 12 28 13 29 14 30 15 31 16 32 17 15 18 14 19 13 20 12 21
REMARK SMILES IDX 11 22 10 23 9 24 8 25 7 26 6 27 5 28 4 29 3 30 2 31 1 32
REMARK H PARENT
REMARK Flexibility Score: inf
ROOT
ATOM      1  C   UNL     1      45.221  22.813  75.539  1.00  0.00     0.000 C 
ENDROOT
BRANCH   1   2
ATOM      2  C   UNL     1      46.756  22.797  75.553  1.00  0.00     0.000 C 
BRANCH   2   3
ATOM      3  C   UNL     1      47.320  23.021  74.141  1.00  0.00     0.000 C 
BRANCH   3   4
ATOM      4  C   UNL     1      47.401  21.726  73.314  1.00  0.00     0.000 C 
BRANCH   4   5
ATOM      5  C   UNL     1      47.615  20.439  74.132  1.00  0.00     0.000 C 
BRANCH   5   6
ATOM      6  C   UNL     1      46.414  19.482  74.065  1.00  0.00     0.000 C 
BRANCH   6   7
ATOM      7  C   UNL     1      46.289  18.586  75.312  1.00  0.00     0.000 C 
BRANCH   7   8
ATOM      8  C   UNL     1      45.645  19.256  76.540  1.00  0.00     0.000 C 
BRANCH   8   9
ATOM      9  C   UNL     1      46.532  19.309  77.798  1.00  0.00     0.000 C 
BRANCH   9  10
ATOM     10  C   UNL     1      46.563  20.695  78.479  1.00  0.00     0.000 C 
BRANCH  10  11
ATOM     11  C   UNL     1      47.994  21.220  78.687  1.00  0.00     0.000 C 
BRANCH  11  12
ATOM     12  C   UNL     1      48.980  20.710  77.620  1.00  0.00     0.000 C 
BRANCH  12  13
ATOM     13  C   UNL     1      50.213  21.603  77.396  1.00  0.00     0.006 C 
BRANCH  13  14
ATOM     14  C   UNL     1      50.390  22.025  75.931  1.00  0.00     0.053 C 
BRANCH  14  15
ATOM     15  C   UNL     1      51.820  22.363  75.655  1.00  0.00     0.041 C 
ATOM     16  O   UNL     1      52.113  23.182  74.744  1.00  0.00    -0.550 OA
ATOM     17  O   UNL     1      52.834  21.734  76.367  1.00  0.00    -0.550 OA
ENDBRANCH  14  15
ENDBRANCH  13  14
ENDBRANCH  12  13
ENDBRANCH  11  12
ENDBRANCH  10  11
ENDBRANCH   9  10
ENDBRANCH   8   9
ENDBRANCH   7   8
ENDBRANCH   6   7
ENDBRANCH   5   6
ENDBRANCH   4   5
ENDBRANCH   3   4
ENDBRANCH   2   3
ENDBRANCH   1   2
BRANCH   1  18
ATOM     18  C   UNL     1      44.641  23.986  74.726  1.00  0.00     0.000 C 
BRANCH  18  19
ATOM     19  C   UNL     1      43.678  23.583  73.591  1.00  0.00     0.000 C 
BRANCH  19  20
ATOM     20  C   UNL     1      43.877  22.159  73.041  1.00  0.00     0.000 C 
BRANCH  20  21
ATOM     21  C   UNL     1      42.691  21.230  73.341  1.00  0.00     0.000 C 
BRANCH  21  22
ATOM     22  C   UNL     1      41.359  21.976  73.175  1.00  0.00     0.000 C 
BRANCH  22  23
ATOM     23  C   UNL     1      40.459  21.883  74.421  1.00  0.00     0.000 C 
BRANCH  23  24
ATOM     24  C   UNL     1      40.442  23.140  75.311  1.00  0.00    -0.000 C 
BRANCH  24  25
ATOM     25  C   UNL     1      41.289  22.982  76.584  1.00  0.00    -0.000 C 
BRANCH  25  26
ATOM     26  C   UNL     1      41.665  21.517  76.877  1.00  0.00    -0.000 C 
BRANCH  26  27
ATOM     27  C   UNL     1      42.802  21.316  77.901  1.00  0.00    -0.000 C 
BRANCH  27  28
ATOM     28  C   UNL     1      42.628  20.122  78.858  1.00  0.00    -0.000 C 
BRANCH  28  29
ATOM     29  C   UNL     1      41.555  20.366  79.932  1.00  0.00    -0.000 C 
BRANCH  29  30
ATOM     30  C   UNL     1      40.175  19.826  79.526  1.00  0.00    -0.000 C 
BRANCH  30  31
ATOM     31  C   UNL     1      39.032  20.849  79.696  1.00  0.00    -0.003 C 
ATOM     32  C   UNL     1      39.552  22.276  79.878  1.00  0.00     0.004 C 
ENDBRANCH  30  31
ENDBRANCH  29  30
ENDBRANCH  28  29
ENDBRANCH  27  28
ENDBRANCH  26  27
ENDBRANCH  25  26
ENDBRANCH  24  25
ENDBRANCH  23  24
ENDBRANCH  22  23
ENDBRANCH  21  22
ENDBRANCH  20  21
ENDBRANCH  19  20
ENDBRANCH  18  19
ENDBRANCH   1  18
TORSDOF 28
ENDMDL
MODEL 3
REMARK VINA RESULT:    -3.414      2.856      8.235
REMARK INTER + INTRA:         -14.372
REMARK INTER:                  -8.359
REMARK INTRA:                  -6.014
REMARK UNBOUND:                -5.369
REMARK SMILES CCCCCCCCCCCCCCCCCCCCCCCCCCCCCC(=O)[O-]
REMARK SMILES IDX 16 1 17 2 18 3 19 4 20 5 21 6 22 7 23 8 24 9 25 10 26 11
REMARK SMILES IDX 27 12 28 13 29 14 30 15 31 16 32 17 15 18 14 19 13 20 12 21
REMARK SMILES IDX 11 22 10 23 9 24 8 25 7 26 6 27 5 28 4 29 3 30 2 31 1 32
REMARK H PARENT
REMARK Flexibility Score: inf
ROOT
ATOM      1  C   UNL     1      46.557  28.436  86.996  1.00  0.00     0.000 C 
ENDROOT
BRANCH   1   2
ATOM      2  C   UNL     1      45.272  28.234  87.812  1.00  0.00     0.000 C 
BRANCH   2   3
ATOM      3  C   UNL     1      45.572  27.531  89.144  1.00  0.00     0.000 C 
BRANCH   3   4
ATOM      4  C   UNL     1      47.065  27.565  89.518  1.00  0.00     0.000 C 
BRANCH   4   5
ATOM      5  C   UNL     1      47.438  28.561  90.632  1.00  0.00     0.000 C 
BRANCH   5   6
ATOM      6  C   UNL     1      48.602  29.486  90.240  1.00  0.00     0.000 C 
BRANCH   6   7
ATOM      7  C   UNL     1      48.155  30.937  89.979  1.00  0.00     0.000 C 
BRANCH   7   8
ATOM      8  C   UNL     1      46.724  31.276  90.437  1.00  0.00     0.000 C 
BRANCH   8   9
ATOM      9  C   UNL     1      45.740  31.628  89.305  1.00  0.00     0.000 C 
BRANCH   9  10
ATOM     10  C   UNL     1      44.272  31.272  89.625  1.00  0.00     0.000 C 
BRANCH  10  11
ATOM     11  C   UNL     1      44.126  30.494  90.944  1.00  0.00     0.000 C 
BRANCH  11  12
ATOM     12  C   UNL     1      43.058  29.388  90.872  1.00  0.00     0.000 C 
BRANCH  12  13
ATOM     13  C   UNL     1      41.667  29.856  90.411  1.00  0.00     0.006 C 
BRANCH  13  14
ATOM     14  C   UNL     1      41.252  29.262  89.058  1.00  0.00     0.053 C 
BRANCH  14  15
ATOM     15  C   UNL     1      40.535  30.285  88.237  1.00  0.00     0.041 C 
ATOM     16  O   UNL     1      39.299  30.174  88.025  1.00  0.00    -0.550 OA
ATOM     17  O   UNL     1      41.240  31.334  87.661  1.00  0.00    -0.550 OA
ENDBRANCH  14  15
ENDBRANCH  13  14
ENDBRANCH  12  13
ENDBRANCH  11  12
ENDBRANCH  10  11
ENDBRANCH   9  10
ENDBRANCH   8   9
ENDBRANCH   7   8
ENDBRANCH   6   7
ENDBRANCH   5   6
ENDBRANCH   4   5
ENDBRANCH   3   4
ENDBRANCH   2   3
ENDBRANCH   1   2
BRANCH   1  18
ATOM     18  C   UNL     1      46.567  29.761  86.212  1.00  0.00     0.000 C 
BRANCH  18  19
ATOM     19  C   UNL     1      47.826  30.630  86.410  1.00  0.00     0.000 C 
BRANCH  19  20
ATOM     20  C   UNL     1      48.331  31.344  85.143  1.00  0.00     0.000 C 
BRANCH  20  21
ATOM     21  C   UNL     1      48.915  32.735  85.433  1.00  0.00     0.000 C 
BRANCH  21  22
ATOM     22  C   UNL     1      48.614  33.163  86.877  1.00  0.00     0.000 C 
BRANCH  22  23
ATOM     23  C   UNL     1      49.347  34.454  87.286  1.00  0.00     0.000 C 
BRANCH  23  24
ATOM     24  C   UNL     1      50.396  34.958  86.277  1.00  0.00    -0.000 C 
BRANCH  24  25
ATOM     25  C   UNL     1      51.715  35.378  86.946  1.00  0.00    -0.000 C 
BRANCH  25  26
ATOM     26  C   UNL     1      52.927  34.570  86.446  1.00  0.00    -0.000 C 
BRANCH  26  27
ATOM     27  C   UNL     1      52.591  33.233  85.752  1.00  0.00    -0.000 C 
BRANCH  27  28
ATOM     28  C   UNL     1      52.963  31.964  86.542  1.00  0.00    -0.000 C 
BRANCH  28  29
ATOM     29  C   UNL     1      51.755  31.054  86.815  1.00  0.00    -0.000 C 
BRANCH  29  30
ATOM     30  C   UNL     1      51.408  30.959  88.310  1.00  0.00    -0.000 C 
BRANCH  30  31
ATOM     31  C   UNL     1      51.917  32.155  89.142  1.00  0.00    -0.003 C 
ATOM     32  C   UNL     1      51.678  31.964  90.641  1.00  0.00     0.004 C 
ENDBRANCH  30  31
ENDBRANCH  29  30
ENDBRANCH  28  29
ENDBRANCH  27  28
ENDBRANCH  26  27
ENDBRANCH  25  26
ENDBRANCH  24  25
ENDBRANCH  23  24
ENDBRANCH  22  23
ENDBRANCH  21  22
ENDBRANCH  20  21
ENDBRANCH  19  20
ENDBRANCH  18  19
ENDBRANCH   1  18
TORSDOF 28
ENDMDL
MODEL 4
REMARK VINA RESULT:    -3.397      4.735      8.622
REMARK INTER + INTRA:         -14.326
REMARK INTER:                  -7.930
REMARK INTRA:                  -6.396
REMARK UNBOUND:                -5.369
REMARK SMILES CCCCCCCCCCCCCCCCCCCCCCCCCCCCCC(=O)[O-]
REMARK SMILES IDX 16 1 17 2 18 3 19 4 20 5 21 6 22 7 23 8 24 9 25 10 26 11
REMARK SMILES IDX 27 12 28 13 29 14 30 15 31 16 32 17 15 18 14 19 13 20 12 21
REMARK SMILES IDX 11 22 10 23 9 24 8 25 7 26 6 27 5 28 4 29 3 30 2 31 1 32
REMARK H PARENT
REMARK Flexibility Score: inf
ROOT
ATOM      1  C   UNL     1      43.124  30.107  89.036  1.00  0.00     0.000 C 
ENDROOT
BRANCH   1   2
ATOM      2  C   UNL     1      43.652  30.603  90.390  1.00  0.00     0.000 C 
BRANCH   2   3
ATOM      3  C   UNL     1      43.012  29.823  91.548  1.00  0.00     0.000 C 
BRANCH   3   4
ATOM      4  C   UNL     1      44.040  29.053  92.395  1.00  0.00     0.000 C 
BRANCH   4   5
ATOM      5  C   UNL     1      45.468  29.021  91.821  1.00  0.00     0.000 C 
BRANCH   5   6
ATOM      6  C   UNL     1      45.883  27.625  91.328  1.00  0.00     0.000 C 
BRANCH   6   7
ATOM      7  C   UNL     1      46.739  27.669  90.048  1.00  0.00     0.000 C 
BRANCH   7   8
ATOM      8  C   UNL     1      45.959  27.920  88.745  1.00  0.00     0.000 C 
BRANCH   8   9
ATOM      9  C   UNL     1      46.754  28.628  87.631  1.00  0.00     0.000 C 
BRANCH   9  10
ATOM     10  C   UNL     1      46.227  30.040  87.291  1.00  0.00     0.000 C 
BRANCH  10  11
ATOM     11  C   UNL     1      47.192  31.153  87.733  1.00  0.00     0.000 C 
BRANCH  11  12
ATOM     12  C   UNL     1      46.888  31.686  89.145  1.00  0.00     0.000 C 
BRANCH  12  13
ATOM     13  C   UNL     1      47.846  31.196  90.245  1.00  0.00     0.006 C 
BRANCH  13  14
ATOM     14  C   UNL     1      49.142  30.593  89.687  1.00  0.00     0.053 C 
BRANCH  14  15
ATOM     15  C   UNL     1      50.175  30.490  90.763  1.00  0.00     0.041 C 
ATOM     16  O   UNL     1      50.489  31.505  91.439  1.00  0.00    -0.550 OA
ATOM     17  O   UNL     1      50.831  29.286  90.985  1.00  0.00    -0.550 OA
ENDBRANCH  14  15
ENDBRANCH  13  14
ENDBRANCH  12  13
ENDBRANCH  11  12
ENDBRANCH  10  11
ENDBRANCH   9  10
ENDBRANCH   8   9
ENDBRANCH   7   8
ENDBRANCH   6   7
ENDBRANCH   5   6
ENDBRANCH   4   5
ENDBRANCH   3   4
ENDBRANCH   2   3
ENDBRANCH   1   2
BRANCH   1  18
ATOM     18  C   UNL     1      42.674  31.254  88.111  1.00  0.00     0.000 C 
BRANCH  18  19
ATOM     19  C   UNL     1      41.193  31.209  87.683  1.00  0.00     0.000 C 
BRANCH  19  20
ATOM     20  C   UNL     1      40.269  30.405  88.616  1.00  0.00     0.000 C 
BRANCH  20  21
ATOM     21  C   UNL     1      39.408  29.379  87.865  1.00  0.00     0.000 C 
BRANCH  21  22
ATOM     22  C   UNL     1      39.306  28.068  88.658  1.00  0.00     0.000 C 
BRANCH  22  23
ATOM     23  C   UNL     1      40.330  27.978  89.804  1.00  0.00     0.000 C 
BRANCH  23  24
ATOM     24  C   UNL     1      41.420  26.904  89.625  1.00  0.00    -0.000 C 
BRANCH  24  25
ATOM     25  C   UNL     1      41.520  26.390  88.179  1.00  0.00    -0.000 C 
BRANCH  25  26
ATOM     26  C   UNL     1      42.616  27.100  87.363  1.00  0.00    -0.000 C 
BRANCH  26  27
ATOM     27  C   UNL     1      42.170  27.655  85.994  1.00  0.00    -0.000 C 
BRANCH  27  28
ATOM     28  C   UNL     1      42.982  28.854  85.468  1.00  0.00    -0.000 C 
BRANCH  28  29
ATOM     29  C   UNL     1      43.831  28.508  84.235  1.00  0.00    -0.000 C 
BRANCH  29  30
ATOM     30  C   UNL     1      45.077  27.679  84.586  1.00  0.00    -0.000 C 
BRANCH  30  31
ATOM     31  C   UNL     1      45.064  26.255  83.991  1.00  0.00    -0.003 C 
ATOM     32  C   UNL     1      44.857  25.180  85.060  1.00  0.00     0.004 C 
ENDBRANCH  30  31
ENDBRANCH  29  30
ENDBRANCH  28  29
ENDBRANCH  27  28
ENDBRANCH  26  27
ENDBRANCH  25  26
ENDBRANCH  24  25
ENDBRANCH  23  24
ENDBRANCH  22  23
ENDBRANCH  21  22
ENDBRANCH  20  21
ENDBRANCH  19  20
ENDBRANCH  18  19
ENDBRANCH   1  18
TORSDOF 28
ENDMDL
MODEL 5
REMARK VINA RESULT:    -3.383      1.979      5.811
REMARK INTER + INTRA:         -14.289
REMARK INTER:                  -9.060
REMARK INTRA:                  -5.229
REMARK UNBOUND:                -5.369
REMARK SMILES CCCCCCCCCCCCCCCCCCCCCCCCCCCCCC(=O)[O-]
REMARK SMILES IDX 16 1 17 2 18 3 19 4 20 5 21 6 22 7 23 8 24 9 25 10 26 11
REMARK SMILES IDX 27 12 28 13 29 14 30 15 31 16 32 17 15 18 14 19 13 20 12 21
REMARK SMILES IDX 11 22 10 23 9 24 8 25 7 26 6 27 5 28 4 29 3 30 2 31 1 32
REMARK H PARENT
REMARK Flexibility Score: inf
ROOT
ATOM      1  C   UNL     1      45.721  31.165  88.930  1.00  0.00     0.000 C 
ENDROOT
BRANCH   1   2
ATOM      2  C   UNL     1      46.465  31.494  90.232  1.00  0.00     0.000 C 
BRANCH   2   3
ATOM      3  C   UNL     1      47.945  31.092  90.135  1.00  0.00     0.000 C 
BRANCH   3   4
ATOM      4  C   UNL     1      48.192  29.951  89.133  1.00  0.00     0.000 C 
BRANCH   4   5
ATOM      5  C   UNL     1      49.322  28.978  89.515  1.00  0.00     0.000 C 
BRANCH   5   6
ATOM      6  C   UNL     1      50.673  29.352  88.882  1.00  0.00     0.000 C 
BRANCH   6   7
ATOM      7  C   UNL     1      51.818  29.427  89.910  1.00  0.00     0.000 C 
BRANCH   7   8
ATOM      8  C   UNL     1      52.294  30.850  90.259  1.00  0.00     0.000 C 
BRANCH   8   9
ATOM      9  C   UNL     1      51.471  31.990  89.630  1.00  0.00     0.000 C 
BRANCH   9  10
ATOM     10  C   UNL     1      52.247  32.810  88.576  1.00  0.00     0.000 C 
BRANCH  10  11
ATOM     11  C   UNL     1      51.325  33.421  87.507  1.00  0.00     0.000 C 
BRANCH  11  12
ATOM     12  C   UNL     1      49.963  32.709  87.412  1.00  0.00     0.000 C 
BRANCH  12  13
ATOM     13  C   UNL     1      48.965  33.345  86.429  1.00  0.00     0.006 C 
BRANCH  13  14
ATOM     14  C   UNL     1      49.438  34.701  85.887  1.00  0.00     0.053 C 
BRANCH  14  15
ATOM     15  C   UNL     1      49.737  34.603  84.425  1.00  0.00     0.041 C 
ATOM     16  O   UNL     1      50.876  34.233  84.035  1.00  0.00    -0.550 OA
ATOM     17  O   UNL     1      48.776  34.971  83.492  1.00  0.00    -0.550 OA
ENDBRANCH  14  15
ENDBRANCH  13  14
ENDBRANCH  12  13
ENDBRANCH  11  12
ENDBRANCH  10  11
ENDBRANCH   9  10
ENDBRANCH   8   9
ENDBRANCH   7   8
ENDBRANCH   6   7
ENDBRANCH   5   6
ENDBRANCH   4   5
ENDBRANCH   3   4
ENDBRANCH   2   3
ENDBRANCH   1   2
BRANCH   1  18
ATOM     18  C   UNL     1      44.214  31.476  89.007  1.00  0.00     0.000 C 
BRANCH  18  19
ATOM     19  C   UNL     1      43.326  30.652  88.052  1.00  0.00     0.000 C 
BRANCH  19  20
ATOM     20  C   UNL     1      41.912  31.217  87.827  1.00  0.00     0.000 C 
BRANCH  20  21
ATOM     21  C   UNL     1      40.804  30.202  88.147  1.00  0.00     0.000 C 
BRANCH  21  22
ATOM     22  C   UNL     1      40.767  29.892  89.650  1.00  0.00     0.000 C 
BRANCH  22  23
ATOM     23  C   UNL     1      41.216  28.456  89.979  1.00  0.00     0.000 C 
BRANCH  23  24
ATOM     24  C   UNL     1      42.282  28.342  91.085  1.00  0.00    -0.000 C 
BRANCH  24  25
ATOM     25  C   UNL     1      42.738  29.710  91.619  1.00  0.00    -0.000 C 
BRANCH  25  26
ATOM     26  C   UNL     1      44.124  29.661  92.290  1.00  0.00    -0.000 C 
BRANCH  26  27
ATOM     27  C   UNL     1      44.789  28.270  92.338  1.00  0.00    -0.000 C 
BRANCH  27  28
ATOM     28  C   UNL     1      46.107  28.137  91.552  1.00  0.00    -0.000 C 
BRANCH  28  29
ATOM     29  C   UNL     1      46.055  27.040  90.477  1.00  0.00    -0.000 C 
BRANCH  29  30
ATOM     30  C   UNL     1      45.409  27.522  89.168  1.00  0.00    -0.000 C 
BRANCH  30  31
ATOM     31  C   UNL     1      44.385  26.528  88.578  1.00  0.00    -0.003 C 
ATOM     32  C   UNL     1      43.552  27.149  87.456  1.00  0.00     0.004 C 
ENDBRANCH  30  31
ENDBRANCH  29  30
ENDBRANCH  28  29
ENDBRANCH  27  28
ENDBRANCH  26  27
ENDBRANCH  25  26
ENDBRANCH  24  25
ENDBRANCH  23  24
ENDBRANCH  22  23
ENDBRANCH  21  22
ENDBRANCH  20  21
ENDBRANCH  19  20
ENDBRANCH  18  19
ENDBRANCH   1  18
TORSDOF 28
ENDMDL
MODEL 6
REMARK VINA RESULT:    -3.376      2.888      5.537
REMARK INTER + INTRA:         -14.272
REMARK INTER:                  -9.680
REMARK INTRA:                  -4.591
REMARK UNBOUND:                -5.369
REMARK SMILES CCCCCCCCCCCCCCCCCCCCCCCCCCCCCC(=O)[O-]
REMARK SMILES IDX 16 1 17 2 18 3 19 4 20 5 21 6 22 7 23 8 24 9 25 10 26 11
REMARK SMILES IDX 27 12 28 13 29 14 30 15 31 16 32 17 15 18 14 19 13 20 12 21
REMARK SMILES IDX 11 22 10 23 9 24 8 25 7 26 6 27 5 28 4 29 3 30 2 31 1 32
REMARK H PARENT
REMARK Flexibility Score: inf
ROOT
ATOM      1  C   UNL     1      48.772  32.383  86.424  1.00  0.00     0.000 C 
ENDROOT
BRANCH   1   2
ATOM      2  C   UNL     1      48.713  33.782  87.055  1.00  0.00     0.000 C 
BRANCH   2   3
ATOM      3  C   UNL     1      49.099  34.862  86.034  1.00  0.00     0.000 C 
BRANCH   3   4
ATOM      4  C   UNL     1      49.392  34.289  84.635  1.00  0.00     0.000 C 
BRANCH   4   5
ATOM      5  C   UNL     1      50.798  34.590  84.085  1.00  0.00     0.000 C 
BRANCH   5   6
ATOM      6  C   UNL     1      51.758  33.397  84.215  1.00  0.00     0.000 C 
BRANCH   6   7
ATOM      7  C   UNL     1      52.945  33.680  85.155  1.00  0.00     0.000 C 
BRANCH   7   8
ATOM      8  C   UNL     1      52.795  34.927  86.046  1.00  0.00     0.000 C 
BRANCH   8   9
ATOM      9  C   UNL     1      52.492  34.641  87.529  1.00  0.00     0.000 C 
BRANCH   9  10
ATOM     10  C   UNL     1      52.247  33.148  87.837  1.00  0.00     0.000 C 
BRANCH  10  11
ATOM     11  C   UNL     1      52.946  32.690  89.130  1.00  0.00     0.000 C 
BRANCH  11  12
ATOM     12  C   UNL     1      51.975  32.058  90.144  1.00  0.00     0.000 C 
BRANCH  12  13
ATOM     13  C   UNL     1      50.698  31.456  89.533  1.00  0.00     0.006 C 
BRANCH  13  14
ATOM     14  C   UNL     1      49.777  30.814  90.579  1.00  0.00     0.053 C 
BRANCH  14  15
ATOM     15  C   UNL     1      49.676  29.340  90.351  1.00  0.00     0.041 C 
ATOM     16  O   UNL     1      49.184  28.897  89.280  1.00  0.00    -0.550 OA
ATOM     17  O   UNL     1      50.076  28.453  91.343  1.00  0.00    -0.550 OA
ENDBRANCH  14  15
ENDBRANCH  13  14
ENDBRANCH  12  13
ENDBRANCH  11  12
ENDBRANCH  10  11
ENDBRANCH   9  10
ENDBRANCH   8   9
ENDBRANCH   7   8
ENDBRANCH   6   7
ENDBRANCH   5   6
ENDBRANCH   4   5
ENDBRANCH   3   4
ENDBRANCH   2   3
ENDBRANCH   1   2
BRANCH   1  18
ATOM     18  C   UNL     1      47.844  31.371  87.122  1.00  0.00     0.000 C 
BRANCH  18  19
ATOM     19  C   UNL     1      47.114  31.905  88.372  1.00  0.00     0.000 C 
BRANCH  19  20
ATOM     20  C   UNL     1      46.227  30.877  89.097  1.00  0.00     0.000 C 
BRANCH  20  21
ATOM     21  C   UNL     1      45.754  31.361  90.476  1.00  0.00     0.000 C 
BRANCH  21  22
ATOM     22  C   UNL     1      44.316  30.901  90.752  1.00  0.00     0.000 C 
BRANCH  22  23
ATOM     23  C   UNL     1      44.052  29.452  90.303  1.00  0.00     0.000 C 
BRANCH  23  24
ATOM     24  C   UNL     1      43.587  28.496  91.418  1.00  0.00    -0.000 C 
BRANCH  24  25
ATOM     25  C   UNL     1      42.112  28.085  91.276  1.00  0.00    -0.000 C 
BRANCH  25  26
ATOM     26  C   UNL     1      41.689  27.863  89.812  1.00  0.00    -0.000 C 
BRANCH  26  27
ATOM     27  C   UNL     1      40.396  28.585  89.378  1.00  0.00    -0.000 C 
BRANCH  27  28
ATOM     28  C   UNL     1      40.409  30.118  89.533  1.00  0.00    -0.000 C 
BRANCH  28  29
ATOM     29  C   UNL     1      40.494  30.854  88.186  1.00  0.00    -0.000 C 
BRANCH  29  30
ATOM     30  C   UNL     1      41.943  31.064  87.716  1.00  0.00    -0.000 C 
BRANCH  30  31
ATOM     31  C   UNL     1      42.351  30.155  86.537  1.00  0.00    -0.003 C 
ATOM     32  C   UNL     1      43.683  29.446  86.784  1.00  0.00     0.004 C 
ENDBRANCH  30  31
ENDBRANCH  29  30
ENDBRANCH  28  29
ENDBRANCH  27  28
ENDBRANCH  26  27
ENDBRANCH  25  26
ENDBRANCH  24  25
ENDBRANCH  23  24
ENDBRANCH  22  23
ENDBRANCH  21  22
ENDBRANCH  20  21
ENDBRANCH  19  20
ENDBRANCH  18  19
ENDBRANCH   1  18
TORSDOF 28
ENDMDL
MODEL 7
REMARK VINA RESULT:    -3.366      3.366      8.544
REMARK INTER + INTRA:         -14.245
REMARK INTER:                  -7.990
REMARK INTRA:                  -6.255
REMARK UNBOUND:                -5.369
REMARK SMILES CCCCCCCCCCCCCCCCCCCCCCCCCCCCCC(=O)[O-]
REMARK SMILES IDX 16 1 17 2 18 3 19 4 20 5 21 6 22 7 23 8 24 9 25 10 26 11
REMARK SMILES IDX 27 12 28 13 29 14 30 15 31 16 32 17 15 18 14 19 13 20 12 21
REMARK SMILES IDX 11 22 10 23 9 24 8 25 7 26 6 27 5 28 4 29 3 30 2 31 1 32
REMARK H PARENT
REMARK Flexibility Score: inf
ROOT
ATOM      1  C   UNL     1      44.988  29.526  92.088  1.00  0.00     0.000 C 
ENDROOT
BRANCH   1   2
ATOM      2  C   UNL     1      44.013  28.363  91.857  1.00  0.00     0.000 C 
BRANCH   2   3
ATOM      3  C   UNL     1      42.610  28.883  91.508  1.00  0.00     0.000 C 
BRANCH   3   4
ATOM      4  C   UNL     1      41.760  27.852  90.745  1.00  0.00     0.000 C 
BRANCH   4   5
ATOM      5  C   UNL     1      40.589  28.439  89.937  1.00  0.00     0.000 C 
BRANCH   5   6
ATOM      6  C   UNL     1      40.726  29.952  89.698  1.00  0.00     0.000 C 
BRANCH   6   7
ATOM      7  C   UNL     1      40.387  30.365  88.254  1.00  0.00     0.000 C 
BRANCH   7   8
ATOM      8  C   UNL     1      41.523  31.069  87.488  1.00  0.00     0.000 C 
BRANCH   8   9
ATOM      9  C   UNL     1      42.878  31.112  88.220  1.00  0.00     0.000 C 
BRANCH   9  10
ATOM     10  C   UNL     1      43.983  30.280  87.533  1.00  0.00     0.000 C 
BRANCH  10  11
ATOM     11  C   UNL     1      44.087  28.854  88.101  1.00  0.00     0.000 C 
BRANCH  11  12
ATOM     12  C   UNL     1      43.755  27.768  87.062  1.00  0.00     0.000 C 
BRANCH  12  13
ATOM     13  C   UNL     1      42.692  26.748  87.505  1.00  0.00     0.006 C 
BRANCH  13  14
ATOM     14  C   UNL     1      41.770  26.307  86.361  1.00  0.00     0.053 C 
BRANCH  14  15
ATOM     15  C   UNL     1      40.602  27.233  86.245  1.00  0.00     0.041 C 
ATOM     16  O   UNL     1      39.550  27.011  86.901  1.00  0.00    -0.550 OA
ATOM     17  O   UNL     1      40.654  28.313  85.373  1.00  0.00    -0.550 OA
ENDBRANCH  14  15
ENDBRANCH  13  14
ENDBRANCH  12  13
ENDBRANCH  11  12
ENDBRANCH  10  11
ENDBRANCH   9  10
ENDBRANCH   8   9
ENDBRANCH   7   8
ENDBRANCH   6   7
ENDBRANCH   5   6
ENDBRANCH   4   5
ENDBRANCH   3   4
ENDBRANCH   2   3
ENDBRANCH   1   2
BRANCH   1  18
ATOM     18  C   UNL     1      44.670  30.757  91.218  1.00  0.00     0.000 C 
BRANCH  18  19
ATOM     19  C   UNL     1      45.884  31.637  90.859  1.00  0.00     0.000 C 
BRANCH  19  20
ATOM     20  C   UNL     1      46.714  31.146  89.659  1.00  0.00     0.000 C 
BRANCH  20  21
ATOM     21  C   UNL     1      48.180  30.866  90.020  1.00  0.00     0.000 C 
BRANCH  21  22
ATOM     22  C   UNL     1      48.361  29.409  90.472  1.00  0.00     0.000 C 
BRANCH  22  23
ATOM     23  C   UNL     1      48.739  28.464  89.317  1.00  0.00     0.000 C 
BRANCH  23  24
ATOM     24  C   UNL     1      47.587  27.592  88.782  1.00  0.00    -0.000 C 
BRANCH  24  25
ATOM     25  C   UNL     1      47.462  27.641  87.251  1.00  0.00    -0.000 C 
BRANCH  25  26
ATOM     26  C   UNL     1      48.193  28.845  86.627  1.00  0.00    -0.000 C 
BRANCH  26  27
ATOM     27  C   UNL     1      47.282  29.976  86.105  1.00  0.00    -0.000 C 
BRANCH  27  28
ATOM     28  C   UNL     1      47.923  31.376  86.060  1.00  0.00    -0.000 C 
BRANCH  28  29
ATOM     29  C   UNL     1      49.372  31.388  86.573  1.00  0.00    -0.000 C 
BRANCH  29  30
ATOM     30  C   UNL     1      49.773  32.739  87.188  1.00  0.00    -0.000 C 
BRANCH  30  31
ATOM     31  C   UNL     1      48.673  33.817  87.088  1.00  0.00    -0.003 C 
ATOM     32  C   UNL     1      49.060  34.958  86.146  1.00  0.00     0.004 C 
ENDBRANCH  30  31
ENDBRANCH  29  30
ENDBRANCH  28  29
ENDBRANCH  27  28
ENDBRANCH  26  27
ENDBRANCH  25  26
ENDBRANCH  24  25
ENDBRANCH  23  24
ENDBRANCH  22  23
ENDBRANCH  21  22
ENDBRANCH  20  21
ENDBRANCH  19  20
ENDBRANCH  18  19
ENDBRANCH   1  18
TORSDOF 28
ENDMDL
MODEL 8
REMARK VINA RESULT:    -3.298      5.020      9.360
REMARK INTER + INTRA:         -14.066
REMARK INTER:                  -7.919
REMARK INTRA:                  -6.147
REMARK UNBOUND:                -5.369
REMARK SMILES CCCCCCCCCCCCCCCCCCCCCCCCCCCCCC(=O)[O-]
REMARK SMILES IDX 16 1 17 2 18 3 19 4 20 5 21 6 22 7 23 8 24 9 25 10 26 11
REMARK SMILES IDX 27 12 28 13 29 14 30 15 31 16 32 17 15 18 14 19 13 20 12 21
REMARK SMILES IDX 11 22 10 23 9 24 8 25 7 26 6 27 5 28 4 29 3 30 2 31 1 32
REMARK H PARENT
REMARK Flexibility Score: inf
ROOT
ATOM      1  C   UNL     1      42.998  30.807  87.864  1.00  0.00     0.000 C 
ENDROOT
BRANCH   1   2
ATOM      2  C   UNL     1      41.559  31.232  87.540  1.00  0.00     0.000 C 
BRANCH   2   3
ATOM      3  C   UNL     1      40.576  30.682  88.583  1.00  0.00     0.000 C 
BRANCH   3   4
ATOM      4  C   UNL     1      39.443  29.847  87.960  1.00  0.00     0.000 C 
BRANCH   4   5
ATOM      5  C   UNL     1      39.333  28.402  88.481  1.00  0.00     0.000 C 
BRANCH   5   6
ATOM      6  C   UNL     1      40.412  28.057  89.520  1.00  0.00     0.000 C 
BRANCH   6   7
ATOM      7  C   UNL     1      41.337  26.912  89.067  1.00  0.00     0.000 C 
BRANCH   7   8
ATOM      8  C   UNL     1      42.561  27.345  88.240  1.00  0.00     0.000 C 
BRANCH   8   9
ATOM      9  C   UNL     1      42.698  26.663  86.865  1.00  0.00     0.000 C 
BRANCH   9  10
ATOM     10  C   UNL     1      42.972  27.646  85.707  1.00  0.00     0.000 C 
BRANCH  10  11
ATOM     11  C   UNL     1      41.719  28.439  85.296  1.00  0.00     0.000 C 
BRANCH  11  12
ATOM     12  C   UNL     1      40.721  27.601  84.476  1.00  0.00     0.000 C 
BRANCH  12  13
ATOM     13  C   UNL     1      39.415  27.246  85.209  1.00  0.00     0.006 C 
BRANCH  13  14
ATOM     14  C   UNL     1      38.166  27.798  84.509  1.00  0.00     0.053 C 
BRANCH  14  15
ATOM     15  C   UNL     1      36.998  27.790  85.442  1.00  0.00     0.041 C 
ATOM     16  O   UNL     1      36.371  26.720  85.662  1.00  0.00    -0.550 OA
ATOM     17  O   UNL     1      36.569  28.973  86.030  1.00  0.00    -0.550 OA
ENDBRANCH  14  15
ENDBRANCH  13  14
ENDBRANCH  12  13
ENDBRANCH  11  12
ENDBRANCH  10  11
ENDBRANCH   9  10
ENDBRANCH   8   9
ENDBRANCH   7   8
ENDBRANCH   6   7
ENDBRANCH   5   6
ENDBRANCH   4   5
ENDBRANCH   3   4
ENDBRANCH   2   3
ENDBRANCH   1   2
BRANCH   1  18
ATOM     18  C   UNL     1      43.624  31.631  89.005  1.00  0.00     0.000 C 
BRANCH  18  19
ATOM     19  C   UNL     1      44.546  30.841  89.955  1.00  0.00     0.000 C 
BRANCH  19  20
ATOM     20  C   UNL     1      44.498  31.284  91.428  1.00  0.00     0.000 C 
BRANCH  20  21
ATOM     21  C   UNL     1      44.118  30.144  92.384  1.00  0.00     0.000 C 
BRANCH  21  22
ATOM     22  C   UNL     1      43.341  29.046  91.643  1.00  0.00     0.000 C 
BRANCH  22  23
ATOM     23  C   UNL     1      44.111  27.715  91.561  1.00  0.00     0.000 C 
BRANCH  23  24
ATOM     24  C   UNL     1      45.581  27.781  92.015  1.00  0.00    -0.000 C 
BRANCH  24  25
ATOM     25  C   UNL     1      46.566  27.883  90.838  1.00  0.00    -0.000 C 
BRANCH  25  26
ATOM     26  C   UNL     1      45.918  27.543  89.483  1.00  0.00    -0.000 C 
BRANCH  26  27
ATOM     27  C   UNL     1      46.749  27.918  88.238  1.00  0.00    -0.000 C 
BRANCH  27  28
ATOM     28  C   UNL     1      46.077  28.904  87.264  1.00  0.00    -0.000 C 
BRANCH  28  29
ATOM     29  C   UNL     1      47.039  29.988  86.751  1.00  0.00    -0.000 C 
BRANCH  29  30
ATOM     30  C   UNL     1      47.137  31.193  87.700  1.00  0.00    -0.000 C 
BRANCH  30  31
ATOM     31  C   UNL     1      48.458  31.252  88.496  1.00  0.00    -0.003 C 
ATOM     32  C   UNL     1      48.254  30.970  89.985  1.00  0.00     0.004 C 
ENDBRANCH  30  31
ENDBRANCH  29  30
ENDBRANCH  28  29
ENDBRANCH  27  28
ENDBRANCH  26  27
ENDBRANCH  25  26
ENDBRANCH  24  25
ENDBRANCH  23  24
ENDBRANCH  22  23
ENDBRANCH  21  22
ENDBRANCH  20  21
ENDBRANCH  19  20
ENDBRANCH  18  19
ENDBRANCH   1  18
TORSDOF 28
ENDMDL
MODEL 9
REMARK VINA RESULT:    -3.258      4.748      8.812
REMARK INTER + INTRA:         -13.961
REMARK INTER:                  -7.318
REMARK INTRA:                  -6.643
REMARK UNBOUND:                -5.369
REMARK SMILES CCCCCCCCCCCCCCCCCCCCCCCCCCCCCC(=O)[O-]
REMARK SMILES IDX 16 1 17 2 18 3 19 4 20 5 21 6 22 7 23 8 24 9 25 10 26 11
REMARK SMILES IDX 27 12 28 13 29 14 30 15 31 16 32 17 15 18 14 19 13 20 12 21
REMARK SMILES IDX 11 22 10 23 9 24 8 25 7 26 6 27 5 28 4 29 3 30 2 31 1 32
REMARK H PARENT
REMARK Flexibility Score: inf
ROOT
ATOM      1  C   UNL     1      45.161  31.223  89.371  1.00  0.00     0.000 C 
ENDROOT
BRANCH   1   2
ATOM      2  C   UNL     1      43.731  31.694  89.073  1.00  0.00     0.000 C 
BRANCH   2   3
ATOM      3  C   UNL     1      43.000  30.691  88.167  1.00  0.00     0.000 C 
BRANCH   3   4
ATOM      4  C   UNL     1      41.753  31.289  87.493  1.00  0.00     0.000 C 
BRANCH   4   5
ATOM      5  C   UNL     1      40.417  30.974  88.190  1.00  0.00     0.000 C 
BRANCH   5   6
ATOM      6  C   UNL     1      40.557  29.924  89.304  1.00  0.00     0.000 C 
BRANCH   6   7
ATOM      7  C   UNL     1      39.955  28.559  88.923  1.00  0.00     0.000 C 
BRANCH   7   8
ATOM      8  C   UNL     1      39.097  28.553  87.644  1.00  0.00     0.000 C 
BRANCH   8   9
ATOM      9  C   UNL     1      39.715  27.812  86.443  1.00  0.00     0.000 C 
BRANCH   9  10
ATOM     10  C   UNL     1      41.194  27.416  86.650  1.00  0.00     0.000 C 
BRANCH  10  11
ATOM     11  C   UNL     1      42.130  28.069  85.619  1.00  0.00     0.000 C 
BRANCH  11  12
ATOM     12  C   UNL     1      43.618  27.927  85.985  1.00  0.00     0.000 C 
BRANCH  12  13
ATOM     13  C   UNL     1      44.388  26.869  85.176  1.00  0.00     0.006 C 
BRANCH  13  14
ATOM     14  C   UNL     1      45.480  26.166  85.993  1.00  0.00     0.053 C 
BRANCH  14  15
ATOM     15  C   UNL     1      45.051  24.780  86.353  1.00  0.00     0.041 C 
ATOM     16  O   UNL     1      44.210  24.595  87.272  1.00  0.00    -0.550 OA
ATOM     17  O   UNL     1      45.618  23.687  85.710  1.00  0.00    -0.550 OA
ENDBRANCH  14  15
ENDBRANCH  13  14
ENDBRANCH  12  13
ENDBRANCH  11  12
ENDBRANCH  10  11
ENDBRANCH   9  10
ENDBRANCH   8   9
ENDBRANCH   7   8
ENDBRANCH   6   7
ENDBRANCH   5   6
ENDBRANCH   4   5
ENDBRANCH   3   4
ENDBRANCH   2   3
ENDBRANCH   1   2
BRANCH   1  18
ATOM     18  C   UNL     1      45.504  31.259  90.872  1.00  0.00     0.000 C 
BRANCH  18  19
ATOM     19  C   UNL     1      44.315  31.011  91.822  1.00  0.00     0.000 C 
BRANCH  19  20
ATOM     20  C   UNL     1      44.234  29.590  92.408  1.00  0.00     0.000 C 
BRANCH  20  21
ATOM     21  C   UNL     1      42.962  28.840  91.986  1.00  0.00     0.000 C 
BRANCH  21  22
ATOM     22  C   UNL     1      43.315  27.500  91.322  1.00  0.00     0.000 C 
BRANCH  22  23
ATOM     23  C   UNL     1      43.577  27.630  89.810  1.00  0.00     0.000 C 
BRANCH  23  24
ATOM     24  C   UNL     1      45.056  27.526  89.391  1.00  0.00    -0.000 C 
BRANCH  24  25
ATOM     25  C   UNL     1      45.754  26.283  89.968  1.00  0.00    -0.000 C 
BRANCH  25  26
ATOM     26  C   UNL     1      46.970  26.632  90.847  1.00  0.00    -0.000 C 
BRANCH  26  27
ATOM     27  C   UNL     1      47.256  28.139  91.016  1.00  0.00    -0.000 C 
BRANCH  27  28
ATOM     28  C   UNL     1      48.635  28.612  90.517  1.00  0.00    -0.000 C 
BRANCH  28  29
ATOM     29  C   UNL     1      48.538  29.712  89.448  1.00  0.00    -0.000 C 
BRANCH  29  30
ATOM     30  C   UNL     1      48.681  29.165  88.018  1.00  0.00    -0.000 C 
BRANCH  30  31
ATOM     31  C   UNL     1      47.352  29.129  87.232  1.00  0.00    -0.003 C 
ATOM     32  C   UNL     1      47.147  30.381  86.379  1.00  0.00     0.004 C 
ENDBRANCH  30  31
ENDBRANCH  29  30
ENDBRANCH  28  29
ENDBRANCH  27  28
ENDBRANCH  26  27
ENDBRANCH  25  26
ENDBRANCH  24  25
ENDBRANCH  23  24
ENDBRANCH  22  23
ENDBRANCH  21  22
ENDBRANCH  20  21
ENDBRANCH  19  20
ENDBRANCH  18  19
ENDBRANCH   1  18
TORSDOF 28
ENDMDL
