MODEL 1
REMARK VINA RESULT:    -5.134      0.000      0.000
REMARK INTER + INTRA:          -5.929
REMARK INTER:                  -5.884
REMARK INTRA:                  -0.045
REMARK UNBOUND:                -0.045
REMARK SMILES O=C([O-])c1cc(O)c(O)c(O)c1
REMARK SMILES IDX 4 1 5 2 12 3 6 4 10 5 8 6 2 7 1 8 3 9 7 10 11 12 9 14
REMARK H PARENT 7 11 11 13 9 15
REMARK Flexibility Score: inf
ROOT
ATOM      1  C   UNL     1      21.511   0.367 -20.964  1.00  0.00     0.005 A 
ATOM      2  C   UNL     1      20.249  -0.247 -20.902  1.00  0.00     0.060 A 
ATOM      3  C   UNL     1      22.197   0.638 -19.768  1.00  0.00     0.060 A 
ATOM      4  C   UNL     1      19.679  -0.587 -19.671  1.00  0.00     0.162 A 
ATOM      5  C   UNL     1      21.633   0.301 -18.530  1.00  0.00     0.162 A 
ATOM      6  C   UNL     1      20.370  -0.312 -18.479  1.00  0.00     0.200 A 
ENDROOT
BRANCH   1   7
ATOM      7  C   UNL     1      22.113   0.725 -22.267  1.00  0.00     0.072 C 
ATOM      8  O   UNL     1      22.634  -0.160 -22.998  1.00  0.00    -0.545 OA
ATOM      9  O   UNL     1      22.113   2.044 -22.705  1.00  0.00    -0.545 OA
ENDBRANCH   1   7
BRANCH   4  10
ATOM     10  O   UNL     1      18.425  -1.195 -19.652  1.00  0.00    -0.504 OA
ATOM     11  H   UNL     1      18.016  -1.615 -20.479  1.00  0.00     0.293 HD
ENDBRANCH   4  10
BRANCH   5  12
ATOM     12  O   UNL     1      22.324   0.575 -17.350  1.00  0.00    -0.504 OA
ATOM     13  H   UNL     1      21.911   0.406 -16.440  1.00  0.00     0.293 HD
ENDBRANCH   5  12
BRANCH   6  14
ATOM     14  O   UNL     1      19.794  -0.655 -17.254  1.00  0.00    -0.502 OA
ATOM     15  H   UNL     1      19.516  -1.604 -17.034  1.00  0.00     0.293 HD
ENDBRANCH   6  14
TORSDOF 4
ENDMDL
MODEL 2
REMARK VINA RESULT:    -5.092      0.138      2.605
REMARK INTER + INTRA:          -5.882
REMARK INTER:                  -5.837
REMARK INTRA:                  -0.045
REMARK UNBOUND:                -0.045
REMARK SMILES O=C([O-])c1cc(O)c(O)c(O)c1
REMARK SMILES IDX 4 1 5 2 12 3 6 4 10 5 8 6 2 7 1 8 3 9 7 10 11 12 9 14
REMARK H PARENT 7 11 11 13 9 15
REMARK Flexibility Score: inf
ROOT
ATOM      1  C   UNL     1      21.582   0.332 -21.028  1.00  0.00     0.005 A 
ATOM      2  C   UNL     1      22.254   0.648 -19.835  1.00  0.00     0.060 A 
ATOM      3  C   UNL     1      20.325  -0.291 -20.959  1.00  0.00     0.060 A 
ATOM      4  C   UNL     1      21.685   0.348 -18.593  1.00  0.00     0.162 A 
ATOM      5  C   UNL     1      19.747  -0.595 -19.718  1.00  0.00     0.162 A 
ATOM      6  C   UNL     1      20.428  -0.276 -18.531  1.00  0.00     0.200 A 
ENDROOT
BRANCH   1   7
ATOM      7  C   UNL     1      22.186   0.651 -22.341  1.00  0.00     0.072 C 
ATOM      8  O   UNL     1      22.206   1.837 -22.767  1.00  0.00    -0.545 OA
ATOM      9  O   UNL     1      22.740  -0.355 -23.125  1.00  0.00    -0.545 OA
ENDBRANCH   1   7
BRANCH   4  10
ATOM     10  O   UNL     1      22.384   0.676 -17.433  1.00  0.00    -0.504 OA
ATOM     11  H   UNL     1      22.596  -0.010 -16.719  1.00  0.00     0.293 HD
ENDBRANCH   4  10
BRANCH   5  12
ATOM     12  O   UNL     1      18.499  -1.214 -19.663  1.00  0.00    -0.504 OA
ATOM     13  H   UNL     1      17.939  -1.208 -18.818  1.00  0.00     0.293 HD
ENDBRANCH   5  12
BRANCH   6  14
ATOM     14  O   UNL     1      19.865  -0.572 -17.288  1.00  0.00    -0.502 OA
ATOM     15  H   UNL     1      19.480  -1.484 -17.072  1.00  0.00     0.293 HD
ENDBRANCH   6  14
TORSDOF 4
ENDMDL
MODEL 3
REMARK VINA RESULT:    -4.915      1.322      4.264
REMARK INTER + INTRA:          -5.678
REMARK INTER:                  -5.626
REMARK INTRA:                  -0.053
REMARK UNBOUND:                -0.045
REMARK SMILES O=C([O-])c1cc(O)c(O)c(O)c1
REMARK SMILES IDX 4 1 5 2 12 3 6 4 10 5 8 6 2 7 1 8 3 9 7 10 11 12 9 14
REMARK H PARENT 7 11 11 13 9 15
REMARK Flexibility Score: inf
ROOT
ATOM      1  C   UNL     1      20.697  -0.602 -19.566  1.00  0.00     0.005 A 
ATOM      2  C   UNL     1      20.779  -1.255 -20.807  1.00  0.00     0.060 A 
ATOM      3  C   UNL     1      21.208   0.701 -19.445  1.00  0.00     0.060 A 
ATOM      4  C   UNL     1      21.361  -0.622 -21.910  1.00  0.00     0.162 A 
ATOM      5  C   UNL     1      21.792   1.343 -20.546  1.00  0.00     0.162 A 
ATOM      6  C   UNL     1      21.871   0.680 -21.783  1.00  0.00     0.200 A 
ENDROOT
BRANCH   1   7
ATOM      7  C   UNL     1      20.080  -1.272 -18.400  1.00  0.00     0.072 C 
ATOM      8  O   UNL     1      20.148  -0.755 -17.252  1.00  0.00    -0.545 OA
ATOM      9  O   UNL     1      19.417  -2.484 -18.552  1.00  0.00    -0.545 OA
ENDBRANCH   1   7
BRANCH   4  10
ATOM     10  O   UNL     1      21.424  -1.305 -23.124  1.00  0.00    -0.504 OA
ATOM     11  H   UNL     1      21.116  -2.265 -23.220  1.00  0.00     0.293 HD
ENDBRANCH   4  10
BRANCH   5  12
ATOM     12  O   UNL     1      22.296   2.636 -20.414  1.00  0.00    -0.504 OA
ATOM     13  H   UNL     1      21.876   3.309 -19.783  1.00  0.00     0.293 HD
ENDBRANCH   5  12
BRANCH   6  14
ATOM     14  O   UNL     1      22.450   1.305 -22.889  1.00  0.00    -0.502 OA
ATOM     15  H   UNL     1      23.322   0.987 -23.295  1.00  0.00     0.293 HD
ENDBRANCH   6  14
TORSDOF 4
ENDMDL
MODEL 4
REMARK VINA RESULT:    -4.859      1.340      4.660
REMARK INTER + INTRA:          -5.614
REMARK INTER:                  -5.561
REMARK INTRA:                  -0.053
REMARK UNBOUND:                -0.045
REMARK SMILES O=C([O-])c1cc(O)c(O)c(O)c1
REMARK SMILES IDX 4 1 5 2 12 3 6 4 10 5 8 6 2 7 1 8 3 9 7 10 11 12 9 14
REMARK H PARENT 7 11 11 13 9 15
REMARK Flexibility Score: inf
ROOT
ATOM      1  C   UNL     1      20.531  -0.648 -19.573  1.00  0.00     0.005 A 
ATOM      2  C   UNL     1      21.115   0.620 -19.409  1.00  0.00     0.060 A 
ATOM      3  C   UNL     1      20.623  -1.285 -20.821  1.00  0.00     0.060 A 
ATOM      4  C   UNL     1      21.779   1.243 -20.469  1.00  0.00     0.162 A 
ATOM      5  C   UNL     1      21.287  -0.667 -21.890  1.00  0.00     0.162 A 
ATOM      6  C   UNL     1      21.867   0.601 -21.716  1.00  0.00     0.200 A 
ENDROOT
BRANCH   1   7
ATOM      7  C   UNL     1      19.828  -1.306 -18.449  1.00  0.00     0.072 C 
ATOM      8  O   UNL     1      19.356  -2.467 -18.580  1.00  0.00    -0.545 OA
ATOM      9  O   UNL     1      19.679  -0.653 -17.231  1.00  0.00    -0.545 OA
ENDBRANCH   1   7
BRANCH   4  10
ATOM     10  O   UNL     1      22.345   2.501 -20.266  1.00  0.00    -0.504 OA
ATOM     11  H   UNL     1      23.301   2.711 -20.526  1.00  0.00     0.293 HD
ENDBRANCH   4  10
BRANCH   5  12
ATOM     12  O   UNL     1      21.371  -1.309 -23.125  1.00  0.00    -0.504 OA
ATOM     13  H   UNL     1      21.119  -2.285 -23.235  1.00  0.00     0.293 HD
ENDBRANCH   5  12
BRANCH   6  14
ATOM     14  O   UNL     1      22.533   1.230 -22.770  1.00  0.00    -0.502 OA
ATOM     15  H   UNL     1      22.474   0.893 -23.724  1.00  0.00     0.293 HD
ENDBRANCH   6  14
TORSDOF 4
ENDMDL
MODEL 5
REMARK VINA RESULT:    -4.780     18.525     20.320
REMARK INTER + INTRA:          -5.523
REMARK INTER:                  -5.471
REMARK INTRA:                  -0.052
REMARK UNBOUND:                -0.045
REMARK SMILES O=C([O-])c1cc(O)c(O)c(O)c1
REMARK SMILES IDX 4 1 5 2 12 3 6 4 10 5 8 6 2 7 1 8 3 9 7 10 11 12 9 14
REMARK H PARENT 7 11 11 13 9 15
REMARK Flexibility Score: inf
ROOT
ATOM      1  C   UNL     1       8.007  -6.841  -7.261  1.00  0.00     0.005 A 
ATOM      2  C   UNL     1       8.350  -5.550  -6.824  1.00  0.00     0.060 A 
ATOM      3  C   UNL     1       7.640  -7.808  -6.311  1.00  0.00     0.060 A 
ATOM      4  C   UNL     1       8.327  -5.226  -5.464  1.00  0.00     0.162 A 
ATOM      5  C   UNL     1       7.615  -7.492  -4.945  1.00  0.00     0.162 A 
ATOM      6  C   UNL     1       7.960  -6.198  -4.518  1.00  0.00     0.200 A 
ENDROOT
BRANCH   1   7
ATOM      7  C   UNL     1       8.031  -7.181  -8.701  1.00  0.00     0.072 C 
ATOM      8  O   UNL     1       7.982  -8.383  -9.077  1.00  0.00    -0.545 OA
ATOM      9  O   UNL     1       8.109  -6.179  -9.661  1.00  0.00    -0.545 OA
ENDBRANCH   1   7
BRANCH   4  10
ATOM     10  O   UNL     1       8.674  -3.934  -5.071  1.00  0.00    -0.504 OA
ATOM     11  H   UNL     1       9.580  -3.716  -4.675  1.00  0.00     0.293 HD
ENDBRANCH   4  10
BRANCH   5  12
ATOM     12  O   UNL     1       7.250  -8.460  -4.011  1.00  0.00    -0.504 OA
ATOM     13  H   UNL     1       7.078  -9.422  -4.282  1.00  0.00     0.293 HD
ENDBRANCH   5  12
BRANCH   6  14
ATOM     14  O   UNL     1       7.940  -5.867  -3.162  1.00  0.00    -0.502 OA
ATOM     15  H   UNL     1       7.231  -5.262  -2.764  1.00  0.00     0.293 HD
ENDBRANCH   6  14
TORSDOF 4
ENDMDL
MODEL 6
REMARK VINA RESULT:    -4.773     18.571     20.286
REMARK INTER + INTRA:          -5.515
REMARK INTER:                  -5.463
REMARK INTRA:                  -0.052
REMARK UNBOUND:                -0.045
REMARK SMILES O=C([O-])c1cc(O)c(O)c(O)c1
REMARK SMILES IDX 4 1 5 2 12 3 6 4 10 5 8 6 2 7 1 8 3 9 7 10 11 12 9 14
REMARK H PARENT 7 11 11 13 9 15
REMARK Flexibility Score: inf
ROOT
ATOM      1  C   UNL     1       8.007  -6.847  -7.260  1.00  0.00     0.005 A 
ATOM      2  C   UNL     1       7.628  -7.808  -6.308  1.00  0.00     0.060 A 
ATOM      3  C   UNL     1       8.356  -5.557  -6.826  1.00  0.00     0.060 A 
ATOM      4  C   UNL     1       7.596  -7.491  -4.947  1.00  0.00     0.162 A 
ATOM      5  C   UNL     1       8.327  -5.231  -5.463  1.00  0.00     0.162 A 
ATOM      6  C   UNL     1       7.945  -6.199  -4.519  1.00  0.00     0.200 A 
ENDROOT
BRANCH   1   7
ATOM      7  C   UNL     1       8.041  -7.184  -8.701  1.00  0.00     0.072 C 
ATOM      8  O   UNL     1       8.059  -6.274  -9.572  1.00  0.00    -0.545 OA
ATOM      9  O   UNL     1       8.053  -8.511  -9.114  1.00  0.00    -0.545 OA
ENDBRANCH   1   7
BRANCH   4  10
ATOM     10  O   UNL     1       7.214  -8.473  -4.034  1.00  0.00    -0.504 OA
ATOM     11  H   UNL     1       7.841  -8.817  -3.318  1.00  0.00     0.293 HD
ENDBRANCH   4  10
BRANCH   5  12
ATOM     12  O   UNL     1       8.675  -3.947  -5.045  1.00  0.00    -0.504 OA
ATOM     13  H   UNL     1       8.758  -3.712  -4.063  1.00  0.00     0.293 HD
ENDBRANCH   5  12
BRANCH   6  14
ATOM     14  O   UNL     1       7.911  -5.890  -3.158  1.00  0.00    -0.502 OA
ATOM     15  H   UNL     1       8.142  -4.969  -2.807  1.00  0.00     0.293 HD
ENDBRANCH   6  14
TORSDOF 4
ENDMDL
MODEL 7
REMARK VINA RESULT:    -4.689     16.506     18.052
REMARK INTER + INTRA:          -5.419
REMARK INTER:                  -5.372
REMARK INTRA:                  -0.047
REMARK UNBOUND:                -0.045
REMARK SMILES O=C([O-])c1cc(O)c(O)c(O)c1
REMARK SMILES IDX 4 1 5 2 12 3 6 4 10 5 8 6 2 7 1 8 3 9 7 10 11 12 9 14
REMARK H PARENT 7 11 11 13 9 15
REMARK Flexibility Score: inf
ROOT
ATOM      1  C   UNL     1       8.625  -7.054  -9.336  1.00  0.00     0.005 A 
ATOM      2  C   UNL     1       7.929  -6.624  -8.194  1.00  0.00     0.060 A 
ATOM      3  C   UNL     1       9.989  -6.740  -9.463  1.00  0.00     0.060 A 
ATOM      4  C   UNL     1       8.579  -5.892  -7.195  1.00  0.00     0.162 A 
ATOM      5  C   UNL     1      10.648  -6.007  -8.466  1.00  0.00     0.162 A 
ATOM      6  C   UNL     1       9.942  -5.580  -7.328  1.00  0.00     0.200 A 
ENDROOT
BRANCH   1   7
ATOM      7  C   UNL     1       7.937  -7.829 -10.392  1.00  0.00     0.072 C 
ATOM      8  O   UNL     1       7.302  -8.879 -10.106  1.00  0.00    -0.545 OA
ATOM      9  O   UNL     1       7.980  -7.409 -11.716  1.00  0.00    -0.545 OA
ENDBRANCH   1   7
BRANCH   4  10
ATOM     10  O   UNL     1       7.853  -5.482  -6.077  1.00  0.00    -0.504 OA
ATOM     11  H   UNL     1       7.276  -4.650  -6.084  1.00  0.00     0.293 HD
ENDBRANCH   4  10
BRANCH   5  12
ATOM     12  O   UNL     1      12.001  -5.701  -8.604  1.00  0.00    -0.504 OA
ATOM     13  H   UNL     1      12.466  -5.738  -9.504  1.00  0.00     0.293 HD
ENDBRANCH   5  12
BRANCH   6  14
ATOM     14  O   UNL     1      10.584  -4.849  -6.326  1.00  0.00    -0.502 OA
ATOM     15  H   UNL     1      10.893  -5.275  -5.461  1.00  0.00     0.293 HD
ENDBRANCH   6  14
TORSDOF 4
ENDMDL
MODEL 8
REMARK VINA RESULT:    -4.586     16.342     17.931
REMARK INTER + INTRA:          -5.301
REMARK INTER:                  -5.254
REMARK INTRA:                  -0.047
REMARK UNBOUND:                -0.045
REMARK SMILES O=C([O-])c1cc(O)c(O)c(O)c1
REMARK SMILES IDX 4 1 5 2 12 3 6 4 10 5 8 6 2 7 1 8 3 9 7 10 11 12 9 14
REMARK H PARENT 7 11 11 13 9 15
REMARK Flexibility Score: inf
ROOT
ATOM      1  C   UNL     1       8.707  -6.976  -9.648  1.00  0.00     0.005 A 
ATOM      2  C   UNL     1      10.074  -6.657  -9.697  1.00  0.00     0.060 A 
ATOM      3  C   UNL     1       7.961  -6.614  -8.514  1.00  0.00     0.060 A 
ATOM      4  C   UNL     1      10.690  -5.989  -8.634  1.00  0.00     0.162 A 
ATOM      5  C   UNL     1       8.571  -5.944  -7.444  1.00  0.00     0.162 A 
ATOM      6  C   UNL     1       9.940  -5.630  -7.501  1.00  0.00     0.200 A 
ENDROOT
BRANCH   1   7
ATOM      7  C   UNL     1       8.057  -7.683 -10.774  1.00  0.00     0.072 C 
ATOM      8  O   UNL     1       8.169  -7.252 -11.953  1.00  0.00    -0.545 OA
ATOM      9  O   UNL     1       7.311  -8.834 -10.548  1.00  0.00    -0.545 OA
ENDBRANCH   1   7
BRANCH   4  10
ATOM     10  O   UNL     1      12.049  -5.691  -8.720  1.00  0.00    -0.504 OA
ATOM     11  H   UNL     1      12.733  -6.373  -9.027  1.00  0.00     0.293 HD
ENDBRANCH   4  10
BRANCH   5  12
ATOM     12  O   UNL     1       7.820  -5.590  -6.323  1.00  0.00    -0.504 OA
ATOM     13  H   UNL     1       8.254  -5.198  -5.495  1.00  0.00     0.293 HD
ENDBRANCH   5  12
BRANCH   6  14
ATOM     14  O   UNL     1      10.561  -4.963  -6.445  1.00  0.00    -0.502 OA
ATOM     15  H   UNL     1      10.362  -3.994  -6.225  1.00  0.00     0.293 HD
ENDBRANCH   6  14
TORSDOF 4
ENDMDL
MODEL 9
REMARK VINA RESULT:    -4.584      1.779      4.645
REMARK INTER + INTRA:          -5.299
REMARK INTER:                  -5.254
REMARK INTRA:                  -0.045
REMARK UNBOUND:                -0.045
REMARK SMILES O=C([O-])c1cc(O)c(O)c(O)c1
REMARK SMILES IDX 4 1 5 2 12 3 6 4 10 5 8 6 2 7 1 8 3 9 7 10 11 12 9 14
REMARK H PARENT 7 11 11 13 9 15
REMARK Flexibility Score: inf
ROOT
ATOM      1  C   UNL     1      19.343  -0.856 -17.672  1.00  0.00     0.005 A 
ATOM      2  C   UNL     1      18.899  -0.933 -19.002  1.00  0.00     0.060 A 
ATOM      3  C   UNL     1      20.624  -0.341 -17.409  1.00  0.00     0.060 A 
ATOM      4  C   UNL     1      19.715  -0.505 -20.054  1.00  0.00     0.162 A 
ATOM      5  C   UNL     1      21.448   0.090 -18.458  1.00  0.00     0.162 A 
ATOM      6  C   UNL     1      20.995   0.008 -19.785  1.00  0.00     0.200 A 
ENDROOT
BRANCH   1   7
ATOM      7  C   UNL     1      18.478  -1.308 -16.560  1.00  0.00     0.072 C 
ATOM      8  O   UNL     1      17.761  -0.486 -15.929  1.00  0.00    -0.545 OA
ATOM      9  O   UNL     1      18.444  -2.649 -16.194  1.00  0.00    -0.545 OA
ENDBRANCH   1   7
BRANCH   4  10
ATOM     10  O   UNL     1      19.237  -0.599 -21.361  1.00  0.00    -0.504 OA
ATOM     11  H   UNL     1      18.400  -1.119 -21.593  1.00  0.00     0.293 HD
ENDBRANCH   4  10
BRANCH   5  12
ATOM     12  O   UNL     1      22.718   0.598 -18.184  1.00  0.00    -0.504 OA
ATOM     13  H   UNL     1      22.866   1.582 -17.990  1.00  0.00     0.293 HD
ENDBRANCH   5  12
BRANCH   6  14
ATOM     14  O   UNL     1      21.804   0.433 -20.841  1.00  0.00    -0.502 OA
ATOM     15  H   UNL     1      22.001   1.412 -21.010  1.00  0.00     0.293 HD
ENDBRANCH   6  14
TORSDOF 4
ENDMDL
