MODEL 1
REMARK VINA RESULT:    -6.798      0.000      0.000
REMARK INTER + INTRA:          -8.855
REMARK INTER:                  -8.586
REMARK INTRA:                  -0.270
REMARK UNBOUND:                -0.270
REMARK SMILES CC(C)=CCCC(C)=CCO
REMARK SMILES IDX 7 1 9 2 8 3 6 4 5 5 4 6 1 7 2 8 3 9 10 10 11 11
REMARK H PARENT 11 12
REMARK Flexibility Score: inf
ROOT
ATOM      1  C   UNL     1      18.950   6.884  16.978  1.00  0.00    -0.075 C 
ATOM      2  C   UNL     1      20.247   6.502  16.949  1.00  0.00    -0.000 C 
ATOM      3  C   UNL     1      18.552   8.309  17.281  1.00  0.00     0.039 C 
ENDROOT
BRANCH   1   4
ATOM      4  C   UNL     1      17.873   5.857  16.703  1.00  0.00     0.034 C 
BRANCH   4   5
ATOM      5  C   UNL     1      17.284   6.044  15.301  1.00  0.00     0.032 C 
BRANCH   5   6
ATOM      6  C   UNL     1      17.155   4.724  14.579  1.00  0.00    -0.028 C 
ATOM      7  C   UNL     1      17.102   3.239  12.620  1.00  0.00     0.039 C 
ATOM      8  C   UNL     1      17.246   4.606  13.238  1.00  0.00    -0.080 C 
ATOM      9  C   UNL     1      17.486   5.806  12.354  1.00  0.00     0.039 C 
ENDBRANCH   5   6
ENDBRANCH   4   5
ENDBRANCH   1   4
BRANCH   2  10
ATOM     10  C   UNL     1      21.404   7.431  17.212  1.00  0.00     0.183 C 
BRANCH  10  11
ATOM     11  O   UNL     1      22.300   7.424  16.134  1.00  0.00    -0.392 OA
ATOM     12  H   UNL     1      23.213   7.475  16.523  1.00  0.00     0.210 HD
ENDBRANCH  10  11
ENDBRANCH   2  10
TORSDOF 5
ENDMDL
MODEL 2
REMARK VINA RESULT:    -6.769      1.239      1.239
REMARK INTER + INTRA:          -8.820
REMARK INTER:                  -8.578
REMARK INTRA:                  -0.241
REMARK UNBOUND:                -0.270
REMARK SMILES CC(C)=CCCC(C)=CCO
REMARK SMILES IDX 7 1 9 2 8 3 6 4 5 5 4 6 1 7 2 8 3 9 10 10 11 11
REMARK H PARENT 11 12
REMARK Flexibility Score: inf
ROOT
ATOM      1  C   UNL     1      18.287   6.702  17.143  1.00  0.00    -0.075 C 
ATOM      2  C   UNL     1      19.636   6.674  17.233  1.00  0.00    -0.000 C 
ATOM      3  C   UNL     1      17.484   7.876  17.651  1.00  0.00     0.039 C 
ENDROOT
BRANCH   1   4
ATOM      4  C   UNL     1      17.565   5.525  16.522  1.00  0.00     0.034 C 
BRANCH   4   5
ATOM      5  C   UNL     1      17.214   5.811  15.057  1.00  0.00     0.032 C 
BRANCH   5   6
ATOM      6  C   UNL     1      17.154   4.537  14.249  1.00  0.00    -0.028 C 
ATOM      7  C   UNL     1      17.196   3.182  12.198  1.00  0.00     0.039 C 
ATOM      8  C   UNL     1      17.270   4.510  12.905  1.00  0.00    -0.080 C 
ATOM      9  C   UNL     1      17.471   5.775  12.105  1.00  0.00     0.039 C 
ENDBRANCH   5   6
ENDBRANCH   4   5
ENDBRANCH   1   4
BRANCH   2  10
ATOM     10  C   UNL     1      20.461   7.781  17.836  1.00  0.00     0.183 C 
BRANCH  10  11
ATOM     11  O   UNL     1      20.655   7.564  19.207  1.00  0.00    -0.392 OA
ATOM     12  H   UNL     1      20.815   8.454  19.617  1.00  0.00     0.210 HD
ENDBRANCH  10  11
ENDBRANCH   2  10
TORSDOF 5
ENDMDL
MODEL 3
REMARK VINA RESULT:    -6.755      7.520      9.814
REMARK INTER + INTRA:          -8.802
REMARK INTER:                  -8.596
REMARK INTRA:                  -0.206
REMARK UNBOUND:                -0.270
REMARK SMILES CC(C)=CCCC(C)=CCO
REMARK SMILES IDX 7 1 9 2 8 3 6 4 5 5 4 6 1 7 2 8 3 9 10 10 11 11
REMARK H PARENT 11 12
REMARK Flexibility Score: inf
ROOT
ATOM      1  C   UNL     1      21.400  -0.756  11.605  1.00  0.00    -0.075 C 
ATOM      2  C   UNL     1      20.101  -0.867  11.965  1.00  0.00    -0.000 C 
ATOM      3  C   UNL     1      22.341   0.187  12.318  1.00  0.00     0.039 C 
ENDROOT
BRANCH   1   4
ATOM      4  C   UNL     1      21.921  -1.597  10.459  1.00  0.00     0.034 C 
BRANCH   4   5
ATOM      5  C   UNL     1      21.154  -1.295   9.167  1.00  0.00     0.032 C 
BRANCH   5   6
ATOM      6  C   UNL     1      21.875  -1.845   7.960  1.00  0.00    -0.028 C 
ATOM      7  C   UNL     1      22.317  -2.146   5.560  1.00  0.00     0.039 C 
ATOM      8  C   UNL     1      21.528  -1.540   6.692  1.00  0.00    -0.080 C 
ATOM      9  C   UNL     1      20.376  -0.613   6.390  1.00  0.00     0.039 C 
ENDBRANCH   5   6
ENDBRANCH   4   5
ENDBRANCH   1   4
BRANCH   2  10
ATOM     10  C   UNL     1      19.468  -0.079  13.083  1.00  0.00     0.183 C 
BRANCH  10  11
ATOM     11  O   UNL     1      18.592  -0.885  13.823  1.00  0.00    -0.392 OA
ATOM     12  H   UNL     1      19.083  -1.724  14.029  1.00  0.00     0.210 HD
ENDBRANCH  10  11
ENDBRANCH   2  10
TORSDOF 5
ENDMDL
MODEL 4
REMARK VINA RESULT:    -6.753      2.876      5.760
REMARK INTER + INTRA:          -8.800
REMARK INTER:                  -8.525
REMARK INTRA:                  -0.275
REMARK UNBOUND:                -0.270
REMARK SMILES CC(C)=CCCC(C)=CCO
REMARK SMILES IDX 7 1 9 2 8 3 6 4 5 5 4 6 1 7 2 8 3 9 10 10 11 11
REMARK H PARENT 11 12
REMARK Flexibility Score: inf
ROOT
ATOM      1  C   UNL     1      17.133   5.049  13.775  1.00  0.00    -0.075 C 
ATOM      2  C   UNL     1      16.767   3.784  14.084  1.00  0.00    -0.000 C 
ATOM      3  C   UNL     1      17.535   5.436  12.371  1.00  0.00     0.039 C 
ENDROOT
BRANCH   1   4
ATOM      4  C   UNL     1      17.143   6.100  14.864  1.00  0.00     0.034 C 
BRANCH   4   5
ATOM      5  C   UNL     1      17.636   5.509  16.189  1.00  0.00     0.032 C 
BRANCH   5   6
ATOM      6  C   UNL     1      17.690   6.560  17.272  1.00  0.00    -0.028 C 
ATOM      7  C   UNL     1      18.784   8.125  18.821  1.00  0.00     0.039 C 
ATOM      8  C   UNL     1      18.845   7.079  17.738  1.00  0.00    -0.080 C 
ATOM      9  C   UNL     1      20.184   6.637  17.199  1.00  0.00     0.039 C 
ENDBRANCH   5   6
ENDBRANCH   4   5
ENDBRANCH   1   4
BRANCH   2  10
ATOM     10  C   UNL     1      16.726   2.654  13.088  1.00  0.00     0.183 C 
BRANCH  10  11
ATOM     11  O   UNL     1      15.655   1.791  13.362  1.00  0.00    -0.392 OA
ATOM     12  H   UNL     1      15.323   2.029  14.267  1.00  0.00     0.210 HD
ENDBRANCH  10  11
ENDBRANCH   2  10
TORSDOF 5
ENDMDL
MODEL 5
REMARK VINA RESULT:    -6.734      5.162      7.352
REMARK INTER + INTRA:          -8.775
REMARK INTER:                  -8.517
REMARK INTRA:                  -0.258
REMARK UNBOUND:                -0.270
REMARK SMILES CC(C)=CCCC(C)=CCO
REMARK SMILES IDX 7 1 9 2 8 3 6 4 5 5 4 6 1 7 2 8 3 9 10 10 11 11
REMARK H PARENT 11 12
REMARK Flexibility Score: inf
ROOT
ATOM      1  C   UNL     1      20.705  -0.323  12.418  1.00  0.00    -0.075 C 
ATOM      2  C   UNL     1      22.035  -0.271  12.181  1.00  0.00    -0.000 C 
ATOM      3  C   UNL     1      19.806  -1.284  11.675  1.00  0.00     0.039 C 
ENDROOT
BRANCH   1   4
ATOM      4  C   UNL     1      20.103   0.605  13.451  1.00  0.00     0.034 C 
BRANCH   4   5
ATOM      5  C   UNL     1      18.662   0.974  13.081  1.00  0.00     0.032 C 
BRANCH   5   6
ATOM      6  C   UNL     1      18.544   2.438  12.732  1.00  0.00    -0.028 C 
ATOM      7  C   UNL     1      17.368   4.569  12.385  1.00  0.00     0.039 C 
ATOM      8  C   UNL     1      17.373   3.108  12.752  1.00  0.00    -0.080 C 
ATOM      9  C   UNL     1      16.079   2.426  13.131  1.00  0.00     0.039 C 
ENDBRANCH   5   6
ENDBRANCH   4   5
ENDBRANCH   1   4
BRANCH   2  10
ATOM     10  C   UNL     1      22.745  -1.138  11.174  1.00  0.00     0.183 C 
BRANCH  10  11
ATOM     11  O   UNL     1      23.878  -1.735  11.745  1.00  0.00    -0.392 OA
ATOM     12  H   UNL     1      24.265  -1.068  12.372  1.00  0.00     0.210 HD
ENDBRANCH  10  11
ENDBRANCH   2  10
TORSDOF 5
ENDMDL
MODEL 6
REMARK VINA RESULT:    -6.600      3.022      5.237
REMARK INTER + INTRA:          -8.606
REMARK INTER:                  -8.292
REMARK INTRA:                  -0.313
REMARK UNBOUND:                -0.270
REMARK SMILES CC(C)=CCCC(C)=CCO
REMARK SMILES IDX 7 1 9 2 8 3 6 4 5 5 4 6 1 7 2 8 3 9 10 10 11 11
REMARK H PARENT 11 12
REMARK Flexibility Score: inf
ROOT
ATOM      1  C   UNL     1      17.354   4.269  12.936  1.00  0.00    -0.075 C 
ATOM      2  C   UNL     1      17.053   4.461  14.241  1.00  0.00    -0.000 C 
ATOM      3  C   UNL     1      17.873   5.393  12.070  1.00  0.00     0.039 C 
ENDROOT
BRANCH   1   4
ATOM      4  C   UNL     1      17.162   2.895  12.330  1.00  0.00     0.034 C 
BRANCH   4   5
ATOM      5  C   UNL     1      17.772   1.812  13.228  1.00  0.00     0.032 C 
BRANCH   5   6
ATOM      6  C   UNL     1      19.212   1.544  12.862  1.00  0.00    -0.028 C 
ATOM      7  C   UNL     1      21.257   0.194  12.663  1.00  0.00     0.039 C 
ATOM      8  C   UNL     1      19.814   0.354  13.065  1.00  0.00    -0.080 C 
ATOM      9  C   UNL     1      19.075  -0.810  13.682  1.00  0.00     0.039 C 
ENDBRANCH   5   6
ENDBRANCH   4   5
ENDBRANCH   1   4
BRANCH   2  10
ATOM     10  C   UNL     1      17.196   5.783  14.950  1.00  0.00     0.183 C 
BRANCH  10  11
ATOM     11  O   UNL     1      17.628   5.592  16.270  1.00  0.00    -0.392 OA
ATOM     12  H   UNL     1      18.605   5.418  16.227  1.00  0.00     0.210 HD
ENDBRANCH  10  11
ENDBRANCH   2  10
TORSDOF 5
ENDMDL
MODEL 7
REMARK VINA RESULT:    -6.567      8.441     11.081
REMARK INTER + INTRA:          -8.565
REMARK INTER:                  -8.275
REMARK INTRA:                  -0.290
REMARK UNBOUND:                -0.270
REMARK SMILES CC(C)=CCCC(C)=CCO
REMARK SMILES IDX 7 1 9 2 8 3 6 4 5 5 4 6 1 7 2 8 3 9 10 10 11 11
REMARK H PARENT 11 12
REMARK Flexibility Score: inf
ROOT
ATOM      1  C   UNL     1      21.578  -0.355   6.282  1.00  0.00    -0.075 C 
ATOM      2  C   UNL     1      21.222   0.945   6.391  1.00  0.00    -0.000 C 
ATOM      3  C   UNL     1      22.682  -0.797   5.351  1.00  0.00     0.039 C 
ENDROOT
BRANCH   1   4
ATOM      4  C   UNL     1      20.850  -1.391   7.112  1.00  0.00     0.034 C 
BRANCH   4   5
ATOM      5  C   UNL     1      21.563  -1.619   8.450  1.00  0.00     0.032 C 
BRANCH   5   6
ATOM      6  C   UNL     1      20.705  -1.177   9.610  1.00  0.00    -0.028 C 
ATOM      7  C   UNL     1      20.187  -0.744  11.975  1.00  0.00     0.039 C 
ATOM      8  C   UNL     1      21.126  -1.208  10.892  1.00  0.00    -0.080 C 
ATOM      9  C   UNL     1      22.509  -1.695  11.257  1.00  0.00     0.039 C 
ENDBRANCH   5   6
ENDBRANCH   4   5
ENDBRANCH   1   4
BRANCH   2  10
ATOM     10  C   UNL     1      21.868   2.062   5.613  1.00  0.00     0.183 C 
BRANCH  10  11
ATOM     11  O   UNL     1      22.721   2.810   6.436  1.00  0.00    -0.392 OA
ATOM     12  H   UNL     1      23.498   2.227   6.645  1.00  0.00     0.210 HD
ENDBRANCH  10  11
ENDBRANCH   2  10
TORSDOF 5
ENDMDL
MODEL 8
REMARK VINA RESULT:    -6.262      8.639     11.327
REMARK INTER + INTRA:          -8.178
REMARK INTER:                  -7.911
REMARK INTRA:                  -0.267
REMARK UNBOUND:                -0.270
REMARK SMILES CC(C)=CCCC(C)=CCO
REMARK SMILES IDX 7 1 9 2 8 3 6 4 5 5 4 6 1 7 2 8 3 9 10 10 11 11
REMARK H PARENT 11 12
REMARK Flexibility Score: inf
ROOT
ATOM      1  C   UNL     1      21.100  -0.536   6.317  1.00  0.00    -0.075 C 
ATOM      2  C   UNL     1      20.143   0.398   6.111  1.00  0.00    -0.000 C 
ATOM      3  C   UNL     1      22.461  -0.431   5.668  1.00  0.00     0.039 C 
ENDROOT
BRANCH   1   4
ATOM      4  C   UNL     1      20.798  -1.714   7.217  1.00  0.00     0.034 C 
BRANCH   4   5
ATOM      5  C   UNL     1      21.626  -1.645   8.505  1.00  0.00     0.032 C 
BRANCH   5   6
ATOM      6  C   UNL     1      20.791  -1.165   9.668  1.00  0.00    -0.028 C 
ATOM      7  C   UNL     1      20.320  -0.654  12.027  1.00  0.00     0.039 C 
ATOM      8  C   UNL     1      21.238  -1.155  10.941  1.00  0.00    -0.080 C 
ATOM      9  C   UNL     1      22.627  -1.630  11.295  1.00  0.00     0.039 C 
ENDBRANCH   5   6
ENDBRANCH   4   5
ENDBRANCH   1   4
BRANCH   2  10
ATOM     10  C   UNL     1      20.325   1.609   5.232  1.00  0.00     0.183 C 
BRANCH  10  11
ATOM     11  O   UNL     1      19.088   2.200   4.941  1.00  0.00    -0.392 OA
ATOM     12  H   UNL     1      19.278   2.988   4.367  1.00  0.00     0.210 HD
ENDBRANCH  10  11
ENDBRANCH   2  10
TORSDOF 5
ENDMDL
MODEL 9
REMARK VINA RESULT:    -6.063      3.818      5.991
REMARK INTER + INTRA:          -7.928
REMARK INTER:                  -7.318
REMARK INTRA:                  -0.610
REMARK UNBOUND:                -0.270
REMARK SMILES CC(C)=CCCC(C)=CCO
REMARK SMILES IDX 7 1 9 2 8 3 6 4 5 5 4 6 1 7 2 8 3 9 10 10 11 11
REMARK H PARENT 11 12
REMARK Flexibility Score: inf
ROOT
ATOM      1  C   UNL     1      20.817   6.600  17.510  1.00  0.00    -0.075 C 
ATOM      2  C   UNL     1      21.011   5.725  18.523  1.00  0.00    -0.000 C 
ATOM      3  C   UNL     1      21.951   7.030  16.610  1.00  0.00     0.039 C 
ENDROOT
BRANCH   1   4
ATOM      4  C   UNL     1      19.432   7.163  17.277  1.00  0.00     0.034 C 
BRANCH   4   5
ATOM      5  C   UNL     1      18.839   7.714  18.579  1.00  0.00     0.032 C 
BRANCH   5   6
ATOM      6  C   UNL     1      19.005   9.212  18.665  1.00  0.00    -0.028 C 
ATOM      7  C   UNL     1      19.962  11.314  19.508  1.00  0.00     0.039 C 
ATOM      8  C   UNL     1      19.878   9.810  19.502  1.00  0.00    -0.080 C 
ATOM      9  C   UNL     1      20.763   9.007  20.425  1.00  0.00     0.039 C 
ENDBRANCH   5   6
ENDBRANCH   4   5
ENDBRANCH   1   4
BRANCH   2  10
ATOM     10  C   UNL     1      22.343   5.105  18.856  1.00  0.00     0.183 C 
BRANCH  10  11
ATOM     11  O   UNL     1      22.406   4.764  20.214  1.00  0.00    -0.392 OA
ATOM     12  H   UNL     1      22.653   5.593  20.704  1.00  0.00     0.210 HD
ENDBRANCH  10  11
ENDBRANCH   2  10
TORSDOF 5
ENDMDL
