MODEL 1
REMARK VINA RESULT:    -2.778      0.000      0.000
REMARK INTER + INTRA:          -4.113
REMARK INTER:                  -3.752
REMARK INTRA:                  -0.360
REMARK UNBOUND:                -0.360
REMARK SMILES CCCCCCCC(C)=O
REMARK SMILES IDX 5 1 4 2 3 3 2 4 1 5 6 6 7 7 8 8 10 9 9 10
REMARK H PARENT
REMARK Flexibility Score: inf
ROOT
ATOM      1  C   UNL     1     230.811 242.171 234.976  1.00  0.00     0.000 C 
ENDROOT
BRANCH   1   2
ATOM      2  C   UNL     1     229.829 242.040 233.797  1.00  0.00     0.000 C 
BRANCH   2   3
ATOM      3  C   UNL     1     229.470 243.366 233.102  1.00  0.00    -0.000 C 
BRANCH   3   4
ATOM      4  C   UNL     1     228.248 243.248 232.180  1.00  0.00    -0.003 C 
ATOM      5  C   UNL     1     227.067 242.616 232.910  1.00  0.00     0.004 C 
ENDBRANCH   3   4
ENDBRANCH   2   3
ENDBRANCH   1   2
BRANCH   1   6
ATOM      6  C   UNL     1     232.056 241.282 234.821  1.00  0.00     0.008 C 
BRANCH   6   7
ATOM      7  C   UNL     1     232.409 241.039 233.347  1.00  0.00     0.075 C 
BRANCH   7   8
ATOM      8  C   UNL     1     232.435 239.570 233.013  1.00  0.00     0.129 C 
ATOM      9  O   UNL     1     233.167 239.168 232.122  1.00  0.00    -0.300 OA
ATOM     10  C   UNL     1     231.576 238.586 233.750  1.00  0.00     0.087 C 
ENDBRANCH   7   8
ENDBRANCH   6   7
ENDBRANCH   1   6
TORSDOF 6
ENDMDL
MODEL 2
REMARK VINA RESULT:    -2.768     13.329     16.640
REMARK INTER + INTRA:          -4.099
REMARK INTER:                  -3.781
REMARK INTRA:                  -0.318
REMARK UNBOUND:                -0.360
REMARK SMILES CCCCCCCC(C)=O
REMARK SMILES IDX 5 1 4 2 3 3 2 4 1 5 6 6 7 7 8 8 10 9 9 10
REMARK H PARENT
REMARK Flexibility Score: inf
ROOT
ATOM      1  C   UNL     1     238.595 227.199 234.595  1.00  0.00     0.000 C 
ENDROOT
BRANCH   1   2
ATOM      2  C   UNL     1     239.635 226.123 234.236  1.00  0.00     0.000 C 
BRANCH   2   3
ATOM      3  C   UNL     1     239.322 225.319 232.961  1.00  0.00    -0.000 C 
BRANCH   3   4
ATOM      4  C   UNL     1     240.498 225.280 231.973  1.00  0.00    -0.003 C 
ATOM      5  C   UNL     1     241.778 225.798 232.621  1.00  0.00     0.004 C 
ENDBRANCH   3   4
ENDBRANCH   2   3
ENDBRANCH   1   2
BRANCH   1   6
ATOM      6  C   UNL     1     237.276 227.041 233.819  1.00  0.00     0.008 C 
BRANCH   6   7
ATOM      7  C   UNL     1     236.252 228.119 234.201  1.00  0.00     0.075 C 
BRANCH   7   8
ATOM      8  C   UNL     1     236.078 229.138 233.105  1.00  0.00     0.129 C 
ATOM      9  O   UNL     1     235.398 228.861 232.128  1.00  0.00    -0.300 OA
ATOM     10  C   UNL     1     236.726 230.488 233.183  1.00  0.00     0.087 C 
ENDBRANCH   7   8
ENDBRANCH   6   7
ENDBRANCH   1   6
TORSDOF 6
ENDMDL
MODEL 3
REMARK VINA RESULT:    -2.761      2.101      4.901
REMARK INTER + INTRA:          -4.090
REMARK INTER:                  -3.732
REMARK INTRA:                  -0.359
REMARK UNBOUND:                -0.360
REMARK SMILES CCCCCCCC(C)=O
REMARK SMILES IDX 5 1 4 2 3 3 2 4 1 5 6 6 7 7 8 8 10 9 9 10
REMARK H PARENT
REMARK Flexibility Score: inf
ROOT
ATOM      1  C   UNL     1     232.008 241.299 234.732  1.00  0.00     0.000 C 
ENDROOT
BRANCH   1   2
ATOM      2  C   UNL     1     232.493 239.843 234.604  1.00  0.00     0.000 C 
BRANCH   2   3
ATOM      3  C   UNL     1     231.534 238.904 233.850  1.00  0.00    -0.000 C 
BRANCH   3   4
ATOM      4  C   UNL     1     232.233 238.088 232.753  1.00  0.00    -0.003 C 
ATOM      5  C   UNL     1     233.186 238.961 231.941  1.00  0.00     0.004 C 
ENDBRANCH   3   4
ENDBRANCH   2   3
ENDBRANCH   1   2
BRANCH   1   6
ATOM      6  C   UNL     1     231.081 241.724 233.581  1.00  0.00     0.008 C 
BRANCH   6   7
ATOM      7  C   UNL     1     229.665 242.052 234.076  1.00  0.00     0.075 C 
BRANCH   7   8
ATOM      8  C   UNL     1     228.931 242.952 233.115  1.00  0.00     0.129 C 
ATOM      9  O   UNL     1     229.530 243.865 232.569  1.00  0.00    -0.300 OA
ATOM     10  C   UNL     1     227.475 242.753 232.817  1.00  0.00     0.087 C 
ENDBRANCH   7   8
ENDBRANCH   6   7
ENDBRANCH   1   6
TORSDOF 6
ENDMDL
MODEL 4
REMARK VINA RESULT:    -2.759      9.283     11.189
REMARK INTER + INTRA:          -4.087
REMARK INTER:                  -3.861
REMARK INTRA:                  -0.226
REMARK UNBOUND:                -0.360
REMARK SMILES CCCCCCCC(C)=O
REMARK SMILES IDX 5 1 4 2 3 3 2 4 1 5 6 6 7 7 8 8 10 9 9 10
REMARK H PARENT
REMARK Flexibility Score: inf
ROOT
ATOM      1  C   UNL     1     241.492 236.772 233.689  1.00  0.00     0.000 C 
ENDROOT
BRANCH   1   2
ATOM      2  C   UNL     1     241.764 238.272 233.907  1.00  0.00     0.000 C 
BRANCH   2   3
ATOM      3  C   UNL     1     243.092 238.782 233.317  1.00  0.00    -0.000 C 
BRANCH   3   4
ATOM      4  C   UNL     1     242.947 240.126 232.589  1.00  0.00    -0.003 C 
ATOM      5  C   UNL     1     242.453 241.215 233.536  1.00  0.00     0.004 C 
ENDBRANCH   3   4
ENDBRANCH   2   3
ENDBRANCH   1   2
BRANCH   1   6
ATOM      6  C   UNL     1     240.143 236.316 234.272  1.00  0.00     0.008 C 
BRANCH   6   7
ATOM      7  C   UNL     1     238.970 237.131 233.710  1.00  0.00     0.075 C 
BRANCH   7   8
ATOM      8  C   UNL     1     238.117 236.312 232.776  1.00  0.00     0.129 C 
ATOM      9  O   UNL     1     236.910 236.499 232.742  1.00  0.00    -0.300 OA
ATOM     10  C   UNL     1     238.718 235.265 231.885  1.00  0.00     0.087 C 
ENDBRANCH   7   8
ENDBRANCH   6   7
ENDBRANCH   1   6
TORSDOF 6
ENDMDL
MODEL 5
REMARK VINA RESULT:    -2.676      9.548     11.784
REMARK INTER + INTRA:          -3.975
REMARK INTER:                  -3.591
REMARK INTRA:                  -0.384
REMARK UNBOUND:                -0.360
REMARK SMILES CCCCCCCC(C)=O
REMARK SMILES IDX 5 1 4 2 3 3 2 4 1 5 6 6 7 7 8 8 10 9 9 10
REMARK H PARENT
REMARK Flexibility Score: inf
ROOT
ATOM      1  C   UNL     1     227.215 231.831 234.939  1.00  0.00     0.000 C 
ENDROOT
BRANCH   1   2
ATOM      2  C   UNL     1     228.634 232.407 234.778  1.00  0.00     0.000 C 
BRANCH   2   3
ATOM      3  C   UNL     1     229.705 231.383 234.356  1.00  0.00    -0.000 C 
BRANCH   3   4
ATOM      4  C   UNL     1     230.448 231.788 233.074  1.00  0.00    -0.003 C 
ATOM      5  C   UNL     1     229.716 232.910 232.344  1.00  0.00     0.004 C 
ENDBRANCH   3   4
ENDBRANCH   2   3
ENDBRANCH   1   2
BRANCH   1   6
ATOM      6  C   UNL     1     226.766 230.995 233.728  1.00  0.00     0.008 C 
BRANCH   6   7
ATOM      7  C   UNL     1     226.411 229.556 234.124  1.00  0.00     0.075 C 
BRANCH   7   8
ATOM      8  C   UNL     1     225.533 228.893 233.094  1.00  0.00     0.129 C 
ATOM      9  O   UNL     1     224.636 229.533 232.566  1.00  0.00    -0.300 OA
ATOM     10  C   UNL     1     225.733 227.459 232.705  1.00  0.00     0.087 C 
ENDBRANCH   7   8
ENDBRANCH   6   7
ENDBRANCH   1   6
TORSDOF 6
ENDMDL
MODEL 6
REMARK VINA RESULT:    -2.657     12.494     15.272
REMARK INTER + INTRA:          -3.949
REMARK INTER:                  -3.354
REMARK INTRA:                  -0.595
REMARK UNBOUND:                -0.360
REMARK SMILES CCCCCCCC(C)=O
REMARK SMILES IDX 5 1 4 2 3 3 2 4 1 5 6 6 7 7 8 8 10 9 9 10
REMARK H PARENT
REMARK Flexibility Score: inf
ROOT
ATOM      1  C   UNL     1     236.255 227.121 234.706  1.00  0.00     0.000 C 
ENDROOT
BRANCH   1   2
ATOM      2  C   UNL     1     237.398 226.693 233.767  1.00  0.00     0.000 C 
BRANCH   2   3
ATOM      3  C   UNL     1     238.529 225.896 234.444  1.00  0.00    -0.000 C 
BRANCH   3   4
ATOM      4  C   UNL     1     239.077 226.585 235.702  1.00  0.00    -0.003 C 
ATOM      5  C   UNL     1     239.933 227.795 235.338  1.00  0.00     0.004 C 
ENDBRANCH   3   4
ENDBRANCH   2   3
ENDBRANCH   1   2
BRANCH   1   6
ATOM      6  C   UNL     1     235.987 228.636 234.671  1.00  0.00     0.008 C 
BRANCH   6   7
ATOM      7  C   UNL     1     236.940 229.366 233.715  1.00  0.00     0.075 C 
BRANCH   7   8
ATOM      8  C   UNL     1     236.200 230.304 232.797  1.00  0.00     0.129 C 
ATOM      9  O   UNL     1     236.475 231.494 232.803  1.00  0.00    -0.300 OA
ATOM     10  C   UNL     1     235.125 229.808 231.875  1.00  0.00     0.087 C 
ENDBRANCH   7   8
ENDBRANCH   6   7
ENDBRANCH   1   6
TORSDOF 6
ENDMDL
MODEL 7
REMARK VINA RESULT:    -2.585      2.403      4.833
REMARK INTER + INTRA:          -3.853
REMARK INTER:                  -3.256
REMARK INTRA:                  -0.597
REMARK UNBOUND:                -0.360
REMARK SMILES CCCCCCCC(C)=O
REMARK SMILES IDX 5 1 4 2 3 3 2 4 1 5 6 6 7 7 8 8 10 9 9 10
REMARK H PARENT
REMARK Flexibility Score: inf
ROOT
ATOM      1  C   UNL     1     232.929 239.161 235.142  1.00  0.00     0.000 C 
ENDROOT
BRANCH   1   2
ATOM      2  C   UNL     1     231.962 238.076 234.632  1.00  0.00     0.000 C 
BRANCH   2   3
ATOM      3  C   UNL     1     231.740 238.070 233.109  1.00  0.00    -0.000 C 
BRANCH   3   4
ATOM      4  C   UNL     1     232.973 238.537 232.321  1.00  0.00    -0.003 C 
ATOM      5  C   UNL     1     233.919 237.374 232.040  1.00  0.00     0.004 C 
ENDBRANCH   3   4
ENDBRANCH   2   3
ENDBRANCH   1   2
BRANCH   1   6
ATOM      6  C   UNL     1     232.204 240.426 235.631  1.00  0.00     0.008 C 
BRANCH   6   7
ATOM      7  C   UNL     1     232.027 241.457 234.508  1.00  0.00     0.075 C 
BRANCH   7   8
ATOM      8  C   UNL     1     230.572 241.738 234.232  1.00  0.00     0.129 C 
ATOM      9  O   UNL     1     230.268 242.629 233.454  1.00  0.00    -0.300 OA
ATOM     10  C   UNL     1     229.484 240.948 234.898  1.00  0.00     0.087 C 
ENDBRANCH   7   8
ENDBRANCH   6   7
ENDBRANCH   1   6
TORSDOF 6
ENDMDL
MODEL 8
REMARK VINA RESULT:    -2.529      8.713     11.031
REMARK INTER + INTRA:          -3.776
REMARK INTER:                  -3.174
REMARK INTRA:                  -0.603
REMARK UNBOUND:                -0.360
REMARK SMILES CCCCCCCC(C)=O
REMARK SMILES IDX 5 1 4 2 3 3 2 4 1 5 6 6 7 7 8 8 10 9 9 10
REMARK H PARENT
REMARK Flexibility Score: inf
ROOT
ATOM      1  C   UNL     1     227.186 232.112 234.303  1.00  0.00     0.000 C 
ENDROOT
BRANCH   1   2
ATOM      2  C   UNL     1     226.824 230.719 233.754  1.00  0.00     0.000 C 
BRANCH   2   3
ATOM      3  C   UNL     1     226.290 229.727 234.804  1.00  0.00    -0.000 C 
BRANCH   3   4
ATOM      4  C   UNL     1     227.249 228.557 235.065  1.00  0.00    -0.003 C 
ATOM      5  C   UNL     1     228.202 228.873 236.214  1.00  0.00     0.004 C 
ENDBRANCH   3   4
ENDBRANCH   2   3
ENDBRANCH   1   2
BRANCH   1   6
ATOM      6  C   UNL     1     228.677 232.249 234.653  1.00  0.00     0.008 C 
BRANCH   6   7
ATOM      7  C   UNL     1     229.564 231.400 233.732  1.00  0.00     0.075 C 
BRANCH   7   8
ATOM      8  C   UNL     1     230.388 232.256 232.805  1.00  0.00     0.129 C 
ATOM      9  O   UNL     1     231.605 232.150 232.811  1.00  0.00    -0.300 OA
ATOM     10  C   UNL     1     229.746 233.241 231.875  1.00  0.00     0.087 C 
ENDBRANCH   7   8
ENDBRANCH   6   7
ENDBRANCH   1   6
TORSDOF 6
ENDMDL
