MODEL 1
REMARK VINA RESULT:    -4.915      0.000      0.000
REMARK INTER + INTRA:         -11.191
REMARK INTER:                  -8.937
REMARK INTRA:                  -2.254
REMARK UNBOUND:                -2.254
REMARK SMILES CCCCCC=CCC=CCCCCCCCC(=O)[O-]
REMARK SMILES IDX 11 1 12 2 13 3 14 4 15 5 16 6 17 7 18 8 19 9 20 10 10 11
REMARK SMILES IDX 9 12 8 13 7 14 6 15 5 16 4 17 3 18 2 19 1 20
REMARK H PARENT
REMARK Flexibility Score: inf
ROOT
ATOM      1  C   UNL     1      -3.460   3.423  15.655  1.00  0.00     0.027 C 
ENDROOT
BRANCH   1   2
ATOM      2  C   UNL     1      -2.498   2.575  16.498  1.00  0.00     0.004 C 
BRANCH   2   3
ATOM      3  C   UNL     1      -1.229   3.341  16.896  1.00  0.00     0.000 C 
BRANCH   3   4
ATOM      4  C   UNL     1      -1.330   4.819  16.504  1.00  0.00     0.000 C 
BRANCH   4   5
ATOM      5  C   UNL     1       0.004   5.542  16.746  1.00  0.00     0.000 C 
BRANCH   5   6
ATOM      6  C   UNL     1      -0.088   6.603  17.854  1.00  0.00     0.006 C 
BRANCH   6   7
ATOM      7  C   UNL     1       0.171   6.021  19.251  1.00  0.00     0.053 C 
BRANCH   7   8
ATOM      8  C   UNL     1       0.142   7.105  20.282  1.00  0.00     0.041 C 
ATOM      9  O   UNL     1      -0.368   6.892  21.413  1.00  0.00    -0.550 OA
ATOM     10  O   UNL     1       0.715   8.341  20.008  1.00  0.00    -0.550 OA
ENDBRANCH   7   8
ENDBRANCH   6   7
ENDBRANCH   5   6
ENDBRANCH   4   5
ENDBRANCH   3   4
ENDBRANCH   2   3
ENDBRANCH   1   2
BRANCH   1  11
ATOM     11  C   UNL     1      -4.881   3.346  16.164  1.00  0.00    -0.031 C 
ATOM     12  C   UNL     1      -5.541   4.320  16.820  1.00  0.00    -0.027 C 
BRANCH  12  13
ATOM     13  C   UNL     1      -4.972   5.664  17.207  1.00  0.00     0.054 C 
BRANCH  13  14
ATOM     14  C   UNL     1      -6.021   6.736  17.079  1.00  0.00    -0.027 C 
ATOM     15  C   UNL     1      -6.179   7.525  15.998  1.00  0.00    -0.031 C 
BRANCH  15  16
ATOM     16  C   UNL     1      -5.301   7.484  14.773  1.00  0.00     0.027 C 
BRANCH  16  17
ATOM     17  C   UNL     1      -6.032   6.828  13.593  1.00  0.00     0.004 C 
BRANCH  17  18
ATOM     18  C   UNL     1      -5.435   5.464  13.214  1.00  0.00     0.000 C 
BRANCH  18  19
ATOM     19  C   UNL     1      -6.513   4.399  12.962  1.00  0.00    -0.003 C 
ATOM     20  C   UNL     1      -7.741   4.647  13.833  1.00  0.00     0.004 C 
ENDBRANCH  18  19
ENDBRANCH  17  18
ENDBRANCH  16  17
ENDBRANCH  15  16
ENDBRANCH  13  14
ENDBRANCH  12  13
ENDBRANCH   1  11
TORSDOF 14
ENDMDL
MODEL 2
REMARK VINA RESULT:    -4.895      1.281      2.394
REMARK INTER + INTRA:         -11.156
REMARK INTER:                  -9.585
REMARK INTRA:                  -1.571
REMARK UNBOUND:                -2.254
REMARK SMILES CCCCCC=CCC=CCCCCCCCC(=O)[O-]
REMARK SMILES IDX 11 1 12 2 13 3 14 4 15 5 16 6 17 7 18 8 19 9 20 10 10 11
REMARK SMILES IDX 9 12 8 13 7 14 6 15 5 16 4 17 3 18 2 19 1 20
REMARK H PARENT
REMARK Flexibility Score: inf
ROOT
ATOM      1  C   UNL     1      -1.719   4.019  15.704  1.00  0.00     0.027 C 
ENDROOT
BRANCH   1   2
ATOM      2  C   UNL     1      -1.561   5.324  16.497  1.00  0.00     0.004 C 
BRANCH   2   3
ATOM      3  C   UNL     1      -0.127   5.540  17.001  1.00  0.00     0.000 C 
BRANCH   3   4
ATOM      4  C   UNL     1      -0.110   5.846  18.502  1.00  0.00     0.000 C 
BRANCH   4   5
ATOM      5  C   UNL     1       0.544   7.210  18.775  1.00  0.00     0.000 C 
BRANCH   5   6
ATOM      6  C   UNL     1       0.539   7.583  20.266  1.00  0.00     0.006 C 
BRANCH   6   7
ATOM      7  C   UNL     1      -0.445   6.734  21.083  1.00  0.00     0.053 C 
BRANCH   7   8
ATOM      8  C   UNL     1      -0.008   6.659  22.512  1.00  0.00     0.041 C 
ATOM      9  O   UNL     1      -0.862   6.576  23.434  1.00  0.00    -0.550 OA
ATOM     10  O   UNL     1       1.346   6.639  22.826  1.00  0.00    -0.550 OA
ENDBRANCH   7   8
ENDBRANCH   6   7
ENDBRANCH   5   6
ENDBRANCH   4   5
ENDBRANCH   3   4
ENDBRANCH   2   3
ENDBRANCH   1   2
BRANCH   1  11
ATOM     11  C   UNL     1      -2.279   2.902  16.554  1.00  0.00    -0.031 C 
ATOM     12  C   UNL     1      -3.584   2.602  16.707  1.00  0.00    -0.027 C 
BRANCH  12  13
ATOM     13  C   UNL     1      -4.739   3.350  16.087  1.00  0.00     0.054 C 
BRANCH  13  14
ATOM     14  C   UNL     1      -5.305   4.347  17.064  1.00  0.00    -0.027 C 
ATOM     15  C   UNL     1      -5.431   5.666  16.822  1.00  0.00    -0.031 C 
BRANCH  15  16
ATOM     16  C   UNL     1      -4.982   6.351  15.556  1.00  0.00     0.027 C 
BRANCH  16  17
ATOM     17  C   UNL     1      -6.129   7.155  14.929  1.00  0.00     0.004 C 
BRANCH  17  18
ATOM     18  C   UNL     1      -6.601   6.565  13.590  1.00  0.00     0.000 C 
BRANCH  18  19
ATOM     19  C   UNL     1      -5.724   5.394  13.122  1.00  0.00    -0.003 C 
ATOM     20  C   UNL     1      -5.414   5.505  11.632  1.00  0.00     0.004 C 
ENDBRANCH  18  19
ENDBRANCH  17  18
ENDBRANCH  16  17
ENDBRANCH  15  16
ENDBRANCH  13  14
ENDBRANCH  12  13
ENDBRANCH   1  11
TORSDOF 14
ENDMDL
MODEL 3
REMARK VINA RESULT:    -4.857      1.137      1.620
REMARK INTER + INTRA:         -11.087
REMARK INTER:                  -9.501
REMARK INTRA:                  -1.586
REMARK UNBOUND:                -2.254
REMARK SMILES CCCCCC=CCC=CCCCCCCCC(=O)[O-]
REMARK SMILES IDX 11 1 12 2 13 3 14 4 15 5 16 6 17 7 18 8 19 9 20 10 10 11
REMARK SMILES IDX 9 12 8 13 7 14 6 15 5 16 4 17 3 18 2 19 1 20
REMARK H PARENT
REMARK Flexibility Score: inf
ROOT
ATOM      1  C   UNL     1      -2.975   3.852  15.711  1.00  0.00     0.027 C 
ENDROOT
BRANCH   1   2
ATOM      2  C   UNL     1      -2.008   3.021  16.567  1.00  0.00     0.004 C 
BRANCH   2   3
ATOM      3  C   UNL     1      -0.980   3.888  17.307  1.00  0.00     0.000 C 
BRANCH   3   4
ATOM      4  C   UNL     1      -0.770   5.227  16.591  1.00  0.00     0.000 C 
BRANCH   4   5
ATOM      5  C   UNL     1       0.108   6.166  17.434  1.00  0.00     0.000 C 
BRANCH   5   6
ATOM      6  C   UNL     1      -0.125   6.000  18.944  1.00  0.00     0.006 C 
BRANCH   6   7
ATOM      7  C   UNL     1       0.258   7.254  19.742  1.00  0.00     0.053 C 
BRANCH   7   8
ATOM      8  C   UNL     1       0.470   6.911  21.183  1.00  0.00     0.041 C 
ATOM      9  O   UNL     1      -0.517   6.733  21.945  1.00  0.00    -0.550 OA
ATOM     10  O   UNL     1       1.758   6.748  21.678  1.00  0.00    -0.550 OA
ENDBRANCH   7   8
ENDBRANCH   6   7
ENDBRANCH   5   6
ENDBRANCH   4   5
ENDBRANCH   3   4
ENDBRANCH   2   3
ENDBRANCH   1   2
BRANCH   1  11
ATOM     11  C   UNL     1      -4.391   3.329  15.782  1.00  0.00    -0.031 C 
ATOM     12  C   UNL     1      -5.426   3.928  16.404  1.00  0.00    -0.027 C 
BRANCH  12  13
ATOM     13  C   UNL     1      -5.359   5.220  17.181  1.00  0.00     0.054 C 
BRANCH  13  14
ATOM     14  C   UNL     1      -5.306   6.397  16.243  1.00  0.00    -0.027 C 
ATOM     15  C   UNL     1      -6.381   7.101  15.840  1.00  0.00    -0.031 C 
BRANCH  15  16
ATOM     16  C   UNL     1      -7.804   6.789  16.230  1.00  0.00     0.027 C 
BRANCH  16  17
ATOM     17  C   UNL     1      -8.712   6.724  14.994  1.00  0.00     0.004 C 
BRANCH  17  18
ATOM     18  C   UNL     1      -8.866   5.296  14.449  1.00  0.00     0.000 C 
BRANCH  18  19
ATOM     19  C   UNL     1      -8.236   5.126  13.058  1.00  0.00    -0.003 C 
ATOM     20  C   UNL     1      -6.987   4.252  13.126  1.00  0.00     0.004 C 
ENDBRANCH  18  19
ENDBRANCH  17  18
ENDBRANCH  16  17
ENDBRANCH  15  16
ENDBRANCH  13  14
ENDBRANCH  12  13
ENDBRANCH   1  11
TORSDOF 14
ENDMDL
MODEL 4
REMARK VINA RESULT:    -4.855      2.923      4.898
REMARK INTER + INTRA:         -11.083
REMARK INTER:                  -8.147
REMARK INTRA:                  -2.936
REMARK UNBOUND:                -2.254
REMARK SMILES CCCCCC=CCC=CCCCCCCCC(=O)[O-]
REMARK SMILES IDX 11 1 12 2 13 3 14 4 15 5 16 6 17 7 18 8 19 9 20 10 10 11
REMARK SMILES IDX 9 12 8 13 7 14 6 15 5 16 4 17 3 18 2 19 1 20
REMARK H PARENT
REMARK Flexibility Score: inf
ROOT
ATOM      1  C   UNL     1      -5.839   7.616  15.481  1.00  0.00     0.027 C 
ENDROOT
BRANCH   1   2
ATOM      2  C   UNL     1      -6.085   7.731  16.992  1.00  0.00     0.004 C 
BRANCH   2   3
ATOM      3  C   UNL     1      -5.957   6.384  17.717  1.00  0.00     0.000 C 
BRANCH   3   4
ATOM      4  C   UNL     1      -4.930   5.481  17.026  1.00  0.00     0.000 C 
BRANCH   4   5
ATOM      5  C   UNL     1      -5.420   4.025  16.986  1.00  0.00     0.000 C 
BRANCH   5   6
ATOM      6  C   UNL     1      -4.379   3.064  16.392  1.00  0.00     0.006 C 
BRANCH   6   7
ATOM      7  C   UNL     1      -3.312   3.789  15.560  1.00  0.00     0.053 C 
BRANCH   7   8
ATOM      8  C   UNL     1      -1.943   3.466  16.069  1.00  0.00     0.041 C 
ATOM      9  O   UNL     1      -1.754   2.438  16.774  1.00  0.00    -0.550 OA
ATOM     10  O   UNL     1      -0.866   4.276  15.733  1.00  0.00    -0.550 OA
ENDBRANCH   7   8
ENDBRANCH   6   7
ENDBRANCH   5   6
ENDBRANCH   4   5
ENDBRANCH   3   4
ENDBRANCH   2   3
ENDBRANCH   1   2
BRANCH   1  11
ATOM     11  C   UNL     1      -7.005   8.138  14.673  1.00  0.00    -0.031 C 
ATOM     12  C   UNL     1      -8.164   7.491  14.447  1.00  0.00    -0.027 C 
BRANCH  12  13
ATOM     13  C   UNL     1      -8.507   6.101  14.926  1.00  0.00     0.054 C 
BRANCH  13  14
ATOM     14  C   UNL     1      -8.846   5.210  13.760  1.00  0.00    -0.027 C 
ATOM     15  C   UNL     1      -7.994   4.331  13.198  1.00  0.00    -0.031 C 
BRANCH  15  16
ATOM     16  C   UNL     1      -6.560   4.138  13.621  1.00  0.00     0.027 C 
BRANCH  16  17
ATOM     17  C   UNL     1      -5.601   4.391  12.448  1.00  0.00     0.004 C 
BRANCH  17  18
ATOM     18  C   UNL     1      -5.170   5.863  12.345  1.00  0.00     0.000 C 
BRANCH  18  19
ATOM     19  C   UNL     1      -5.499   6.478  10.977  1.00  0.00    -0.003 C 
ATOM     20  C   UNL     1      -6.900   7.083  10.972  1.00  0.00     0.004 C 
ENDBRANCH  18  19
ENDBRANCH  17  18
ENDBRANCH  16  17
ENDBRANCH  15  16
ENDBRANCH  13  14
ENDBRANCH  12  13
ENDBRANCH   1  11
TORSDOF 14
ENDMDL
MODEL 5
REMARK VINA RESULT:    -4.746      1.378      3.063
REMARK INTER + INTRA:         -10.884
REMARK INTER:                  -9.325
REMARK INTRA:                  -1.559
REMARK UNBOUND:                -2.254
REMARK SMILES CCCCCC=CCC=CCCCCCCCC(=O)[O-]
REMARK SMILES IDX 11 1 12 2 13 3 14 4 15 5 16 6 17 7 18 8 19 9 20 10 10 11
REMARK SMILES IDX 9 12 8 13 7 14 6 15 5 16 4 17 3 18 2 19 1 20
REMARK H PARENT
REMARK Flexibility Score: inf
ROOT
ATOM      1  C   UNL     1      -1.778   4.893  16.236  1.00  0.00     0.027 C 
ENDROOT
BRANCH   1   2
ATOM      2  C   UNL     1      -0.393   4.926  16.899  1.00  0.00     0.004 C 
BRANCH   2   3
ATOM      3  C   UNL     1      -0.133   6.234  17.659  1.00  0.00     0.000 C 
BRANCH   3   4
ATOM      4  C   UNL     1       0.720   7.196  16.826  1.00  0.00     0.000 C 
BRANCH   4   5
ATOM      5  C   UNL     1       1.261   8.342  17.697  1.00  0.00     0.000 C 
BRANCH   5   6
ATOM      6  C   UNL     1       0.556   8.436  19.058  1.00  0.00     0.006 C 
BRANCH   6   7
ATOM      7  C   UNL     1       1.534   8.345  20.238  1.00  0.00     0.053 C 
BRANCH   7   8
ATOM      8  C   UNL     1       1.156   7.216  21.144  1.00  0.00     0.041 C 
ATOM      9  O   UNL     1       2.006   6.721  21.931  1.00  0.00    -0.550 OA
ATOM     10  O   UNL     1      -0.148   6.734  21.150  1.00  0.00    -0.550 OA
ENDBRANCH   7   8
ENDBRANCH   6   7
ENDBRANCH   5   6
ENDBRANCH   4   5
ENDBRANCH   3   4
ENDBRANCH   2   3
ENDBRANCH   1   2
BRANCH   1  11
ATOM     11  C   UNL     1      -2.219   3.484  15.911  1.00  0.00    -0.031 C 
ATOM     12  C   UNL     1      -3.445   2.968  16.130  1.00  0.00    -0.027 C 
BRANCH  12  13
ATOM     13  C   UNL     1      -4.602   3.689  16.778  1.00  0.00     0.054 C 
BRANCH  13  14
ATOM     14  C   UNL     1      -5.776   3.753  15.836  1.00  0.00    -0.027 C 
ATOM     15  C   UNL     1      -6.053   4.797  15.032  1.00  0.00    -0.031 C 
BRANCH  15  16
ATOM     16  C   UNL     1      -5.258   6.077  14.985  1.00  0.00     0.027 C 
BRANCH  16  17
ATOM     17  C   UNL     1      -6.174   7.300  15.135  1.00  0.00     0.004 C 
BRANCH  17  18
ATOM     18  C   UNL     1      -6.125   7.904  16.548  1.00  0.00     0.000 C 
BRANCH  18  19
ATOM     19  C   UNL     1      -7.090   7.208  17.519  1.00  0.00    -0.003 C 
ATOM     20  C   UNL     1      -6.326   6.433  18.589  1.00  0.00     0.004 C 
ENDBRANCH  18  19
ENDBRANCH  17  18
ENDBRANCH  16  17
ENDBRANCH  15  16
ENDBRANCH  13  14
ENDBRANCH  12  13
ENDBRANCH   1  11
TORSDOF 14
ENDMDL
MODEL 6
REMARK VINA RESULT:    -4.616      1.954      4.016
REMARK INTER + INTRA:         -10.647
REMARK INTER:                  -8.074
REMARK INTRA:                  -2.573
REMARK UNBOUND:                -2.254
REMARK SMILES CCCCCC=CCC=CCCCCCCCC(=O)[O-]
REMARK SMILES IDX 11 1 12 2 13 3 14 4 15 5 16 6 17 7 18 8 19 9 20 10 10 11
REMARK SMILES IDX 9 12 8 13 7 14 6 15 5 16 4 17 3 18 2 19 1 20
REMARK H PARENT
REMARK Flexibility Score: inf
ROOT
ATOM      1  C   UNL     1      -4.948   6.091  15.158  1.00  0.00     0.027 C 
ENDROOT
BRANCH   1   2
ATOM      2  C   UNL     1      -4.797   5.734  16.643  1.00  0.00     0.004 C 
BRANCH   2   3
ATOM      3  C   UNL     1      -5.523   4.434  17.016  1.00  0.00     0.000 C 
BRANCH   3   4
ATOM      4  C   UNL     1      -5.086   3.279  16.109  1.00  0.00     0.000 C 
BRANCH   4   5
ATOM      5  C   UNL     1      -3.817   2.604  16.653  1.00  0.00     0.000 C 
BRANCH   5   6
ATOM      6  C   UNL     1      -2.544   3.057  15.921  1.00  0.00     0.006 C 
BRANCH   6   7
ATOM      7  C   UNL     1      -1.340   3.198  16.862  1.00  0.00     0.053 C 
BRANCH   7   8
ATOM      8  C   UNL     1      -0.911   4.629  16.951  1.00  0.00     0.041 C 
ATOM      9  O   UNL     1      -1.296   5.462  16.088  1.00  0.00    -0.550 OA
ATOM     10  O   UNL     1      -0.117   5.053  18.010  1.00  0.00    -0.550 OA
ENDBRANCH   7   8
ENDBRANCH   6   7
ENDBRANCH   5   6
ENDBRANCH   4   5
ENDBRANCH   3   4
ENDBRANCH   2   3
ENDBRANCH   1   2
BRANCH   1  11
ATOM     11  C   UNL     1      -5.575   7.452  14.960  1.00  0.00    -0.031 C 
ATOM     12  C   UNL     1      -6.883   7.747  15.092  1.00  0.00    -0.027 C 
BRANCH  12  13
ATOM     13  C   UNL     1      -7.980   6.766  15.427  1.00  0.00     0.054 C 
BRANCH  13  14
ATOM     14  C   UNL     1      -8.847   6.514  14.222  1.00  0.00    -0.027 C 
ATOM     15  C   UNL     1      -8.713   5.463  13.390  1.00  0.00    -0.031 C 
BRANCH  15  16
ATOM     16  C   UNL     1      -7.645   4.405  13.513  1.00  0.00     0.027 C 
BRANCH  16  17
ATOM     17  C   UNL     1      -6.941   4.175  12.168  1.00  0.00     0.004 C 
BRANCH  17  18
ATOM     18  C   UNL     1      -5.737   5.109  11.966  1.00  0.00     0.000 C 
BRANCH  18  19
ATOM     19  C   UNL     1      -5.940   6.086  10.798  1.00  0.00    -0.003 C 
ATOM     20  C   UNL     1      -6.346   7.467  11.304  1.00  0.00     0.004 C 
ENDBRANCH  18  19
ENDBRANCH  17  18
ENDBRANCH  16  17
ENDBRANCH  15  16
ENDBRANCH  13  14
ENDBRANCH  12  13
ENDBRANCH   1  11
TORSDOF 14
ENDMDL
MODEL 7
REMARK VINA RESULT:    -4.539      1.317      2.947
REMARK INTER + INTRA:         -10.507
REMARK INTER:                  -8.311
REMARK INTRA:                  -2.196
REMARK UNBOUND:                -2.254
REMARK SMILES CCCCCC=CCC=CCCCCCCCC(=O)[O-]
REMARK SMILES IDX 11 1 12 2 13 3 14 4 15 5 16 6 17 7 18 8 19 9 20 10 10 11
REMARK SMILES IDX 9 12 8 13 7 14 6 15 5 16 4 17 3 18 2 19 1 20
REMARK H PARENT
REMARK Flexibility Score: inf
ROOT
ATOM      1  C   UNL     1      -5.478   5.360  16.716  1.00  0.00     0.027 C 
ENDROOT
BRANCH   1   2
ATOM      2  C   UNL     1      -3.953   5.198  16.659  1.00  0.00     0.004 C 
BRANCH   2   3
ATOM      3  C   UNL     1      -3.523   3.864  16.034  1.00  0.00     0.000 C 
BRANCH   3   4
ATOM      4  C   UNL     1      -2.058   3.910  15.587  1.00  0.00     0.000 C 
BRANCH   4   5
ATOM      5  C   UNL     1      -1.116   3.952  16.801  1.00  0.00     0.000 C 
BRANCH   5   6
ATOM      6  C   UNL     1      -0.455   5.326  16.992  1.00  0.00     0.006 C 
BRANCH   6   7
ATOM      7  C   UNL     1      -0.152   5.636  18.464  1.00  0.00     0.053 C 
BRANCH   7   8
ATOM      8  C   UNL     1       0.305   7.052  18.617  1.00  0.00     0.041 C 
ATOM      9  O   UNL     1       0.721   7.696  17.617  1.00  0.00    -0.550 OA
ATOM     10  O   UNL     1       0.234   7.678  19.856  1.00  0.00    -0.550 OA
ENDBRANCH   7   8
ENDBRANCH   6   7
ENDBRANCH   5   6
ENDBRANCH   4   5
ENDBRANCH   3   4
ENDBRANCH   2   3
ENDBRANCH   1   2
BRANCH   1  11
ATOM     11  C   UNL     1      -5.905   6.798  16.527  1.00  0.00    -0.031 C 
ATOM     12  C   UNL     1      -7.129   7.217  16.150  1.00  0.00    -0.027 C 
BRANCH  12  13
ATOM     13  C   UNL     1      -8.299   6.328  15.809  1.00  0.00     0.054 C 
BRANCH  13  14
ATOM     14  C   UNL     1      -8.776   6.600  14.406  1.00  0.00    -0.027 C 
ATOM     15  C   UNL     1      -8.623   5.754  13.370  1.00  0.00    -0.031 C 
BRANCH  15  16
ATOM     16  C   UNL     1      -7.912   4.426  13.447  1.00  0.00     0.027 C 
BRANCH  16  17
ATOM     17  C   UNL     1      -6.727   4.380  12.471  1.00  0.00     0.004 C 
BRANCH  17  18
ATOM     18  C   UNL     1      -5.442   4.967  13.075  1.00  0.00     0.000 C 
BRANCH  18  19
ATOM     19  C   UNL     1      -5.165   6.398  12.591  1.00  0.00    -0.003 C 
ATOM     20  C   UNL     1      -4.020   7.030  13.378  1.00  0.00     0.004 C 
ENDBRANCH  18  19
ENDBRANCH  17  18
ENDBRANCH  16  17
ENDBRANCH  15  16
ENDBRANCH  13  14
ENDBRANCH  12  13
ENDBRANCH   1  11
TORSDOF 14
ENDMDL
MODEL 8
REMARK VINA RESULT:    -4.517      3.024      5.299
REMARK INTER + INTRA:         -10.467
REMARK INTER:                  -7.663
REMARK INTRA:                  -2.804
REMARK UNBOUND:                -2.254
REMARK SMILES CCCCCC=CCC=CCCCCCCCC(=O)[O-]
REMARK SMILES IDX 11 1 12 2 13 3 14 4 15 5 16 6 17 7 18 8 19 9 20 10 10 11
REMARK SMILES IDX 9 12 8 13 7 14 6 15 5 16 4 17 3 18 2 19 1 20
REMARK H PARENT
REMARK Flexibility Score: inf
ROOT
ATOM      1  C   UNL     1      -7.755   7.576  14.634  1.00  0.00     0.027 C 
ENDROOT
BRANCH   1   2
ATOM      2  C   UNL     1      -6.602   7.768  15.629  1.00  0.00     0.004 C 
BRANCH   2   3
ATOM      3  C   UNL     1      -6.622   6.734  16.763  1.00  0.00     0.000 C 
BRANCH   3   4
ATOM      4  C   UNL     1      -5.394   5.819  16.699  1.00  0.00     0.000 C 
BRANCH   4   5
ATOM      5  C   UNL     1      -5.790   4.401  16.257  1.00  0.00     0.000 C 
BRANCH   5   6
ATOM      6  C   UNL     1      -4.661   3.676  15.509  1.00  0.00     0.006 C 
BRANCH   6   7
ATOM      7  C   UNL     1      -3.688   2.962  16.458  1.00  0.00     0.053 C 
BRANCH   7   8
ATOM      8  C   UNL     1      -2.298   3.481  16.267  1.00  0.00     0.041 C 
ATOM      9  O   UNL     1      -1.310   2.818  16.682  1.00  0.00    -0.550 OA
ATOM     10  O   UNL     1      -2.088   4.680  15.596  1.00  0.00    -0.550 OA
ENDBRANCH   7   8
ENDBRANCH   6   7
ENDBRANCH   5   6
ENDBRANCH   4   5
ENDBRANCH   3   4
ENDBRANCH   2   3
ENDBRANCH   1   2
BRANCH   1  11
ATOM     11  C   UNL     1      -8.714   6.495  15.075  1.00  0.00    -0.031 C 
ATOM     12  C   UNL     1      -9.066   5.409  14.360  1.00  0.00    -0.027 C 
BRANCH  12  13
ATOM     13  C   UNL     1      -8.596   5.083  12.963  1.00  0.00     0.054 C 
BRANCH  13  14
ATOM     14  C   UNL     1      -7.382   4.192  13.010  1.00  0.00    -0.027 C 
ATOM     15  C   UNL     1      -6.334   4.285  12.169  1.00  0.00    -0.031 C 
BRANCH  15  16
ATOM     16  C   UNL     1      -6.238   5.264  11.026  1.00  0.00     0.027 C 
BRANCH  16  17
ATOM     17  C   UNL     1      -4.950   6.095  11.120  1.00  0.00     0.004 C 
BRANCH  17  18
ATOM     18  C   UNL     1      -4.969   7.081  12.299  1.00  0.00     0.000 C 
BRANCH  18  19
ATOM     19  C   UNL     1      -3.941   6.723  13.382  1.00  0.00    -0.003 C 
ATOM     20  C   UNL     1      -2.898   7.826  13.533  1.00  0.00     0.004 C 
ENDBRANCH  18  19
ENDBRANCH  17  18
ENDBRANCH  16  17
ENDBRANCH  15  16
ENDBRANCH  13  14
ENDBRANCH  12  13
ENDBRANCH   1  11
TORSDOF 14
ENDMDL
MODEL 9
REMARK VINA RESULT:    -4.466      2.566      4.528
REMARK INTER + INTRA:         -10.376
REMARK INTER:                  -7.081
REMARK INTRA:                  -3.295
REMARK UNBOUND:                -2.254
REMARK SMILES CCCCCC=CCC=CCCCCCCCC(=O)[O-]
REMARK SMILES IDX 11 1 12 2 13 3 14 4 15 5 16 6 17 7 18 8 19 9 20 10 10 11
REMARK SMILES IDX 9 12 8 13 7 14 6 15 5 16 4 17 3 18 2 19 1 20
REMARK H PARENT
REMARK Flexibility Score: inf
ROOT
ATOM      1  C   UNL     1      -7.491   6.360  14.724  1.00  0.00     0.027 C 
ENDROOT
BRANCH   1   2
ATOM      2  C   UNL     1      -7.206   4.855  14.821  1.00  0.00     0.004 C 
BRANCH   2   3
ATOM      3  C   UNL     1      -6.384   4.331  13.636  1.00  0.00     0.000 C 
BRANCH   3   4
ATOM      4  C   UNL     1      -4.925   4.091  14.040  1.00  0.00     0.000 C 
BRANCH   4   5
ATOM      5  C   UNL     1      -4.808   3.851  15.554  1.00  0.00     0.000 C 
BRANCH   5   6
ATOM      6  C   UNL     1      -3.748   4.744  16.216  1.00  0.00     0.006 C 
BRANCH   6   7
ATOM      7  C   UNL     1      -2.382   4.655  15.522  1.00  0.00     0.053 C 
BRANCH   7   8
ATOM      8  C   UNL     1      -1.367   4.053  16.442  1.00  0.00     0.041 C 
ATOM      9  O   UNL     1      -1.387   2.818  16.689  1.00  0.00    -0.550 OA
ATOM     10  O   UNL     1      -0.373   4.849  16.998  1.00  0.00    -0.550 OA
ENDBRANCH   7   8
ENDBRANCH   6   7
ENDBRANCH   5   6
ENDBRANCH   4   5
ENDBRANCH   3   4
ENDBRANCH   2   3
ENDBRANCH   1   2
BRANCH   1  11
ATOM     11  C   UNL     1      -6.716   7.153  15.751  1.00  0.00    -0.031 C 
ATOM     12  C   UNL     1      -5.751   8.057  15.491  1.00  0.00    -0.027 C 
BRANCH  12  13
ATOM     13  C   UNL     1      -5.232   8.422  14.122  1.00  0.00     0.054 C 
BRANCH  13  14
ATOM     14  C   UNL     1      -3.935   7.708  13.843  1.00  0.00    -0.027 C 
ATOM     15  C   UNL     1      -3.535   7.301  12.623  1.00  0.00    -0.031 C 
BRANCH  15  16
ATOM     16  C   UNL     1      -4.344   7.457  11.360  1.00  0.00     0.027 C 
BRANCH  16  17
ATOM     17  C   UNL     1      -4.677   6.090  10.747  1.00  0.00     0.004 C 
BRANCH  17  18
ATOM     18  C   UNL     1      -6.118   6.017  10.215  1.00  0.00     0.000 C 
BRANCH  18  19
ATOM     19  C   UNL     1      -7.095   6.863  11.045  1.00  0.00    -0.003 C 
ATOM     20  C   UNL     1      -8.467   6.201  11.117  1.00  0.00     0.004 C 
ENDBRANCH  18  19
ENDBRANCH  17  18
ENDBRANCH  16  17
ENDBRANCH  15  16
ENDBRANCH  13  14
ENDBRANCH  12  13
ENDBRANCH   1  11
TORSDOF 14
ENDMDL
