MODEL 1
REMARK VINA RESULT:    -4.337      0.000      0.000
REMARK INTER + INTRA:          -5.720
REMARK INTER:                  -5.351
REMARK INTRA:                  -0.369
REMARK UNBOUND:                -0.369
REMARK SMILES Oc1cc(O)c2cc(O)c(-c3cc(O)c(O)c(O)c3)[o+]c2c1
REMARK SMILES IDX 10 1 20 2 21 3 22 4 2 5 3 6 4 7 6 8 7 9 8 10 11 11 12 12
REMARK SMILES IDX 13 13 19 14 15 15 17 16 14 17 16 19 18 21 9 23 1 25 5 27
REMARK H PARENT 14 18 16 20 18 22 9 24 1 26 5 28
REMARK Flexibility Score: inf
ROOT
ATOM      1  C   UNL     1      10.359  -1.297  14.095  1.00  0.00     0.402 A 
ATOM      2  O   UNL     1      10.091  -2.428  13.447  1.00  0.00    -0.202 OA
ATOM      3  C   UNL     1      11.015  -3.337  13.154  1.00  0.00     0.368 A 
ATOM      4  C   UNL     1      10.636  -4.497  12.473  1.00  0.00     0.162 A 
ATOM      5  C   UNL     1      11.584  -5.470  12.155  1.00  0.00     0.128 A 
ATOM      6  C   UNL     1      12.922  -5.285  12.520  1.00  0.00     0.093 A 
ATOM      7  C   UNL     1      13.328  -4.132  13.203  1.00  0.00     0.136 A 
ATOM      8  C   UNL     1      12.367  -3.139  13.526  1.00  0.00     0.125 A 
ATOM      9  C   UNL     1      12.684  -1.946  14.198  1.00  0.00     0.078 A 
ATOM     10  C   UNL     1      11.683  -1.011  14.477  1.00  0.00     0.223 A 
ENDROOT
BRANCH   1  11
ATOM     11  C   UNL     1       9.241  -0.367  14.372  1.00  0.00     0.091 A 
ATOM     12  C   UNL     1       8.404  -0.540  15.488  1.00  0.00     0.068 A 
ATOM     13  C   UNL     1       7.337   0.338  15.722  1.00  0.00     0.162 A 
ATOM     14  C   UNL     1       8.974   0.678  13.474  1.00  0.00     0.068 A 
ATOM     15  C   UNL     1       7.090   1.395  14.829  1.00  0.00     0.200 A 
ATOM     16  C   UNL     1       7.912   1.559  13.700  1.00  0.00     0.162 A 
BRANCH  13  17
ATOM     17  O   UNL     1       6.516   0.160  16.835  1.00  0.00    -0.504 OA
ATOM     18  H   UNL     1       5.520  -0.002  16.741  1.00  0.00     0.293 HD
ENDBRANCH  13  17
BRANCH  15  19
ATOM     19  O   UNL     1       6.035   2.281  15.049  1.00  0.00    -0.502 OA
ATOM     20  H   UNL     1       5.916   3.125  14.501  1.00  0.00     0.293 HD
ENDBRANCH  15  19
BRANCH  16  21
ATOM     21  O   UNL     1       7.689   2.593  12.791  1.00  0.00    -0.504 OA
ATOM     22  H   UNL     1       8.222   2.683  11.935  1.00  0.00     0.293 HD
ENDBRANCH  16  21
ENDBRANCH   1  11
BRANCH  10  23
ATOM     23  O   UNL     1      12.006   0.195  15.099  1.00  0.00    -0.500 OA
ATOM     24  H   UNL     1      11.491   1.046  14.911  1.00  0.00     0.294 HD
ENDBRANCH  10  23
BRANCH   5  25
ATOM     25  O   UNL     1      11.186  -6.619  11.475  1.00  0.00    -0.507 OA
ATOM     26  H   UNL     1      11.448  -7.544  11.797  1.00  0.00     0.293 HD
ENDBRANCH   5  25
BRANCH   7  27
ATOM     27  O   UNL     1      14.681  -4.023  13.536  1.00  0.00    -0.507 OA
ATOM     28  H   UNL     1      15.433  -3.988  12.864  1.00  0.00     0.293 HD
ENDBRANCH   7  27
TORSDOF 7
ENDMDL
MODEL 2
REMARK VINA RESULT:    -3.994      2.204      7.143
REMARK INTER + INTRA:          -5.296
REMARK INTER:                  -4.932
REMARK INTRA:                  -0.364
REMARK UNBOUND:                -0.369
REMARK SMILES Oc1cc(O)c2cc(O)c(-c3cc(O)c(O)c(O)c3)[o+]c2c1
REMARK SMILES IDX 10 1 20 2 21 3 22 4 2 5 3 6 4 7 6 8 7 9 8 10 11 11 12 12
REMARK SMILES IDX 13 13 19 14 15 15 17 16 14 17 16 19 18 21 9 23 1 25 5 27
REMARK H PARENT 14 18 16 20 18 22 9 24 1 26 5 28
REMARK Flexibility Score: inf
ROOT
ATOM      1  C   UNL     1      10.584   0.053  14.602  1.00  0.00     0.402 A 
ATOM      2  O   UNL     1       9.479  -0.147  15.315  1.00  0.00    -0.202 OA
ATOM      3  C   UNL     1       8.339   0.498  15.090  1.00  0.00     0.368 A 
ATOM      4  C   UNL     1       7.229   0.217  15.891  1.00  0.00     0.162 A 
ATOM      5  C   UNL     1       6.018   0.877  15.677  1.00  0.00     0.128 A 
ATOM      6  C   UNL     1       5.914   1.825  14.653  1.00  0.00     0.093 A 
ATOM      7  C   UNL     1       7.011   2.125  13.835  1.00  0.00     0.136 A 
ATOM      8  C   UNL     1       8.245   1.457  14.053  1.00  0.00     0.125 A 
ATOM      9  C   UNL     1       9.400   1.702  13.292  1.00  0.00     0.078 A 
ATOM     10  C   UNL     1      10.582   1.009  13.569  1.00  0.00     0.223 A 
ENDROOT
BRANCH   1  11
ATOM     11  C   UNL     1      11.789  -0.737  14.943  1.00  0.00     0.091 A 
ATOM     12  C   UNL     1      12.169  -1.858  14.185  1.00  0.00     0.068 A 
ATOM     13  C   UNL     1      13.302  -2.605  14.537  1.00  0.00     0.162 A 
ATOM     14  C   UNL     1      12.539  -0.394  16.078  1.00  0.00     0.068 A 
ATOM     15  C   UNL     1      14.060  -2.241  15.663  1.00  0.00     0.200 A 
ATOM     16  C   UNL     1      13.671  -1.134  16.437  1.00  0.00     0.162 A 
BRANCH  13  17
ATOM     17  O   UNL     1      13.672  -3.712  13.775  1.00  0.00    -0.504 OA
ATOM     18  H   UNL     1      14.576  -3.765  13.318  1.00  0.00     0.293 HD
ENDBRANCH  13  17
BRANCH  15  19
ATOM     19  O   UNL     1      15.192  -2.972  16.025  1.00  0.00    -0.502 OA
ATOM     20  H   UNL     1      15.946  -3.158  15.374  1.00  0.00     0.293 HD
ENDBRANCH  15  19
BRANCH  16  21
ATOM     21  O   UNL     1      14.398  -0.752  17.564  1.00  0.00    -0.504 OA
ATOM     22  H   UNL     1      15.409  -0.692  17.559  1.00  0.00     0.293 HD
ENDBRANCH  16  21
ENDBRANCH   1  11
BRANCH  10  23
ATOM     23  O   UNL     1      11.742   1.287  12.847  1.00  0.00    -0.500 OA
ATOM     24  H   UNL     1      12.156   2.212  12.839  1.00  0.00     0.294 HD
ENDBRANCH  10  23
BRANCH   5  25
ATOM     25  O   UNL     1       4.924   0.584  16.486  1.00  0.00    -0.507 OA
ATOM     26  H   UNL     1       4.794   1.033  17.386  1.00  0.00     0.293 HD
ENDBRANCH   5  25
BRANCH   7  27
ATOM     27  O   UNL     1       6.826   3.080  12.832  1.00  0.00    -0.507 OA
ATOM     28  H   UNL     1       7.560   3.662  12.455  1.00  0.00     0.293 HD
ENDBRANCH   7  27
TORSDOF 7
ENDMDL
MODEL 3
REMARK VINA RESULT:    -3.945     11.200     14.168
REMARK INTER + INTRA:          -5.236
REMARK INTER:                  -4.943
REMARK INTRA:                  -0.293
REMARK UNBOUND:                -0.369
REMARK SMILES Oc1cc(O)c2cc(O)c(-c3cc(O)c(O)c(O)c3)[o+]c2c1
REMARK SMILES IDX 10 1 20 2 21 3 22 4 2 5 3 6 4 7 6 8 7 9 8 10 11 11 12 12
REMARK SMILES IDX 13 13 19 14 15 15 17 16 14 17 16 19 18 21 9 23 1 25 5 27
REMARK H PARENT 14 18 16 20 18 22 9 24 1 26 5 28
REMARK Flexibility Score: inf
ROOT
ATOM      1  C   UNL     1      12.254   8.213  21.740  1.00  0.00     0.402 A 
ATOM      2  O   UNL     1      11.034   8.544  22.154  1.00  0.00    -0.202 OA
ATOM      3  C   UNL     1      10.681   8.573  23.435  1.00  0.00     0.368 A 
ATOM      4  C   UNL     1       9.375   8.938  23.772  1.00  0.00     0.162 A 
ATOM      5  C   UNL     1       8.978   8.980  25.109  1.00  0.00     0.128 A 
ATOM      6  C   UNL     1       9.891   8.657  26.118  1.00  0.00     0.093 A 
ATOM      7  C   UNL     1      11.207   8.289  25.807  1.00  0.00     0.136 A 
ATOM      8  C   UNL     1      11.613   8.243  24.448  1.00  0.00     0.125 A 
ATOM      9  C   UNL     1      12.906   7.873  24.041  1.00  0.00     0.078 A 
ATOM     10  C   UNL     1      13.232   7.845  22.681  1.00  0.00     0.223 A 
ENDROOT
BRANCH   1  11
ATOM     11  C   UNL     1      12.527   8.229  20.284  1.00  0.00     0.091 A 
ATOM     12  C   UNL     1      13.396   9.174  19.712  1.00  0.00     0.068 A 
ATOM     13  C   UNL     1      13.625   9.186  18.329  1.00  0.00     0.162 A 
ATOM     14  C   UNL     1      11.865   7.316  19.449  1.00  0.00     0.068 A 
ATOM     15  C   UNL     1      12.974   8.254  17.502  1.00  0.00     0.200 A 
ATOM     16  C   UNL     1      12.088   7.320  18.068  1.00  0.00     0.162 A 
BRANCH  13  17
ATOM     17  O   UNL     1      14.492  10.125  17.773  1.00  0.00    -0.504 OA
ATOM     18  H   UNL     1      14.815  10.049  16.815  1.00  0.00     0.293 HD
ENDBRANCH  13  17
BRANCH  15  19
ATOM     19  O   UNL     1      13.194   8.249  16.124  1.00  0.00    -0.502 OA
ATOM     20  H   UNL     1      12.835   8.977  15.519  1.00  0.00     0.293 HD
ENDBRANCH  15  19
BRANCH  16  21
ATOM     21  O   UNL     1      11.421   6.388  17.274  1.00  0.00    -0.504 OA
ATOM     22  H   UNL     1      11.235   5.444  17.591  1.00  0.00     0.293 HD
ENDBRANCH  16  21
ENDBRANCH   1  11
BRANCH  10  23
ATOM     23  O   UNL     1      14.500   7.431  22.275  1.00  0.00    -0.500 OA
ATOM     24  H   UNL     1      14.636   6.588  21.729  1.00  0.00     0.294 HD
ENDBRANCH  10  23
BRANCH   5  25
ATOM     25  O   UNL     1       7.671   9.344  25.426  1.00  0.00    -0.507 OA
ATOM     26  H   UNL     1       7.428  10.301  25.654  1.00  0.00     0.293 HD
ENDBRANCH   5  25
BRANCH   7  27
ATOM     27  O   UNL     1      12.060   7.985  26.871  1.00  0.00    -0.507 OA
ATOM     28  H   UNL     1      12.425   7.064  27.065  1.00  0.00     0.293 HD
ENDBRANCH   7  27
TORSDOF 7
ENDMDL
MODEL 4
REMARK VINA RESULT:    -3.878      8.325     10.771
REMARK INTER + INTRA:          -5.154
REMARK INTER:                  -5.149
REMARK INTRA:                  -0.005
REMARK UNBOUND:                -0.369
REMARK SMILES Oc1cc(O)c2cc(O)c(-c3cc(O)c(O)c(O)c3)[o+]c2c1
REMARK SMILES IDX 10 1 20 2 21 3 22 4 2 5 3 6 4 7 6 8 7 9 8 10 11 11 12 12
REMARK SMILES IDX 13 13 19 14 15 15 17 16 14 17 16 19 18 21 9 23 1 25 5 27
REMARK H PARENT 14 18 16 20 18 22 9 24 1 26 5 28
REMARK Flexibility Score: inf
ROOT
ATOM      1  C   UNL     1       9.771  -8.192  19.060  1.00  0.00     0.402 A 
ATOM      2  O   UNL     1      10.334  -8.589  20.197  1.00  0.00    -0.202 OA
ATOM      3  C   UNL     1       9.689  -8.618  21.359  1.00  0.00     0.368 A 
ATOM      4  C   UNL     1      10.365  -9.055  22.501  1.00  0.00     0.162 A 
ATOM      5  C   UNL     1       9.712  -9.099  23.734  1.00  0.00     0.128 A 
ATOM      6  C   UNL     1       8.373  -8.705  23.828  1.00  0.00     0.093 A 
ATOM      7  C   UNL     1       7.672  -8.263  22.697  1.00  0.00     0.136 A 
ATOM      8  C   UNL     1       8.334  -8.215  21.443  1.00  0.00     0.125 A 
ATOM      9  C   UNL     1       7.716  -7.775  20.260  1.00  0.00     0.078 A 
ATOM     10  C   UNL     1       8.435  -7.750  19.061  1.00  0.00     0.223 A 
ENDROOT
BRANCH   1  11
ATOM     11  C   UNL     1      10.592  -8.215  17.827  1.00  0.00     0.091 A 
ATOM     12  C   UNL     1      10.072  -8.687  16.610  1.00  0.00     0.068 A 
ATOM     13  C   UNL     1      10.872  -8.721  15.459  1.00  0.00     0.162 A 
ATOM     14  C   UNL     1      11.934  -7.809  17.885  1.00  0.00     0.068 A 
ATOM     15  C   UNL     1      12.209  -8.292  15.521  1.00  0.00     0.200 A 
ATOM     16  C   UNL     1      12.739  -7.839  16.742  1.00  0.00     0.162 A 
BRANCH  13  17
ATOM     17  O   UNL     1      10.344  -9.186  14.255  1.00  0.00    -0.504 OA
ATOM     18  H   UNL     1       9.567  -8.721  13.800  1.00  0.00     0.293 HD
ENDBRANCH  13  17
BRANCH  15  19
ATOM     19  O   UNL     1      13.018  -8.315  14.384  1.00  0.00    -0.502 OA
ATOM     20  H   UNL     1      14.029  -8.329  14.442  1.00  0.00     0.293 HD
ENDBRANCH  15  19
BRANCH  16  21
ATOM     21  O   UNL     1      14.064  -7.414  16.838  1.00  0.00    -0.504 OA
ATOM     22  H   UNL     1      14.837  -8.067  16.887  1.00  0.00     0.293 HD
ENDBRANCH  16  21
ENDBRANCH   1  11
BRANCH  10  23
ATOM     23  O   UNL     1       7.837  -7.267  17.897  1.00  0.00    -0.500 OA
ATOM     24  H   UNL     1       8.130  -6.396  17.470  1.00  0.00     0.294 HD
ENDBRANCH  10  23
BRANCH   5  25
ATOM     25  O   UNL     1      10.403  -9.536  24.861  1.00  0.00    -0.507 OA
ATOM     26  H   UNL     1      10.630  -8.906  25.623  1.00  0.00     0.293 HD
ENDBRANCH   5  25
BRANCH   7  27
ATOM     27  O   UNL     1       6.337  -7.890  22.872  1.00  0.00    -0.507 OA
ATOM     28  H   UNL     1       5.817  -8.014  23.729  1.00  0.00     0.293 HD
ENDBRANCH   7  27
TORSDOF 7
ENDMDL
MODEL 5
REMARK VINA RESULT:    -3.853      3.673      6.092
REMARK INTER + INTRA:          -5.124
REMARK INTER:                  -4.739
REMARK INTRA:                  -0.385
REMARK UNBOUND:                -0.369
REMARK SMILES Oc1cc(O)c2cc(O)c(-c3cc(O)c(O)c(O)c3)[o+]c2c1
REMARK SMILES IDX 10 1 20 2 21 3 22 4 2 5 3 6 4 7 6 8 7 9 8 10 11 11 12 12
REMARK SMILES IDX 13 13 19 14 15 15 17 16 14 17 16 19 18 21 9 23 1 25 5 27
REMARK H PARENT 14 18 16 20 18 22 9 24 1 26 5 28
REMARK Flexibility Score: inf
ROOT
ATOM      1  C   UNL     1       6.122   1.713  14.934  1.00  0.00     0.402 A 
ATOM      2  O   UNL     1       6.783   2.229  13.903  1.00  0.00    -0.202 OA
ATOM      3  C   UNL     1       8.017   1.862  13.569  1.00  0.00     0.368 A 
ATOM      4  C   UNL     1       8.629   2.460  12.464  1.00  0.00     0.162 A 
ATOM      5  C   UNL     1       9.921   2.092  12.089  1.00  0.00     0.128 A 
ATOM      6  C   UNL     1      10.608   1.117  12.821  1.00  0.00     0.093 A 
ATOM      7  C   UNL     1      10.016   0.501  13.931  1.00  0.00     0.136 A 
ATOM      8  C   UNL     1       8.703   0.876  14.317  1.00  0.00     0.125 A 
ATOM      9  C   UNL     1       8.036   0.322  15.423  1.00  0.00     0.078 A 
ATOM     10  C   UNL     1       6.743   0.746  15.745  1.00  0.00     0.223 A 
ENDROOT
BRANCH   1  11
ATOM     11  C   UNL     1       4.748   2.198  15.198  1.00  0.00     0.091 A 
ATOM     12  C   UNL     1       3.622   1.518  14.700  1.00  0.00     0.068 A 
ATOM     13  C   UNL     1       2.331   2.006  14.943  1.00  0.00     0.162 A 
ATOM     14  C   UNL     1       4.563   3.391  15.913  1.00  0.00     0.068 A 
ATOM     15  C   UNL     1       2.154   3.190  15.679  1.00  0.00     0.200 A 
ATOM     16  C   UNL     1       3.278   3.884  16.161  1.00  0.00     0.162 A 
BRANCH  13  17
ATOM     17  O   UNL     1       1.221   1.320  14.448  1.00  0.00    -0.504 OA
ATOM     18  H   UNL     1       1.219   0.311  14.355  1.00  0.00     0.293 HD
ENDBRANCH  13  17
BRANCH  15  19
ATOM     19  O   UNL     1       0.876   3.687  15.933  1.00  0.00    -0.502 OA
ATOM     20  H   UNL     1       0.640   4.663  15.799  1.00  0.00     0.293 HD
ENDBRANCH  15  19
BRANCH  16  21
ATOM     21  O   UNL     1       3.137   5.066  16.888  1.00  0.00    -0.504 OA
ATOM     22  H   UNL     1       3.455   5.150  17.846  1.00  0.00     0.293 HD
ENDBRANCH  16  21
ENDBRANCH   1  11
BRANCH  10  23
ATOM     23  O   UNL     1       6.099   0.233  16.872  1.00  0.00    -0.500 OA
ATOM     24  H   UNL     1       5.337  -0.430  16.794  1.00  0.00     0.294 HD
ENDBRANCH  10  23
BRANCH   5  25
ATOM     25  O   UNL     1      10.515   2.701  10.986  1.00  0.00    -0.507 OA
ATOM     26  H   UNL     1      10.045   3.434  10.467  1.00  0.00     0.293 HD
ENDBRANCH   5  25
BRANCH   7  27
ATOM     27  O   UNL     1      10.765  -0.466  14.607  1.00  0.00    -0.507 OA
ATOM     28  H   UNL     1      11.752  -0.388  14.806  1.00  0.00     0.293 HD
ENDBRANCH   7  27
TORSDOF 7
ENDMDL
MODEL 6
REMARK VINA RESULT:    -3.850     13.192     15.286
REMARK INTER + INTRA:          -5.119
REMARK INTER:                  -4.790
REMARK INTRA:                  -0.329
REMARK UNBOUND:                -0.369
REMARK SMILES Oc1cc(O)c2cc(O)c(-c3cc(O)c(O)c(O)c3)[o+]c2c1
REMARK SMILES IDX 10 1 20 2 21 3 22 4 2 5 3 6 4 7 6 8 7 9 8 10 11 11 12 12
REMARK SMILES IDX 13 13 19 14 15 15 17 16 14 17 16 19 18 21 9 23 1 25 5 27
REMARK H PARENT 14 18 16 20 18 22 9 24 1 26 5 28
REMARK Flexibility Score: inf
ROOT
ATOM      1  C   UNL     1      12.413   8.317  25.134  1.00  0.00     0.402 A 
ATOM      2  O   UNL     1      12.099   7.647  24.029  1.00  0.00    -0.202 OA
ATOM      3  C   UNL     1      12.651   7.893  22.844  1.00  0.00     0.368 A 
ATOM      4  C   UNL     1      12.259   7.131  21.740  1.00  0.00     0.162 A 
ATOM      5  C   UNL     1      12.823   7.365  20.486  1.00  0.00     0.128 A 
ATOM      6  C   UNL     1      13.789   8.366  20.332  1.00  0.00     0.093 A 
ATOM      7  C   UNL     1      14.200   9.143  21.423  1.00  0.00     0.136 A 
ATOM      8  C   UNL     1      13.626   8.909  22.699  1.00  0.00     0.125 A 
ATOM      9  C   UNL     1      13.967   9.646  23.846  1.00  0.00     0.078 A 
ATOM     10  C   UNL     1      13.354   9.361  25.071  1.00  0.00     0.223 A 
ENDROOT
BRANCH   1  11
ATOM     11  C   UNL     1      11.736   7.942  26.396  1.00  0.00     0.091 A 
ATOM     12  C   UNL     1      12.413   7.247  27.412  1.00  0.00     0.068 A 
ATOM     13  C   UNL     1      11.748   6.882  28.591  1.00  0.00     0.162 A 
ATOM     14  C   UNL     1      10.374   8.238  26.562  1.00  0.00     0.068 A 
ATOM     15  C   UNL     1      10.390   7.201  28.758  1.00  0.00     0.200 A 
ATOM     16  C   UNL     1       9.703   7.878  27.735  1.00  0.00     0.162 A 
BRANCH  13  17
ATOM     17  O   UNL     1      12.431   6.196  29.595  1.00  0.00    -0.504 OA
ATOM     18  H   UNL     1      13.412   5.957  29.502  1.00  0.00     0.293 HD
ENDBRANCH  13  17
BRANCH  15  19
ATOM     19  O   UNL     1       9.714   6.849  29.927  1.00  0.00    -0.502 OA
ATOM     20  H   UNL     1       9.078   7.484  30.394  1.00  0.00     0.293 HD
ENDBRANCH  15  19
BRANCH  16  21
ATOM     21  O   UNL     1       8.353   8.204  27.867  1.00  0.00    -0.504 OA
ATOM     22  H   UNL     1       8.034   9.162  27.946  1.00  0.00     0.293 HD
ENDBRANCH  16  21
ENDBRANCH   1  11
BRANCH  10  23
ATOM     23  O   UNL     1      13.656  10.125  26.198  1.00  0.00    -0.500 OA
ATOM     24  H   UNL     1      13.300   9.885  27.115  1.00  0.00     0.294 HD
ENDBRANCH  10  23
BRANCH   5  25
ATOM     25  O   UNL     1      12.418   6.597  19.397  1.00  0.00    -0.507 OA
ATOM     26  H   UNL     1      11.460   6.282  19.297  1.00  0.00     0.293 HD
ENDBRANCH   5  25
BRANCH   7  27
ATOM     27  O   UNL     1      15.172  10.119  21.189  1.00  0.00    -0.507 OA
ATOM     28  H   UNL     1      14.978  11.106  21.094  1.00  0.00     0.293 HD
ENDBRANCH   7  27
TORSDOF 7
ENDMDL
MODEL 7
REMARK VINA RESULT:    -3.833      9.225     11.016
REMARK INTER + INTRA:          -5.099
REMARK INTER:                  -4.752
REMARK INTRA:                  -0.347
REMARK UNBOUND:                -0.369
REMARK SMILES Oc1cc(O)c2cc(O)c(-c3cc(O)c(O)c(O)c3)[o+]c2c1
REMARK SMILES IDX 10 1 20 2 21 3 22 4 2 5 3 6 4 7 6 8 7 9 8 10 11 11 12 12
REMARK SMILES IDX 13 13 19 14 15 15 17 16 14 17 16 19 18 21 9 23 1 25 5 27
REMARK H PARENT 14 18 16 20 18 22 9 24 1 26 5 28
REMARK Flexibility Score: inf
ROOT
ATOM      1  C   UNL     1       9.908  -7.488  20.569  1.00  0.00     0.402 A 
ATOM      2  O   UNL     1      10.055  -7.950  21.807  1.00  0.00    -0.202 OA
ATOM      3  C   UNL     1       9.087  -8.570  22.475  1.00  0.00     0.368 A 
ATOM      4  C   UNL     1       9.339  -9.024  23.772  1.00  0.00     0.162 A 
ATOM      5  C   UNL     1       8.343  -9.681  24.495  1.00  0.00     0.128 A 
ATOM      6  C   UNL     1       7.084  -9.887  23.919  1.00  0.00     0.093 A 
ATOM      7  C   UNL     1       6.807  -9.443  22.619  1.00  0.00     0.136 A 
ATOM      8  C   UNL     1       7.817  -8.772  21.883  1.00  0.00     0.125 A 
ATOM      9  C   UNL     1       7.626  -8.281  20.580  1.00  0.00     0.078 A 
ATOM     10  C   UNL     1       8.668  -7.625  19.918  1.00  0.00     0.223 A 
ENDROOT
BRANCH   1  11
ATOM     11  C   UNL     1      11.066  -6.824  19.927  1.00  0.00     0.091 A 
ATOM     12  C   UNL     1      11.831  -7.475  18.944  1.00  0.00     0.068 A 
ATOM     13  C   UNL     1      12.937  -6.838  18.364  1.00  0.00     0.162 A 
ATOM     14  C   UNL     1      11.442  -5.539  20.345  1.00  0.00     0.068 A 
ATOM     15  C   UNL     1      13.294  -5.542  18.773  1.00  0.00     0.200 A 
ATOM     16  C   UNL     1      12.543  -4.895  19.771  1.00  0.00     0.162 A 
BRANCH  13  17
ATOM     17  O   UNL     1      13.686  -7.492  17.387  1.00  0.00    -0.504 OA
ATOM     18  H   UNL     1      13.739  -7.143  16.436  1.00  0.00     0.293 HD
ENDBRANCH  13  17
BRANCH  15  19
ATOM     19  O   UNL     1      14.389  -4.891  18.204  1.00  0.00    -0.502 OA
ATOM     20  H   UNL     1      15.337  -5.049  18.524  1.00  0.00     0.293 HD
ENDBRANCH  15  19
BRANCH  16  21
ATOM     21  O   UNL     1      12.876  -3.612  20.205  1.00  0.00    -0.504 OA
ATOM     22  H   UNL     1      13.835  -3.288  20.244  1.00  0.00     0.293 HD
ENDBRANCH  16  21
ENDBRANCH   1  11
BRANCH  10  23
ATOM     23  O   UNL     1       8.463  -7.093  18.645  1.00  0.00    -0.500 OA
ATOM     24  H   UNL     1       8.209  -7.678  17.858  1.00  0.00     0.294 HD
ENDBRANCH  10  23
BRANCH   5  25
ATOM     25  O   UNL     1       8.612 -10.125  25.787  1.00  0.00    -0.507 OA
ATOM     26  H   UNL     1       8.638 -11.113  26.014  1.00  0.00     0.293 HD
ENDBRANCH   5  25
BRANCH   7  27
ATOM     27  O   UNL     1       5.528  -9.690  22.113  1.00  0.00    -0.507 OA
ATOM     28  H   UNL     1       4.965 -10.494  22.353  1.00  0.00     0.293 HD
ENDBRANCH   7  27
TORSDOF 7
ENDMDL
MODEL 8
REMARK VINA RESULT:    -3.777     13.723     16.433
REMARK INTER + INTRA:          -5.030
REMARK INTER:                  -4.831
REMARK INTRA:                  -0.199
REMARK UNBOUND:                -0.369
REMARK SMILES Oc1cc(O)c2cc(O)c(-c3cc(O)c(O)c(O)c3)[o+]c2c1
REMARK SMILES IDX 10 1 20 2 21 3 22 4 2 5 3 6 4 7 6 8 7 9 8 10 11 11 12 12
REMARK SMILES IDX 13 13 19 14 15 15 17 16 14 17 16 19 18 21 9 23 1 25 5 27
REMARK H PARENT 14 18 16 20 18 22 9 24 1 26 5 28
REMARK Flexibility Score: inf
ROOT
ATOM      1  C   UNL     1      11.804   8.203  25.572  1.00  0.00     0.402 A 
ATOM      2  O   UNL     1      12.480   7.471  26.453  1.00  0.00    -0.202 OA
ATOM      3  C   UNL     1      11.991   7.119  27.638  1.00  0.00     0.368 A 
ATOM      4  C   UNL     1      12.776   6.343  28.495  1.00  0.00     0.162 A 
ATOM      5  C   UNL     1      12.287   5.957  29.743  1.00  0.00     0.128 A 
ATOM      6  C   UNL     1      11.002   6.345  30.139  1.00  0.00     0.093 A 
ATOM      7  C   UNL     1      10.194   7.122  29.298  1.00  0.00     0.136 A 
ATOM      8  C   UNL     1      10.691   7.519  28.029  1.00  0.00     0.125 A 
ATOM      9  C   UNL     1       9.957   8.307  27.126  1.00  0.00     0.078 A 
ATOM     10  C   UNL     1      10.515   8.664  25.894  1.00  0.00     0.223 A 
ENDROOT
BRANCH   1  11
ATOM     11  C   UNL     1      12.455   8.521  24.281  1.00  0.00     0.091 A 
ATOM     12  C   UNL     1      11.879   8.138  23.057  1.00  0.00     0.068 A 
ATOM     13  C   UNL     1      12.522   8.429  21.845  1.00  0.00     0.162 A 
ATOM     14  C   UNL     1      13.699   9.170  24.277  1.00  0.00     0.068 A 
ATOM     15  C   UNL     1      13.757   9.099  21.850  1.00  0.00     0.200 A 
ATOM     16  C   UNL     1      14.347   9.466  23.073  1.00  0.00     0.162 A 
BRANCH  13  17
ATOM     17  O   UNL     1      11.939   8.049  20.637  1.00  0.00    -0.504 OA
ATOM     18  H   UNL     1      10.987   8.305  20.402  1.00  0.00     0.293 HD
ENDBRANCH  13  17
BRANCH  15  19
ATOM     19  O   UNL     1      14.408   9.401  20.653  1.00  0.00    -0.502 OA
ATOM     20  H   UNL     1      14.063  10.107  20.014  1.00  0.00     0.293 HD
ENDBRANCH  15  19
BRANCH  16  21
ATOM     21  O   UNL     1      15.575  10.125  23.111  1.00  0.00    -0.504 OA
ATOM     22  H   UNL     1      16.379   9.797  22.589  1.00  0.00     0.293 HD
ENDBRANCH  16  21
ENDBRANCH   1  11
BRANCH  10  23
ATOM     23  O   UNL     1       9.807   9.488  25.019  1.00  0.00    -0.500 OA
ATOM     24  H   UNL     1      10.276  10.154  24.417  1.00  0.00     0.294 HD
ENDBRANCH  10  23
BRANCH   5  25
ATOM     25  O   UNL     1      13.085   5.185  30.584  1.00  0.00    -0.507 OA
ATOM     26  H   UNL     1      13.352   5.509  31.507  1.00  0.00     0.293 HD
ENDBRANCH   5  25
BRANCH   7  27
ATOM     27  O   UNL     1       8.923   7.466  29.764  1.00  0.00    -0.507 OA
ATOM     28  H   UNL     1       8.717   7.739  30.714  1.00  0.00     0.293 HD
ENDBRANCH   7  27
TORSDOF 7
ENDMDL
MODEL 9
REMARK VINA RESULT:    -3.669     10.941     13.339
REMARK INTER + INTRA:          -4.896
REMARK INTER:                  -4.639
REMARK INTRA:                  -0.257
REMARK UNBOUND:                -0.369
REMARK SMILES Oc1cc(O)c2cc(O)c(-c3cc(O)c(O)c(O)c3)[o+]c2c1
REMARK SMILES IDX 10 1 20 2 21 3 22 4 2 5 3 6 4 7 6 8 7 9 8 10 11 11 12 12
REMARK SMILES IDX 13 13 19 14 15 15 17 16 14 17 16 19 18 21 9 23 1 25 5 27
REMARK H PARENT 14 18 16 20 18 22 9 24 1 26 5 28
REMARK Flexibility Score: inf
ROOT
ATOM      1  C   UNL     1      11.927   8.072  21.582  1.00  0.00     0.402 A 
ATOM      2  O   UNL     1      11.151   8.713  20.713  1.00  0.00    -0.202 OA
ATOM      3  C   UNL     1      11.088   8.402  19.422  1.00  0.00     0.368 A 
ATOM      4  C   UNL     1      10.239   9.132  18.587  1.00  0.00     0.162 A 
ATOM      5  C   UNL     1      10.151   8.825  17.229  1.00  0.00     0.128 A 
ATOM      6  C   UNL     1      10.915   7.779  16.699  1.00  0.00     0.093 A 
ATOM      7  C   UNL     1      11.774   7.031  17.516  1.00  0.00     0.136 A 
ATOM      8  C   UNL     1      11.867   7.343  18.897  1.00  0.00     0.125 A 
ATOM      9  C   UNL     1      12.709   6.656  19.788  1.00  0.00     0.078 A 
ATOM     10  C   UNL     1      12.753   7.024  21.136  1.00  0.00     0.223 A 
ENDROOT
BRANCH   1  11
ATOM     11  C   UNL     1      11.901   8.507  22.997  1.00  0.00     0.091 A 
ATOM     12  C   UNL     1      13.013   9.124  23.595  1.00  0.00     0.068 A 
ATOM     13  C   UNL     1      12.977   9.509  24.942  1.00  0.00     0.162 A 
ATOM     14  C   UNL     1      10.763   8.250  23.777  1.00  0.00     0.068 A 
ATOM     15  C   UNL     1      11.824   9.267  25.710  1.00  0.00     0.200 A 
ATOM     16  C   UNL     1      10.717   8.631  25.122  1.00  0.00     0.162 A 
BRANCH  13  17
ATOM     17  O   UNL     1      14.085  10.125  25.523  1.00  0.00    -0.504 OA
ATOM     18  H   UNL     1      14.274  10.051  26.516  1.00  0.00     0.293 HD
ENDBRANCH  13  17
BRANCH  15  19
ATOM     19  O   UNL     1      11.769   9.647  27.051  1.00  0.00    -0.502 OA
ATOM     20  H   UNL     1      11.298   9.088  27.751  1.00  0.00     0.293 HD
ENDBRANCH  15  19
BRANCH  16  21
ATOM     21  O   UNL     1       9.562   8.370  25.858  1.00  0.00    -0.504 OA
ATOM     22  H   UNL     1       8.728   7.982  25.434  1.00  0.00     0.293 HD
ENDBRANCH  16  21
ENDBRANCH   1  11
BRANCH  10  23
ATOM     23  O   UNL     1      13.625   6.375  22.010  1.00  0.00    -0.500 OA
ATOM     24  H   UNL     1      13.665   6.609  22.995  1.00  0.00     0.294 HD
ENDBRANCH  10  23
BRANCH   5  25
ATOM     25  O   UNL     1       9.300   9.566  16.412  1.00  0.00    -0.507 OA
ATOM     26  H   UNL     1       8.834   9.148  15.614  1.00  0.00     0.293 HD
ENDBRANCH   5  25
BRANCH   7  27
ATOM     27  O   UNL     1      12.500   6.001  16.913  1.00  0.00    -0.507 OA
ATOM     28  H   UNL     1      12.245   5.555  16.043  1.00  0.00     0.293 HD
ENDBRANCH   7  27
TORSDOF 7
ENDMDL
