MODEL 1
REMARK VINA RESULT:     5.719      0.000      0.000
REMARK INTER + INTRA:           6.053
REMARK INTER:                   6.053
REMARK INTRA:                   0.000
REMARK UNBOUND:                 0.000
REMARK SMILES CC1(C)[C@H](O)CC[C@@]2(C)[C@@H]1CC[C@@]1(C)[C@@H]2C=CC2=C(O)C(=O)C(=O)[C@]21C
REMARK SMILES IDX 1 1 2 2 10 3 11 4 12 5 13 6 15 7 8 8 7 9 6 10 4 11 9 12
REMARK SMILES IDX 16 13 17 14 18 15 19 16 21 17 22 18 23 19 24 20 25 21 26 22
REMARK SMILES IDX 14 23 3 24 5 25 20 27
REMARK H PARENT 5 26 20 28
REMARK Flexibility Score: inf
ROOT
ATOM      1  C   UNL     1     -22.259   9.000  -5.852  1.00  0.00     0.014 C 
ATOM      2  C   UNL     1     -22.960   7.726  -5.332  1.00  0.00    -0.006 C 
ATOM      3  C   UNL     1     -21.984   6.455  -5.354  1.00  0.00     0.004 C 
ATOM      4  C   UNL     1     -20.603   6.825  -4.722  1.00  0.00     0.005 C 
ATOM      5  C   UNL     1     -19.585   5.687  -4.740  1.00  0.00     0.009 C 
ATOM      6  C   UNL     1     -20.064   4.385  -4.013  1.00  0.00    -0.009 C 
ATOM      7  C   UNL     1     -21.468   3.981  -4.650  1.00  0.00     0.025 C 
ATOM      8  C   UNL     1     -22.589   5.138  -4.700  1.00  0.00    -0.022 C 
ATOM      9  C   UNL     1     -23.135   5.499  -3.280  1.00  0.00     0.010 C 
ATOM     10  C   UNL     1     -24.120   6.710  -3.255  1.00  0.00     0.033 C 
ATOM     11  C   UNL     1     -23.580   7.998  -3.896  1.00  0.00     0.120 C 
ATOM     12  C   UNL     1     -23.801   4.533  -5.487  1.00  0.00     0.012 C 
ATOM     13  C   UNL     1     -21.278   3.328  -6.056  1.00  0.00    -0.022 C 
ATOM     14  C   UNL     1     -20.124   2.889  -6.549  1.00  0.00     0.005 C 
ATOM     15  C   UNL     1     -18.920   2.964  -5.737  1.00  0.00     0.012 C 
ATOM     16  C   UNL     1     -17.676   3.067  -6.195  1.00  0.00     0.171 C 
ATOM     17  C   UNL     1     -16.787   3.408  -5.117  1.00  0.00     0.264 C 
ATOM     18  O   UNL     1     -15.533   3.503  -5.191  1.00  0.00    -0.282 OA
ATOM     19  C   UNL     1     -17.585   3.538  -3.928  1.00  0.00     0.217 C 
ATOM     20  O   UNL     1     -17.117   3.765  -2.779  1.00  0.00    -0.289 OA
ATOM     21  C   UNL     1     -19.028   3.214  -4.253  1.00  0.00     0.069 C 
ATOM     22  C   UNL     1     -19.418   1.875  -3.571  1.00  0.00     0.026 C 
ATOM     23  C   UNL     1     -20.152   4.603  -2.468  1.00  0.00     0.013 C 
ATOM     24  C   UNL     1     -24.124   7.500  -6.357  1.00  0.00     0.014 C 
ENDROOT
BRANCH  11  25
ATOM     25  O   UNL     1     -22.691   8.699  -3.024  1.00  0.00    -0.393 OA
ATOM     26  H   UNL     1     -22.917   9.670  -3.129  1.00  0.00     0.210 HD
ENDBRANCH  11  25
BRANCH  16  27
ATOM     27  O   UNL     1     -17.319   2.904  -7.537  1.00  0.00    -0.504 OA
ATOM     28  H   UNL     1     -17.732   3.519  -8.238  1.00  0.00     0.293 HD
ENDBRANCH  16  27
TORSDOF 2
ENDMDL
MODEL 2
REMARK VINA RESULT:     6.443      1.726      6.390
REMARK INTER + INTRA:           6.820
REMARK INTER:                   6.820
REMARK INTRA:                   0.000
REMARK UNBOUND:                 0.000
REMARK SMILES CC1(C)[C@H](O)CC[C@@]2(C)[C@@H]1CC[C@@]1(C)[C@@H]2C=CC2=C(O)C(=O)C(=O)[C@]21C
REMARK SMILES IDX 1 1 2 2 10 3 11 4 12 5 13 6 15 7 8 8 7 9 6 10 4 11 9 12
REMARK SMILES IDX 16 13 17 14 18 15 19 16 21 17 22 18 23 19 24 20 25 21 26 22
REMARK SMILES IDX 14 23 3 24 5 25 20 27
REMARK H PARENT 5 26 20 28
REMARK Flexibility Score: inf
ROOT
ATOM      1  C   UNL     1     -16.247   5.102  -5.779  1.00  0.00     0.014 C 
ATOM      2  C   UNL     1     -17.127   3.844  -5.616  1.00  0.00    -0.006 C 
ATOM      3  C   UNL     1     -18.590   4.202  -5.070  1.00  0.00     0.004 C 
ATOM      4  C   UNL     1     -19.189   5.399  -5.879  1.00  0.00     0.005 C 
ATOM      5  C   UNL     1     -20.568   5.846  -5.399  1.00  0.00     0.009 C 
ATOM      6  C   UNL     1     -21.653   4.717  -5.420  1.00  0.00    -0.009 C 
ATOM      7  C   UNL     1     -21.068   3.488  -4.590  1.00  0.00     0.025 C 
ATOM      8  C   UNL     1     -19.600   2.975  -5.012  1.00  0.00    -0.022 C 
ATOM      9  C   UNL     1     -19.595   2.267  -6.406  1.00  0.00     0.010 C 
ATOM     10  C   UNL     1     -18.177   1.875  -6.927  1.00  0.00     0.033 C 
ATOM     11  C   UNL     1     -17.164   3.031  -6.979  1.00  0.00     0.120 C 
ATOM     12  C   UNL     1     -19.208   1.875  -3.968  1.00  0.00     0.012 C 
ATOM     13  C   UNL     1     -21.143   3.764  -3.055  1.00  0.00    -0.022 C 
ATOM     14  C   UNL     1     -21.849   4.734  -2.481  1.00  0.00     0.005 C 
ATOM     15  C   UNL     1     -22.668   5.610  -3.305  1.00  0.00     0.012 C 
ATOM     16  C   UNL     1     -22.999   6.864  -3.017  1.00  0.00     0.171 C 
ATOM     17  C   UNL     1     -23.558   7.499  -4.180  1.00  0.00     0.264 C 
ATOM     18  O   UNL     1     -24.048   8.659  -4.229  1.00  0.00    -0.282 OA
ATOM     19  C   UNL     1     -23.530   6.538  -5.248  1.00  0.00     0.217 C 
ATOM     20  O   UNL     1     -24.008   6.739  -6.398  1.00  0.00    -0.289 OA
ATOM     21  C   UNL     1     -22.982   5.225  -4.729  1.00  0.00     0.069 C 
ATOM     22  C   UNL     1     -24.122   4.172  -4.699  1.00  0.00     0.026 C 
ATOM     23  C   UNL     1     -22.025   4.322  -6.885  1.00  0.00     0.013 C 
ATOM     24  C   UNL     1     -16.367   2.998  -4.537  1.00  0.00     0.014 C 
ENDROOT
BRANCH  11  25
ATOM     25  O   UNL     1     -17.358   3.862  -8.125  1.00  0.00    -0.393 OA
ATOM     26  H   UNL     1     -17.884   4.652  -7.801  1.00  0.00     0.210 HD
ENDBRANCH  11  25
BRANCH  16  27
ATOM     27  O   UNL     1     -22.788   7.465  -1.772  1.00  0.00    -0.504 OA
ATOM     28  H   UNL     1     -22.612   8.468  -1.730  1.00  0.00     0.293 HD
ENDBRANCH  16  27
TORSDOF 2
ENDMDL
