MODEL 1
REMARK VINA RESULT:    -2.989      0.000      0.000
REMARK INTER + INTRA:          -3.637
REMARK INTER:                  -3.513
REMARK INTRA:                  -0.124
REMARK UNBOUND:                -0.124
REMARK SMILES CCCCC(=O)[O-]
REMARK SMILES IDX 4 1 5 2 6 3 7 4 3 5 2 6 1 7
REMARK H PARENT
REMARK Flexibility Score: inf
ROOT
ATOM      1  C   UNL     1     -35.210 -55.743  29.468  1.00  0.00     0.053 C 
ENDROOT
BRANCH   1   2
ATOM      2  C   UNL     1     -36.331 -54.863  29.016  1.00  0.00     0.041 C 
ATOM      3  O   UNL     1     -36.254 -54.249  27.918  1.00  0.00    -0.550 OA
ATOM      4  O   UNL     1     -37.443 -54.681  29.828  1.00  0.00    -0.550 OA
ENDBRANCH   1   2
BRANCH   1   5
ATOM      5  C   UNL     1     -33.884 -54.971  29.450  1.00  0.00     0.006 C 
BRANCH   5   6
ATOM      6  C   UNL     1     -33.765 -53.976  30.616  1.00  0.00    -0.003 C 
ATOM      7  C   UNL     1     -33.423 -52.561  30.153  1.00  0.00     0.004 C 
ENDBRANCH   5   6
ENDBRANCH   1   5
TORSDOF 3
ENDMDL
MODEL 2
REMARK VINA RESULT:    -2.985      2.705      3.114
REMARK INTER + INTRA:          -3.632
REMARK INTER:                  -3.614
REMARK INTRA:                  -0.018
REMARK UNBOUND:                -0.124
REMARK SMILES CCCCC(=O)[O-]
REMARK SMILES IDX 4 1 5 2 6 3 7 4 3 5 2 6 1 7
REMARK H PARENT
REMARK Flexibility Score: inf
ROOT
ATOM      1  C   UNL     1     -35.611 -53.365  28.591  1.00  0.00     0.053 C 
ENDROOT
BRANCH   1   2
ATOM      2  C   UNL     1     -36.149 -54.678  29.064  1.00  0.00     0.041 C 
ATOM      3  O   UNL     1     -37.246 -54.729  29.680  1.00  0.00    -0.550 OA
ATOM      4  O   UNL     1     -35.416 -55.841  28.868  1.00  0.00    -0.550 OA
ENDBRANCH   1   2
BRANCH   1   5
ATOM      5  C   UNL     1     -34.838 -53.545  27.278  1.00  0.00     0.006 C 
BRANCH   5   6
ATOM      6  C   UNL     1     -34.215 -52.233  26.776  1.00  0.00    -0.003 C 
ATOM      7  C   UNL     1     -34.231 -52.116  25.253  1.00  0.00     0.004 C 
ENDBRANCH   5   6
ENDBRANCH   1   5
TORSDOF 3
ENDMDL
MODEL 3
REMARK VINA RESULT:    -2.982      0.622      1.470
REMARK INTER + INTRA:          -3.629
REMARK INTER:                  -3.534
REMARK INTRA:                  -0.095
REMARK UNBOUND:                -0.124
REMARK SMILES CCCCC(=O)[O-]
REMARK SMILES IDX 4 1 5 2 6 3 7 4 3 5 2 6 1 7
REMARK H PARENT
REMARK Flexibility Score: inf
ROOT
ATOM      1  C   UNL     1     -34.892 -55.432  29.741  1.00  0.00     0.053 C 
ENDROOT
BRANCH   1   2
ATOM      2  C   UNL     1     -36.088 -54.796  29.108  1.00  0.00     0.041 C 
ATOM      3  O   UNL     1     -37.183 -54.747  29.729  1.00  0.00    -0.550 OA
ATOM      4  O   UNL     1     -36.009 -54.301  27.813  1.00  0.00    -0.550 OA
ENDBRANCH   1   2
BRANCH   1   5
ATOM      5  C   UNL     1     -33.616 -54.672  29.357  1.00  0.00     0.006 C 
BRANCH   5   6
ATOM      6  C   UNL     1     -33.458 -53.355  30.134  1.00  0.00    -0.003 C 
ATOM      7  C   UNL     1     -33.328 -53.570  31.641  1.00  0.00     0.004 C 
ENDBRANCH   5   6
ENDBRANCH   1   5
TORSDOF 3
ENDMDL
MODEL 4
REMARK VINA RESULT:    -2.935      1.873      2.087
REMARK INTER + INTRA:          -3.574
REMARK INTER:                  -3.461
REMARK INTRA:                  -0.113
REMARK UNBOUND:                -0.124
REMARK SMILES CCCCC(=O)[O-]
REMARK SMILES IDX 4 1 5 2 6 3 7 4 3 5 2 6 1 7
REMARK H PARENT
REMARK Flexibility Score: inf
ROOT
ATOM      1  C   UNL     1     -34.320 -54.638  29.967  1.00  0.00     0.053 C 
ENDROOT
BRANCH   1   2
ATOM      2  C   UNL     1     -35.440 -55.379  29.307  1.00  0.00     0.041 C 
ATOM      3  O   UNL     1     -35.199 -56.396  28.603  1.00  0.00    -0.550 OA
ATOM      4  O   UNL     1     -36.744 -54.919  29.428  1.00  0.00    -0.550 OA
ENDBRANCH   1   2
BRANCH   1   5
ATOM      5  C   UNL     1     -33.457 -53.928  28.917  1.00  0.00     0.006 C 
BRANCH   5   6
ATOM      6  C   UNL     1     -34.116 -52.647  28.380  1.00  0.00    -0.003 C 
ATOM      7  C   UNL     1     -34.542 -52.769  26.918  1.00  0.00     0.004 C 
ENDBRANCH   5   6
ENDBRANCH   1   5
TORSDOF 3
ENDMDL
MODEL 5
REMARK VINA RESULT:    -2.901      1.384      1.981
REMARK INTER + INTRA:          -3.534
REMARK INTER:                  -3.416
REMARK INTRA:                  -0.118
REMARK UNBOUND:                -0.124
REMARK SMILES CCCCC(=O)[O-]
REMARK SMILES IDX 4 1 5 2 6 3 7 4 3 5 2 6 1 7
REMARK H PARENT
REMARK Flexibility Score: inf
ROOT
ATOM      1  C   UNL     1     -35.438 -53.734  28.019  1.00  0.00     0.053 C 
ENDROOT
BRANCH   1   2
ATOM      2  C   UNL     1     -35.944 -54.935  28.752  1.00  0.00     0.041 C 
ATOM      3  O   UNL     1     -36.961 -54.846  29.491  1.00  0.00    -0.550 OA
ATOM      4  O   UNL     1     -35.266 -56.143  28.660  1.00  0.00    -0.550 OA
ENDBRANCH   1   2
BRANCH   1   5
ATOM      5  C   UNL     1     -34.780 -52.750  28.995  1.00  0.00     0.006 C 
BRANCH   5   6
ATOM      6  C   UNL     1     -33.407 -53.237  29.488  1.00  0.00    -0.003 C 
ATOM      7  C   UNL     1     -33.381 -53.505  30.992  1.00  0.00     0.004 C 
ENDBRANCH   5   6
ENDBRANCH   1   5
TORSDOF 3
ENDMDL
MODEL 6
REMARK VINA RESULT:    -2.682      9.184     10.389
REMARK INTER + INTRA:          -3.276
REMARK INTER:                  -3.200
REMARK INTRA:                  -0.077
REMARK UNBOUND:                -0.124
REMARK SMILES CCCCC(=O)[O-]
REMARK SMILES IDX 4 1 5 2 6 3 7 4 3 5 2 6 1 7
REMARK H PARENT
REMARK Flexibility Score: inf
ROOT
ATOM      1  C   UNL     1     -35.873 -45.018  28.522  1.00  0.00     0.053 C 
ENDROOT
BRANCH   1   2
ATOM      2  C   UNL     1     -35.280 -43.810  29.175  1.00  0.00     0.041 C 
ATOM      3  O   UNL     1     -35.283 -43.702  30.430  1.00  0.00    -0.550 OA
ATOM      4  O   UNL     1     -34.770 -42.780  28.397  1.00  0.00    -0.550 OA
ENDBRANCH   1   2
BRANCH   1   5
ATOM      5  C   UNL     1     -36.002 -44.800  27.009  1.00  0.00     0.006 C 
BRANCH   5   6
ATOM      6  C   UNL     1     -35.186 -45.816  26.194  1.00  0.00    -0.003 C 
ATOM      7  C   UNL     1     -34.316 -46.714  27.072  1.00  0.00     0.004 C 
ENDBRANCH   5   6
ENDBRANCH   1   5
TORSDOF 3
ENDMDL
MODEL 7
REMARK VINA RESULT:    -2.679      2.820      3.820
REMARK INTER + INTRA:          -3.273
REMARK INTER:                  -3.177
REMARK INTRA:                  -0.096
REMARK UNBOUND:                -0.124
REMARK SMILES CCCCC(=O)[O-]
REMARK SMILES IDX 4 1 5 2 6 3 7 4 3 5 2 6 1 7
REMARK H PARENT
REMARK Flexibility Score: inf
ROOT
ATOM      1  C   UNL     1     -34.618 -53.289  27.685  1.00  0.00     0.053 C 
ENDROOT
BRANCH   1   2
ATOM      2  C   UNL     1     -33.307 -52.834  28.242  1.00  0.00     0.041 C 
ATOM      3  O   UNL     1     -32.491 -53.673  28.708  1.00  0.00    -0.550 OA
ATOM      4  O   UNL     1     -33.006 -51.480  28.294  1.00  0.00    -0.550 OA
ENDBRANCH   1   2
BRANCH   1   5
ATOM      5  C   UNL     1     -35.670 -53.383  28.798  1.00  0.00     0.006 C 
BRANCH   5   6
ATOM      6  C   UNL     1     -36.298 -54.782  28.899  1.00  0.00    -0.003 C 
ATOM      7  C   UNL     1     -35.277 -55.865  29.244  1.00  0.00     0.004 C 
ENDBRANCH   5   6
ENDBRANCH   1   5
TORSDOF 3
ENDMDL
MODEL 8
REMARK VINA RESULT:    -2.669      2.356      3.561
REMARK INTER + INTRA:          -3.260
REMARK INTER:                  -3.163
REMARK INTRA:                  -0.097
REMARK UNBOUND:                -0.124
REMARK SMILES CCCCC(=O)[O-]
REMARK SMILES IDX 4 1 5 2 6 3 7 4 3 5 2 6 1 7
REMARK H PARENT
REMARK Flexibility Score: inf
ROOT
ATOM      1  C   UNL     1     -33.733 -54.009  30.505  1.00  0.00     0.053 C 
ENDROOT
BRANCH   1   2
ATOM      2  C   UNL     1     -33.379 -52.612  30.106  1.00  0.00     0.041 C 
ATOM      3  O   UNL     1     -32.281 -52.110  30.463  1.00  0.00    -0.550 OA
ATOM      4  O   UNL     1     -34.282 -51.846  29.382  1.00  0.00    -0.550 OA
ENDBRANCH   1   2
BRANCH   1   5
ATOM      5  C   UNL     1     -34.007 -54.867  29.263  1.00  0.00     0.006 C 
BRANCH   5   6
ATOM      6  C   UNL     1     -35.333 -55.639  29.360  1.00  0.00    -0.003 C 
ATOM      7  C   UNL     1     -36.553 -54.748  29.135  1.00  0.00     0.004 C 
ENDBRANCH   5   6
ENDBRANCH   1   5
TORSDOF 3
ENDMDL
MODEL 9
REMARK VINA RESULT:    -2.666      1.749      2.337
REMARK INTER + INTRA:          -3.258
REMARK INTER:                  -3.221
REMARK INTRA:                  -0.037
REMARK UNBOUND:                -0.124
REMARK SMILES CCCCC(=O)[O-]
REMARK SMILES IDX 4 1 5 2 6 3 7 4 3 5 2 6 1 7
REMARK H PARENT
REMARK Flexibility Score: inf
ROOT
ATOM      1  C   UNL     1     -34.140 -54.261  30.634  1.00  0.00     0.053 C 
ENDROOT
BRANCH   1   2
ATOM      2  C   UNL     1     -34.485 -54.859  29.307  1.00  0.00     0.041 C 
ATOM      3  O   UNL     1     -34.068 -54.327  28.244  1.00  0.00    -0.550 OA
ATOM      4  O   UNL     1     -35.308 -55.975  29.240  1.00  0.00    -0.550 OA
ENDBRANCH   1   2
BRANCH   1   5
ATOM      5  C   UNL     1     -33.135 -53.115  30.459  1.00  0.00     0.006 C 
BRANCH   5   6
ATOM      6  C   UNL     1     -32.627 -52.567  31.802  1.00  0.00    -0.003 C 
ATOM      7  C   UNL     1     -33.111 -53.388  32.996  1.00  0.00     0.004 C 
ENDBRANCH   5   6
ENDBRANCH   1   5
TORSDOF 3
ENDMDL
