MODEL 1
REMARK VINA RESULT:    -1.995      0.000      0.000
REMARK INTER + INTRA:          -1.995
REMARK INTER:                  -1.995
REMARK INTRA:                   0.000
REMARK UNBOUND:                 0.000
REMARK SMILES CC(=O)[O-]
REMARK SMILES IDX 1 1 2 2 3 3 4 4
REMARK H PARENT
REMARK Flexibility Score: inf
ROOT
ATOM      1  C   UNL     1      42.422   6.336 127.874  1.00  0.00     0.063 C 
ATOM      2  C   UNL     1      43.592   6.635 128.749  1.00  0.00     0.038 C 
ATOM      3  O   UNL     1      43.731   6.031 129.844  1.00  0.00    -0.550 OA
ATOM      4  O   UNL     1      44.500   7.619 128.384  1.00  0.00    -0.550 OA
ENDROOT
TORSDOF 0
ENDMDL
MODEL 2
REMARK VINA RESULT:    -1.992      2.255      2.763
REMARK INTER + INTRA:          -1.992
REMARK INTER:                  -1.992
REMARK INTRA:                   0.000
REMARK UNBOUND:                 0.000
REMARK SMILES CC(=O)[O-]
REMARK SMILES IDX 1 1 2 2 3 3 4 4
REMARK H PARENT
REMARK Flexibility Score: inf
ROOT
ATOM      1  C   UNL     1      42.547   5.955 127.407  1.00  0.00     0.063 C 
ATOM      2  C   UNL     1      43.901   5.491 126.992  1.00  0.00     0.038 C 
ATOM      3  O   UNL     1      44.409   5.904 125.917  1.00  0.00    -0.550 OA
ATOM      4  O   UNL     1      44.583   4.557 127.761  1.00  0.00    -0.550 OA
ENDROOT
TORSDOF 0
ENDMDL
MODEL 3
REMARK VINA RESULT:    -1.980      1.020      1.435
REMARK INTER + INTRA:          -1.980
REMARK INTER:                  -1.980
REMARK INTRA:                   0.000
REMARK UNBOUND:                 0.000
REMARK SMILES CC(=O)[O-]
REMARK SMILES IDX 1 1 2 2 3 3 4 4
REMARK H PARENT
REMARK Flexibility Score: inf
ROOT
ATOM      1  C   UNL     1      42.388   6.019 127.418  1.00  0.00     0.063 C 
ATOM      2  C   UNL     1      43.279   6.427 128.541  1.00  0.00     0.038 C 
ATOM      3  O   UNL     1      43.137   7.553 129.083  1.00  0.00    -0.550 OA
ATOM      4  O   UNL     1      44.305   5.587 128.956  1.00  0.00    -0.550 OA
ENDROOT
TORSDOF 0
ENDMDL
MODEL 4
REMARK VINA RESULT:    -1.976      2.331      2.455
REMARK INTER + INTRA:          -1.976
REMARK INTER:                  -1.976
REMARK INTRA:                   0.000
REMARK UNBOUND:                 0.000
REMARK SMILES CC(=O)[O-]
REMARK SMILES IDX 1 1 2 2 3 3 4 4
REMARK H PARENT
REMARK Flexibility Score: inf
ROOT
ATOM      1  C   UNL     1      42.458   6.030 127.502  1.00  0.00     0.063 C 
ATOM      2  C   UNL     1      43.728   5.651 126.819  1.00  0.00     0.038 C 
ATOM      3  O   UNL     1      43.800   4.575 126.171  1.00  0.00    -0.550 OA
ATOM      4  O   UNL     1      44.852   6.457 126.944  1.00  0.00    -0.550 OA
ENDROOT
TORSDOF 0
ENDMDL
MODEL 5
REMARK VINA RESULT:    -1.970      6.368      6.950
REMARK INTER + INTRA:          -1.970
REMARK INTER:                  -1.970
REMARK INTRA:                   0.000
REMARK UNBOUND:                 0.000
REMARK SMILES CC(=O)[O-]
REMARK SMILES IDX 1 1 2 2 3 3 4 4
REMARK H PARENT
REMARK Flexibility Score: inf
ROOT
ATOM      1  C   UNL     1      42.444   0.272 131.918  1.00  0.00     0.063 C 
ATOM      2  C   UNL     1      43.794   0.849 132.177  1.00  0.00     0.038 C 
ATOM      3  O   UNL     1      43.955   2.096 132.196  1.00  0.00    -0.550 OA
ATOM      4  O   UNL     1      44.889   0.010 132.344  1.00  0.00    -0.550 OA
ENDROOT
TORSDOF 0
ENDMDL
MODEL 6
REMARK VINA RESULT:    -1.939      6.682      7.132
REMARK INTER + INTRA:          -1.939
REMARK INTER:                  -1.939
REMARK INTRA:                   0.000
REMARK UNBOUND:                 0.000
REMARK SMILES CC(=O)[O-]
REMARK SMILES IDX 1 1 2 2 3 3 4 4
REMARK H PARENT
REMARK Flexibility Score: inf
ROOT
ATOM      1  C   UNL     1      44.713  11.760 123.658  1.00  0.00     0.063 C 
ATOM      2  C   UNL     1      46.036  11.244 124.113  1.00  0.00     0.038 C 
ATOM      3  O   UNL     1      46.973  12.045 124.366  1.00  0.00    -0.550 OA
ATOM      4  O   UNL     1      46.255   9.876 124.205  1.00  0.00    -0.550 OA
ENDROOT
TORSDOF 0
ENDMDL
MODEL 7
REMARK VINA RESULT:    -1.901      2.061      2.124
REMARK INTER + INTRA:          -1.901
REMARK INTER:                  -1.901
REMARK INTRA:                   0.000
REMARK UNBOUND:                 0.000
REMARK SMILES CC(=O)[O-]
REMARK SMILES IDX 1 1 2 2 3 3 4 4
REMARK H PARENT
REMARK Flexibility Score: inf
ROOT
ATOM      1  C   UNL     1      44.069   4.897 126.562  1.00  0.00     0.063 C 
ATOM      2  C   UNL     1      43.395   5.945 127.381  1.00  0.00     0.038 C 
ATOM      3  O   UNL     1      42.140   6.003 127.423  1.00  0.00    -0.550 OA
ATOM      4  O   UNL     1      44.152   6.895 128.054  1.00  0.00    -0.550 OA
ENDROOT
TORSDOF 0
ENDMDL
MODEL 8
REMARK VINA RESULT:    -1.883      6.743      7.053
REMARK INTER + INTRA:          -1.883
REMARK INTER:                  -1.883
REMARK INTRA:                   0.000
REMARK UNBOUND:                 0.000
REMARK SMILES CC(=O)[O-]
REMARK SMILES IDX 1 1 2 2 3 3 4 4
REMARK H PARENT
REMARK Flexibility Score: inf
ROOT
ATOM      1  C   UNL     1      43.710   2.121 132.603  1.00  0.00     0.063 C 
ATOM      2  C   UNL     1      43.741   0.715 132.109  1.00  0.00     0.038 C 
ATOM      3  O   UNL     1      44.760   0.001 132.298  1.00  0.00    -0.550 OA
ATOM      4  O   UNL     1      42.667   0.206 131.391  1.00  0.00    -0.550 OA
ENDROOT
TORSDOF 0
ENDMDL
MODEL 9
REMARK VINA RESULT:    -1.820      6.858      7.113
REMARK INTER + INTRA:          -1.820
REMARK INTER:                  -1.820
REMARK INTRA:                   0.000
REMARK UNBOUND:                 0.000
REMARK SMILES CC(=O)[O-]
REMARK SMILES IDX 1 1 2 2 3 3 4 4
REMARK H PARENT
REMARK Flexibility Score: inf
ROOT
ATOM      1  C   UNL     1      46.103   9.916 123.676  1.00  0.00     0.063 C 
ATOM      2  C   UNL     1      45.920  11.332 124.107  1.00  0.00     0.038 C 
ATOM      3  O   UNL     1      44.763  11.815 124.211  1.00  0.00    -0.550 OA
ATOM      4  O   UNL     1      47.027  12.137 124.341  1.00  0.00    -0.550 OA
ENDROOT
TORSDOF 0
ENDMDL
