MODEL 1
REMARK VINA RESULT:    -5.019      0.000      0.000
REMARK INTER + INTRA:          -5.490
REMARK INTER:                  -5.459
REMARK INTRA:                  -0.031
REMARK UNBOUND:                -0.031
REMARK SMILES O=C([O-])c1ccc(O)cc1
REMARK SMILES IDX 4 1 5 2 10 3 6 4 9 5 7 6 2 7 1 8 3 9 8 10
REMARK H PARENT 8 11
REMARK Flexibility Score: inf
ROOT
ATOM      1  C   UNL     1     -38.312  -7.840 -13.726  1.00  0.00    -0.003 A 
ATOM      2  C   UNL     1     -38.897  -6.563 -13.643  1.00  0.00     0.014 A 
ATOM      3  C   UNL     1     -39.147  -8.972 -13.734  1.00  0.00     0.014 A 
ATOM      4  C   UNL     1     -40.287  -6.424 -13.570  1.00  0.00     0.047 A 
ATOM      5  C   UNL     1     -40.535  -8.830 -13.660  1.00  0.00     0.047 A 
ATOM      6  C   UNL     1     -41.109  -7.555 -13.578  1.00  0.00     0.115 A 
ENDROOT
BRANCH   1   7
ATOM      7  C   UNL     1     -36.843  -7.993 -13.804  1.00  0.00     0.071 C 
ATOM      8  O   UNL     1     -36.321  -8.739 -14.674  1.00  0.00    -0.545 OA
ATOM      9  O   UNL     1     -36.016  -7.314 -12.916  1.00  0.00    -0.545 OA
ENDBRANCH   1   7
BRANCH   6  10
ATOM     10  O   UNL     1     -42.492  -7.400 -13.504  1.00  0.00    -0.508 OA
ATOM     11  H   UNL     1     -43.015  -7.706 -12.692  1.00  0.00     0.293 HD
ENDBRANCH   6  10
TORSDOF 2
ENDMDL
MODEL 2
REMARK VINA RESULT:    -5.007      0.040      1.532
REMARK INTER + INTRA:          -5.477
REMARK INTER:                  -5.446
REMARK INTRA:                  -0.031
REMARK UNBOUND:                -0.031
REMARK SMILES O=C([O-])c1ccc(O)cc1
REMARK SMILES IDX 4 1 5 2 10 3 6 4 9 5 7 6 2 7 1 8 3 9 8 10
REMARK H PARENT 8 11
REMARK Flexibility Score: inf
ROOT
ATOM      1  C   UNL     1     -38.323  -7.828 -13.721  1.00  0.00    -0.003 A 
ATOM      2  C   UNL     1     -39.167  -8.954 -13.762  1.00  0.00     0.014 A 
ATOM      3  C   UNL     1     -38.897  -6.550 -13.602  1.00  0.00     0.014 A 
ATOM      4  C   UNL     1     -40.555  -8.801 -13.684  1.00  0.00     0.047 A 
ATOM      5  C   UNL     1     -40.285  -6.401 -13.526  1.00  0.00     0.047 A 
ATOM      6  C   UNL     1     -41.118  -7.527 -13.567  1.00  0.00     0.115 A 
ENDROOT
BRANCH   1   7
ATOM      7  C   UNL     1     -36.854  -7.983 -13.801  1.00  0.00     0.071 C 
ATOM      8  O   UNL     1     -36.337  -8.770 -14.637  1.00  0.00    -0.545 OA
ATOM      9  O   UNL     1     -36.022  -7.261 -12.953  1.00  0.00    -0.545 OA
ENDBRANCH   1   7
BRANCH   6  10
ATOM     10  O   UNL     1     -42.503  -7.390 -13.492  1.00  0.00    -0.508 OA
ATOM     11  H   UNL     1     -42.947  -6.931 -12.705  1.00  0.00     0.293 HD
ENDBRANCH   6  10
TORSDOF 2
ENDMDL
MODEL 3
REMARK VINA RESULT:    -4.807      8.619     10.434
REMARK INTER + INTRA:          -5.259
REMARK INTER:                  -5.223
REMARK INTRA:                  -0.036
REMARK UNBOUND:                -0.031
REMARK SMILES O=C([O-])c1ccc(O)cc1
REMARK SMILES IDX 4 1 5 2 10 3 6 4 9 5 7 6 2 7 1 8 3 9 8 10
REMARK H PARENT 8 11
REMARK Flexibility Score: inf
ROOT
ATOM      1  C   UNL     1     -32.431  -3.307 -18.186  1.00  0.00    -0.003 A 
ATOM      2  C   UNL     1     -33.206  -3.132 -19.348  1.00  0.00     0.014 A 
ATOM      3  C   UNL     1     -31.073  -2.941 -18.211  1.00  0.00     0.014 A 
ATOM      4  C   UNL     1     -32.632  -2.602 -20.508  1.00  0.00     0.047 A 
ATOM      5  C   UNL     1     -30.504  -2.412 -19.373  1.00  0.00     0.047 A 
ATOM      6  C   UNL     1     -31.282  -2.240 -20.525  1.00  0.00     0.115 A 
ENDROOT
BRANCH   1   7
ATOM      7  C   UNL     1     -33.032  -3.867 -16.956  1.00  0.00     0.071 C 
ATOM      8  O   UNL     1     -32.305  -4.225 -15.992  1.00  0.00    -0.545 OA
ATOM      9  O   UNL     1     -34.411  -4.005 -16.846  1.00  0.00    -0.545 OA
ENDBRANCH   1   7
BRANCH   6  10
ATOM     10  O   UNL     1     -30.724  -1.714 -21.688  1.00  0.00    -0.508 OA
ATOM     11  H   UNL     1     -29.801  -1.988 -22.002  1.00  0.00     0.293 HD
ENDBRANCH   6  10
TORSDOF 2
ENDMDL
MODEL 4
REMARK VINA RESULT:    -4.776      1.160      2.149
REMARK INTER + INTRA:          -5.226
REMARK INTER:                  -5.199
REMARK INTRA:                  -0.027
REMARK UNBOUND:                -0.031
REMARK SMILES O=C([O-])c1ccc(O)cc1
REMARK SMILES IDX 4 1 5 2 10 3 6 4 9 5 7 6 2 7 1 8 3 9 8 10
REMARK H PARENT 8 11
REMARK Flexibility Score: inf
ROOT
ATOM      1  C   UNL     1     -37.670  -7.004 -13.631  1.00  0.00    -0.003 A 
ATOM      2  C   UNL     1     -37.978  -8.347 -13.919  1.00  0.00     0.014 A 
ATOM      3  C   UNL     1     -38.718  -6.113 -13.341  1.00  0.00     0.014 A 
ATOM      4  C   UNL     1     -39.306  -8.786 -13.914  1.00  0.00     0.047 A 
ATOM      5  C   UNL     1     -40.044  -6.555 -13.338  1.00  0.00     0.047 A 
ATOM      6  C   UNL     1     -40.342  -7.893 -13.624  1.00  0.00     0.115 A 
ENDROOT
BRANCH   1   7
ATOM      7  C   UNL     1     -36.268  -6.535 -13.634  1.00  0.00     0.071 C 
ATOM      8  O   UNL     1     -35.638  -6.387 -12.553  1.00  0.00    -0.545 OA
ATOM      9  O   UNL     1     -35.623  -6.249 -14.833  1.00  0.00    -0.545 OA
ENDBRANCH   1   7
BRANCH   6  10
ATOM     10  O   UNL     1     -41.660  -8.345 -13.625  1.00  0.00    -0.508 OA
ATOM     11  H   UNL     1     -42.131  -8.599 -14.485  1.00  0.00     0.293 HD
ENDBRANCH   6  10
TORSDOF 2
ENDMDL
MODEL 5
REMARK VINA RESULT:    -4.696      1.201      1.632
REMARK INTER + INTRA:          -5.138
REMARK INTER:                  -5.111
REMARK INTRA:                  -0.027
REMARK UNBOUND:                -0.031
REMARK SMILES O=C([O-])c1ccc(O)cc1
REMARK SMILES IDX 4 1 5 2 10 3 6 4 9 5 7 6 2 7 1 8 3 9 8 10
REMARK H PARENT 8 11
REMARK Flexibility Score: inf
ROOT
ATOM      1  C   UNL     1     -37.653  -6.959 -13.739  1.00  0.00    -0.003 A 
ATOM      2  C   UNL     1     -38.714  -6.109 -13.374  1.00  0.00     0.014 A 
ATOM      3  C   UNL     1     -37.939  -8.285 -14.108  1.00  0.00     0.014 A 
ATOM      4  C   UNL     1     -40.032  -6.579 -13.381  1.00  0.00     0.047 A 
ATOM      5  C   UNL     1     -39.257  -8.751 -14.113  1.00  0.00     0.047 A 
ATOM      6  C   UNL     1     -40.307  -7.899 -13.749  1.00  0.00     0.115 A 
ENDROOT
BRANCH   1   7
ATOM      7  C   UNL     1     -36.258  -6.468 -13.735  1.00  0.00     0.071 C 
ATOM      8  O   UNL     1     -35.625  -6.344 -12.654  1.00  0.00    -0.545 OA
ATOM      9  O   UNL     1     -35.625  -6.136 -14.928  1.00  0.00    -0.545 OA
ENDBRANCH   1   7
BRANCH   6  10
ATOM     10  O   UNL     1     -41.625  -8.352 -13.750  1.00  0.00    -0.508 OA
ATOM     11  H   UNL     1     -42.068  -8.689 -14.597  1.00  0.00     0.293 HD
ENDBRANCH   6  10
TORSDOF 2
ENDMDL
MODEL 6
REMARK VINA RESULT:    -4.581      1.798      4.271
REMARK INTER + INTRA:          -5.013
REMARK INTER:                  -4.977
REMARK INTRA:                  -0.036
REMARK UNBOUND:                -0.031
REMARK SMILES O=C([O-])c1ccc(O)cc1
REMARK SMILES IDX 4 1 5 2 10 3 6 4 9 5 7 6 2 7 1 8 3 9 8 10
REMARK H PARENT 8 11
REMARK Flexibility Score: inf
ROOT
ATOM      1  C   UNL     1     -38.842  -7.039 -13.424  1.00  0.00    -0.003 A 
ATOM      2  C   UNL     1     -38.755  -5.649 -13.222  1.00  0.00     0.014 A 
ATOM      3  C   UNL     1     -37.658  -7.776 -13.601  1.00  0.00     0.014 A 
ATOM      4  C   UNL     1     -37.510  -5.013 -13.197  1.00  0.00     0.047 A 
ATOM      5  C   UNL     1     -36.415  -7.138 -13.577  1.00  0.00     0.047 A 
ATOM      6  C   UNL     1     -36.337  -5.754 -13.374  1.00  0.00     0.115 A 
ENDROOT
BRANCH   1   7
ATOM      7  C   UNL     1     -40.157  -7.716 -13.450  1.00  0.00     0.071 C 
ATOM      8  O   UNL     1     -41.223  -7.049 -13.400  1.00  0.00    -0.545 OA
ATOM      9  O   UNL     1     -40.233  -9.103 -13.532  1.00  0.00    -0.545 OA
ENDBRANCH   1   7
BRANCH   6  10
ATOM     10  O   UNL     1     -35.104  -5.106 -13.348  1.00  0.00    -0.508 OA
ATOM     11  H   UNL     1     -34.639  -4.891 -12.474  1.00  0.00     0.293 HD
ENDBRANCH   6  10
TORSDOF 2
ENDMDL
MODEL 7
REMARK VINA RESULT:    -4.500      3.386      5.523
REMARK INTER + INTRA:          -4.925
REMARK INTER:                  -4.898
REMARK INTRA:                  -0.027
REMARK UNBOUND:                -0.031
REMARK SMILES O=C([O-])c1ccc(O)cc1
REMARK SMILES IDX 4 1 5 2 10 3 6 4 9 5 7 6 2 7 1 8 3 9 8 10
REMARK H PARENT 8 11
REMARK Flexibility Score: inf
ROOT
ATOM      1  C   UNL     1     -36.097  -6.437 -14.500  1.00  0.00    -0.003 A 
ATOM      2  C   UNL     1     -35.883  -6.610 -15.881  1.00  0.00     0.014 A 
ATOM      3  C   UNL     1     -35.518  -5.330 -13.855  1.00  0.00     0.014 A 
ATOM      4  C   UNL     1     -35.107  -5.693 -16.597  1.00  0.00     0.047 A 
ATOM      5  C   UNL     1     -34.742  -4.416 -14.574  1.00  0.00     0.047 A 
ATOM      6  C   UNL     1     -34.535  -4.596 -15.948  1.00  0.00     0.115 A 
ENDROOT
BRANCH   1   7
ATOM      7  C   UNL     1     -36.917  -7.403 -13.737  1.00  0.00     0.071 C 
ATOM      8  O   UNL     1     -36.372  -8.324 -13.074  1.00  0.00    -0.545 OA
ATOM      9  O   UNL     1     -38.305  -7.306 -13.741  1.00  0.00    -0.545 OA
ENDBRANCH   1   7
BRANCH   6  10
ATOM     10  O   UNL     1     -33.763  -3.691 -16.675  1.00  0.00    -0.508 OA
ATOM     11  H   UNL     1     -33.171  -3.011 -16.213  1.00  0.00     0.293 HD
ENDBRANCH   6  10
TORSDOF 2
ENDMDL
MODEL 8
REMARK VINA RESULT:    -4.483      3.362      5.352
REMARK INTER + INTRA:          -4.907
REMARK INTER:                  -4.879
REMARK INTRA:                  -0.027
REMARK UNBOUND:                -0.031
REMARK SMILES O=C([O-])c1ccc(O)cc1
REMARK SMILES IDX 4 1 5 2 10 3 6 4 9 5 7 6 2 7 1 8 3 9 8 10
REMARK H PARENT 8 11
REMARK Flexibility Score: inf
ROOT
ATOM      1  C   UNL     1     -36.125  -6.448 -14.470  1.00  0.00    -0.003 A 
ATOM      2  C   UNL     1     -35.534  -5.345 -13.826  1.00  0.00     0.014 A 
ATOM      3  C   UNL     1     -35.958  -6.597 -15.858  1.00  0.00     0.014 A 
ATOM      4  C   UNL     1     -34.792  -4.413 -14.558  1.00  0.00     0.047 A 
ATOM      5  C   UNL     1     -35.216  -5.663 -16.586  1.00  0.00     0.047 A 
ATOM      6  C   UNL     1     -34.630  -4.568 -15.938  1.00  0.00     0.115 A 
ENDROOT
BRANCH   1   7
ATOM      7  C   UNL     1     -36.911  -7.438 -13.701  1.00  0.00     0.071 C 
ATOM      8  O   UNL     1     -36.334  -8.308 -12.997  1.00  0.00    -0.545 OA
ATOM      9  O   UNL     1     -38.301  -7.420 -13.745  1.00  0.00    -0.545 OA
ENDBRANCH   1   7
BRANCH   6  10
ATOM     10  O   UNL     1     -33.888  -3.630 -16.654  1.00  0.00    -0.508 OA
ATOM     11  H   UNL     1     -34.285  -3.133 -17.442  1.00  0.00     0.293 HD
ENDBRANCH   6  10
TORSDOF 2
ENDMDL
