MODEL 1
REMARK VINA RESULT:    -4.660      0.000      0.000
REMARK INTER + INTRA:          -6.991
REMARK INTER:                  -7.112
REMARK INTRA:                   0.122
REMARK UNBOUND:                 0.122
REMARK SMILES CC1=CCC[C@H](C)C(=O)C[C@H](C(C)C)C(=O)C1
REMARK SMILES IDX 8 1 9 2 6 3 7 4 5 5 4 6 3 7 2 8 1 9 10 11 11 12 15 13 16 14
REMARK SMILES IDX 17 15 12 17 13 18 14 19
REMARK H PARENT
REMARK Flexibility Score: 70.00
ROOT
ATOM      1  C   UNL     1      -1.386  13.594 -28.235  1.00  0.00     0.136 C 
ATOM      2  O   UNL     1      -1.179  14.745 -27.877  1.00  0.00    -0.299 OA
ENDROOT
BRANCH   1   3
ATOM      3  C   UNL     1      -0.376  12.870 -29.118  1.00  0.00     0.053 C 
ATOM      4  C   UNL     1      -0.735  11.389 -29.325  1.00  0.00     0.016 C 
BRANCH   3   5
ATOM      5  C   UNL     1      -0.158  13.587 -30.470  1.00  0.00     0.015 C 
BRANCH   5   6
ATOM      6  C   UNL     1      -1.072  13.058 -31.590  1.00  0.00     0.028 C 
BRANCH   6   7
ATOM      7  C   UNL     1      -2.313  13.895 -31.795  1.00  0.00    -0.028 C 
ATOM      8  C   UNL     1      -3.600  13.473 -31.682  1.00  0.00    -0.070 CG0
ATOM      9  C   UNL     1      -4.680  14.460 -32.057  1.00  0.00     0.039 C 
ATOM     10  G   UNL     1      -4.027  12.113 -31.135  1.00  0.00     0.000 G0
ENDBRANCH   6   7
ENDBRANCH   5   6
ENDBRANCH   3   5
ENDBRANCH   1   3
BRANCH   1  11
ATOM     11  C   UNL     1      -2.673  12.915 -27.829  1.00  0.00     0.087 C 
BRANCH  11  12
ATOM     12  C   UNL     1      -3.888  13.219 -28.755  1.00  0.00     0.066 C 
BRANCH  12  13
ATOM     13  C   UNL     1      -4.215  12.017 -29.641  1.00  0.00     0.140 C 
ATOM     14  O   UNL     1      -4.696  11.002 -29.155  1.00  0.00    -0.299 OA
BRANCH  13  15
ATOM     15  C   UNL     1      -4.026  12.102 -31.135  1.00  0.00     0.106 CG0
ATOM     16  G   UNL     1      -3.594  13.472 -31.652  1.00  0.00     0.000 G0
ENDBRANCH  13  15
ENDBRANCH  12  13
BRANCH  12  17
ATOM     17  C   UNL     1      -5.154  13.777 -28.016  1.00  0.00    -0.006 C 
ATOM     18  C   UNL     1      -4.811  14.554 -26.731  1.00  0.00     0.008 C 
ATOM     19  C   UNL     1      -5.963  14.705 -28.942  1.00  0.00     0.008 C 
ENDBRANCH  12  17
ENDBRANCH  11  12
ENDBRANCH   1  11
TORSDOF 1
ENDMDL
MODEL 2
REMARK VINA RESULT:    -4.618      1.790      3.288
REMARK INTER + INTRA:          -6.926
REMARK INTER:                  -6.905
REMARK INTRA:                  -0.021
REMARK UNBOUND:                 0.122
REMARK SMILES CC1=CCC[C@H](C)C(=O)C[C@H](C(C)C)C(=O)C1
REMARK SMILES IDX 8 1 9 2 6 3 7 4 5 5 4 6 3 7 2 8 1 9 10 11 11 12 15 13 16 14
REMARK SMILES IDX 17 15 12 17 13 18 14 19
REMARK H PARENT
REMARK Flexibility Score: 70.00
ROOT
ATOM      1  C   UNL     1      -4.431  13.589 -27.787  1.00  0.00     0.136 C 
ATOM      2  O   UNL     1      -5.228  14.404 -27.342  1.00  0.00    -0.299 OA
ENDROOT
BRANCH   1   3
ATOM      3  C   UNL     1      -3.036  13.471 -27.185  1.00  0.00     0.053 C 
ATOM      4  C   UNL     1      -2.668  12.018 -26.842  1.00  0.00     0.016 C 
BRANCH   3   5
ATOM      5  C   UNL     1      -1.955  14.126 -28.075  1.00  0.00     0.015 C 
BRANCH   5   6
ATOM      6  C   UNL     1      -0.694  13.258 -28.236  1.00  0.00     0.028 C 
BRANCH   6   7
ATOM      7  C   UNL     1      -0.331  12.991 -29.678  1.00  0.00    -0.028 C 
ATOM      8  C   UNL     1      -0.813  11.992 -30.462  1.00  0.00    -0.070 CG0
ATOM      9  C   UNL     1      -0.208  11.848 -31.838  1.00  0.00     0.039 C 
ATOM     10  G   UNL     1      -1.964  11.064 -30.082  1.00  0.00     0.000 G0
ENDBRANCH   6   7
ENDBRANCH   5   6
ENDBRANCH   3   5
ENDBRANCH   1   3
BRANCH   1  11
ATOM     11  C   UNL     1      -4.831  12.734 -28.967  1.00  0.00     0.087 C 
BRANCH  11  12
ATOM     12  C   UNL     1      -3.887  12.847 -30.201  1.00  0.00     0.066 C 
BRANCH  12  13
ATOM     13  C   UNL     1      -3.316  11.481 -30.580  1.00  0.00     0.140 C 
ATOM     14  O   UNL     1      -3.924  10.747 -31.346  1.00  0.00    -0.299 OA
BRANCH  13  15
ATOM     15  C   UNL     1      -1.957  11.062 -30.078  1.00  0.00     0.106 CG0
ATOM     16  G   UNL     1      -0.813  11.998 -30.459  1.00  0.00     0.000 G0
ENDBRANCH  13  15
ENDBRANCH  12  13
BRANCH  12  17
ATOM     17  C   UNL     1      -4.504  13.599 -31.433  1.00  0.00    -0.006 C 
ATOM     18  C   UNL     1      -5.437  14.756 -31.030  1.00  0.00     0.008 C 
ATOM     19  C   UNL     1      -3.394  14.164 -32.340  1.00  0.00     0.008 C 
ENDBRANCH  12  17
ENDBRANCH  11  12
ENDBRANCH   1  11
TORSDOF 1
ENDMDL
MODEL 3
REMARK VINA RESULT:    -4.618      1.584      4.040
REMARK INTER + INTRA:          -6.926
REMARK INTER:                  -6.896
REMARK INTRA:                  -0.031
REMARK UNBOUND:                 0.122
REMARK SMILES CC1=CCC[C@H](C)C(=O)C[C@H](C(C)C)C(=O)C1
REMARK SMILES IDX 8 1 9 2 6 3 7 4 5 5 4 6 3 7 2 8 1 9 10 11 11 12 15 13 16 14
REMARK SMILES IDX 17 15 12 17 13 18 14 19
REMARK H PARENT
REMARK Flexibility Score: 70.00
ROOT
ATOM      1  C   UNL     1      -2.963  12.903 -27.701  1.00  0.00     0.136 C 
ATOM      2  O   UNL     1      -2.663  11.735 -27.494  1.00  0.00    -0.299 OA
ENDROOT
BRANCH   1   3
ATOM      3  C   UNL     1      -4.197  13.508 -27.043  1.00  0.00     0.053 C 
ATOM      4  C   UNL     1      -3.915  14.001 -25.613  1.00  0.00     0.016 C 
BRANCH   3   5
ATOM      5  C   UNL     1      -4.833  14.624 -27.903  1.00  0.00     0.015 C 
BRANCH   5   6
ATOM      6  C   UNL     1      -5.918  14.106 -28.863  1.00  0.00     0.028 C 
BRANCH   6   7
ATOM      7  C   UNL     1      -5.835  14.713 -30.244  1.00  0.00    -0.028 C 
ATOM      8  C   UNL     1      -4.974  14.358 -31.234  1.00  0.00    -0.070 CG0
ATOM      9  C   UNL     1      -4.993  15.193 -32.491  1.00  0.00     0.039 C 
ATOM     10  G   UNL     1      -4.053  13.141 -31.192  1.00  0.00     0.000 G0
ENDBRANCH   6   7
ENDBRANCH   5   6
ENDBRANCH   3   5
ENDBRANCH   1   3
BRANCH   1  11
ATOM     11  C   UNL     1      -2.120  13.724 -28.650  1.00  0.00     0.087 C 
BRANCH  11  12
ATOM     12  C   UNL     1      -1.722  12.991 -29.964  1.00  0.00     0.066 C 
BRANCH  12  13
ATOM     13  C   UNL     1      -2.568  13.476 -31.141  1.00  0.00     0.140 C 
ATOM     14  O   UNL     1      -2.050  14.080 -32.069  1.00  0.00    -0.299 OA
BRANCH  13  15
ATOM     15  C   UNL     1      -4.038  13.142 -31.205  1.00  0.00     0.106 CG0
ATOM     16  G   UNL     1      -4.973  14.349 -31.233  1.00  0.00     0.000 G0
ENDBRANCH  13  15
ENDBRANCH  12  13
BRANCH  12  17
ATOM     17  C   UNL     1      -0.186  13.010 -30.287  1.00  0.00    -0.006 C 
ATOM     18  C   UNL     1       0.697  13.057 -29.026  1.00  0.00     0.008 C 
ATOM     19  C   UNL     1       0.214  11.772 -31.114  1.00  0.00     0.008 C 
ENDBRANCH  12  17
ENDBRANCH  11  12
ENDBRANCH   1  11
TORSDOF 1
ENDMDL
MODEL 4
REMARK VINA RESULT:    -4.602      1.808      2.879
REMARK INTER + INTRA:          -6.902
REMARK INTER:                  -7.291
REMARK INTRA:                   0.389
REMARK UNBOUND:                 0.122
REMARK SMILES CC1=CCC[C@H](C)C(=O)C[C@H](C(C)C)C(=O)C1
REMARK SMILES IDX 8 1 9 2 6 3 7 4 5 5 4 6 3 7 2 8 1 9 10 11 11 12 15 13 16 14
REMARK SMILES IDX 17 15 12 17 13 18 14 19
REMARK H PARENT
REMARK Flexibility Score: 70.00
ROOT
ATOM      1  C   UNL     1      -3.698  13.189 -27.602  1.00  0.00     0.136 C 
ATOM      2  O   UNL     1      -3.219  14.255 -27.239  1.00  0.00    -0.299 OA
ENDROOT
BRANCH   1   3
ATOM      3  C   UNL     1      -2.969  11.882 -27.316  1.00  0.00     0.053 C 
ATOM      4  C   UNL     1      -2.992  11.513 -25.823  1.00  0.00     0.016 C 
BRANCH   3   5
ATOM      5  C   UNL     1      -3.490  10.716 -28.187  1.00  0.00     0.015 C 
BRANCH   5   6
ATOM      6  C   UNL     1      -2.575  10.396 -29.382  1.00  0.00     0.028 C 
BRANCH   6   7
ATOM      7  C   UNL     1      -1.932  11.620 -29.989  1.00  0.00    -0.028 C 
ATOM      8  C   UNL     1      -2.543  12.555 -30.764  1.00  0.00    -0.070 CG0
ATOM      9  C   UNL     1      -1.667  13.628 -31.363  1.00  0.00     0.039 C 
ATOM     10  G   UNL     1      -4.049  12.638 -31.005  1.00  0.00     0.000 G0
ENDBRANCH   6   7
ENDBRANCH   5   6
ENDBRANCH   3   5
ENDBRANCH   1   3
BRANCH   1  11
ATOM     11  C   UNL     1      -4.997  13.189 -28.374  1.00  0.00     0.087 C 
BRANCH  11  12
ATOM     12  C   UNL     1      -5.164  14.377 -29.365  1.00  0.00     0.066 C 
BRANCH  12  13
ATOM     13  C   UNL     1      -4.666  14.001 -30.760  1.00  0.00     0.140 C 
ATOM     14  O   UNL     1      -4.706  14.814 -31.673  1.00  0.00    -0.299 OA
BRANCH  13  15
ATOM     15  C   UNL     1      -4.044  12.648 -31.003  1.00  0.00     0.106 CG0
ATOM     16  G   UNL     1      -2.542  12.573 -30.739  1.00  0.00     0.000 G0
ENDBRANCH  13  15
ENDBRANCH  12  13
BRANCH  12  17
ATOM     17  C   UNL     1      -6.599  15.011 -29.396  1.00  0.00    -0.006 C 
ATOM     18  C   UNL     1      -7.544  14.421 -28.332  1.00  0.00     0.008 C 
ATOM     19  C   UNL     1      -6.528  16.536 -29.188  1.00  0.00     0.008 C 
ENDBRANCH  12  17
ENDBRANCH  11  12
ENDBRANCH   1  11
TORSDOF 1
ENDMDL
MODEL 5
REMARK VINA RESULT:    -4.450      2.053      4.058
REMARK INTER + INTRA:          -6.670
REMARK INTER:                  -6.470
REMARK INTRA:                  -0.199
REMARK UNBOUND:                 0.122
REMARK SMILES CC1=CCC[C@H](C)C(=O)C[C@H](C(C)C)C(=O)C1
REMARK SMILES IDX 8 1 9 2 6 3 7 4 5 5 4 6 3 7 2 8 1 9 10 11 11 12 15 13 16 14
REMARK SMILES IDX 17 15 12 17 13 18 14 19
REMARK H PARENT
REMARK Flexibility Score: 70.00
ROOT
ATOM      1  C   UNL     1      -4.726  13.742 -30.399  1.00  0.00     0.136 C 
ATOM      2  O   UNL     1      -5.463  14.695 -30.187  1.00  0.00    -0.299 OA
ENDROOT
BRANCH   1   3
ATOM      3  C   UNL     1      -4.049  13.581 -31.754  1.00  0.00     0.053 C 
ATOM      4  C   UNL     1      -4.941  14.054 -32.914  1.00  0.00     0.016 C 
BRANCH   3   5
ATOM      5  C   UNL     1      -2.662  14.263 -31.802  1.00  0.00     0.015 C 
BRANCH   5   6
ATOM      6  C   UNL     1      -1.493  13.272 -31.655  1.00  0.00     0.028 C 
BRANCH   6   7
ATOM      7  C   UNL     1      -0.521  13.651 -30.564  1.00  0.00    -0.028 C 
ATOM      8  C   UNL     1      -0.313  12.984 -29.398  1.00  0.00    -0.070 CG0
ATOM      9  C   UNL     1       0.624  13.622 -28.400  1.00  0.00     0.039 C 
ATOM     10  G   UNL     1      -0.894  11.612 -29.064  1.00  0.00     0.000 G0
ENDBRANCH   6   7
ENDBRANCH   5   6
ENDBRANCH   3   5
ENDBRANCH   1   3
BRANCH   1  11
ATOM     11  C   UNL     1      -4.530  12.706 -29.316  1.00  0.00     0.087 C 
BRANCH  11  12
ATOM     12  C   UNL     1      -3.472  11.613 -29.647  1.00  0.00     0.066 C 
BRANCH  12  13
ATOM     13  C   UNL     1      -2.342  11.615 -28.618  1.00  0.00     0.140 C 
ATOM     14  O   UNL     1      -2.593  11.555 -27.423  1.00  0.00    -0.299 OA
BRANCH  13  15
ATOM     15  C   UNL     1      -0.904  11.607 -29.072  1.00  0.00     0.106 CG0
ATOM     16  G   UNL     1      -0.321  12.982 -29.389  1.00  0.00     0.000 G0
ENDBRANCH  13  15
ENDBRANCH  12  13
BRANCH  12  17
ATOM     17  C   UNL     1      -4.062  10.177 -29.882  1.00  0.00    -0.006 C 
ATOM     18  C   UNL     1      -5.373   9.928 -29.112  1.00  0.00     0.008 C 
ATOM     19  C   UNL     1      -4.325   9.933 -31.380  1.00  0.00     0.008 C 
ENDBRANCH  12  17
ENDBRANCH  11  12
ENDBRANCH   1  11
TORSDOF 1
ENDMDL
MODEL 6
REMARK VINA RESULT:    -4.436      1.714      2.908
REMARK INTER + INTRA:          -6.649
REMARK INTER:                  -7.005
REMARK INTRA:                   0.356
REMARK UNBOUND:                 0.122
REMARK SMILES CC1=CCC[C@H](C)C(=O)C[C@H](C(C)C)C(=O)C1
REMARK SMILES IDX 8 1 9 2 6 3 7 4 5 5 4 6 3 7 2 8 1 9 10 11 11 12 15 13 16 14
REMARK SMILES IDX 17 15 12 17 13 18 14 19
REMARK H PARENT
REMARK Flexibility Score: 70.00
ROOT
ATOM      1  C   UNL     1      -0.942  13.309 -29.491  1.00  0.00     0.136 C 
ATOM      2  O   UNL     1      -0.595  14.254 -28.795  1.00  0.00    -0.299 OA
ENDROOT
BRANCH   1   3
ATOM      3  C   UNL     1      -0.738  13.352 -31.001  1.00  0.00     0.053 C 
ATOM      4  C   UNL     1      -0.250  12.007 -31.563  1.00  0.00     0.016 C 
BRANCH   3   5
ATOM      5  C   UNL     1      -1.998  13.847 -31.749  1.00  0.00     0.015 C 
BRANCH   5   6
ATOM      6  C   UNL     1      -3.279  13.099 -31.340  1.00  0.00     0.028 C 
BRANCH   6   7
ATOM      7  C   UNL     1      -4.347  14.006 -30.776  1.00  0.00    -0.028 C 
ATOM      8  C   UNL     1      -4.993  13.855 -29.590  1.00  0.00    -0.070 CG0
ATOM      9  C   UNL     1      -6.115  14.820 -29.293  1.00  0.00     0.039 C 
ATOM     10  G   UNL     1      -4.616  12.838 -28.516  1.00  0.00     0.000 G0
ENDBRANCH   6   7
ENDBRANCH   5   6
ENDBRANCH   3   5
ENDBRANCH   1   3
BRANCH   1  11
ATOM     11  C   UNL     1      -1.613  12.122 -28.842  1.00  0.00     0.087 C 
BRANCH  11  12
ATOM     12  C   UNL     1      -2.242  12.413 -27.447  1.00  0.00     0.066 C 
BRANCH  12  13
ATOM     13  C   UNL     1      -3.494  13.279 -27.581  1.00  0.00     0.140 C 
ATOM     14  O   UNL     1      -3.566  14.357 -27.008  1.00  0.00    -0.299 OA
BRANCH  13  15
ATOM     15  C   UNL     1      -4.619  12.850 -28.491  1.00  0.00     0.106 CG0
ATOM     16  G   UNL     1      -4.989  13.858 -29.576  1.00  0.00     0.000 G0
ENDBRANCH  13  15
ENDBRANCH  12  13
BRANCH  12  17
ATOM     17  C   UNL     1      -2.489  11.142 -26.560  1.00  0.00    -0.006 C 
ATOM     18  C   UNL     1      -3.464  11.397 -25.396  1.00  0.00     0.008 C 
ATOM     19  C   UNL     1      -3.041   9.981 -27.410  1.00  0.00     0.008 C 
ENDBRANCH  12  17
ENDBRANCH  11  12
ENDBRANCH   1  11
TORSDOF 1
ENDMDL
MODEL 7
REMARK VINA RESULT:    -4.414      1.779      4.974
REMARK INTER + INTRA:          -6.615
REMARK INTER:                  -6.781
REMARK INTRA:                   0.166
REMARK UNBOUND:                 0.122
REMARK SMILES CC1=CCC[C@H](C)C(=O)C[C@H](C(C)C)C(=O)C1
REMARK SMILES IDX 8 1 9 2 6 3 7 4 5 5 4 6 3 7 2 8 1 9 10 11 11 12 15 13 16 14
REMARK SMILES IDX 17 15 12 17 13 18 14 19
REMARK H PARENT
REMARK Flexibility Score: 70.00
ROOT
ATOM      1  C   UNL     1      -3.851  12.724 -31.293  1.00  0.00     0.136 C 
ATOM      2  O   UNL     1      -4.546  11.905 -31.879  1.00  0.00    -0.299 OA
ENDROOT
BRANCH   1   3
ATOM      3  C   UNL     1      -4.248  14.195 -31.273  1.00  0.00     0.053 C 
ATOM      4  C   UNL     1      -4.619  14.720 -32.670  1.00  0.00     0.016 C 
BRANCH   3   5
ATOM      5  C   UNL     1      -5.370  14.486 -30.250  1.00  0.00     0.015 C 
BRANCH   5   6
ATOM      6  C   UNL     1      -5.481  13.416 -29.149  1.00  0.00     0.028 C 
BRANCH   6   7
ATOM      7  C   UNL     1      -5.031  13.905 -27.793  1.00  0.00    -0.028 C 
ATOM      8  C   UNL     1      -3.858  13.607 -27.174  1.00  0.00    -0.070 CG0
ATOM      9  C   UNL     1      -3.681  14.112 -25.762  1.00  0.00     0.039 C 
ATOM     10  G   UNL     1      -2.690  12.873 -27.827  1.00  0.00     0.000 G0
ENDBRANCH   6   7
ENDBRANCH   5   6
ENDBRANCH   3   5
ENDBRANCH   1   3
BRANCH   1  11
ATOM     11  C   UNL     1      -2.574  12.266 -30.627  1.00  0.00     0.087 C 
BRANCH  11  12
ATOM     12  C   UNL     1      -1.621  13.416 -30.189  1.00  0.00     0.066 C 
BRANCH  12  13
ATOM     13  C   UNL     1      -1.800  13.740 -28.706  1.00  0.00     0.140 C 
ATOM     14  O   UNL     1      -1.287  14.739 -28.223  1.00  0.00    -0.299 OA
BRANCH  13  15
ATOM     15  C   UNL     1      -2.682  12.873 -27.842  1.00  0.00     0.106 CG0
ATOM     16  G   UNL     1      -3.845  13.601 -27.174  1.00  0.00     0.000 G0
ENDBRANCH  13  15
ENDBRANCH  12  13
BRANCH  12  17
ATOM     17  C   UNL     1      -0.115  13.204 -30.575  1.00  0.00    -0.006 C 
ATOM     18  C   UNL     1       0.774  12.842 -29.370  1.00  0.00     0.008 C 
ATOM     19  C   UNL     1       0.027  12.094 -31.634  1.00  0.00     0.008 C 
ENDBRANCH  12  17
ENDBRANCH  11  12
ENDBRANCH   1  11
TORSDOF 1
ENDMDL
MODEL 8
REMARK VINA RESULT:    -4.347      1.750      3.485
REMARK INTER + INTRA:          -6.512
REMARK INTER:                  -6.895
REMARK INTRA:                   0.383
REMARK UNBOUND:                 0.122
REMARK SMILES CC1=CCC[C@H](C)C(=O)C[C@H](C(C)C)C(=O)C1
REMARK SMILES IDX 8 1 9 2 6 3 7 4 5 5 4 6 3 7 2 8 1 9 10 11 11 12 15 13 16 14
REMARK SMILES IDX 17 15 12 17 13 18 14 19
REMARK H PARENT
REMARK Flexibility Score: 70.00
ROOT
ATOM      1  C   UNL     1      -3.990  10.822 -29.022  1.00  0.00     0.136 C 
ATOM      2  O   UNL     1      -3.844  10.559 -27.836  1.00  0.00    -0.299 OA
ENDROOT
BRANCH   1   3
ATOM      3  C   UNL     1      -3.307   9.973 -30.087  1.00  0.00     0.053 C 
ATOM      4  C   UNL     1      -3.772  10.332 -31.508  1.00  0.00     0.016 C 
BRANCH   3   5
ATOM      5  C   UNL     1      -1.766  10.018 -29.974  1.00  0.00     0.015 C 
BRANCH   5   6
ATOM      6  C   UNL     1      -1.138  11.208 -30.721  1.00  0.00     0.028 C 
BRANCH   6   7
ATOM      7  C   UNL     1      -0.352  12.132 -29.821  1.00  0.00    -0.028 C 
ATOM      8  C   UNL     1      -0.770  13.327 -29.325  1.00  0.00    -0.070 CG0
ATOM      9  C   UNL     1       0.238  14.136 -28.545  1.00  0.00     0.039 C 
ATOM     10  G   UNL     1      -2.195  13.865 -29.433  1.00  0.00     0.000 G0
ENDBRANCH   6   7
ENDBRANCH   5   6
ENDBRANCH   3   5
ENDBRANCH   1   3
BRANCH   1  11
ATOM     11  C   UNL     1      -4.819  12.023 -29.414  1.00  0.00     0.087 C 
BRANCH  11  12
ATOM     12  C   UNL     1      -4.609  13.278 -28.518  1.00  0.00     0.066 C 
BRANCH  12  13
ATOM     13  C   UNL     1      -3.122  13.538 -28.280  1.00  0.00     0.140 C 
ATOM     14  O   UNL     1      -2.642  13.415 -27.162  1.00  0.00    -0.299 OA
BRANCH  13  15
ATOM     15  C   UNL     1      -2.215  13.870 -29.439  1.00  0.00     0.106 CG0
ATOM     16  G   UNL     1      -0.794  13.324 -29.323  1.00  0.00     0.000 G0
ENDBRANCH  13  15
ENDBRANCH  12  13
BRANCH  12  17
ATOM     17  C   UNL     1      -5.369  14.564 -28.999  1.00  0.00    -0.006 C 
ATOM     18  C   UNL     1      -5.426  14.695 -30.533  1.00  0.00     0.008 C 
ATOM     19  C   UNL     1      -6.811  14.581 -28.457  1.00  0.00     0.008 C 
ENDBRANCH  12  17
ENDBRANCH  11  12
ENDBRANCH   1  11
TORSDOF 1
ENDMDL
MODEL 9
REMARK VINA RESULT:    -4.198      2.240      4.003
REMARK INTER + INTRA:          -6.285
REMARK INTER:                  -6.063
REMARK INTRA:                  -0.222
REMARK UNBOUND:                 0.122
REMARK SMILES CC1=CCC[C@H](C)C(=O)C[C@H](C(C)C)C(=O)C1
REMARK SMILES IDX 8 1 9 2 6 3 7 4 5 5 4 6 3 7 2 8 1 9 10 11 11 12 15 13 16 14
REMARK SMILES IDX 17 15 12 17 13 18 14 19
REMARK H PARENT
REMARK Flexibility Score: 70.00
ROOT
ATOM      1  C   UNL     1      -4.067  12.701 -31.176  1.00  0.00     0.136 C 
ATOM      2  O   UNL     1      -4.543  12.902 -32.285  1.00  0.00    -0.299 OA
ENDROOT
BRANCH   1   3
ATOM      3  C   UNL     1      -3.733  11.283 -30.728  1.00  0.00     0.053 C 
ATOM      4  C   UNL     1      -4.627  10.231 -31.404  1.00  0.00     0.016 C 
BRANCH   3   5
ATOM      5  C   UNL     1      -2.235  10.947 -30.915  1.00  0.00     0.015 C 
BRANCH   5   6
ATOM      6  C   UNL     1      -1.367  11.355 -29.712  1.00  0.00     0.028 C 
BRANCH   6   7
ATOM      7  C   UNL     1      -1.995  11.020 -28.379  1.00  0.00    -0.028 C 
ATOM      8  C   UNL     1      -2.449  11.906 -27.453  1.00  0.00    -0.070 CG0
ATOM      9  C   UNL     1      -2.924  11.338 -26.138  1.00  0.00     0.039 C 
ATOM     10  G   UNL     1      -2.582  13.410 -27.678  1.00  0.00     0.000 G0
ENDBRANCH   6   7
ENDBRANCH   5   6
ENDBRANCH   3   5
ENDBRANCH   1   3
BRANCH   1  11
ATOM     11  C   UNL     1      -3.856  13.870 -30.242  1.00  0.00     0.087 C 
BRANCH  11  12
ATOM     12  C   UNL     1      -4.802  13.893 -29.006  1.00  0.00     0.066 C 
BRANCH  12  13
ATOM     13  C   UNL     1      -4.003  13.939 -27.704  1.00  0.00     0.140 C 
ATOM     14  O   UNL     1      -4.524  14.332 -26.670  1.00  0.00    -0.299 OA
BRANCH  13  15
ATOM     15  C   UNL     1      -2.587  13.420 -27.666  1.00  0.00     0.106 CG0
ATOM     16  G   UNL     1      -2.458  11.913 -27.458  1.00  0.00     0.000 G0
ENDBRANCH  13  15
ENDBRANCH  12  13
BRANCH  12  17
ATOM     17  C   UNL     1      -5.922  14.991 -29.057  1.00  0.00    -0.006 C 
ATOM     18  C   UNL     1      -6.151  15.557 -30.470  1.00  0.00     0.008 C 
ATOM     19  C   UNL     1      -7.260  14.431 -28.536  1.00  0.00     0.008 C 
ENDBRANCH  12  17
ENDBRANCH  11  12
ENDBRANCH   1  11
TORSDOF 1
ENDMDL
