MODEL 1
REMARK VINA RESULT:    -3.576      0.000      0.000
REMARK INTER + INTRA:          -5.855
REMARK INTER:                  -5.458
REMARK INTRA:                  -0.397
REMARK UNBOUND:                -0.397
REMARK SMILES O=C([O-])CCCCCCCCC(=O)[O-]
REMARK SMILES IDX 7 1 6 2 5 3 4 4 2 5 1 6 3 7 8 8 9 9 10 10 11 11 12 12 13 13
REMARK SMILES IDX 14 14
REMARK H PARENT
REMARK Flexibility Score: inf
ROOT
ATOM      1  C   UNL     1     110.635  63.290 215.274  1.00  0.00     0.000 C 
ENDROOT
BRANCH   1   2
ATOM      2  C   UNL     1     111.776  64.302 215.476  1.00  0.00     0.000 C 
BRANCH   2   3
ATOM      3  C   UNL     1     112.223  64.410 216.946  1.00  0.00     0.006 C 
BRANCH   3   4
ATOM      4  C   UNL     1     112.251  65.843 217.499  1.00  0.00     0.053 C 
BRANCH   4   5
ATOM      5  C   UNL     1     113.413  66.626 216.972  1.00  0.00     0.041 C 
ATOM      6  O   UNL     1     114.442  66.032 216.555  1.00  0.00    -0.550 OA
ATOM      7  O   UNL     1     113.373  68.016 216.972  1.00  0.00    -0.550 OA
ENDBRANCH   4   5
ENDBRANCH   3   4
ENDBRANCH   2   3
ENDBRANCH   1   2
BRANCH   1   8
ATOM      8  C   UNL     1     110.688  62.135 216.288  1.00  0.00     0.000 C 
BRANCH   8   9
ATOM      9  C   UNL     1     109.416  61.269 216.261  1.00  0.00     0.000 C 
BRANCH   9  10
ATOM     10  C   UNL     1     108.369  61.780 215.253  1.00  0.00     0.006 C 
BRANCH  10  11
ATOM     11  C   UNL     1     106.920  61.732 215.764  1.00  0.00     0.053 C 
BRANCH  11  12
ATOM     12  C   UNL     1     106.420  60.327 215.901  1.00  0.00     0.041 C 
ATOM     13  O   UNL     1     106.193  59.632 214.876  1.00  0.00    -0.550 OA
ATOM     14  O   UNL     1     106.236  59.775 217.162  1.00  0.00    -0.550 OA
ENDBRANCH  11  12
ENDBRANCH  10  11
ENDBRANCH   9  10
ENDBRANCH   8   9
ENDBRANCH   1   8
TORSDOF 9
ENDMDL
MODEL 2
REMARK VINA RESULT:    -3.471      5.434      7.428
REMARK INTER + INTRA:          -5.694
REMARK INTER:                  -4.898
REMARK INTRA:                  -0.796
REMARK UNBOUND:                -0.397
REMARK SMILES O=C([O-])CCCCCCCCC(=O)[O-]
REMARK SMILES IDX 7 1 6 2 5 3 4 4 2 5 1 6 3 7 8 8 9 9 10 10 11 11 12 12 13 13
REMARK SMILES IDX 14 14
REMARK H PARENT
REMARK Flexibility Score: inf
ROOT
ATOM      1  C   UNL     1     113.321  65.998 221.193  1.00  0.00     0.000 C 
ENDROOT
BRANCH   1   2
ATOM      2  C   UNL     1     113.477  67.529 221.145  1.00  0.00     0.000 C 
BRANCH   2   3
ATOM      3  C   UNL     1     112.145  68.254 220.875  1.00  0.00     0.006 C 
BRANCH   3   4
ATOM      4  C   UNL     1     111.414  68.733 222.138  1.00  0.00     0.053 C 
BRANCH   4   5
ATOM      5  C   UNL     1     109.955  68.398 222.104  1.00  0.00     0.041 C 
ATOM      6  O   UNL     1     109.244  68.557 223.132  1.00  0.00    -0.550 OA
ATOM      7  O   UNL     1     109.386  67.876 220.948  1.00  0.00    -0.550 OA
ENDBRANCH   4   5
ENDBRANCH   3   4
ENDBRANCH   2   3
ENDBRANCH   1   2
BRANCH   1   8
ATOM      8  C   UNL     1     112.117  65.504 220.374  1.00  0.00     0.000 C 
BRANCH   8   9
ATOM      9  C   UNL     1     112.454  64.270 219.519  1.00  0.00     0.000 C 
BRANCH   9  10
ATOM     10  C   UNL     1     112.807  64.632 218.063  1.00  0.00     0.006 C 
BRANCH  10  11
ATOM     11  C   UNL     1     112.205  65.959 217.576  1.00  0.00     0.053 C 
BRANCH  11  12
ATOM     12  C   UNL     1     113.251  66.887 217.040  1.00  0.00     0.041 C 
ATOM     13  O   UNL     1     114.125  66.463 216.239  1.00  0.00    -0.550 OA
ATOM     14  O   UNL     1     113.241  68.228 217.400  1.00  0.00    -0.550 OA
ENDBRANCH  11  12
ENDBRANCH  10  11
ENDBRANCH   9  10
ENDBRANCH   8   9
ENDBRANCH   1   8
TORSDOF 9
ENDMDL
MODEL 3
REMARK VINA RESULT:    -3.456      5.066      6.479
REMARK INTER + INTRA:          -5.671
REMARK INTER:                  -5.033
REMARK INTRA:                  -0.638
REMARK UNBOUND:                -0.397
REMARK SMILES O=C([O-])CCCCCCCCC(=O)[O-]
REMARK SMILES IDX 7 1 6 2 5 3 4 4 2 5 1 6 3 7 8 8 9 9 10 10 11 11 12 12 13 13
REMARK SMILES IDX 14 14
REMARK H PARENT
REMARK Flexibility Score: inf
ROOT
ATOM      1  C   UNL     1     112.850  63.995 219.386  1.00  0.00     0.000 C 
ENDROOT
BRANCH   1   2
ATOM      2  C   UNL     1     112.515  63.529 217.958  1.00  0.00     0.000 C 
BRANCH   2   3
ATOM      3  C   UNL     1     112.051  64.683 217.049  1.00  0.00     0.006 C 
BRANCH   3   4
ATOM      4  C   UNL     1     112.134  66.074 217.696  1.00  0.00     0.053 C 
BRANCH   4   5
ATOM      5  C   UNL     1     113.181  66.931 217.056  1.00  0.00     0.041 C 
ATOM      6  O   UNL     1     113.270  68.152 217.353  1.00  0.00    -0.550 OA
ATOM      7  O   UNL     1     114.039  66.390 216.106  1.00  0.00    -0.550 OA
ENDBRANCH   4   5
ENDBRANCH   3   4
ENDBRANCH   2   3
ENDBRANCH   1   2
BRANCH   1   8
ATOM      8  C   UNL     1     112.112  63.178 220.459  1.00  0.00     0.000 C 
BRANCH   8   9
ATOM      9  C   UNL     1     111.961  63.947 221.784  1.00  0.00     0.000 C 
BRANCH   9  10
ATOM     10  C   UNL     1     112.166  65.465 221.618  1.00  0.00     0.006 C 
BRANCH  10  11
ATOM     11  C   UNL     1     111.202  66.329 222.446  1.00  0.00     0.053 C 
BRANCH  11  12
ATOM     12  C   UNL     1     110.634  67.460 221.646  1.00  0.00     0.041 C 
ATOM     13  O   UNL     1     111.265  67.917 220.657  1.00  0.00    -0.550 OA
ATOM     14  O   UNL     1     109.392  67.988 221.972  1.00  0.00    -0.550 OA
ENDBRANCH  11  12
ENDBRANCH  10  11
ENDBRANCH   9  10
ENDBRANCH   8   9
ENDBRANCH   1   8
TORSDOF 9
ENDMDL
MODEL 4
REMARK VINA RESULT:    -3.417      1.215      1.888
REMARK INTER + INTRA:          -5.612
REMARK INTER:                  -5.156
REMARK INTRA:                  -0.456
REMARK UNBOUND:                -0.397
REMARK SMILES O=C([O-])CCCCCCCCC(=O)[O-]
REMARK SMILES IDX 7 1 6 2 5 3 4 4 2 5 1 6 3 7 8 8 9 9 10 10 11 11 12 12 13 13
REMARK SMILES IDX 14 14
REMARK H PARENT
REMARK Flexibility Score: inf
ROOT
ATOM      1  C   UNL     1     112.551  63.147 217.782  1.00  0.00     0.000 C 
ENDROOT
BRANCH   1   2
ATOM      2  C   UNL     1     112.226  63.968 219.042  1.00  0.00     0.000 C 
BRANCH   2   3
ATOM      3  C   UNL     1     112.253  65.486 218.787  1.00  0.00     0.006 C 
BRANCH   3   4
ATOM      4  C   UNL     1     112.165  65.883 217.305  1.00  0.00     0.053 C 
BRANCH   4   5
ATOM      5  C   UNL     1     113.331  66.719 216.876  1.00  0.00     0.041 C 
ATOM      6  O   UNL     1     114.280  66.201 216.231  1.00  0.00    -0.550 OA
ATOM      7  O   UNL     1     113.387  68.065 217.220  1.00  0.00    -0.550 OA
ENDBRANCH   4   5
ENDBRANCH   3   4
ENDBRANCH   2   3
ENDBRANCH   1   2
BRANCH   1   8
ATOM      8  C   UNL     1     111.405  62.202 217.384  1.00  0.00     0.000 C 
BRANCH   8   9
ATOM      9  C   UNL     1     110.699  62.644 216.089  1.00  0.00     0.000 C 
BRANCH   9  10
ATOM     10  C   UNL     1     109.895  61.506 215.432  1.00  0.00     0.006 C 
BRANCH  10  11
ATOM     11  C   UNL     1     108.803  60.901 216.329  1.00  0.00     0.053 C 
BRANCH  11  12
ATOM     12  C   UNL     1     107.480  60.829 215.632  1.00  0.00     0.041 C 
ATOM     13  O   UNL     1     107.087  59.745 215.127  1.00  0.00    -0.550 OA
ATOM     14  O   UNL     1     106.665  61.952 215.570  1.00  0.00    -0.550 OA
ENDBRANCH  11  12
ENDBRANCH  10  11
ENDBRANCH   9  10
ENDBRANCH   8   9
ENDBRANCH   1   8
TORSDOF 9
ENDMDL
MODEL 5
REMARK VINA RESULT:    -3.366     15.897     17.256
REMARK INTER + INTRA:          -5.533
REMARK INTER:                  -4.888
REMARK INTRA:                  -0.645
REMARK UNBOUND:                -0.397
REMARK SMILES O=C([O-])CCCCCCCCC(=O)[O-]
REMARK SMILES IDX 7 1 6 2 5 3 4 4 2 5 1 6 3 7 8 8 9 9 10 10 11 11 12 12 13 13
REMARK SMILES IDX 14 14
REMARK H PARENT
REMARK Flexibility Score: inf
ROOT
ATOM      1  C   UNL     1     113.447  56.398 230.389  1.00  0.00     0.000 C 
ENDROOT
BRANCH   1   2
ATOM      2  C   UNL     1     113.812  56.686 231.856  1.00  0.00     0.000 C 
BRANCH   2   3
ATOM      3  C   UNL     1     113.874  55.410 232.716  1.00  0.00     0.006 C 
BRANCH   3   4
ATOM      4  C   UNL     1     113.070  54.227 232.156  1.00  0.00     0.053 C 
BRANCH   4   5
ATOM      5  C   UNL     1     113.033  53.071 233.107  1.00  0.00     0.041 C 
ATOM      6  O   UNL     1     114.103  52.597 233.571  1.00  0.00    -0.550 OA
ATOM      7  O   UNL     1     111.817  52.494 233.455  1.00  0.00    -0.550 OA
ENDBRANCH   4   5
ENDBRANCH   3   4
ENDBRANCH   2   3
ENDBRANCH   1   2
BRANCH   1   8
ATOM      8  C   UNL     1     114.618  56.663 229.429  1.00  0.00     0.000 C 
BRANCH   8   9
ATOM      9  C   UNL     1     114.831  55.514 228.427  1.00  0.00     0.000 C 
BRANCH   9  10
ATOM     10  C   UNL     1     113.807  54.376 228.601  1.00  0.00     0.006 C 
BRANCH  10  11
ATOM     11  C   UNL     1     113.377  53.704 227.288  1.00  0.00     0.053 C 
BRANCH  11  12
ATOM     12  C   UNL     1     112.316  54.486 226.578  1.00  0.00     0.041 C 
ATOM     13  O   UNL     1     111.622  55.328 227.206  1.00  0.00    -0.550 OA
ATOM     14  O   UNL     1     112.116  54.309 225.215  1.00  0.00    -0.550 OA
ENDBRANCH  11  12
ENDBRANCH  10  11
ENDBRANCH   9  10
ENDBRANCH   8   9
ENDBRANCH   1   8
TORSDOF 9
ENDMDL
MODEL 6
REMARK VINA RESULT:    -3.353     16.464     18.207
REMARK INTER + INTRA:          -5.514
REMARK INTER:                  -4.668
REMARK INTRA:                  -0.845
REMARK UNBOUND:                -0.397
REMARK SMILES O=C([O-])CCCCCCCCC(=O)[O-]
REMARK SMILES IDX 7 1 6 2 5 3 4 4 2 5 1 6 3 7 8 8 9 9 10 10 11 11 12 12 13 13
REMARK SMILES IDX 14 14
REMARK H PARENT
REMARK Flexibility Score: inf
ROOT
ATOM      1  C   UNL     1      98.127  63.464 227.341  1.00  0.00     0.000 C 
ENDROOT
BRANCH   1   2
ATOM      2  C   UNL     1      98.079  63.940 228.804  1.00  0.00     0.000 C 
BRANCH   2   3
ATOM      3  C   UNL     1      98.288  65.459 228.941  1.00  0.00     0.006 C 
BRANCH   3   4
ATOM      4  C   UNL     1      97.836  66.044 230.288  1.00  0.00     0.053 C 
BRANCH   4   5
ATOM      5  C   UNL     1      96.568  65.416 230.777  1.00  0.00     0.041 C 
ATOM      6  O   UNL     1      95.463  65.735 230.263  1.00  0.00    -0.550 OA
ATOM      7  O   UNL     1      96.601  64.502 231.824  1.00  0.00    -0.550 OA
ENDBRANCH   4   5
ENDBRANCH   3   4
ENDBRANCH   2   3
ENDBRANCH   1   2
BRANCH   1   8
ATOM      8  C   UNL     1      99.166  64.232 226.506  1.00  0.00     0.000 C 
BRANCH   8   9
ATOM      9  C   UNL     1      98.515  65.186 225.490  1.00  0.00     0.000 C 
BRANCH   9  10
ATOM     10  C   UNL     1      97.198  64.633 224.912  1.00  0.00     0.006 C 
BRANCH  10  11
ATOM     11  C   UNL     1      96.017  65.615 224.973  1.00  0.00     0.053 C 
BRANCH  11  12
ATOM     12  C   UNL     1      95.521  65.810 226.372  1.00  0.00     0.041 C 
ATOM     13  O   UNL     1      94.889  64.890 226.955  1.00  0.00    -0.550 OA
ATOM     14  O   UNL     1      95.786  66.995 227.045  1.00  0.00    -0.550 OA
ENDBRANCH  11  12
ENDBRANCH  10  11
ENDBRANCH   9  10
ENDBRANCH   8   9
ENDBRANCH   1   8
TORSDOF 9
ENDMDL
MODEL 7
REMARK VINA RESULT:    -3.336     15.394     17.712
REMARK INTER + INTRA:          -5.488
REMARK INTER:                  -4.865
REMARK INTRA:                  -0.623
REMARK UNBOUND:                -0.397
REMARK SMILES O=C([O-])CCCCCCCCC(=O)[O-]
REMARK SMILES IDX 7 1 6 2 5 3 4 4 2 5 1 6 3 7 8 8 9 9 10 10 11 11 12 12 13 13
REMARK SMILES IDX 14 14
REMARK H PARENT
REMARK Flexibility Score: inf
ROOT
ATOM      1  C   UNL     1      95.470  65.737 226.286  1.00  0.00     0.000 C 
ENDROOT
BRANCH   1   2
ATOM      2  C   UNL     1      95.749  67.101 226.943  1.00  0.00     0.000 C 
BRANCH   2   3
ATOM      3  C   UNL     1      96.763  67.008 228.098  1.00  0.00     0.006 C 
BRANCH   3   4
ATOM      4  C   UNL     1      96.393  67.836 229.338  1.00  0.00     0.053 C 
BRANCH   4   5
ATOM      5  C   UNL     1      95.980  66.972 230.489  1.00  0.00     0.041 C 
ATOM      6  O   UNL     1      96.098  67.391 231.671  1.00  0.00    -0.550 OA
ATOM      7  O   UNL     1      95.497  65.689 230.259  1.00  0.00    -0.550 OA
ENDBRANCH   4   5
ENDBRANCH   3   4
ENDBRANCH   2   3
ENDBRANCH   1   2
BRANCH   1   8
ATOM      8  C   UNL     1      96.596  64.721 226.539  1.00  0.00     0.000 C 
BRANCH   8   9
ATOM      9  C   UNL     1      97.494  64.519 225.306  1.00  0.00     0.000 C 
BRANCH   9  10
ATOM     10  C   UNL     1      98.995  64.608 225.642  1.00  0.00     0.006 C 
BRANCH  10  11
ATOM     11  C   UNL     1      99.655  65.940 225.248  1.00  0.00     0.053 C 
BRANCH  11  12
ATOM     12  C   UNL     1     101.110  65.775 224.938  1.00  0.00     0.041 C 
ATOM     13  O   UNL     1     101.482  64.960 224.052  1.00  0.00    -0.550 OA
ATOM     14  O   UNL     1     102.055  66.546 225.602  1.00  0.00    -0.550 OA
ENDBRANCH  11  12
ENDBRANCH  10  11
ENDBRANCH   9  10
ENDBRANCH   8   9
ENDBRANCH   1   8
TORSDOF 9
ENDMDL
MODEL 8
REMARK VINA RESULT:    -3.319     14.363     16.808
REMARK INTER + INTRA:          -5.463
REMARK INTER:                  -4.705
REMARK INTRA:                  -0.757
REMARK UNBOUND:                -0.397
REMARK SMILES O=C([O-])CCCCCCCCC(=O)[O-]
REMARK SMILES IDX 7 1 6 2 5 3 4 4 2 5 1 6 3 7 8 8 9 9 10 10 11 11 12 12 13 13
REMARK SMILES IDX 14 14
REMARK H PARENT
REMARK Flexibility Score: inf
ROOT
ATOM      1  C   UNL     1      96.010  65.450 224.503  1.00  0.00     0.000 C 
ENDROOT
BRANCH   1   2
ATOM      2  C   UNL     1      95.238  66.098 225.665  1.00  0.00     0.000 C 
BRANCH   2   3
ATOM      3  C   UNL     1      95.791  67.484 226.046  1.00  0.00     0.006 C 
BRANCH   3   4
ATOM      4  C   UNL     1      95.738  67.798 227.550  1.00  0.00     0.053 C 
BRANCH   4   5
ATOM      5  C   UNL     1      96.423  66.747 228.368  1.00  0.00     0.041 C 
ATOM      6  O   UNL     1      95.754  66.006 229.136  1.00  0.00    -0.550 OA
ATOM      7  O   UNL     1      97.804  66.608 228.309  1.00  0.00    -0.550 OA
ENDBRANCH   4   5
ENDBRANCH   3   4
ENDBRANCH   2   3
ENDBRANCH   1   2
BRANCH   1   8
ATOM      8  C   UNL     1      97.521  65.360 224.778  1.00  0.00     0.000 C 
BRANCH   8   9
ATOM      9  C   UNL     1      97.872  64.245 225.778  1.00  0.00     0.000 C 
BRANCH   9  10
ATOM     10  C   UNL     1      99.374  64.201 226.117  1.00  0.00     0.006 C 
BRANCH  10  11
ATOM     11  C   UNL     1     100.128  65.509 225.828  1.00  0.00     0.053 C 
BRANCH  11  12
ATOM     12  C   UNL     1     101.101  65.358 224.700  1.00  0.00     0.041 C 
ATOM     13  O   UNL     1     101.244  64.245 224.130  1.00  0.00    -0.550 OA
ATOM     14  O   UNL     1     101.826  66.457 224.256  1.00  0.00    -0.550 OA
ENDBRANCH  11  12
ENDBRANCH  10  11
ENDBRANCH   9  10
ENDBRANCH   8   9
ENDBRANCH   1   8
TORSDOF 9
ENDMDL
MODEL 9
REMARK VINA RESULT:    -3.303      1.256      7.372
REMARK INTER + INTRA:          -5.437
REMARK INTER:                  -4.967
REMARK INTRA:                  -0.471
REMARK UNBOUND:                -0.397
REMARK SMILES O=C([O-])CCCCCCCCC(=O)[O-]
REMARK SMILES IDX 7 1 6 2 5 3 4 4 2 5 1 6 3 7 8 8 9 9 10 10 11 11 12 12 13 13
REMARK SMILES IDX 14 14
REMARK H PARENT
REMARK Flexibility Score: inf
ROOT
ATOM      1  C   UNL     1     111.021  61.247 217.614  1.00  0.00     0.000 C 
ENDROOT
BRANCH   1   2
ATOM      2  C   UNL     1     110.826  61.723 216.163  1.00  0.00     0.000 C 
BRANCH   2   3
ATOM      3  C   UNL     1     109.348  61.714 215.728  1.00  0.00     0.006 C 
BRANCH   3   4
ATOM      4  C   UNL     1     108.534  60.529 216.269  1.00  0.00     0.053 C 
BRANCH   4   5
ATOM      5  C   UNL     1     107.076  60.852 216.379  1.00  0.00     0.041 C 
ATOM      6  O   UNL     1     106.349  60.232 217.200  1.00  0.00    -0.550 OA
ATOM      7  O   UNL     1     106.511  61.813 215.549  1.00  0.00    -0.550 OA
ENDBRANCH   4   5
ENDBRANCH   3   4
ENDBRANCH   2   3
ENDBRANCH   1   2
BRANCH   1   8
ATOM      8  C   UNL     1     111.810  62.258 218.463  1.00  0.00     0.000 C 
BRANCH   8   9
ATOM      9  C   UNL     1     112.442  63.375 217.613  1.00  0.00     0.000 C 
BRANCH   9  10
ATOM     10  C   UNL     1     112.210  64.778 218.206  1.00  0.00     0.006 C 
BRANCH  10  11
ATOM     11  C   UNL     1     112.089  65.896 217.159  1.00  0.00     0.053 C 
BRANCH  11  12
ATOM     12  C   UNL     1     113.403  66.562 216.894  1.00  0.00     0.041 C 
ATOM     13  O   UNL     1     113.819  67.473 217.656  1.00  0.00    -0.550 OA
ATOM     14  O   UNL     1     114.187  66.151 215.823  1.00  0.00    -0.550 OA
ENDBRANCH  11  12
ENDBRANCH  10  11
ENDBRANCH   9  10
ENDBRANCH   8   9
ENDBRANCH   1   8
TORSDOF 9
ENDMDL
