MODEL 1
REMARK VINA RESULT:    -6.250      0.000      0.000
REMARK INTER + INTRA:          -7.165
REMARK INTER:                  -6.798
REMARK INTRA:                  -0.367
REMARK UNBOUND:                -0.367
REMARK SMILES CC1(C)CC[C@@]2(C(=O)[O-])CC[C@@]3(C)C(=CC[C@@H]4[C@@]5(C)CC[C@@H](O)C(C)(C)[C@H]5CC[C@]43C)[C@H]2C1
REMARK SMILES IDX 6 1 5 2 10 3 32 4 4 5 11 6 14 7 33 8 2 9 12 10 15 11 1 12
REMARK SMILES IDX 3 13 13 14 30 15 16 16 17 17 29 18 31 19 18 20 28 21 27 22
REMARK SMILES IDX 20 23 19 24 24 25 21 26 22 27 25 28 26 29 7 30 8 31 9 32
REMARK SMILES IDX 23 33
REMARK H PARENT 23 34
REMARK Flexibility Score: inf
ROOT
ATOM      1  C   UNL     1       7.375  31.503  63.425  1.00  0.00     0.017 C 
ATOM      2  C   UNL     1       6.986  32.547  64.525  1.00  0.00     0.014 C 
ATOM      3  C   UNL     1       7.609  30.142  64.184  1.00  0.00     0.014 C 
ATOM      4  C   UNL     1       6.269  31.462  62.283  1.00  0.00     0.028 C 
ATOM      5  C   UNL     1       6.474  33.902  64.010  1.00  0.00     0.007 C 
ATOM      6  C   UNL     1       7.287  28.869  63.395  1.00  0.00     0.013 C 
ATOM      7  C   UNL     1       5.866  30.070  61.785  1.00  0.00    -0.064 C 
ATOM      8  C   UNL     1       5.019  32.325  62.567  1.00  0.00     0.015 C 
ATOM      9  C   UNL     1       5.372  33.804  62.896  1.00  0.00    -0.035 C 
ATOM     10  C   UNL     1       5.870  28.873  62.754  1.00  0.00    -0.006 C 
ATOM     11  C   UNL     1       5.652  29.931  60.441  1.00  0.00    -0.027 C 
ATOM     12  C   UNL     1       5.855  34.549  61.626  1.00  0.00     0.011 C 
ATOM     13  C   UNL     1       4.078  34.503  63.378  1.00  0.00     0.011 C 
ATOM     14  C   UNL     1       4.807  29.132  63.876  1.00  0.00     0.017 C 
ATOM     15  C   UNL     1       5.538  27.492  61.973  1.00  0.00    -0.020 C 
ATOM     16  C   UNL     1       5.677  28.616  59.694  1.00  0.00     0.032 C 
ATOM     17  C   UNL     1       6.285  27.516  60.581  1.00  0.00     0.006 C 
ATOM     18  C   UNL     1       5.942  26.206  62.784  1.00  0.00     0.008 C 
ATOM     19  C   UNL     1       3.979  27.421  61.760  1.00  0.00     0.012 C 
ATOM     20  C   UNL     1       6.593  26.104  59.928  1.00  0.00    -0.025 C 
ATOM     21  C   UNL     1       7.314  25.599  62.423  1.00  0.00     0.005 C 
ATOM     22  C   UNL     1       7.605  25.337  60.899  1.00  0.00     0.003 C 
ATOM     23  C   UNL     1       7.145  26.215  58.463  1.00  0.00     0.010 C 
ATOM     24  C   UNL     1       5.299  25.252  59.746  1.00  0.00     0.012 C 
ATOM     25  C   UNL     1       9.176  25.436  60.575  1.00  0.00    -0.006 C 
ATOM     26  C   UNL     1       8.621  26.545  58.361  1.00  0.00     0.033 C 
ATOM     27  C   UNL     1       9.412  25.420  59.037  1.00  0.00     0.120 C 
ATOM     28  C   UNL     1       9.903  26.679  61.186  1.00  0.00     0.014 C 
ATOM     29  C   UNL     1       9.879  24.185  61.164  1.00  0.00     0.014 C 
ENDROOT
BRANCH   1  30
ATOM     30  C   UNL     1       8.708  31.892  62.777  1.00  0.00     0.048 C 
ATOM     31  O   UNL     1       9.792  31.432  63.230  1.00  0.00    -0.550 OA
ATOM     32  O   UNL     1       8.750  32.623  61.597  1.00  0.00    -0.550 OA
ENDBRANCH   1  30
BRANCH  27  33
ATOM     33  O   UNL     1      10.778  25.550  58.726  1.00  0.00    -0.393 OA
ATOM     34  H   UNL     1      11.042  24.724  58.244  1.00  0.00     0.210 HD
ENDBRANCH  27  33
TORSDOF 2
ENDMDL
MODEL 2
REMARK VINA RESULT:    -6.053      3.123      6.456
REMARK INTER + INTRA:          -6.950
REMARK INTER:                  -6.605
REMARK INTRA:                  -0.346
REMARK UNBOUND:                -0.367
REMARK SMILES CC1(C)CC[C@@]2(C(=O)[O-])CC[C@@]3(C)C(=CC[C@@H]4[C@@]5(C)CC[C@@H](O)C(C)(C)[C@H]5CC[C@]43C)[C@H]2C1
REMARK SMILES IDX 6 1 5 2 10 3 32 4 4 5 11 6 14 7 33 8 2 9 12 10 15 11 1 12
REMARK SMILES IDX 3 13 13 14 30 15 16 16 17 17 29 18 31 19 18 20 28 21 27 22
REMARK SMILES IDX 20 23 19 24 24 25 21 26 22 27 25 28 26 29 7 30 8 31 9 32
REMARK SMILES IDX 23 33
REMARK H PARENT 23 34
REMARK Flexibility Score: inf
ROOT
ATOM      1  C   UNL     1      11.654  26.113  61.077  1.00  0.00     0.017 C 
ATOM      2  C   UNL     1      12.921  25.292  61.492  1.00  0.00     0.014 C 
ATOM      3  C   UNL     1      10.809  25.163  60.147  1.00  0.00     0.014 C 
ATOM      4  C   UNL     1      10.895  26.651  62.367  1.00  0.00     0.028 C 
ATOM      5  C   UNL     1      13.791  25.917  62.595  1.00  0.00     0.007 C 
ATOM      6  C   UNL     1       9.290  25.361  60.186  1.00  0.00     0.013 C 
ATOM      7  C   UNL     1       9.367  26.530  62.348  1.00  0.00    -0.064 C 
ATOM      8  C   UNL     1      11.468  26.144  63.709  1.00  0.00     0.015 C 
ATOM      9  C   UNL     1      12.993  26.416  63.852  1.00  0.00    -0.035 C 
ATOM     10  C   UNL     1       8.695  25.351  61.622  1.00  0.00    -0.006 C 
ATOM     11  C   UNL     1       8.657  27.575  62.872  1.00  0.00    -0.027 C 
ATOM     12  C   UNL     1      13.264  27.926  64.067  1.00  0.00     0.011 C 
ATOM     13  C   UNL     1      13.490  25.672  65.116  1.00  0.00     0.011 C 
ATOM     14  C   UNL     1       9.113  24.018  62.333  1.00  0.00     0.017 C 
ATOM     15  C   UNL     1       7.081  25.509  61.627  1.00  0.00    -0.020 C 
ATOM     16  C   UNL     1       7.203  27.866  62.577  1.00  0.00     0.032 C 
ATOM     17  C   UNL     1       6.730  27.028  61.377  1.00  0.00     0.006 C 
ATOM     18  C   UNL     1       6.364  24.602  60.559  1.00  0.00     0.008 C 
ATOM     19  C   UNL     1       6.555  25.047  63.038  1.00  0.00     0.012 C 
ATOM     20  C   UNL     1       5.295  27.323  60.768  1.00  0.00    -0.025 C 
ATOM     21  C   UNL     1       6.016  25.297  59.227  1.00  0.00     0.005 C 
ATOM     22  C   UNL     1       5.249  26.668  59.311  1.00  0.00     0.003 C 
ATOM     23  C   UNL     1       4.944  28.852  60.743  1.00  0.00     0.010 C 
ATOM     24  C   UNL     1       4.156  26.721  61.646  1.00  0.00     0.012 C 
ATOM     25  C   UNL     1       5.589  27.610  58.054  1.00  0.00    -0.006 C 
ATOM     26  C   UNL     1       5.554  29.628  59.592  1.00  0.00     0.033 C 
ATOM     27  C   UNL     1       5.019  29.040  58.282  1.00  0.00     0.120 C 
ATOM     28  C   UNL     1       7.108  27.721  57.697  1.00  0.00     0.014 C 
ATOM     29  C   UNL     1       4.886  27.027  56.799  1.00  0.00     0.014 C 
ENDROOT
BRANCH   1  30
ATOM     30  C   UNL     1      12.063  27.323  60.231  1.00  0.00     0.048 C 
ATOM     31  O   UNL     1      12.035  27.255  58.972  1.00  0.00    -0.550 OA
ATOM     32  O   UNL     1      12.322  28.556  60.814  1.00  0.00    -0.550 OA
ENDBRANCH   1  30
BRANCH  27  33
ATOM     33  O   UNL     1       5.341  29.897  57.213  1.00  0.00    -0.393 OA
ATOM     34  H   UNL     1       6.328  30.002  57.217  1.00  0.00     0.210 HD
ENDBRANCH  27  33
TORSDOF 2
ENDMDL
MODEL 3
REMARK VINA RESULT:    -5.363      2.001      7.304
REMARK INTER + INTRA:          -6.200
REMARK INTER:                  -5.859
REMARK INTRA:                  -0.341
REMARK UNBOUND:                -0.367
REMARK SMILES CC1(C)CC[C@@]2(C(=O)[O-])CC[C@@]3(C)C(=CC[C@@H]4[C@@]5(C)CC[C@@H](O)C(C)(C)[C@H]5CC[C@]43C)[C@H]2C1
REMARK SMILES IDX 6 1 5 2 10 3 32 4 4 5 11 6 14 7 33 8 2 9 12 10 15 11 1 12
REMARK SMILES IDX 3 13 13 14 30 15 16 16 17 17 29 18 31 19 18 20 28 21 27 22
REMARK SMILES IDX 20 23 19 24 24 25 21 26 22 27 25 28 26 29 7 30 8 31 9 32
REMARK SMILES IDX 23 33
REMARK H PARENT 23 34
REMARK Flexibility Score: inf
ROOT
ATOM      1  C   UNL     1       5.387  27.323  61.071  1.00  0.00     0.017 C 
ATOM      2  C   UNL     1       4.573  25.988  60.980  1.00  0.00     0.014 C 
ATOM      3  C   UNL     1       4.470  28.336  61.857  1.00  0.00     0.014 C 
ATOM      4  C   UNL     1       6.815  27.058  61.717  1.00  0.00     0.028 C 
ATOM      5  C   UNL     1       5.349  24.765  60.464  1.00  0.00     0.007 C 
ATOM      6  C   UNL     1       5.200  29.385  62.702  1.00  0.00     0.013 C 
ATOM      7  C   UNL     1       7.285  28.082  62.756  1.00  0.00    -0.064 C 
ATOM      8  C   UNL     1       7.032  25.617  62.233  1.00  0.00     0.015 C 
ATOM      9  C   UNL     1       6.744  24.541  61.147  1.00  0.00    -0.035 C 
ATOM     10  C   UNL     1       6.261  28.785  63.666  1.00  0.00    -0.006 C 
ATOM     11  C   UNL     1       8.608  28.432  62.726  1.00  0.00    -0.027 C 
ATOM     12  C   UNL     1       7.854  24.543  60.065  1.00  0.00     0.011 C 
ATOM     13  C   UNL     1       6.773  23.155  61.836  1.00  0.00     0.011 C 
ATOM     14  C   UNL     1       5.571  27.706  64.570  1.00  0.00     0.017 C 
ATOM     15  C   UNL     1       6.976  29.913  64.584  1.00  0.00    -0.020 C 
ATOM     16  C   UNL     1       9.182  29.692  63.334  1.00  0.00     0.032 C 
ATOM     17  C   UNL     1       8.049  30.666  63.701  1.00  0.00     0.006 C 
ATOM     18  C   UNL     1       5.962  30.945  65.204  1.00  0.00     0.008 C 
ATOM     19  C   UNL     1       7.673  29.182  65.792  1.00  0.00     0.012 C 
ATOM     20  C   UNL     1       8.433  32.132  64.167  1.00  0.00    -0.025 C 
ATOM     21  C   UNL     1       5.804  32.267  64.425  1.00  0.00     0.005 C 
ATOM     22  C   UNL     1       7.121  33.035  64.039  1.00  0.00     0.003 C 
ATOM     23  C   UNL     1       9.646  32.729  63.368  1.00  0.00     0.010 C 
ATOM     24  C   UNL     1       8.944  32.159  65.640  1.00  0.00     0.012 C 
ATOM     25  C   UNL     1       6.928  33.893  62.693  1.00  0.00    -0.006 C 
ATOM     26  C   UNL     1       9.295  33.291  62.005  1.00  0.00     0.033 C 
ATOM     27  C   UNL     1       8.300  34.439  62.201  1.00  0.00     0.120 C 
ATOM     28  C   UNL     1       6.233  33.133  61.515  1.00  0.00     0.014 C 
ATOM     29  C   UNL     1       6.031  35.117  63.015  1.00  0.00     0.014 C 
ENDROOT
BRANCH   1  30
ATOM     30  C   UNL     1       5.603  27.905  59.671  1.00  0.00     0.048 C 
ATOM     31  O   UNL     1       6.635  27.605  59.011  1.00  0.00    -0.550 OA
ATOM     32  O   UNL     1       4.612  28.643  59.036  1.00  0.00    -0.550 OA
ENDBRANCH   1  30
BRANCH  27  33
ATOM     33  O   UNL     1       8.163  35.158  60.998  1.00  0.00    -0.393 OA
ATOM     34  H   UNL     1       7.651  35.980  61.212  1.00  0.00     0.210 HD
ENDBRANCH  27  33
TORSDOF 2
ENDMDL
MODEL 4
REMARK VINA RESULT:    -5.276      4.059      6.716
REMARK INTER + INTRA:          -6.106
REMARK INTER:                  -5.768
REMARK INTRA:                  -0.338
REMARK UNBOUND:                -0.367
REMARK SMILES CC1(C)CC[C@@]2(C(=O)[O-])CC[C@@]3(C)C(=CC[C@@H]4[C@@]5(C)CC[C@@H](O)C(C)(C)[C@H]5CC[C@]43C)[C@H]2C1
REMARK SMILES IDX 6 1 5 2 10 3 32 4 4 5 11 6 14 7 33 8 2 9 12 10 15 11 1 12
REMARK SMILES IDX 3 13 13 14 30 15 16 16 17 17 29 18 31 19 18 20 28 21 27 22
REMARK SMILES IDX 20 23 19 24 24 25 21 26 22 27 25 28 26 29 7 30 8 31 9 32
REMARK SMILES IDX 23 33
REMARK H PARENT 23 34
REMARK Flexibility Score: inf
ROOT
ATOM      1  C   UNL     1       5.985  25.678  59.076  1.00  0.00     0.017 C 
ATOM      2  C   UNL     1       5.806  25.798  57.525  1.00  0.00     0.014 C 
ATOM      3  C   UNL     1       6.963  24.464  59.306  1.00  0.00     0.014 C 
ATOM      4  C   UNL     1       6.468  27.064  59.687  1.00  0.00     0.028 C 
ATOM      5  C   UNL     1       5.082  27.060  57.031  1.00  0.00     0.007 C 
ATOM      6  C   UNL     1       7.861  24.550  60.545  1.00  0.00     0.013 C 
ATOM      7  C   UNL     1       7.577  26.985  60.742  1.00  0.00    -0.064 C 
ATOM      8  C   UNL     1       6.787  28.153  58.639  1.00  0.00     0.015 C 
ATOM      9  C   UNL     1       5.609  28.402  57.653  1.00  0.00    -0.035 C 
ATOM     10  C   UNL     1       8.650  25.885  60.654  1.00  0.00    -0.006 C 
ATOM     11  C   UNL     1       7.475  27.831  61.813  1.00  0.00    -0.027 C 
ATOM     12  C   UNL     1       4.442  29.133  58.365  1.00  0.00     0.011 C 
ATOM     13  C   UNL     1       6.122  29.334  56.529  1.00  0.00     0.011 C 
ATOM     14  C   UNL     1       9.475  26.094  59.337  1.00  0.00     0.017 C 
ATOM     15  C   UNL     1       9.631  25.924  61.943  1.00  0.00    -0.020 C 
ATOM     16  C   UNL     1       8.177  27.636  63.138  1.00  0.00     0.032 C 
ATOM     17  C   UNL     1       8.755  26.213  63.226  1.00  0.00     0.006 C 
ATOM     18  C   UNL     1      10.456  24.598  62.138  1.00  0.00     0.008 C 
ATOM     19  C   UNL     1      10.678  27.079  61.720  1.00  0.00     0.012 C 
ATOM     20  C   UNL     1       9.358  25.727  64.609  1.00  0.00    -0.025 C 
ATOM     21  C   UNL     1       9.859  23.586  63.137  1.00  0.00     0.005 C 
ATOM     22  C   UNL     1       9.454  24.132  64.556  1.00  0.00     0.003 C 
ATOM     23  C   UNL     1       8.534  26.231  65.846  1.00  0.00     0.010 C 
ATOM     24  C   UNL     1      10.774  26.326  64.870  1.00  0.00     0.012 C 
ATOM     25  C   UNL     1       8.242  23.286  65.188  1.00  0.00    -0.006 C 
ATOM     26  C   UNL     1       7.283  25.429  66.149  1.00  0.00     0.033 C 
ATOM     27  C   UNL     1       7.701  23.990  66.466  1.00  0.00     0.120 C 
ATOM     28  C   UNL     1       7.047  23.010  64.217  1.00  0.00     0.014 C 
ATOM     29  C   UNL     1       8.785  21.898  65.619  1.00  0.00     0.014 C 
ENDROOT
BRANCH   1  30
ATOM     30  C   UNL     1       4.651  25.311  59.734  1.00  0.00     0.048 C 
ATOM     31  O   UNL     1       4.392  24.109  60.015  1.00  0.00    -0.550 OA
ATOM     32  O   UNL     1       3.771  26.290  60.175  1.00  0.00    -0.550 OA
ENDBRANCH   1  30
BRANCH  27  33
ATOM     33  O   UNL     1       6.610  23.290  67.014  1.00  0.00    -0.393 OA
ATOM     34  H   UNL     1       5.788  23.755  66.708  1.00  0.00     0.210 HD
ENDBRANCH  27  33
TORSDOF 2
ENDMDL
MODEL 5
REMARK VINA RESULT:    -5.220      2.825      5.324
REMARK INTER + INTRA:          -6.045
REMARK INTER:                  -5.681
REMARK INTRA:                  -0.364
REMARK UNBOUND:                -0.367
REMARK SMILES CC1(C)CC[C@@]2(C(=O)[O-])CC[C@@]3(C)C(=CC[C@@H]4[C@@]5(C)CC[C@@H](O)C(C)(C)[C@H]5CC[C@]43C)[C@H]2C1
REMARK SMILES IDX 6 1 5 2 10 3 32 4 4 5 11 6 14 7 33 8 2 9 12 10 15 11 1 12
REMARK SMILES IDX 3 13 13 14 30 15 16 16 17 17 29 18 31 19 18 20 28 21 27 22
REMARK SMILES IDX 20 23 19 24 24 25 21 26 22 27 25 28 26 29 7 30 8 31 9 32
REMARK SMILES IDX 23 33
REMARK H PARENT 23 34
REMARK Flexibility Score: inf
ROOT
ATOM      1  C   UNL     1      11.723  27.683  62.643  1.00  0.00     0.017 C 
ATOM      2  C   UNL     1      12.939  27.267  63.536  1.00  0.00     0.014 C 
ATOM      3  C   UNL     1      11.103  26.339  62.103  1.00  0.00     0.014 C 
ATOM      4  C   UNL     1      10.724  28.610  63.463  1.00  0.00     0.028 C 
ATOM      5  C   UNL     1      13.570  28.392  64.373  1.00  0.00     0.007 C 
ATOM      6  C   UNL     1       9.592  26.351  61.847  1.00  0.00     0.013 C 
ATOM      7  C   UNL     1       9.231  28.309  63.291  1.00  0.00    -0.064 C 
ATOM      8  C   UNL     1      11.081  28.777  64.957  1.00  0.00     0.015 C 
ATOM      9  C   UNL     1      12.542  29.265  65.175  1.00  0.00    -0.035 C 
ATOM     10  C   UNL     1       8.757  26.864  63.054  1.00  0.00    -0.006 C 
ATOM     11  C   UNL     1       8.387  29.383  63.217  1.00  0.00    -0.027 C 
ATOM     12  C   UNL     1      12.692  30.750  64.759  1.00  0.00     0.011 C 
ATOM     13  C   UNL     1      12.849  29.176  66.690  1.00  0.00     0.011 C 
ATOM     14  C   UNL     1       9.114  26.006  64.317  1.00  0.00     0.017 C 
ATOM     15  C   UNL     1       7.162  26.813  62.774  1.00  0.00    -0.020 C 
ATOM     16  C   UNL     1       6.993  29.349  62.632  1.00  0.00     0.032 C 
ATOM     17  C   UNL     1       6.781  28.039  61.852  1.00  0.00     0.006 C 
ATOM     18  C   UNL     1       6.690  25.467  62.109  1.00  0.00     0.008 C 
ATOM     19  C   UNL     1       6.423  26.916  64.161  1.00  0.00     0.012 C 
ATOM     20  C   UNL     1       5.460  27.880  60.988  1.00  0.00    -0.025 C 
ATOM     21  C   UNL     1       6.543  25.502  60.574  1.00  0.00     0.005 C 
ATOM     22  C   UNL     1       5.702  26.681  59.959  1.00  0.00     0.003 C 
ATOM     23  C   UNL     1       5.040  29.209  60.265  1.00  0.00     0.010 C 
ATOM     24  C   UNL     1       4.218  27.563  61.876  1.00  0.00     0.012 C 
ATOM     25  C   UNL     1       6.206  27.053  58.479  1.00  0.00    -0.006 C 
ATOM     26  C   UNL     1       5.799  29.506  58.987  1.00  0.00     0.033 C 
ATOM     27  C   UNL     1       5.532  28.370  57.994  1.00  0.00     0.120 C 
ATOM     28  C   UNL     1       7.756  27.189  58.319  1.00  0.00     0.014 C 
ATOM     29  C   UNL     1       5.764  25.924  57.511  1.00  0.00     0.014 C 
ENDROOT
BRANCH   1  30
ATOM     30  C   UNL     1      12.209  28.475  61.425  1.00  0.00     0.048 C 
ATOM     31  O   UNL     1      12.457  27.882  60.340  1.00  0.00    -0.550 OA
ATOM     32  O   UNL     1      12.241  29.864  61.433  1.00  0.00    -0.550 OA
ENDBRANCH   1  30
BRANCH  27  33
ATOM     33  O   UNL     1       5.990  28.741  56.716  1.00  0.00    -0.393 OA
ATOM     34  H   UNL     1       6.528  29.566  56.833  1.00  0.00     0.210 HD
ENDBRANCH  27  33
TORSDOF 2
ENDMDL
MODEL 6
REMARK VINA RESULT:    -5.217      5.530      8.885
REMARK INTER + INTRA:          -6.042
REMARK INTER:                  -5.665
REMARK INTRA:                  -0.377
REMARK UNBOUND:                -0.367
REMARK SMILES CC1(C)CC[C@@]2(C(=O)[O-])CC[C@@]3(C)C(=CC[C@@H]4[C@@]5(C)CC[C@@H](O)C(C)(C)[C@H]5CC[C@]43C)[C@H]2C1
REMARK SMILES IDX 6 1 5 2 10 3 32 4 4 5 11 6 14 7 33 8 2 9 12 10 15 11 1 12
REMARK SMILES IDX 3 13 13 14 30 15 16 16 17 17 29 18 31 19 18 20 28 21 27 22
REMARK SMILES IDX 20 23 19 24 24 25 21 26 22 27 25 28 26 29 7 30 8 31 9 32
REMARK SMILES IDX 23 33
REMARK H PARENT 23 34
REMARK Flexibility Score: inf
ROOT
ATOM      1  C   UNL     1       9.382  33.929  64.092  1.00  0.00     0.017 C 
ATOM      2  C   UNL     1       8.069  33.221  64.567  1.00  0.00     0.014 C 
ATOM      3  C   UNL     1      10.553  33.262  64.908  1.00  0.00     0.014 C 
ATOM      4  C   UNL     1       9.519  33.839  62.510  1.00  0.00     0.028 C 
ATOM      5  C   UNL     1       6.807  33.530  63.745  1.00  0.00     0.007 C 
ATOM      6  C   UNL     1      11.911  33.195  64.201  1.00  0.00     0.013 C 
ATOM      7  C   UNL     1      10.914  33.497  61.973  1.00  0.00    -0.064 C 
ATOM      8  C   UNL     1       8.440  32.975  61.818  1.00  0.00     0.015 C 
ATOM      9  C   UNL     1       6.993  33.410  62.191  1.00  0.00    -0.035 C 
ATOM     10  C   UNL     1      11.845  32.573  62.777  1.00  0.00    -0.006 C 
ATOM     11  C   UNL     1      11.323  34.158  60.847  1.00  0.00    -0.027 C 
ATOM     12  C   UNL     1       6.637  34.762  61.524  1.00  0.00     0.011 C 
ATOM     13  C   UNL     1       6.020  32.345  61.628  1.00  0.00     0.011 C 
ATOM     14  C   UNL     1      11.184  31.155  62.875  1.00  0.00     0.017 C 
ATOM     15  C   UNL     1      13.304  32.466  62.078  1.00  0.00    -0.020 C 
ATOM     16  C   UNL     1      12.762  34.307  60.407  1.00  0.00     0.032 C 
ATOM     17  C   UNL     1      13.708  33.899  61.550  1.00  0.00     0.006 C 
ATOM     18  C   UNL     1      14.416  31.908  63.042  1.00  0.00     0.008 C 
ATOM     19  C   UNL     1      13.192  31.449  60.881  1.00  0.00     0.012 C 
ATOM     20  C   UNL     1      15.261  34.168  61.377  1.00  0.00    -0.025 C 
ATOM     21  C   UNL     1      15.284  32.976  63.739  1.00  0.00     0.005 C 
ATOM     22  C   UNL     1      15.926  34.086  62.828  1.00  0.00     0.003 C 
ATOM     23  C   UNL     1      15.570  35.528  60.657  1.00  0.00     0.010 C 
ATOM     24  C   UNL     1      15.932  33.120  60.437  1.00  0.00     0.012 C 
ATOM     25  C   UNL     1      16.136  35.460  63.635  1.00  0.00    -0.006 C 
ATOM     26  C   UNL     1      15.492  36.752  61.548  1.00  0.00     0.033 C 
ATOM     27  C   UNL     1      16.537  36.604  62.659  1.00  0.00     0.120 C 
ATOM     28  C   UNL     1      14.907  35.926  64.484  1.00  0.00     0.014 C 
ATOM     29  C   UNL     1      17.310  35.270  64.632  1.00  0.00     0.014 C 
ENDROOT
BRANCH   1  30
ATOM     30  C   UNL     1       9.352  35.411  64.479  1.00  0.00     0.048 C 
ATOM     31  O   UNL     1       9.811  35.785  65.592  1.00  0.00    -0.550 OA
ATOM     32  O   UNL     1       8.969  36.387  63.568  1.00  0.00    -0.550 OA
ENDBRANCH   1  30
BRANCH  27  33
ATOM     33  O   UNL     1      16.684  37.829  63.337  1.00  0.00    -0.393 OA
ATOM     34  H   UNL     1      17.628  38.110  63.219  1.00  0.00     0.210 HD
ENDBRANCH  27  33
TORSDOF 2
ENDMDL
MODEL 7
REMARK VINA RESULT:    -5.197      5.989      9.467
REMARK INTER + INTRA:          -6.019
REMARK INTER:                  -6.099
REMARK INTRA:                   0.080
REMARK UNBOUND:                -0.367
REMARK SMILES CC1(C)CC[C@@]2(C(=O)[O-])CC[C@@]3(C)C(=CC[C@@H]4[C@@]5(C)CC[C@@H](O)C(C)(C)[C@H]5CC[C@]43C)[C@H]2C1
REMARK SMILES IDX 6 1 5 2 10 3 32 4 4 5 11 6 14 7 33 8 2 9 12 10 15 11 1 12
REMARK SMILES IDX 3 13 13 14 30 15 16 16 17 17 29 18 31 19 18 20 28 21 27 22
REMARK SMILES IDX 20 23 19 24 24 25 21 26 22 27 25 28 26 29 7 30 8 31 9 32
REMARK SMILES IDX 23 33
REMARK H PARENT 23 34
REMARK Flexibility Score: inf
ROOT
ATOM      1  C   UNL     1      12.648  33.984  61.133  1.00  0.00     0.017 C 
ATOM      2  C   UNL     1      13.955  33.189  60.802  1.00  0.00     0.014 C 
ATOM      3  C   UNL     1      11.540  32.899  61.409  1.00  0.00     0.014 C 
ATOM      4  C   UNL     1      12.907  35.009  62.321  1.00  0.00     0.028 C 
ATOM      5  C   UNL     1      15.245  34.023  60.727  1.00  0.00     0.007 C 
ATOM      6  C   UNL     1      10.448  33.293  62.410  1.00  0.00     0.013 C 
ATOM      7  C   UNL     1      11.814  35.086  63.393  1.00  0.00    -0.064 C 
ATOM      8  C   UNL     1      14.305  34.900  62.971  1.00  0.00     0.015 C 
ATOM      9  C   UNL     1      15.459  35.005  61.933  1.00  0.00    -0.035 C 
ATOM     10  C   UNL     1      11.001  33.831  63.759  1.00  0.00    -0.006 C 
ATOM     11  C   UNL     1      11.516  36.328  63.884  1.00  0.00    -0.027 C 
ATOM     12  C   UNL     1      15.589  36.454  61.400  1.00  0.00     0.011 C 
ATOM     13  C   UNL     1      16.782  34.659  62.660  1.00  0.00     0.011 C 
ATOM     14  C   UNL     1      11.973  32.764  64.369  1.00  0.00     0.017 C 
ATOM     15  C   UNL     1       9.825  34.189  64.815  1.00  0.00    -0.020 C 
ATOM     16  C   UNL     1      10.229  36.691  64.592  1.00  0.00     0.032 C 
ATOM     17  C   UNL     1       9.189  35.574  64.401  1.00  0.00     0.006 C 
ATOM     18  C   UNL     1       8.708  33.082  64.900  1.00  0.00     0.008 C 
ATOM     19  C   UNL     1      10.474  34.287  66.247  1.00  0.00     0.012 C 
ATOM     20  C   UNL     1       7.703  35.835  64.889  1.00  0.00    -0.025 C 
ATOM     21  C   UNL     1       7.453  33.341  64.042  1.00  0.00     0.005 C 
ATOM     22  C   UNL     1       6.767  34.750  64.179  1.00  0.00     0.003 C 
ATOM     23  C   UNL     1       7.220  37.304  64.619  1.00  0.00     0.010 C 
ATOM     24  C   UNL     1       7.567  35.707  66.437  1.00  0.00     0.012 C 
ATOM     25  C   UNL     1       6.022  35.176  62.820  1.00  0.00    -0.006 C 
ATOM     26  C   UNL     1       6.764  37.573  63.198  1.00  0.00     0.033 C 
ATOM     27  C   UNL     1       5.568  36.663  62.897  1.00  0.00     0.120 C 
ATOM     28  C   UNL     1       6.854  34.967  61.512  1.00  0.00     0.014 C 
ATOM     29  C   UNL     1       4.744  34.310  62.669  1.00  0.00     0.014 C 
ENDROOT
BRANCH   1  30
ATOM     30  C   UNL     1      12.195  34.787  59.908  1.00  0.00     0.048 C 
ATOM     31  O   UNL     1      13.049  35.321  59.149  1.00  0.00    -0.550 OA
ATOM     32  O   UNL     1      10.863  34.818  59.519  1.00  0.00    -0.550 OA
ENDBRANCH   1  30
BRANCH  27  33
ATOM     33  O   UNL     1       4.951  37.073  61.700  1.00  0.00    -0.393 OA
ATOM     34  H   UNL     1       4.032  36.700  61.710  1.00  0.00     0.210 HD
ENDBRANCH  27  33
TORSDOF 2
ENDMDL
MODEL 8
REMARK VINA RESULT:    -5.131      4.299      7.473
REMARK INTER + INTRA:          -5.948
REMARK INTER:                  -5.600
REMARK INTRA:                  -0.348
REMARK UNBOUND:                -0.367
REMARK SMILES CC1(C)CC[C@@]2(C(=O)[O-])CC[C@@]3(C)C(=CC[C@@H]4[C@@]5(C)CC[C@@H](O)C(C)(C)[C@H]5CC[C@]43C)[C@H]2C1
REMARK SMILES IDX 6 1 5 2 10 3 32 4 4 5 11 6 14 7 33 8 2 9 12 10 15 11 1 12
REMARK SMILES IDX 3 13 13 14 30 15 16 16 17 17 29 18 31 19 18 20 28 21 27 22
REMARK SMILES IDX 20 23 19 24 24 25 21 26 22 27 25 28 26 29 7 30 8 31 9 32
REMARK SMILES IDX 23 33
REMARK H PARENT 23 34
REMARK Flexibility Score: inf
ROOT
ATOM      1  C   UNL     1       8.065  25.823  60.615  1.00  0.00     0.017 C 
ATOM      2  C   UNL     1       7.151  26.909  61.274  1.00  0.00     0.014 C 
ATOM      3  C   UNL     1       9.539  26.369  60.733  1.00  0.00     0.014 C 
ATOM      4  C   UNL     1       7.811  24.403  61.284  1.00  0.00     0.028 C 
ATOM      5  C   UNL     1       5.685  26.504  61.498  1.00  0.00     0.007 C 
ATOM      6  C   UNL     1      10.639  25.310  60.862  1.00  0.00     0.013 C 
ATOM      7  C   UNL     1       9.060  23.570  61.592  1.00  0.00    -0.064 C 
ATOM      8  C   UNL     1       6.856  24.426  62.499  1.00  0.00     0.015 C 
ATOM      9  C   UNL     1       5.491  25.102  62.177  1.00  0.00    -0.035 C 
ATOM     10  C   UNL     1      10.375  24.267  61.985  1.00  0.00    -0.006 C 
ATOM     11  C   UNL     1       8.979  22.224  61.361  1.00  0.00    -0.027 C 
ATOM     12  C   UNL     1       4.635  24.197  61.255  1.00  0.00     0.011 C 
ATOM     13  C   UNL     1       4.720  25.267  63.509  1.00  0.00     0.011 C 
ATOM     14  C   UNL     1      10.156  25.027  63.338  1.00  0.00     0.017 C 
ATOM     15  C   UNL     1      11.581  23.194  62.132  1.00  0.00    -0.020 C 
ATOM     16  C   UNL     1      10.167  21.306  61.178  1.00  0.00     0.032 C 
ATOM     17  C   UNL     1      11.447  22.133  60.969  1.00  0.00     0.006 C 
ATOM     18  C   UNL     1      13.009  23.855  62.102  1.00  0.00     0.008 C 
ATOM     19  C   UNL     1      11.436  22.494  63.536  1.00  0.00     0.012 C 
ATOM     20  C   UNL     1      12.777  21.375  60.557  1.00  0.00    -0.025 C 
ATOM     21  C   UNL     1      13.716  23.843  60.732  1.00  0.00     0.005 C 
ATOM     22  C   UNL     1      13.790  22.466  59.974  1.00  0.00     0.003 C 
ATOM     23  C   UNL     1      12.524  20.200  59.548  1.00  0.00     0.010 C 
ATOM     24  C   UNL     1      13.435  20.651  61.772  1.00  0.00     0.012 C 
ATOM     25  C   UNL     1      13.832  22.673  58.380  1.00  0.00    -0.006 C 
ATOM     26  C   UNL     1      12.360  20.625  58.103  1.00  0.00     0.033 C 
ATOM     27  C   UNL     1      13.656  21.308  57.654  1.00  0.00     0.120 C 
ATOM     28  C   UNL     1      12.785  23.688  57.814  1.00  0.00     0.014 C 
ATOM     29  C   UNL     1      15.230  23.226  57.994  1.00  0.00     0.014 C 
ENDROOT
BRANCH   1  30
ATOM     30  C   UNL     1       7.749  25.704  59.120  1.00  0.00     0.048 C 
ATOM     31  O   UNL     1       8.436  26.338  58.274  1.00  0.00    -0.550 OA
ATOM     32  O   UNL     1       6.815  24.789  58.652  1.00  0.00    -0.550 OA
ENDBRANCH   1  30
BRANCH  27  33
ATOM     33  O   UNL     1      13.646  21.470  56.255  1.00  0.00    -0.393 OA
ATOM     34  H   UNL     1      12.824  21.977  56.031  1.00  0.00     0.210 HD
ENDBRANCH  27  33
TORSDOF 2
ENDMDL
MODEL 9
REMARK VINA RESULT:    -5.123      3.570      7.204
REMARK INTER + INTRA:          -5.940
REMARK INTER:                  -5.560
REMARK INTRA:                  -0.380
REMARK UNBOUND:                -0.367
REMARK SMILES CC1(C)CC[C@@]2(C(=O)[O-])CC[C@@]3(C)C(=CC[C@@H]4[C@@]5(C)CC[C@@H](O)C(C)(C)[C@H]5CC[C@]43C)[C@H]2C1
REMARK SMILES IDX 6 1 5 2 10 3 32 4 4 5 11 6 14 7 33 8 2 9 12 10 15 11 1 12
REMARK SMILES IDX 3 13 13 14 30 15 16 16 17 17 29 18 31 19 18 20 28 21 27 22
REMARK SMILES IDX 20 23 19 24 24 25 21 26 22 27 25 28 26 29 7 30 8 31 9 32
REMARK SMILES IDX 23 33
REMARK H PARENT 23 34
REMARK Flexibility Score: inf
ROOT
ATOM      1  C   UNL     1       5.519  25.949  60.032  1.00  0.00     0.017 C 
ATOM      2  C   UNL     1       6.296  25.617  58.714  1.00  0.00     0.014 C 
ATOM      3  C   UNL     1       6.271  25.179  61.183  1.00  0.00     0.014 C 
ATOM      4  C   UNL     1       5.408  27.523  60.228  1.00  0.00     0.028 C 
ATOM      5  C   UNL     1       5.899  26.441  57.478  1.00  0.00     0.007 C 
ATOM      6  C   UNL     1       6.233  25.836  62.566  1.00  0.00     0.013 C 
ATOM      7  C   UNL     1       5.664  28.045  61.646  1.00  0.00    -0.064 C 
ATOM      8  C   UNL     1       6.189  28.358  59.188  1.00  0.00     0.015 C 
ATOM      9  C   UNL     1       5.821  27.989  57.722  1.00  0.00    -0.035 C 
ATOM     10  C   UNL     1       6.672  27.328  62.562  1.00  0.00    -0.006 C 
ATOM     11  C   UNL     1       4.862  29.062  62.086  1.00  0.00    -0.027 C 
ATOM     12  C   UNL     1       4.399  28.495  57.370  1.00  0.00     0.011 C 
ATOM     13  C   UNL     1       6.817  28.718  56.787  1.00  0.00     0.011 C 
ATOM     14  C   UNL     1       8.098  27.434  61.920  1.00  0.00     0.017 C 
ATOM     15  C   UNL     1       6.674  27.979  64.047  1.00  0.00    -0.020 C 
ATOM     16  C   UNL     1       4.643  29.425  63.537  1.00  0.00     0.032 C 
ATOM     17  C   UNL     1       5.182  28.308  64.448  1.00  0.00     0.006 C 
ATOM     18  C   UNL     1       7.336  27.051  65.132  1.00  0.00     0.008 C 
ATOM     19  C   UNL     1       7.534  29.297  63.995  1.00  0.00     0.012 C 
ATOM     20  C   UNL     1       4.876  28.386  66.002  1.00  0.00    -0.025 C 
ATOM     21  C   UNL     1       6.355  26.193  65.957  1.00  0.00     0.005 C 
ATOM     22  C   UNL     1       5.132  26.932  66.615  1.00  0.00     0.003 C 
ATOM     23  C   UNL     1       3.433  28.917  66.315  1.00  0.00     0.010 C 
ATOM     24  C   UNL     1       5.790  29.424  66.723  1.00  0.00     0.012 C 
ATOM     25  C   UNL     1       3.868  25.952  66.773  1.00  0.00    -0.006 C 
ATOM     26  C   UNL     1       2.332  27.884  66.186  1.00  0.00     0.033 C 
ATOM     27  C   UNL     1       2.607  26.761  67.192  1.00  0.00     0.120 C 
ATOM     28  C   UNL     1       3.526  25.099  65.507  1.00  0.00     0.014 C 
ATOM     29  C   UNL     1       4.169  24.942  67.913  1.00  0.00     0.014 C 
ENDROOT
BRANCH   1  30
ATOM     30  C   UNL     1       4.098  25.380  59.964  1.00  0.00     0.048 C 
ATOM     31  O   UNL     1       3.130  26.126  59.650  1.00  0.00    -0.550 OA
ATOM     32  O   UNL     1       3.859  24.018  60.091  1.00  0.00    -0.550 OA
ENDBRANCH   1  30
BRANCH  27  33
ATOM     33  O   UNL     1       1.475  25.930  67.295  1.00  0.00    -0.393 OA
ATOM     34  H   UNL     1       0.692  26.526  67.420  1.00  0.00     0.210 HD
ENDBRANCH  27  33
TORSDOF 2
ENDMDL
