MODEL 1
REMARK VINA RESULT:    -4.416      0.000      0.000
REMARK INTER + INTRA:          -4.416
REMARK INTER:                  -4.416
REMARK INTRA:                   0.000
REMARK UNBOUND:                 0.000
REMARK SMILES CC1=CC(=O)[C@H]2C[C@@H]1C2(C)C
REMARK SMILES IDX 1 1 2 2 3 3 4 4 5 5 6 6 7 7 8 8 9 9 10 10 11 11
REMARK H PARENT
REMARK Flexibility Score: inf
ROOT
ATOM      1  C   UNL     1      12.602  59.283  22.510  1.00  0.00     0.040 C 
ATOM      2  C   UNL     1      12.882  60.588  21.835  1.00  0.00    -0.066 C 
ATOM      3  C   UNL     1      12.250  60.939  20.680  1.00  0.00     0.047 C 
ATOM      4  C   UNL     1      12.640  62.258  20.085  1.00  0.00     0.159 C 
ATOM      5  O   UNL     1      12.155  62.675  19.001  1.00  0.00    -0.295 OA
ATOM      6  C   UNL     1      13.668  63.058  20.885  1.00  0.00     0.067 C 
ATOM      7  C   UNL     1      13.165  62.971  22.342  1.00  0.00     0.021 C 
ATOM      8  C   UNL     1      13.885  61.606  22.418  1.00  0.00     0.022 C 
ATOM      9  C   UNL     1      14.831  62.107  21.287  1.00  0.00    -0.019 C 
ATOM     10  C   UNL     1      16.057  62.876  21.843  1.00  0.00     0.012 C 
ATOM     11  C   UNL     1      15.337  61.074  20.241  1.00  0.00     0.012 C 
ENDROOT
TORSDOF 0
ENDMDL
MODEL 2
REMARK VINA RESULT:    -4.388      1.893      3.174
REMARK INTER + INTRA:          -4.388
REMARK INTER:                  -4.388
REMARK INTRA:                   0.000
REMARK UNBOUND:                 0.000
REMARK SMILES CC1=CC(=O)[C@H]2C[C@@H]1C2(C)C
REMARK SMILES IDX 1 1 2 2 3 3 4 4 5 5 6 6 7 7 8 8 9 9 10 10 11 11
REMARK H PARENT
REMARK Flexibility Score: inf
ROOT
ATOM      1  C   UNL     1      12.266  63.718  19.753  1.00  0.00     0.040 C 
ATOM      2  C   UNL     1      12.939  62.888  20.799  1.00  0.00    -0.066 C 
ATOM      3  C   UNL     1      12.862  63.213  22.120  1.00  0.00     0.047 C 
ATOM      4  C   UNL     1      13.605  62.320  23.067  1.00  0.00     0.159 C 
ATOM      5  O   UNL     1      13.643  62.538  24.306  1.00  0.00    -0.295 OA
ATOM      6  C   UNL     1      14.315  61.129  22.423  1.00  0.00     0.067 C 
ATOM      7  C   UNL     1      13.268  60.546  21.450  1.00  0.00     0.021 C 
ATOM      8  C   UNL     1      13.737  61.617  20.439  1.00  0.00     0.022 C 
ATOM      9  C   UNL     1      15.105  61.636  21.183  1.00  0.00    -0.019 C 
ATOM     10  C   UNL     1      16.088  60.570  20.634  1.00  0.00     0.012 C 
ATOM     11  C   UNL     1      15.863  62.989  21.291  1.00  0.00     0.012 C 
ENDROOT
TORSDOF 0
ENDMDL
MODEL 3
REMARK VINA RESULT:    -4.324      1.626      2.988
REMARK INTER + INTRA:          -4.324
REMARK INTER:                  -4.324
REMARK INTRA:                   0.000
REMARK UNBOUND:                 0.000
REMARK SMILES CC1=CC(=O)[C@H]2C[C@@H]1C2(C)C
REMARK SMILES IDX 1 1 2 2 3 3 4 4 5 5 6 6 7 7 8 8 9 9 10 10 11 11
REMARK H PARENT
REMARK Flexibility Score: inf
ROOT
ATOM      1  C   UNL     1      12.217  63.566  19.637  1.00  0.00     0.040 C 
ATOM      2  C   UNL     1      12.949  62.522  20.419  1.00  0.00    -0.066 C 
ATOM      3  C   UNL     1      12.344  61.357  20.784  1.00  0.00     0.047 C 
ATOM      4  C   UNL     1      13.173  60.405  21.592  1.00  0.00     0.159 C 
ATOM      5  O   UNL     1      12.715  59.314  22.021  1.00  0.00    -0.295 OA
ATOM      6  C   UNL     1      14.610  60.852  21.860  1.00  0.00     0.067 C 
ATOM      7  C   UNL     1      15.109  61.361  20.490  1.00  0.00     0.021 C 
ATOM      8  C   UNL     1      14.423  62.703  20.837  1.00  0.00     0.022 C 
ATOM      9  C   UNL     1      14.586  62.331  22.340  1.00  0.00    -0.019 C 
ATOM     10  C   UNL     1      15.952  62.787  22.915  1.00  0.00     0.012 C 
ATOM     11  C   UNL     1      13.470  62.769  23.330  1.00  0.00     0.012 C 
ENDROOT
TORSDOF 0
ENDMDL
MODEL 4
REMARK VINA RESULT:    -4.218     15.410     17.026
REMARK INTER + INTRA:          -4.218
REMARK INTER:                  -4.218
REMARK INTRA:                   0.000
REMARK UNBOUND:                 0.000
REMARK SMILES CC1=CC(=O)[C@H]2C[C@@H]1C2(C)C
REMARK SMILES IDX 1 1 2 2 3 3 4 4 5 5 6 6 7 7 8 8 9 9 10 10 11 11
REMARK H PARENT
REMARK Flexibility Score: inf
ROOT
ATOM      1  C   UNL     1      18.914  53.253  35.971  1.00  0.00     0.040 C 
ATOM      2  C   UNL     1      17.503  52.936  35.589  1.00  0.00    -0.066 C 
ATOM      3  C   UNL     1      17.205  52.375  34.384  1.00  0.00     0.047 C 
ATOM      4  C   UNL     1      15.752  52.134  34.106  1.00  0.00     0.159 C 
ATOM      5  O   UNL     1      15.347  51.658  33.014  1.00  0.00    -0.295 OA
ATOM      6  C   UNL     1      14.798  52.510  35.241  1.00  0.00     0.067 C 
ATOM      7  C   UNL     1      15.464  51.926  36.504  1.00  0.00     0.021 C 
ATOM      8  C   UNL     1      16.321  53.211  36.541  1.00  0.00     0.022 C 
ATOM      9  C   UNL     1      15.180  53.925  35.760  1.00  0.00    -0.019 C 
ATOM     10  C   UNL     1      14.102  54.519  36.702  1.00  0.00     0.012 C 
ATOM     11  C   UNL     1      15.571  55.014  34.720  1.00  0.00     0.012 C 
ENDROOT
TORSDOF 0
ENDMDL
MODEL 5
REMARK VINA RESULT:    -4.186     15.423     16.745
REMARK INTER + INTRA:          -4.186
REMARK INTER:                  -4.186
REMARK INTRA:                   0.000
REMARK UNBOUND:                 0.000
REMARK SMILES CC1=CC(=O)[C@H]2C[C@@H]1C2(C)C
REMARK SMILES IDX 1 1 2 2 3 3 4 4 5 5 6 6 7 7 8 8 9 9 10 10 11 11
REMARK H PARENT
REMARK Flexibility Score: inf
ROOT
ATOM      1  C   UNL     1      15.281  51.757  36.880  1.00  0.00     0.040 C 
ATOM      2  C   UNL     1      16.197  52.636  36.088  1.00  0.00    -0.066 C 
ATOM      3  C   UNL     1      15.922  53.957  35.899  1.00  0.00     0.047 C 
ATOM      4  C   UNL     1      16.900  54.724  35.061  1.00  0.00     0.159 C 
ATOM      5  O   UNL     1      16.736  55.940  34.782  1.00  0.00    -0.295 OA
ATOM      6  C   UNL     1      18.108  53.926  34.570  1.00  0.00     0.067 C 
ATOM      7  C   UNL     1      18.580  53.148  35.816  1.00  0.00     0.021 C 
ATOM      8  C   UNL     1      17.501  52.099  35.463  1.00  0.00     0.022 C 
ATOM      9  C   UNL     1      17.603  52.576  33.985  1.00  0.00    -0.019 C 
ATOM     10  C   UNL     1      18.708  51.824  33.199  1.00  0.00     0.012 C 
ATOM     11  C   UNL     1      16.309  52.580  33.124  1.00  0.00     0.012 C 
ENDROOT
TORSDOF 0
ENDMDL
MODEL 6
REMARK VINA RESULT:    -4.157      2.005      3.614
REMARK INTER + INTRA:          -4.157
REMARK INTER:                  -4.157
REMARK INTRA:                   0.000
REMARK UNBOUND:                 0.000
REMARK SMILES CC1=CC(=O)[C@H]2C[C@@H]1C2(C)C
REMARK SMILES IDX 1 1 2 2 3 3 4 4 5 5 6 6 7 7 8 8 9 9 10 10 11 11
REMARK H PARENT
REMARK Flexibility Score: inf
ROOT
ATOM      1  C   UNL     1      16.598  61.466  20.001  1.00  0.00     0.040 C 
ATOM      2  C   UNL     1      15.524  61.919  20.938  1.00  0.00    -0.066 C 
ATOM      3  C   UNL     1      15.825  62.525  22.121  1.00  0.00     0.047 C 
ATOM      4  C   UNL     1      14.662  62.904  22.986  1.00  0.00     0.159 C 
ATOM      5  O   UNL     1      14.811  63.434  24.118  1.00  0.00    -0.295 OA
ATOM      6  C   UNL     1      13.283  62.601  22.399  1.00  0.00     0.067 C 
ATOM      7  C   UNL     1      13.375  63.101  20.941  1.00  0.00     0.021 C 
ATOM      8  C   UNL     1      14.028  61.740  20.608  1.00  0.00     0.022 C 
ATOM      9  C   UNL     1      13.291  61.148  21.844  1.00  0.00    -0.019 C 
ATOM     10  C   UNL     1      11.867  60.643  21.496  1.00  0.00     0.012 C 
ATOM     11  C   UNL     1      14.010  60.045  22.670  1.00  0.00     0.012 C 
ENDROOT
TORSDOF 0
ENDMDL
MODEL 7
REMARK VINA RESULT:    -4.104     15.970     17.047
REMARK INTER + INTRA:          -4.104
REMARK INTER:                  -4.104
REMARK INTRA:                   0.000
REMARK UNBOUND:                 0.000
REMARK SMILES CC1=CC(=O)[C@H]2C[C@@H]1C2(C)C
REMARK SMILES IDX 1 1 2 2 3 3 4 4 5 5 6 6 7 7 8 8 9 9 10 10 11 11
REMARK H PARENT
REMARK Flexibility Score: inf
ROOT
ATOM      1  C   UNL     1      14.730  51.720  33.210  1.00  0.00     0.040 C 
ATOM      2  C   UNL     1      15.457  52.228  34.414  1.00  0.00    -0.066 C 
ATOM      3  C   UNL     1      14.882  52.208  35.649  1.00  0.00     0.047 C 
ATOM      4  C   UNL     1      15.700  52.774  36.770  1.00  0.00     0.159 C 
ATOM      5  O   UNL     1      15.265  52.847  37.949  1.00  0.00    -0.295 OA
ATOM      6  C   UNL     1      17.098  53.257  36.381  1.00  0.00     0.067 C 
ATOM      7  C   UNL     1      17.657  52.124  35.494  1.00  0.00     0.021 C 
ATOM      8  C   UNL     1      16.894  52.783  34.323  1.00  0.00     0.022 C 
ATOM      9  C   UNL     1      16.980  54.129  35.099  1.00  0.00    -0.019 C 
ATOM     10  C   UNL     1      18.287  54.904  34.791  1.00  0.00     0.012 C 
ATOM     11  C   UNL     1      15.788  55.121  34.985  1.00  0.00     0.012 C 
ENDROOT
TORSDOF 0
ENDMDL
MODEL 8
REMARK VINA RESULT:    -4.061     15.779     17.030
REMARK INTER + INTRA:          -4.061
REMARK INTER:                  -4.061
REMARK INTRA:                   0.000
REMARK UNBOUND:                 0.000
REMARK SMILES CC1=CC(=O)[C@H]2C[C@@H]1C2(C)C
REMARK SMILES IDX 1 1 2 2 3 3 4 4 5 5 6 6 7 7 8 8 9 9 10 10 11 11
REMARK H PARENT
REMARK Flexibility Score: inf
ROOT
ATOM      1  C   UNL     1      14.916  51.463  37.974  1.00  0.00     0.040 C 
ATOM      2  C   UNL     1      15.144  52.125  36.652  1.00  0.00    -0.066 C 
ATOM      3  C   UNL     1      14.689  51.570  35.494  1.00  0.00     0.047 C 
ATOM      4  C   UNL     1      15.008  52.313  34.233  1.00  0.00     0.159 C 
ATOM      5  O   UNL     1      14.676  51.883  33.098  1.00  0.00    -0.295 OA
ATOM      6  C   UNL     1      15.766  53.628  34.421  1.00  0.00     0.067 C 
ATOM      7  C   UNL     1      15.026  54.328  35.581  1.00  0.00     0.021 C 
ATOM      8  C   UNL     1      15.889  53.471  36.534  1.00  0.00     0.022 C 
ATOM      9  C   UNL     1      16.950  53.379  35.399  1.00  0.00    -0.019 C 
ATOM     10  C   UNL     1      17.949  54.564  35.429  1.00  0.00     0.012 C 
ATOM     11  C   UNL     1      17.762  52.061  35.258  1.00  0.00     0.012 C 
ENDROOT
TORSDOF 0
ENDMDL
MODEL 9
REMARK VINA RESULT:    -4.033      1.257      2.460
REMARK INTER + INTRA:          -4.033
REMARK INTER:                  -4.033
REMARK INTRA:                   0.000
REMARK UNBOUND:                 0.000
REMARK SMILES CC1=CC(=O)[C@H]2C[C@@H]1C2(C)C
REMARK SMILES IDX 1 1 2 2 3 3 4 4 5 5 6 6 7 7 8 8 9 9 10 10 11 11
REMARK H PARENT
REMARK Flexibility Score: inf
ROOT
ATOM      1  C   UNL     1      13.597  63.376  24.124  1.00  0.00     0.040 C 
ATOM      2  C   UNL     1      13.896  62.782  22.784  1.00  0.00    -0.066 C 
ATOM      3  C   UNL     1      12.981  62.816  21.775  1.00  0.00     0.047 C 
ATOM      4  C   UNL     1      13.387  62.160  20.490  1.00  0.00     0.159 C 
ATOM      5  O   UNL     1      12.616  62.091  19.498  1.00  0.00    -0.295 OA
ATOM      6  C   UNL     1      14.802  61.579  20.470  1.00  0.00     0.067 C 
ATOM      7  C   UNL     1      15.674  62.687  21.097  1.00  0.00     0.021 C 
ATOM      8  C   UNL     1      15.254  62.120  22.472  1.00  0.00     0.022 C 
ATOM      9  C   UNL     1      15.014  60.752  21.769  1.00  0.00    -0.019 C 
ATOM     10  C   UNL     1      16.299  59.885  21.713  1.00  0.00     0.012 C 
ATOM     11  C   UNL     1      13.847  59.859  22.277  1.00  0.00     0.012 C 
ENDROOT
TORSDOF 0
ENDMDL
