MODEL 1
REMARK VINA RESULT:    -4.036      0.000      0.000
REMARK INTER + INTRA:          -5.337
REMARK INTER:                  -4.980
REMARK INTRA:                  -0.357
REMARK UNBOUND:                -0.357
REMARK SMILES COC(=O)c1ccccc1C(=O)OC
REMARK SMILES IDX 5 1 6 2 7 3 8 4 9 5 10 6 3 7 4 8 2 9 1 10 11 11 12 12 13 13
REMARK SMILES IDX 14 14
REMARK H PARENT
REMARK Flexibility Score: inf
ROOT
ATOM      1  C   UNL     1      40.916 184.051 172.092  1.00  0.00     0.074 A 
ATOM      2  C   UNL     1      41.757 182.935 171.929  1.00  0.00     0.016 A 
ATOM      3  C   UNL     1      42.855 182.740 172.766  1.00  0.00     0.001 A 
ATOM      4  C   UNL     1      43.132 183.653 173.780  1.00  0.00     0.001 A 
ATOM      5  C   UNL     1      42.324 184.779 173.947  1.00  0.00     0.016 A 
ATOM      6  C   UNL     1      41.225 185.008 173.099  1.00  0.00     0.074 A 
ENDROOT
BRANCH   1   7
ATOM      7  C   UNL     1      39.705 184.136 171.243  1.00  0.00     0.338 C 
ATOM      8  O   UNL     1      39.805 184.407 170.016  1.00  0.00    -0.246 OA
BRANCH   7   9
ATOM      9  O   UNL     1      38.444 183.971 171.825  1.00  0.00    -0.465 OA
ATOM     10  C   UNL     1      37.246 184.406 171.196  1.00  0.00     0.282 C 
ENDBRANCH   7   9
ENDBRANCH   1   7
BRANCH   6  11
ATOM     11  C   UNL     1      40.481 186.279 173.261  1.00  0.00     0.338 C 
ATOM     12  O   UNL     1      40.926 187.346 172.752  1.00  0.00    -0.246 OA
BRANCH  11  13
ATOM     13  O   UNL     1      39.313 186.302 174.029  1.00  0.00    -0.465 OA
ATOM     14  C   UNL     1      38.181 187.090 173.680  1.00  0.00     0.282 C 
ENDBRANCH  11  13
ENDBRANCH   6  11
TORSDOF 4
ENDMDL
MODEL 2
REMARK VINA RESULT:    -3.780      1.632      2.093
REMARK INTER + INTRA:          -5.021
REMARK INTER:                  -4.613
REMARK INTRA:                  -0.408
REMARK UNBOUND:                -0.357
REMARK SMILES COC(=O)c1ccccc1C(=O)OC
REMARK SMILES IDX 5 1 6 2 7 3 8 4 9 5 10 6 3 7 4 8 2 9 1 10 11 11 12 12 13 13
REMARK SMILES IDX 14 14
REMARK H PARENT
REMARK Flexibility Score: inf
ROOT
ATOM      1  C   UNL     1      39.362 184.894 171.628  1.00  0.00     0.074 A 
ATOM      2  C   UNL     1      40.514 184.170 171.270  1.00  0.00     0.016 A 
ATOM      3  C   UNL     1      41.754 184.478 171.828  1.00  0.00     0.001 A 
ATOM      4  C   UNL     1      41.865 185.511 172.755  1.00  0.00     0.001 A 
ATOM      5  C   UNL     1      40.741 186.257 173.110  1.00  0.00     0.016 A 
ATOM      6  C   UNL     1      39.484 185.979 172.541  1.00  0.00     0.074 A 
ENDROOT
BRANCH   1   7
ATOM      7  C   UNL     1      38.062 184.440 171.084  1.00  0.00     0.338 C 
ATOM      8  O   UNL     1      37.653 184.867 169.970  1.00  0.00    -0.246 OA
BRANCH   7   9
ATOM      9  O   UNL     1      37.261 183.579 171.842  1.00  0.00    -0.465 OA
ATOM     10  C   UNL     1      35.894 183.335 171.536  1.00  0.00     0.282 C 
ENDBRANCH   7   9
ENDBRANCH   1   7
BRANCH   6  11
ATOM     11  C   UNL     1      38.359 186.882 172.877  1.00  0.00     0.338 C 
ATOM     12  O   UNL     1      38.240 187.995 172.292  1.00  0.00    -0.246 OA
BRANCH  11  13
ATOM     13  O   UNL     1      37.462 186.521 173.886  1.00  0.00    -0.465 OA
ATOM     14  C   UNL     1      36.055 186.466 173.679  1.00  0.00     0.282 C 
ENDBRANCH  11  13
ENDBRANCH   6  11
TORSDOF 4
ENDMDL
MODEL 3
REMARK VINA RESULT:    -3.727      1.812      3.751
REMARK INTER + INTRA:          -4.956
REMARK INTER:                  -4.554
REMARK INTRA:                  -0.402
REMARK UNBOUND:                -0.357
REMARK SMILES COC(=O)c1ccccc1C(=O)OC
REMARK SMILES IDX 5 1 6 2 7 3 8 4 9 5 10 6 3 7 4 8 2 9 1 10 11 11 12 12 13 13
REMARK SMILES IDX 14 14
REMARK H PARENT
REMARK Flexibility Score: inf
ROOT
ATOM      1  C   UNL     1      39.300 186.123 172.406  1.00  0.00     0.074 A 
ATOM      2  C   UNL     1      40.529 186.477 172.992  1.00  0.00     0.016 A 
ATOM      3  C   UNL     1      41.699 185.791 172.668  1.00  0.00     0.001 A 
ATOM      4  C   UNL     1      41.662 184.741 171.753  1.00  0.00     0.001 A 
ATOM      5  C   UNL     1      40.451 184.358 171.175  1.00  0.00     0.016 A 
ATOM      6  C   UNL     1      39.255 185.022 171.506  1.00  0.00     0.074 A 
ENDROOT
BRANCH   1   7
ATOM      7  C   UNL     1      38.120 186.965 172.709  1.00  0.00     0.338 C 
ATOM      8  O   UNL     1      37.918 188.032 172.068  1.00  0.00    -0.246 OA
BRANCH   7   9
ATOM      9  O   UNL     1      37.263 186.600 173.753  1.00  0.00    -0.465 OA
ATOM     10  C   UNL     1      35.857 186.806 173.698  1.00  0.00     0.282 C 
ENDBRANCH   7   9
ENDBRANCH   1   7
BRANCH   6  11
ATOM     11  C   UNL     1      37.992 184.489 170.944  1.00  0.00     0.338 C 
ATOM     12  O   UNL     1      37.582 184.882 169.817  1.00  0.00    -0.246 OA
BRANCH  11  13
ATOM     13  O   UNL     1      37.228 183.592 171.695  1.00  0.00    -0.465 OA
ATOM     14  C   UNL     1      35.805 183.620 171.710  1.00  0.00     0.282 C 
ENDBRANCH  11  13
ENDBRANCH   6  11
TORSDOF 4
ENDMDL
MODEL 4
REMARK VINA RESULT:    -3.608      2.090      3.823
REMARK INTER + INTRA:          -4.809
REMARK INTER:                  -4.463
REMARK INTRA:                  -0.346
REMARK UNBOUND:                -0.357
REMARK SMILES COC(=O)c1ccccc1C(=O)OC
REMARK SMILES IDX 5 1 6 2 7 3 8 4 9 5 10 6 3 7 4 8 2 9 1 10 11 11 12 12 13 13
REMARK SMILES IDX 14 14
REMARK H PARENT
REMARK Flexibility Score: inf
ROOT
ATOM      1  C   UNL     1      38.468 185.749 171.733  1.00  0.00     0.074 A 
ATOM      2  C   UNL     1      37.982 187.021 172.087  1.00  0.00     0.016 A 
ATOM      3  C   UNL     1      38.753 187.892 172.857  1.00  0.00     0.001 A 
ATOM      4  C   UNL     1      40.021 187.508 173.285  1.00  0.00     0.001 A 
ATOM      5  C   UNL     1      40.516 186.243 172.965  1.00  0.00     0.016 A 
ATOM      6  C   UNL     1      39.746 185.340 172.209  1.00  0.00     0.074 A 
ENDROOT
BRANCH   1   7
ATOM      7  C   UNL     1      37.645 184.922 170.821  1.00  0.00     0.338 C 
ATOM      8  O   UNL     1      37.894 184.898 169.584  1.00  0.00    -0.246 OA
BRANCH   7   9
ATOM      9  O   UNL     1      36.552 184.213 171.331  1.00  0.00    -0.465 OA
ATOM     10  C   UNL     1      36.698 183.127 172.236  1.00  0.00     0.282 C 
ENDBRANCH   7   9
ENDBRANCH   1   7
BRANCH   6  11
ATOM     11  C   UNL     1      40.285 183.976 172.005  1.00  0.00     0.338 C 
ATOM     12  O   UNL     1      40.796 183.652 170.897  1.00  0.00    -0.246 OA
BRANCH  11  13
ATOM     13  O   UNL     1      40.172 183.029 173.028  1.00  0.00    -0.465 OA
ATOM     14  C   UNL     1      41.164 182.038 173.269  1.00  0.00     0.282 C 
ENDBRANCH  11  13
ENDBRANCH   6  11
TORSDOF 4
ENDMDL
MODEL 5
REMARK VINA RESULT:    -3.587     22.223     23.560
REMARK INTER + INTRA:          -4.783
REMARK INTER:                  -4.441
REMARK INTRA:                  -0.342
REMARK UNBOUND:                -0.357
REMARK SMILES COC(=O)c1ccccc1C(=O)OC
REMARK SMILES IDX 5 1 6 2 7 3 8 4 9 5 10 6 3 7 4 8 2 9 1 10 11 11 12 12 13 13
REMARK SMILES IDX 14 14
REMARK H PARENT
REMARK Flexibility Score: inf
ROOT
ATOM      1  C   UNL     1      32.625 169.334 156.969  1.00  0.00     0.074 A 
ATOM      2  C   UNL     1      33.739 168.914 157.717  1.00  0.00     0.016 A 
ATOM      3  C   UNL     1      35.034 169.243 157.317  1.00  0.00     0.001 A 
ATOM      4  C   UNL     1      35.238 169.999 156.165  1.00  0.00     0.001 A 
ATOM      5  C   UNL     1      34.149 170.409 155.395  1.00  0.00     0.016 A 
ATOM      6  C   UNL     1      32.835 170.068 155.767  1.00  0.00     0.074 A 
ENDROOT
BRANCH   1   7
ATOM      7  C   UNL     1      31.277 169.047 157.512  1.00  0.00     0.338 C 
ATOM      8  O   UNL     1      30.675 167.986 157.194  1.00  0.00    -0.246 OA
BRANCH   7   9
ATOM      9  O   UNL     1      30.651 169.989 158.336  1.00  0.00    -0.465 OA
ATOM     10  C   UNL     1      30.788 169.981 159.751  1.00  0.00     0.282 C 
ENDBRANCH   7   9
ENDBRANCH   1   7
BRANCH   6  11
ATOM     11  C   UNL     1      31.738 170.438 154.844  1.00  0.00     0.338 C 
ATOM     12  O   UNL     1      31.358 169.631 153.950  1.00  0.00    -0.246 OA
BRANCH  11  13
ATOM     13  O   UNL     1      31.163 171.710 154.931  1.00  0.00    -0.465 OA
ATOM     14  C   UNL     1      31.243 172.662 153.877  1.00  0.00     0.282 C 
ENDBRANCH  11  13
ENDBRANCH   6  11
TORSDOF 4
ENDMDL
MODEL 6
REMARK VINA RESULT:    -3.571      2.188      4.076
REMARK INTER + INTRA:          -4.763
REMARK INTER:                  -4.446
REMARK INTRA:                  -0.318
REMARK UNBOUND:                -0.357
REMARK SMILES COC(=O)c1ccccc1C(=O)OC
REMARK SMILES IDX 5 1 6 2 7 3 8 4 9 5 10 6 3 7 4 8 2 9 1 10 11 11 12 12 13 13
REMARK SMILES IDX 14 14
REMARK H PARENT
REMARK Flexibility Score: inf
ROOT
ATOM      1  C   UNL     1      39.851 185.349 172.273  1.00  0.00     0.074 A 
ATOM      2  C   UNL     1      40.586 186.320 172.978  1.00  0.00     0.016 A 
ATOM      3  C   UNL     1      40.036 187.573 173.251  1.00  0.00     0.001 A 
ATOM      4  C   UNL     1      38.744 187.876 172.828  1.00  0.00     0.001 A 
ATOM      5  C   UNL     1      38.004 186.936 172.109  1.00  0.00     0.016 A 
ATOM      6  C   UNL     1      38.548 185.675 171.802  1.00  0.00     0.074 A 
ENDROOT
BRANCH   1   7
ATOM      7  C   UNL     1      40.452 184.005 172.118  1.00  0.00     0.338 C 
ATOM      8  O   UNL     1      40.859 183.615 170.990  1.00  0.00    -0.246 OA
BRANCH   7   9
ATOM      9  O   UNL     1      40.512 183.145 173.221  1.00  0.00    -0.465 OA
ATOM     10  C   UNL     1      39.370 182.818 174.001  1.00  0.00     0.282 C 
ENDBRANCH   7   9
ENDBRANCH   1   7
BRANCH   6  11
ATOM     11  C   UNL     1      37.752 184.772 170.940  1.00  0.00     0.338 C 
ATOM     12  O   UNL     1      37.729 184.942 169.689  1.00  0.00    -0.246 OA
BRANCH  11  13
ATOM     13  O   UNL     1      36.980 183.763 171.525  1.00  0.00    -0.465 OA
ATOM     14  C   UNL     1      35.635 183.506 171.139  1.00  0.00     0.282 C 
ENDBRANCH  11  13
ENDBRANCH   6  11
TORSDOF 4
ENDMDL
MODEL 7
REMARK VINA RESULT:    -3.557     22.982     24.616
REMARK INTER + INTRA:          -4.746
REMARK INTER:                  -4.360
REMARK INTRA:                  -0.386
REMARK UNBOUND:                -0.357
REMARK SMILES COC(=O)c1ccccc1C(=O)OC
REMARK SMILES IDX 5 1 6 2 7 3 8 4 9 5 10 6 3 7 4 8 2 9 1 10 11 11 12 12 13 13
REMARK SMILES IDX 14 14
REMARK H PARENT
REMARK Flexibility Score: inf
ROOT
ATOM      1  C   UNL     1      31.354 171.682 154.488  1.00  0.00     0.074 A 
ATOM      2  C   UNL     1      31.544 173.006 154.052  1.00  0.00     0.016 A 
ATOM      3  C   UNL     1      30.459 173.863 153.875  1.00  0.00     0.001 A 
ATOM      4  C   UNL     1      29.165 173.414 154.133  1.00  0.00     0.001 A 
ATOM      5  C   UNL     1      28.950 172.099 154.546  1.00  0.00     0.016 A 
ATOM      6  C   UNL     1      30.029 171.210 154.708  1.00  0.00     0.074 A 
ENDROOT
BRANCH   1   7
ATOM      7  C   UNL     1      32.557 170.863 154.764  1.00  0.00     0.338 C 
ATOM      8  O   UNL     1      33.023 170.097 153.877  1.00  0.00    -0.246 OA
BRANCH   7   9
ATOM      9  O   UNL     1      33.140 170.902 156.035  1.00  0.00    -0.465 OA
ATOM     10  C   UNL     1      33.662 169.745 156.675  1.00  0.00     0.282 C 
ENDBRANCH   7   9
ENDBRANCH   1   7
BRANCH   6  11
ATOM     11  C   UNL     1      29.718 169.800 155.038  1.00  0.00     0.338 C 
ATOM     12  O   UNL     1      29.849 168.898 154.164  1.00  0.00    -0.246 OA
BRANCH  11  13
ATOM     13  O   UNL     1      29.224 169.481 156.306  1.00  0.00    -0.465 OA
ATOM     14  C   UNL     1      30.030 169.526 157.477  1.00  0.00     0.282 C 
ENDBRANCH  11  13
ENDBRANCH   6  11
TORSDOF 4
ENDMDL
MODEL 8
REMARK VINA RESULT:    -3.504     22.682     24.610
REMARK INTER + INTRA:          -4.680
REMARK INTER:                  -4.374
REMARK INTRA:                  -0.306
REMARK UNBOUND:                -0.357
REMARK SMILES COC(=O)c1ccccc1C(=O)OC
REMARK SMILES IDX 5 1 6 2 7 3 8 4 9 5 10 6 3 7 4 8 2 9 1 10 11 11 12 12 13 13
REMARK SMILES IDX 14 14
REMARK H PARENT
REMARK Flexibility Score: inf
ROOT
ATOM      1  C   UNL     1      29.822 171.104 154.694  1.00  0.00     0.074 A 
ATOM      2  C   UNL     1      28.714 171.954 154.526  1.00  0.00     0.016 A 
ATOM      3  C   UNL     1      28.887 173.289 154.162  1.00  0.00     0.001 A 
ATOM      4  C   UNL     1      30.168 173.798 153.959  1.00  0.00     0.001 A 
ATOM      5  C   UNL     1      31.283 172.979 154.141  1.00  0.00     0.016 A 
ATOM      6  C   UNL     1      31.133 171.635 154.530  1.00  0.00     0.074 A 
ENDROOT
BRANCH   1   7
ATOM      7  C   UNL     1      29.561 169.672 154.969  1.00  0.00     0.338 C 
ATOM      8  O   UNL     1      29.466 168.848 154.019  1.00  0.00    -0.246 OA
BRANCH   7   9
ATOM      9  O   UNL     1      29.362 169.249 156.287  1.00  0.00    -0.465 OA
ATOM     10  C   UNL     1      29.537 170.111 157.404  1.00  0.00     0.282 C 
ENDBRANCH   7   9
ENDBRANCH   1   7
BRANCH   6  11
ATOM     11  C   UNL     1      32.360 170.857 154.816  1.00  0.00     0.338 C 
ATOM     12  O   UNL     1      32.971 170.266 153.883  1.00  0.00    -0.246 OA
BRANCH  11  13
ATOM     13  O   UNL     1      32.807 170.734 156.135  1.00  0.00    -0.465 OA
ATOM     14  C   UNL     1      34.170 170.491 156.464  1.00  0.00     0.282 C 
ENDBRANCH  11  13
ENDBRANCH   6  11
TORSDOF 4
ENDMDL
