MODEL 1
REMARK VINA RESULT:    -6.721      0.000      0.000
REMARK INTER + INTRA:         -11.234
REMARK INTER:                  -9.864
REMARK INTRA:                  -1.370
REMARK UNBOUND:                -1.370
REMARK SMILES Cc1cc2c(C(C)C)c(O)c(O)c(C=O)c2c(O)c1-c1c(C)cc2c(C(C)C)c(O)c(O)c(C=O)c2c1O
REMARK SMILES IDX 1 1 2 2 3 3 4 4 16 5 13 6 11 7 9 8 5 9 17 10 19 11 20 12
REMARK SMILES IDX 37 13 21 14 36 15 23 16 22 17 24 18 33 19 25 20 31 21 29 22
REMARK SMILES IDX 38 23 34 25 35 26 26 27 27 28 28 29 32 30 30 32 18 34 6 36
REMARK SMILES IDX 7 37 8 38 14 39 15 40 10 41 12 43
REMARK H PARENT 38 24 32 31 30 33 18 35 10 42 12 44
REMARK Flexibility Score: inf
ROOT
ATOM      1  C   UNL     1      30.567  -5.703 -34.420  1.00  0.00     0.045 C 
ATOM      2  C   UNL     1      31.940  -6.330 -34.450  1.00  0.00    -0.039 A 
ATOM      3  C   UNL     1      32.996  -5.643 -35.051  1.00  0.00     0.013 A 
ATOM      4  C   UNL     1      34.301  -6.180 -35.103  1.00  0.00    -0.006 A 
ATOM      5  C   UNL     1      34.567  -7.393 -34.402  1.00  0.00     0.039 A 
ATOM      6  C   UNL     1      35.919  -7.818 -34.247  1.00  0.00     0.072 A 
ATOM      7  C   UNL     1      36.962  -7.080 -34.837  1.00  0.00     0.169 A 
ATOM      8  C   UNL     1      36.684  -5.917 -35.581  1.00  0.00     0.162 A 
ATOM      9  C   UNL     1      35.348  -5.516 -35.808  1.00  0.00     0.008 A 
ATOM     10  C   UNL     1      33.467  -8.151 -33.904  1.00  0.00     0.132 A 
ATOM     11  C   UNL     1      32.165  -7.606 -33.906  1.00  0.00     0.031 A 
ENDROOT
BRANCH  11  12
ATOM     12  C   UNL     1      31.031  -8.373 -33.324  1.00  0.00     0.031 A 
ATOM     13  C   UNL     1      30.290  -9.266 -34.128  1.00  0.00     0.132 A 
ATOM     14  C   UNL     1      30.676  -8.174 -31.981  1.00  0.00    -0.039 A 
ATOM     15  C   UNL     1      29.189  -9.993 -33.579  1.00  0.00     0.039 A 
ATOM     16  C   UNL     1      29.603  -8.883 -31.440  1.00  0.00     0.013 A 
ATOM     17  C   UNL     1      31.436  -7.200 -31.113  1.00  0.00     0.045 C 
ATOM     18  C   UNL     1      28.874  -9.827 -32.195  1.00  0.00    -0.006 A 
ATOM     19  C   UNL     1      28.365 -10.846 -34.375  1.00  0.00     0.072 A 
ATOM     20  C   UNL     1      27.811 -10.578 -31.603  1.00  0.00     0.008 A 
ATOM     21  C   UNL     1      27.228 -11.457 -33.807  1.00  0.00     0.169 A 
ATOM     22  C   UNL     1      26.937 -11.292 -32.451  1.00  0.00     0.162 A 
BRANCH  13  23
ATOM     23  O   UNL     1      30.646  -9.422 -35.472  1.00  0.00    -0.507 OA
ATOM     24  H   UNL     1      30.539 -10.285 -35.992  1.00  0.00     0.293 HD
ENDBRANCH  13  23
BRANCH  19  25
ATOM     25  C   UNL     1      28.648 -11.098 -35.803  1.00  0.00     0.264 C 
ATOM     26  O   UNL     1      27.982 -10.516 -36.699  1.00  0.00    -0.298 OA
ENDBRANCH  19  25
BRANCH  20  27
ATOM     27  C   UNL     1      27.582 -10.602 -30.080  1.00  0.00     0.017 C 
ATOM     28  C   UNL     1      26.322  -9.815 -29.707  1.00  0.00     0.012 C 
ATOM     29  C   UNL     1      27.555 -12.018 -29.473  1.00  0.00     0.012 C 
ENDBRANCH  20  27
BRANCH  21  30
ATOM     30  O   UNL     1      26.375 -12.267 -34.567  1.00  0.00    -0.504 OA
ATOM     31  H   UNL     1      25.366 -12.223 -34.527  1.00  0.00     0.293 HD
ENDBRANCH  21  30
BRANCH  22  32
ATOM     32  O   UNL     1      25.762 -11.845 -31.934  1.00  0.00    -0.504 OA
ATOM     33  H   UNL     1      25.242 -11.427 -31.174  1.00  0.00     0.293 HD
ENDBRANCH  22  32
ENDBRANCH  11  12
BRANCH  10  34
ATOM     34  O   UNL     1      33.660  -9.461 -33.448  1.00  0.00    -0.507 OA
ATOM     35  H   UNL     1      32.939 -10.171 -33.451  1.00  0.00     0.293 HD
ENDBRANCH  10  34
BRANCH   9  36
ATOM     36  C   UNL     1      35.051  -4.365 -36.787  1.00  0.00     0.017 C 
ATOM     37  C   UNL     1      34.045  -4.799 -37.858  1.00  0.00     0.012 C 
ATOM     38  C   UNL     1      34.608  -3.060 -36.098  1.00  0.00     0.012 C 
ENDBRANCH   9  36
BRANCH   6  39
ATOM     39  C   UNL     1      36.289  -8.945 -33.355  1.00  0.00     0.264 C 
ATOM     40  O   UNL     1      36.718 -10.032 -33.825  1.00  0.00    -0.298 OA
ENDBRANCH   6  39
BRANCH   8  41
ATOM     41  O   UNL     1      37.719  -5.114 -36.070  1.00  0.00    -0.504 OA
ATOM     42  H   UNL     1      38.343  -5.370 -36.820  1.00  0.00     0.293 HD
ENDBRANCH   8  41
BRANCH   7  43
ATOM     43  O   UNL     1      38.277  -7.529 -34.658  1.00  0.00    -0.504 OA
ATOM     44  H   UNL     1      38.581  -8.141 -33.914  1.00  0.00     0.293 HD
ENDBRANCH   7  43
TORSDOF 11
ENDMDL
MODEL 2
REMARK VINA RESULT:    -6.636      1.827      3.162
REMARK INTER + INTRA:         -11.109
REMARK INTER:                  -9.642
REMARK INTRA:                  -1.467
REMARK UNBOUND:                -1.370
REMARK SMILES Cc1cc2c(C(C)C)c(O)c(O)c(C=O)c2c(O)c1-c1c(C)cc2c(C(C)C)c(O)c(O)c(C=O)c2c1O
REMARK SMILES IDX 1 1 2 2 3 3 4 4 16 5 13 6 11 7 9 8 5 9 17 10 19 11 20 12
REMARK SMILES IDX 37 13 21 14 36 15 23 16 22 17 24 18 33 19 25 20 31 21 29 22
REMARK SMILES IDX 38 23 34 25 35 26 26 27 27 28 28 29 32 30 30 32 18 34 6 36
REMARK SMILES IDX 7 37 8 38 14 39 15 40 10 41 12 43
REMARK H PARENT 38 24 32 31 30 33 18 35 10 42 12 44
REMARK Flexibility Score: inf
ROOT
ATOM      1  C   UNL     1      30.135  -6.707 -34.458  1.00  0.00     0.045 C 
ATOM      2  C   UNL     1      31.588  -7.117 -34.466  1.00  0.00    -0.039 A 
ATOM      3  C   UNL     1      32.546  -6.238 -34.974  1.00  0.00     0.013 A 
ATOM      4  C   UNL     1      33.919  -6.568 -35.001  1.00  0.00    -0.006 A 
ATOM      5  C   UNL     1      34.343  -7.773 -34.368  1.00  0.00     0.039 A 
ATOM      6  C   UNL     1      35.738  -7.999 -34.181  1.00  0.00     0.072 A 
ATOM      7  C   UNL     1      36.676  -7.072 -34.675  1.00  0.00     0.169 A 
ATOM      8  C   UNL     1      36.248  -5.915 -35.354  1.00  0.00     0.162 A 
ATOM      9  C   UNL     1      34.875  -5.705 -35.615  1.00  0.00     0.008 A 
ATOM     10  C   UNL     1      33.356  -8.721 -33.970  1.00  0.00     0.132 A 
ATOM     11  C   UNL     1      31.986  -8.379 -33.995  1.00  0.00     0.031 A 
ENDROOT
BRANCH  11  12
ATOM     12  C   UNL     1      30.964  -9.347 -33.516  1.00  0.00     0.031 A 
ATOM     13  C   UNL     1      30.627  -9.404 -32.146  1.00  0.00     0.132 A 
ATOM     14  C   UNL     1      30.365 -10.231 -34.427  1.00  0.00    -0.039 A 
ATOM     15  C   UNL     1      29.658 -10.345 -31.677  1.00  0.00     0.039 A 
ATOM     16  C   UNL     1      29.418 -11.149 -33.974  1.00  0.00     0.013 A 
ATOM     17  C   UNL     1      30.735 -10.207 -35.890  1.00  0.00     0.045 C 
ATOM     18  C   UNL     1      29.011 -11.200 -32.623  1.00  0.00    -0.006 A 
ATOM     19  C   UNL     1      29.344 -10.490 -30.291  1.00  0.00     0.072 A 
ATOM     20  C   UNL     1      28.000 -12.115 -32.193  1.00  0.00     0.008 A 
ATOM     21  C   UNL     1      28.460 -11.505 -29.872  1.00  0.00     0.169 A 
ATOM     22  C   UNL     1      27.829 -12.328 -30.809  1.00  0.00     0.162 A 
BRANCH  13  23
ATOM     23  O   UNL     1      31.261  -8.533 -31.255  1.00  0.00    -0.507 OA
ATOM     24  H   UNL     1      30.974  -8.395 -30.293  1.00  0.00     0.293 HD
ENDBRANCH  13  23
BRANCH  19  25
ATOM     25  C   UNL     1      29.942  -9.620 -29.258  1.00  0.00     0.264 C 
ATOM     26  O   UNL     1      30.871 -10.045 -28.523  1.00  0.00    -0.298 OA
ENDBRANCH  19  25
BRANCH  20  27
ATOM     27  C   UNL     1      27.124 -12.889 -33.196  1.00  0.00     0.017 C 
ATOM     28  C   UNL     1      27.480 -14.378 -33.193  1.00  0.00     0.012 C 
ATOM     29  C   UNL     1      25.611 -12.675 -32.999  1.00  0.00     0.012 C 
ENDBRANCH  20  27
BRANCH  21  30
ATOM     30  O   UNL     1      28.160 -11.703 -28.518  1.00  0.00    -0.504 OA
ATOM     31  H   UNL     1      28.415 -11.061 -27.780  1.00  0.00     0.293 HD
ENDBRANCH  21  30
BRANCH  22  32
ATOM     32  O   UNL     1      27.019 -13.374 -30.359  1.00  0.00    -0.504 OA
ATOM     33  H   UNL     1      26.605 -13.395 -29.436  1.00  0.00     0.293 HD
ENDBRANCH  22  32
ENDBRANCH  11  12
BRANCH  10  34
ATOM     34  O   UNL     1      33.732 -10.015 -33.591  1.00  0.00    -0.507 OA
ATOM     35  H   UNL     1      33.077 -10.731 -33.306  1.00  0.00     0.293 HD
ENDBRANCH  10  34
BRANCH   9  36
ATOM     36  C   UNL     1      34.439  -4.546 -36.530  1.00  0.00     0.017 C 
ATOM     37  C   UNL     1      34.540  -3.202 -35.802  1.00  0.00     0.012 C 
ATOM     38  C   UNL     1      35.178  -4.507 -37.882  1.00  0.00     0.012 C 
ENDBRANCH   9  36
BRANCH   6  39
ATOM     39  C   UNL     1      36.246  -9.117 -33.348  1.00  0.00     0.264 C 
ATOM     40  O   UNL     1      36.777 -10.130 -33.874  1.00  0.00    -0.298 OA
ENDBRANCH   6  39
BRANCH   8  41
ATOM     41  O   UNL     1      37.164  -4.933 -35.744  1.00  0.00    -0.504 OA
ATOM     42  H   UNL     1      38.084  -4.813 -35.348  1.00  0.00     0.293 HD
ENDBRANCH   8  41
BRANCH   7  43
ATOM     43  O   UNL     1      38.037  -7.330 -34.467  1.00  0.00    -0.504 OA
ATOM     44  H   UNL     1      38.540  -7.119 -33.617  1.00  0.00     0.293 HD
ENDBRANCH   7  43
TORSDOF 11
ENDMDL
MODEL 3
REMARK VINA RESULT:    -6.569      3.030      8.960
REMARK INTER + INTRA:         -11.011
REMARK INTER:                  -9.793
REMARK INTRA:                  -1.218
REMARK UNBOUND:                -1.370
REMARK SMILES Cc1cc2c(C(C)C)c(O)c(O)c(C=O)c2c(O)c1-c1c(C)cc2c(C(C)C)c(O)c(O)c(C=O)c2c1O
REMARK SMILES IDX 1 1 2 2 3 3 4 4 16 5 13 6 11 7 9 8 5 9 17 10 19 11 20 12
REMARK SMILES IDX 37 13 21 14 36 15 23 16 22 17 24 18 33 19 25 20 31 21 29 22
REMARK SMILES IDX 38 23 34 25 35 26 26 27 27 28 28 29 32 30 30 32 18 34 6 36
REMARK SMILES IDX 7 37 8 38 14 39 15 40 10 41 12 43
REMARK H PARENT 38 24 32 31 30 33 18 35 10 42 12 44
REMARK Flexibility Score: inf
ROOT
ATOM      1  C   UNL     1      29.821  -6.705 -31.853  1.00  0.00     0.045 C 
ATOM      2  C   UNL     1      29.478  -7.925 -32.675  1.00  0.00    -0.039 A 
ATOM      3  C   UNL     1      28.994  -9.068 -32.037  1.00  0.00     0.013 A 
ATOM      4  C   UNL     1      28.652 -10.234 -32.757  1.00  0.00    -0.006 A 
ATOM      5  C   UNL     1      28.678 -10.187 -34.182  1.00  0.00     0.039 A 
ATOM      6  C   UNL     1      28.113 -11.269 -34.918  1.00  0.00     0.072 A 
ATOM      7  C   UNL     1      27.600 -12.391 -34.240  1.00  0.00     0.169 A 
ATOM      8  C   UNL     1      27.636 -12.456 -32.833  1.00  0.00     0.162 A 
ATOM      9  C   UNL     1      28.256 -11.429 -32.086  1.00  0.00     0.008 A 
ATOM     10  C   UNL     1      29.294  -9.070 -34.819  1.00  0.00     0.132 A 
ATOM     11  C   UNL     1      29.665  -7.935 -34.067  1.00  0.00     0.031 A 
ENDROOT
BRANCH  11  12
ATOM     12  C   UNL     1      30.245  -6.745 -34.745  1.00  0.00     0.031 A 
ATOM     13  C   UNL     1      29.403  -5.715 -35.217  1.00  0.00     0.132 A 
ATOM     14  C   UNL     1      31.632  -6.670 -34.948  1.00  0.00    -0.039 A 
ATOM     15  C   UNL     1      29.954  -4.577 -35.885  1.00  0.00     0.039 A 
ATOM     16  C   UNL     1      32.174  -5.561 -35.597  1.00  0.00     0.013 A 
ATOM     17  C   UNL     1      32.547  -7.776 -34.478  1.00  0.00     0.045 C 
ATOM     18  C   UNL     1      31.373  -4.483 -36.033  1.00  0.00    -0.006 A 
ATOM     19  C   UNL     1      29.134  -3.552 -36.446  1.00  0.00     0.072 A 
ATOM     20  C   UNL     1      31.957  -3.334 -36.650  1.00  0.00     0.008 A 
ATOM     21  C   UNL     1      29.722  -2.506 -37.187  1.00  0.00     0.169 A 
ATOM     22  C   UNL     1      31.111  -2.423 -37.317  1.00  0.00     0.162 A 
BRANCH  13  23
ATOM     23  O   UNL     1      28.022  -5.829 -35.029  1.00  0.00    -0.507 OA
ATOM     24  H   UNL     1      27.545  -6.701 -34.833  1.00  0.00     0.293 HD
ENDBRANCH  13  23
BRANCH  19  25
ATOM     25  C   UNL     1      27.663  -3.558 -36.303  1.00  0.00     0.264 C 
ATOM     26  O   UNL     1      26.926  -3.840 -37.284  1.00  0.00    -0.298 OA
ENDBRANCH  19  25
BRANCH  20  27
ATOM     27  C   UNL     1      33.478  -3.085 -36.631  1.00  0.00     0.017 C 
ATOM     28  C   UNL     1      34.059  -3.158 -38.045  1.00  0.00     0.012 C 
ATOM     29  C   UNL     1      33.889  -1.780 -35.924  1.00  0.00     0.012 C 
ENDBRANCH  20  27
BRANCH  21  30
ATOM     30  O   UNL     1      28.947  -1.505 -37.786  1.00  0.00    -0.504 OA
ATOM     31  H   UNL     1      29.174  -1.061 -38.666  1.00  0.00     0.293 HD
ENDBRANCH  21  30
BRANCH  22  32
ATOM     32  O   UNL     1      31.661  -1.420 -38.121  1.00  0.00    -0.504 OA
ATOM     33  H   UNL     1      31.888  -1.558 -39.097  1.00  0.00     0.293 HD
ENDBRANCH  22  32
ENDBRANCH  11  12
BRANCH  10  34
ATOM     34  O   UNL     1      29.574  -9.105 -36.190  1.00  0.00    -0.507 OA
ATOM     35  H   UNL     1      29.566  -8.289 -36.788  1.00  0.00     0.293 HD
ENDBRANCH  10  34
BRANCH   9  36
ATOM     36  C   UNL     1      28.468 -11.606 -30.571  1.00  0.00     0.017 C 
ATOM     37  C   UNL     1      29.947 -11.455 -30.202  1.00  0.00     0.012 C 
ATOM     38  C   UNL     1      27.578 -10.694 -29.706  1.00  0.00     0.012 C 
ENDBRANCH   9  36
BRANCH   6  39
ATOM     39  C   UNL     1      27.911 -11.198 -36.386  1.00  0.00     0.264 C 
ATOM     40  O   UNL     1      26.790 -11.455 -36.901  1.00  0.00    -0.298 OA
ENDBRANCH   6  39
BRANCH   8  41
ATOM     41  O   UNL     1      27.024 -13.510 -32.148  1.00  0.00    -0.504 OA
ATOM     42  H   UNL     1      27.032 -13.630 -31.147  1.00  0.00     0.293 HD
ENDBRANCH   8  41
BRANCH   7  43
ATOM     43  O   UNL     1      27.051 -13.432 -35.000  1.00  0.00    -0.504 OA
ATOM     44  H   UNL     1      26.212 -13.358 -35.557  1.00  0.00     0.293 HD
ENDBRANCH   7  43
TORSDOF 11
ENDMDL
MODEL 4
REMARK VINA RESULT:    -6.565     10.155     11.725
REMARK INTER + INTRA:         -11.005
REMARK INTER:                  -9.787
REMARK INTRA:                  -1.218
REMARK UNBOUND:                -1.370
REMARK SMILES Cc1cc2c(C(C)C)c(O)c(O)c(C=O)c2c(O)c1-c1c(C)cc2c(C(C)C)c(O)c(O)c(C=O)c2c1O
REMARK SMILES IDX 1 1 2 2 3 3 4 4 16 5 13 6 11 7 9 8 5 9 17 10 19 11 20 12
REMARK SMILES IDX 37 13 21 14 36 15 23 16 22 17 24 18 33 19 25 20 31 21 29 22
REMARK SMILES IDX 38 23 34 25 35 26 26 27 27 28 28 29 32 30 30 32 18 34 6 36
REMARK SMILES IDX 7 37 8 38 14 39 15 40 10 41 12 43
REMARK H PARENT 38 24 32 31 30 33 18 35 10 42 12 44
REMARK Flexibility Score: inf
ROOT
ATOM      1  C   UNL     1      26.971  -1.375 -30.511  1.00  0.00     0.045 C 
ATOM      2  C   UNL     1      28.341  -0.788 -30.268  1.00  0.00    -0.039 A 
ATOM      3  C   UNL     1      29.388  -1.106 -31.134  1.00  0.00     0.013 A 
ATOM      4  C   UNL     1      30.687  -0.582 -30.957  1.00  0.00    -0.006 A 
ATOM      5  C   UNL     1      30.892   0.403 -29.947  1.00  0.00     0.039 A 
ATOM      6  C   UNL     1      32.130   1.109 -29.914  1.00  0.00     0.072 A 
ATOM      7  C   UNL     1      33.151   0.786 -30.826  1.00  0.00     0.169 A 
ATOM      8  C   UNL     1      32.962  -0.233 -31.781  1.00  0.00     0.162 A 
ATOM      9  C   UNL     1      31.771  -0.994 -31.787  1.00  0.00     0.008 A 
ATOM     10  C   UNL     1      29.860   0.627 -28.989  1.00  0.00     0.132 A 
ATOM     11  C   UNL     1      28.583   0.052 -29.169  1.00  0.00     0.031 A 
ENDROOT
BRANCH  11  12
ATOM     12  C   UNL     1      27.489   0.342 -28.203  1.00  0.00     0.031 A 
ATOM     13  C   UNL     1      26.554   1.365 -28.474  1.00  0.00     0.132 A 
ATOM     14  C   UNL     1      27.415  -0.381 -27.003  1.00  0.00    -0.039 A 
ATOM     15  C   UNL     1      25.512   1.659 -27.541  1.00  0.00     0.039 A 
ATOM     16  C   UNL     1      26.399  -0.098 -26.090  1.00  0.00     0.013 A 
ATOM     17  C   UNL     1      28.424  -1.457 -26.680  1.00  0.00     0.045 C 
ATOM     18  C   UNL     1      25.411   0.877 -26.349  1.00  0.00    -0.006 A 
ATOM     19  C   UNL     1      24.594   2.736 -27.738  1.00  0.00     0.072 A 
ATOM     20  C   UNL     1      24.349   1.113 -25.421  1.00  0.00     0.008 A 
ATOM     21  C   UNL     1      23.652   3.050 -26.737  1.00  0.00     0.169 A 
ATOM     22  C   UNL     1      23.560   2.271 -25.580  1.00  0.00     0.162 A 
BRANCH  13  23
ATOM     23  O   UNL     1      26.670   2.091 -29.664  1.00  0.00    -0.507 OA
ATOM     24  H   UNL     1      27.243   2.919 -29.771  1.00  0.00     0.293 HD
ENDBRANCH  13  23
BRANCH  19  25
ATOM     25  C   UNL     1      24.610   3.565 -28.960  1.00  0.00     0.264 C 
ATOM     26  O   UNL     1      23.801   3.340 -29.897  1.00  0.00    -0.298 OA
ENDBRANCH  19  25
BRANCH  20  27
ATOM     27  C   UNL     1      24.069   0.157 -24.246  1.00  0.00     0.017 C 
ATOM     28  C   UNL     1      23.865  -1.276 -24.746  1.00  0.00     0.012 C 
ATOM     29  C   UNL     1      25.127   0.213 -23.128  1.00  0.00     0.012 C 
ENDBRANCH  20  27
BRANCH  21  30
ATOM     30  O   UNL     1      22.763   4.123 -26.877  1.00  0.00    -0.504 OA
ATOM     31  H   UNL     1      22.106   4.412 -26.166  1.00  0.00     0.293 HD
ENDBRANCH  21  30
BRANCH  22  32
ATOM     32  O   UNL     1      22.670   2.653 -24.572  1.00  0.00    -0.504 OA
ATOM     33  H   UNL     1      22.971   3.032 -23.683  1.00  0.00     0.293 HD
ENDBRANCH  22  32
ENDBRANCH  11  12
BRANCH  10  34
ATOM     34  O   UNL     1      30.115   1.383 -27.839  1.00  0.00    -0.507 OA
ATOM     35  H   UNL     1      30.648   2.243 -27.837  1.00  0.00     0.293 HD
ENDBRANCH  10  34
BRANCH   9  36
ATOM     36  C   UNL     1      31.659  -2.231 -32.698  1.00  0.00     0.017 C 
ATOM     37  C   UNL     1      31.553  -1.822 -34.170  1.00  0.00     0.012 C 
ATOM     38  C   UNL     1      32.780  -3.266 -32.483  1.00  0.00     0.012 C 
ENDBRANCH   9  36
BRANCH   6  39
ATOM     39  C   UNL     1      32.337   2.287 -29.035  1.00  0.00     0.264 C 
ATOM     40  O   UNL     1      33.109   2.229 -28.041  1.00  0.00    -0.298 OA
ENDBRANCH   6  39
BRANCH   8  41
ATOM     41  O   UNL     1      33.923  -0.480 -32.765  1.00  0.00    -0.504 OA
ATOM     42  H   UNL     1      33.783  -0.349 -33.756  1.00  0.00     0.293 HD
ENDBRANCH   8  41
BRANCH   7  43
ATOM     43  O   UNL     1      34.352   1.506 -30.762  1.00  0.00    -0.504 OA
ATOM     44  H   UNL     1      34.822   1.765 -29.908  1.00  0.00     0.293 HD
ENDBRANCH   7  43
TORSDOF 11
ENDMDL
MODEL 5
REMARK VINA RESULT:    -6.520      0.366      9.145
REMARK INTER + INTRA:         -10.939
REMARK INTER:                  -9.884
REMARK INTRA:                  -1.054
REMARK UNBOUND:                -1.370
REMARK SMILES Cc1cc2c(C(C)C)c(O)c(O)c(C=O)c2c(O)c1-c1c(C)cc2c(C(C)C)c(O)c(O)c(C=O)c2c1O
REMARK SMILES IDX 1 1 2 2 3 3 4 4 16 5 13 6 11 7 9 8 5 9 17 10 19 11 20 12
REMARK SMILES IDX 37 13 21 14 36 15 23 16 22 17 24 18 33 19 25 20 31 21 29 22
REMARK SMILES IDX 38 23 34 25 35 26 26 27 27 28 28 29 32 30 30 32 18 34 6 36
REMARK SMILES IDX 7 37 8 38 14 39 15 40 10 41 12 43
REMARK H PARENT 38 24 32 31 30 33 18 35 10 42 12 44
REMARK Flexibility Score: inf
ROOT
ATOM      1  C   UNL     1      31.322  -7.112 -31.490  1.00  0.00     0.045 C 
ATOM      2  C   UNL     1      30.645  -8.166 -32.332  1.00  0.00    -0.039 A 
ATOM      3  C   UNL     1      29.612  -8.926 -31.781  1.00  0.00     0.013 A 
ATOM      4  C   UNL     1      28.941  -9.922 -32.524  1.00  0.00    -0.006 A 
ATOM      5  C   UNL     1      29.241 -10.054 -33.912  1.00  0.00     0.039 A 
ATOM      6  C   UNL     1      28.410 -10.883 -34.720  1.00  0.00     0.072 A 
ATOM      7  C   UNL     1      27.353 -11.608 -34.136  1.00  0.00     0.169 A 
ATOM      8  C   UNL     1      27.105 -11.519 -32.752  1.00  0.00     0.162 A 
ATOM      9  C   UNL     1      27.958 -10.760 -31.919  1.00  0.00     0.008 A 
ATOM     10  C   UNL     1      30.378  -9.372 -34.435  1.00  0.00     0.132 A 
ATOM     11  C   UNL     1      31.057  -8.413 -33.652  1.00  0.00     0.031 A 
ENDROOT
BRANCH  11  12
ATOM     12  C   UNL     1      32.202  -7.655 -34.225  1.00  0.00     0.031 A 
ATOM     13  C   UNL     1      33.518  -8.147 -34.091  1.00  0.00     0.132 A 
ATOM     14  C   UNL     1      31.970  -6.427 -34.864  1.00  0.00    -0.039 A 
ATOM     15  C   UNL     1      34.623  -7.414 -34.624  1.00  0.00     0.039 A 
ATOM     16  C   UNL     1      33.045  -5.709 -35.388  1.00  0.00     0.013 A 
ATOM     17  C   UNL     1      30.573  -5.868 -34.989  1.00  0.00     0.045 C 
ATOM     18  C   UNL     1      34.370  -6.194 -35.325  1.00  0.00    -0.006 A 
ATOM     19  C   UNL     1      35.976  -7.835 -34.444  1.00  0.00     0.072 A 
ATOM     20  C   UNL     1      35.449  -5.465 -35.915  1.00  0.00     0.008 A 
ATOM     21  C   UNL     1      37.034  -7.021 -34.898  1.00  0.00     0.169 A 
ATOM     22  C   UNL     1      36.770  -5.835 -35.589  1.00  0.00     0.162 A 
BRANCH  13  23
ATOM     23  O   UNL     1      33.724  -9.358 -33.422  1.00  0.00    -0.507 OA
ATOM     24  H   UNL     1      33.196 -10.204 -33.602  1.00  0.00     0.293 HD
ENDBRANCH  13  23
BRANCH  19  25
ATOM     25  C   UNL     1      36.318  -9.101 -33.764  1.00  0.00     0.264 C 
ATOM     26  O   UNL     1      37.098  -9.928 -34.305  1.00  0.00    -0.298 OA
ENDBRANCH  19  25
BRANCH  20  27
ATOM     27  C   UNL     1      35.204  -4.276 -36.864  1.00  0.00     0.017 C 
ATOM     28  C   UNL     1      34.407  -4.717 -38.095  1.00  0.00     0.012 C 
ATOM     29  C   UNL     1      34.552  -3.057 -36.184  1.00  0.00     0.012 C 
ENDBRANCH  20  27
BRANCH  21  30
ATOM     30  O   UNL     1      38.373  -7.382 -34.703  1.00  0.00    -0.504 OA
ATOM     31  H   UNL     1      39.059  -6.794 -34.250  1.00  0.00     0.293 HD
ENDBRANCH  21  30
BRANCH  22  32
ATOM     32  O   UNL     1      37.837  -5.011 -35.957  1.00  0.00    -0.504 OA
ATOM     33  H   UNL     1      38.789  -5.171 -35.655  1.00  0.00     0.293 HD
ENDBRANCH  22  32
ENDBRANCH  11  12
BRANCH  10  34
ATOM     34  O   UNL     1      30.858  -9.677 -35.714  1.00  0.00    -0.507 OA
ATOM     35  H   UNL     1      30.673  -9.115 -36.534  1.00  0.00     0.293 HD
ENDBRANCH  10  34
BRANCH   9  36
ATOM     36  C   UNL     1      27.797 -10.834 -30.390  1.00  0.00     0.017 C 
ATOM     37  C   UNL     1      26.552 -10.069 -29.930  1.00  0.00     0.012 C 
ATOM     38  C   UNL     1      27.811 -12.270 -29.830  1.00  0.00     0.012 C 
ENDBRANCH   9  36
BRANCH   6  39
ATOM     39  C   UNL     1      28.525 -10.904 -36.199  1.00  0.00     0.264 C 
ATOM     40  O   UNL     1      27.519 -10.714 -36.933  1.00  0.00    -0.298 OA
ENDBRANCH   6  39
BRANCH   8  41
ATOM     41  O   UNL     1      25.988 -12.140 -32.184  1.00  0.00    -0.504 OA
ATOM     42  H   UNL     1      25.035 -11.829 -32.296  1.00  0.00     0.293 HD
ENDBRANCH   8  41
BRANCH   7  43
ATOM     43  O   UNL     1      26.558 -12.409 -34.966  1.00  0.00    -0.504 OA
ATOM     44  H   UNL     1      26.176 -12.117 -35.854  1.00  0.00     0.293 HD
ENDBRANCH   7  43
TORSDOF 11
ENDMDL
MODEL 6
REMARK VINA RESULT:    -6.492      1.898      9.082
REMARK INTER + INTRA:         -10.898
REMARK INTER:                  -9.613
REMARK INTRA:                  -1.284
REMARK UNBOUND:                -1.370
REMARK SMILES Cc1cc2c(C(C)C)c(O)c(O)c(C=O)c2c(O)c1-c1c(C)cc2c(C(C)C)c(O)c(O)c(C=O)c2c1O
REMARK SMILES IDX 1 1 2 2 3 3 4 4 16 5 13 6 11 7 9 8 5 9 17 10 19 11 20 12
REMARK SMILES IDX 37 13 21 14 36 15 23 16 22 17 24 18 33 19 25 20 31 21 29 22
REMARK SMILES IDX 38 23 34 25 35 26 26 27 27 28 28 29 32 30 30 32 18 34 6 36
REMARK SMILES IDX 7 37 8 38 14 39 15 40 10 41 12 43
REMARK H PARENT 38 24 32 31 30 33 18 35 10 42 12 44
REMARK Flexibility Score: inf
ROOT
ATOM      1  C   UNL     1      30.790 -10.386 -35.878  1.00  0.00     0.045 C 
ATOM      2  C   UNL     1      30.433 -10.381 -34.410  1.00  0.00    -0.039 A 
ATOM      3  C   UNL     1      29.442 -11.246 -33.942  1.00  0.00     0.013 A 
ATOM      4  C   UNL     1      29.072 -11.287 -32.580  1.00  0.00    -0.006 A 
ATOM      5  C   UNL     1      29.827 -10.520 -31.645  1.00  0.00     0.039 A 
ATOM      6  C   UNL     1      29.621 -10.733 -30.252  1.00  0.00     0.072 A 
ATOM      7  C   UNL     1      28.637 -11.641 -29.815  1.00  0.00     0.169 A 
ATOM      8  C   UNL     1      27.852 -12.348 -30.747  1.00  0.00     0.162 A 
ATOM      9  C   UNL     1      27.990 -12.100 -32.131  1.00  0.00     0.008 A 
ATOM     10  C   UNL     1      30.744  -9.547 -32.141  1.00  0.00     0.132 A 
ATOM     11  C   UNL     1      31.062  -9.500 -33.516  1.00  0.00     0.031 A 
ENDROOT
BRANCH  11  12
ATOM     12  C   UNL     1      32.070  -8.529 -34.019  1.00  0.00     0.031 A 
ATOM     13  C   UNL     1      33.448  -8.814 -33.912  1.00  0.00     0.132 A 
ATOM     14  C   UNL     1      31.643  -7.308 -34.565  1.00  0.00    -0.039 A 
ATOM     15  C   UNL     1      34.421  -7.876 -34.377  1.00  0.00     0.039 A 
ATOM     16  C   UNL     1      32.588  -6.390 -35.022  1.00  0.00     0.013 A 
ATOM     17  C   UNL     1      30.174  -6.970 -34.659  1.00  0.00     0.045 C 
ATOM     18  C   UNL     1      33.974  -6.662 -34.986  1.00  0.00    -0.006 A 
ATOM     19  C   UNL     1      35.824  -8.090 -34.218  1.00  0.00     0.072 A 
ATOM     20  C   UNL     1      34.921  -5.727 -35.508  1.00  0.00     0.008 A 
ATOM     21  C   UNL     1      36.737  -7.085 -34.599  1.00  0.00     0.169 A 
ATOM     22  C   UNL     1      36.285  -5.907 -35.199  1.00  0.00     0.162 A 
BRANCH  13  23
ATOM     23  O   UNL     1      33.847 -10.025 -33.335  1.00  0.00    -0.507 OA
ATOM     24  H   UNL     1      33.234 -10.820 -33.203  1.00  0.00     0.293 HD
ENDBRANCH  13  23
BRANCH  19  25
ATOM     25  C   UNL     1      36.365  -9.333 -33.633  1.00  0.00     0.264 C 
ATOM     26  O   UNL     1      37.014 -10.145 -34.344  1.00  0.00    -0.298 OA
ENDBRANCH  19  25
BRANCH  20  27
ATOM     27  C   UNL     1      34.486  -4.523 -36.366  1.00  0.00     0.017 C 
ATOM     28  C   UNL     1      34.527  -3.229 -35.548  1.00  0.00     0.012 C 
ATOM     29  C   UNL     1      35.274  -4.377 -37.682  1.00  0.00     0.012 C 
ENDBRANCH  20  27
BRANCH  21  30
ATOM     30  O   UNL     1      38.117  -7.242 -34.420  1.00  0.00    -0.504 OA
ATOM     31  H   UNL     1      38.535  -7.807 -33.693  1.00  0.00     0.293 HD
ENDBRANCH  21  30
BRANCH  22  32
ATOM     32  O   UNL     1      37.206  -4.897 -35.495  1.00  0.00    -0.504 OA
ATOM     33  H   UNL     1      38.185  -4.951 -35.245  1.00  0.00     0.293 HD
ENDBRANCH  22  32
ENDBRANCH  11  12
BRANCH  10  34
ATOM     34  O   UNL     1      31.306  -8.600 -31.275  1.00  0.00    -0.507 OA
ATOM     35  H   UNL     1      31.452  -8.758 -30.287  1.00  0.00     0.293 HD
ENDBRANCH  10  34
BRANCH   9  36
ATOM     36  C   UNL     1      26.992 -12.727 -33.123  1.00  0.00     0.017 C 
ATOM     37  C   UNL     1      27.190 -14.243 -33.219  1.00  0.00     0.012 C 
ATOM     38  C   UNL     1      25.520 -12.372 -32.833  1.00  0.00     0.012 C 
ENDBRANCH   9  36
BRANCH   6  39
ATOM     39  C   UNL     1      30.510 -10.134 -29.226  1.00  0.00     0.264 C 
ATOM     40  O   UNL     1      30.112  -9.194 -28.488  1.00  0.00    -0.298 OA
ENDBRANCH   6  39
BRANCH   8  41
ATOM     41  O   UNL     1      26.957 -13.336 -30.326  1.00  0.00    -0.504 OA
ATOM     42  H   UNL     1      26.109 -13.591 -30.810  1.00  0.00     0.293 HD
ENDBRANCH   8  41
BRANCH   7  43
ATOM     43  O   UNL     1      28.467 -11.824 -28.436  1.00  0.00    -0.504 OA
ATOM     44  H   UNL     1      28.927 -12.537 -27.889  1.00  0.00     0.293 HD
ENDBRANCH   7  43
TORSDOF 11
ENDMDL
MODEL 7
REMARK VINA RESULT:    -6.437     10.191     14.119
REMARK INTER + INTRA:         -10.817
REMARK INTER:                  -9.623
REMARK INTRA:                  -1.195
REMARK UNBOUND:                -1.370
REMARK SMILES Cc1cc2c(C(C)C)c(O)c(O)c(C=O)c2c(O)c1-c1c(C)cc2c(C(C)C)c(O)c(O)c(C=O)c2c1O
REMARK SMILES IDX 1 1 2 2 3 3 4 4 16 5 13 6 11 7 9 8 5 9 17 10 19 11 20 12
REMARK SMILES IDX 37 13 21 14 36 15 23 16 22 17 24 18 33 19 25 20 31 21 29 22
REMARK SMILES IDX 38 23 34 25 35 26 26 27 27 28 28 29 32 30 30 32 18 34 6 36
REMARK SMILES IDX 7 37 8 38 14 39 15 40 10 41 12 43
REMARK H PARENT 38 24 32 31 30 33 18 35 10 42 12 44
REMARK Flexibility Score: inf
ROOT
ATOM      1  C   UNL     1      28.704  -1.078 -26.189  1.00  0.00     0.045 C 
ATOM      2  C   UNL     1      27.592  -0.163 -26.646  1.00  0.00    -0.039 A 
ATOM      3  C   UNL     1      26.548   0.138 -25.770  1.00  0.00     0.013 A 
ATOM      4  C   UNL     1      25.486   0.991 -26.143  1.00  0.00    -0.006 A 
ATOM      5  C   UNL     1      25.560   1.663 -27.398  1.00  0.00     0.039 A 
ATOM      6  C   UNL     1      24.624   2.699 -27.681  1.00  0.00     0.072 A 
ATOM      7  C   UNL     1      23.605   3.001 -26.758  1.00  0.00     0.169 A 
ATOM      8  C   UNL     1      23.501   2.288 -25.547  1.00  0.00     0.162 A 
ATOM      9  C   UNL     1      24.374   1.209 -25.276  1.00  0.00     0.008 A 
ATOM     10  C   UNL     1      26.554   1.255 -28.335  1.00  0.00     0.132 A 
ATOM     11  C   UNL     1      27.579   0.366 -27.947  1.00  0.00     0.031 A 
ENDROOT
BRANCH  11  12
ATOM     12  C   UNL     1      28.652  -0.005 -28.908  1.00  0.00     0.031 A 
ATOM     13  C   UNL     1      29.891   0.671 -28.885  1.00  0.00     0.132 A 
ATOM     14  C   UNL     1      28.411  -1.004 -29.864  1.00  0.00    -0.039 A 
ATOM     15  C   UNL     1      30.919   0.331 -29.818  1.00  0.00     0.039 A 
ATOM     16  C   UNL     1      29.412  -1.341 -30.775  1.00  0.00     0.013 A 
ATOM     17  C   UNL     1      27.082  -1.717 -29.925  1.00  0.00     0.045 C 
ATOM     18  C   UNL     1      30.685  -0.729 -30.749  1.00  0.00    -0.006 A 
ATOM     19  C   UNL     1      32.157   1.041 -29.882  1.00  0.00     0.072 A 
ATOM     20  C   UNL     1      31.712  -1.127 -31.660  1.00  0.00     0.008 A 
ATOM     21  C   UNL     1      33.094   0.734 -30.890  1.00  0.00     0.169 A 
ATOM     22  C   UNL     1      32.854  -0.309 -31.788  1.00  0.00     0.162 A 
BRANCH  13  23
ATOM     23  O   UNL     1      30.094   1.684 -27.942  1.00  0.00    -0.507 OA
ATOM     24  H   UNL     1      29.372   2.323 -27.630  1.00  0.00     0.293 HD
ENDBRANCH  13  23
BRANCH  19  25
ATOM     25  C   UNL     1      32.489   2.122 -28.932  1.00  0.00     0.264 C 
ATOM     26  O   UNL     1      33.333   1.933 -28.017  1.00  0.00    -0.298 OA
ENDBRANCH  19  25
BRANCH  20  27
ATOM     27  C   UNL     1      31.587  -2.400 -32.520  1.00  0.00     0.017 C 
ATOM     28  C   UNL     1      31.332  -2.043 -33.987  1.00  0.00     0.012 C 
ATOM     29  C   UNL     1      32.777  -3.368 -32.379  1.00  0.00     0.012 C 
ENDBRANCH  20  27
BRANCH  21  30
ATOM     30  O   UNL     1      34.300   1.436 -31.008  1.00  0.00    -0.504 OA
ATOM     31  H   UNL     1      34.943   1.592 -30.244  1.00  0.00     0.293 HD
ENDBRANCH  21  30
BRANCH  22  32
ATOM     32  O   UNL     1      33.764  -0.539 -32.823  1.00  0.00    -0.504 OA
ATOM     33  H   UNL     1      33.529  -0.425 -33.801  1.00  0.00     0.293 HD
ENDBRANCH  22  32
ENDBRANCH  11  12
BRANCH  10  34
ATOM     34  O   UNL     1      26.498   1.699 -29.662  1.00  0.00    -0.507 OA
ATOM     35  H   UNL     1      27.223   1.525 -30.345  1.00  0.00     0.293 HD
ENDBRANCH  10  34
BRANCH   9  36
ATOM     36  C   UNL     1      24.123   0.313 -24.050  1.00  0.00     0.017 C 
ATOM     37  C   UNL     1      23.997  -1.158 -24.460  1.00  0.00     0.012 C 
ATOM     38  C   UNL     1      25.160   0.493 -22.924  1.00  0.00     0.012 C 
ENDBRANCH   9  36
BRANCH   6  39
ATOM     39  C   UNL     1      24.766   3.584 -28.864  1.00  0.00     0.264 C 
ATOM     40  O   UNL     1      24.078   3.397 -29.902  1.00  0.00    -0.298 OA
ENDBRANCH   6  39
BRANCH   8  41
ATOM     41  O   UNL     1      22.568   2.658 -24.574  1.00  0.00    -0.504 OA
ATOM     42  H   UNL     1      22.696   2.547 -23.580  1.00  0.00     0.293 HD
ENDBRANCH   8  41
BRANCH   7  43
ATOM     43  O   UNL     1      22.706   4.029 -27.073  1.00  0.00    -0.504 OA
ATOM     44  H   UNL     1      22.757   4.970 -26.710  1.00  0.00     0.293 HD
ENDBRANCH   7  43
TORSDOF 11
ENDMDL
MODEL 8
REMARK VINA RESULT:    -6.423      2.981      4.347
REMARK INTER + INTRA:         -10.797
REMARK INTER:                  -9.935
REMARK INTRA:                  -0.863
REMARK UNBOUND:                -1.370
REMARK SMILES Cc1cc2c(C(C)C)c(O)c(O)c(C=O)c2c(O)c1-c1c(C)cc2c(C(C)C)c(O)c(O)c(C=O)c2c1O
REMARK SMILES IDX 1 1 2 2 3 3 4 4 16 5 13 6 11 7 9 8 5 9 17 10 19 11 20 12
REMARK SMILES IDX 37 13 21 14 36 15 23 16 22 17 24 18 33 19 25 20 31 21 29 22
REMARK SMILES IDX 38 23 34 25 35 26 26 27 27 28 28 29 32 30 30 32 18 34 6 36
REMARK SMILES IDX 7 37 8 38 14 39 15 40 10 41 12 43
REMARK H PARENT 38 24 32 31 30 33 18 35 10 42 12 44
REMARK Flexibility Score: inf
ROOT
ATOM      1  C   UNL     1      27.298  -5.837 -33.939  1.00  0.00     0.045 C 
ATOM      2  C   UNL     1      28.523  -5.548 -34.773  1.00  0.00    -0.039 A 
ATOM      3  C   UNL     1      28.609  -4.342 -35.470  1.00  0.00     0.013 A 
ATOM      4  C   UNL     1      29.733  -4.017 -36.261  1.00  0.00    -0.006 A 
ATOM      5  C   UNL     1      30.861  -4.890 -36.233  1.00  0.00     0.039 A 
ATOM      6  C   UNL     1      32.080  -4.459 -36.832  1.00  0.00     0.072 A 
ATOM      7  C   UNL     1      32.142  -3.219 -37.495  1.00  0.00     0.169 A 
ATOM      8  C   UNL     1      31.004  -2.392 -37.572  1.00  0.00     0.162 A 
ATOM      9  C   UNL     1      29.766  -2.828 -37.048  1.00  0.00     0.008 A 
ATOM     10  C   UNL     1      30.718  -6.173 -35.629  1.00  0.00     0.132 A 
ATOM     11  C   UNL     1      29.563  -6.486 -34.880  1.00  0.00     0.031 A 
ENDROOT
BRANCH  11  12
ATOM     12  C   UNL     1      29.447  -7.801 -34.196  1.00  0.00     0.031 A 
ATOM     13  C   UNL     1      28.928  -8.918 -34.886  1.00  0.00     0.132 A 
ATOM     14  C   UNL     1      29.822  -7.917 -32.849  1.00  0.00    -0.039 A 
ATOM     15  C   UNL     1      28.798 -10.180 -34.228  1.00  0.00     0.039 A 
ATOM     16  C   UNL     1      29.699  -9.147 -32.203  1.00  0.00     0.013 A 
ATOM     17  C   UNL     1      30.350  -6.727 -32.084  1.00  0.00     0.045 C 
ATOM     18  C   UNL     1      29.238 -10.301 -32.873  1.00  0.00    -0.006 A 
ATOM     19  C   UNL     1      28.206 -11.314 -34.863  1.00  0.00     0.072 A 
ATOM     20  C   UNL     1      29.170 -11.563 -32.204  1.00  0.00     0.008 A 
ATOM     21  C   UNL     1      28.006 -12.505 -34.134  1.00  0.00     0.169 A 
ATOM     22  C   UNL     1      28.448 -12.611 -32.813  1.00  0.00     0.162 A 
BRANCH  13  23
ATOM     23  O   UNL     1      28.533  -8.768 -36.220  1.00  0.00    -0.507 OA
ATOM     24  H   UNL     1      27.577  -8.612 -36.516  1.00  0.00     0.293 HD
ENDBRANCH  13  23
BRANCH  19  25
ATOM     25  C   UNL     1      27.761 -11.280 -36.271  1.00  0.00     0.264 C 
ATOM     26  O   UNL     1      26.622 -11.706 -36.593  1.00  0.00    -0.298 OA
ENDBRANCH  19  25
BRANCH  20  27
ATOM     27  C   UNL     1      29.834 -11.793 -30.832  1.00  0.00     0.017 C 
ATOM     28  C   UNL     1      31.312 -11.397 -30.871  1.00  0.00     0.012 C 
ATOM     29  C   UNL     1      29.102 -11.110 -29.661  1.00  0.00     0.012 C 
ENDBRANCH  20  27
BRANCH  21  30
ATOM     30  O   UNL     1      27.392 -13.623 -34.712  1.00  0.00    -0.504 OA
ATOM     31  H   UNL     1      27.489 -14.568 -34.363  1.00  0.00     0.293 HD
ENDBRANCH  21  30
BRANCH  22  32
ATOM     32  O   UNL     1      28.166 -13.775 -32.092  1.00  0.00    -0.504 OA
ATOM     33  H   UNL     1      28.193 -13.819 -31.082  1.00  0.00     0.293 HD
ENDBRANCH  22  32
ENDBRANCH  11  12
BRANCH  10  34
ATOM     34  O   UNL     1      31.704  -7.152 -35.809  1.00  0.00    -0.507 OA
ATOM     35  H   UNL     1      32.697  -6.961 -35.788  1.00  0.00     0.293 HD
ENDBRANCH  10  34
BRANCH   9  36
ATOM     36  C   UNL     1      28.491  -2.008 -37.316  1.00  0.00     0.017 C 
ATOM     37  C   UNL     1      27.300  -2.924 -37.616  1.00  0.00     0.012 C 
ATOM     38  C   UNL     1      28.154  -0.998 -36.202  1.00  0.00     0.012 C 
ENDBRANCH   9  36
BRANCH   6  39
ATOM     39  C   UNL     1      33.347  -5.212 -36.659  1.00  0.00     0.264 C 
ATOM     40  O   UNL     1      34.158  -4.918 -35.741  1.00  0.00    -0.298 OA
ENDBRANCH   6  39
BRANCH   8  41
ATOM     41  O   UNL     1      31.086  -1.110 -38.125  1.00  0.00    -0.504 OA
ATOM     42  H   UNL     1      30.941  -0.252 -37.615  1.00  0.00     0.293 HD
ENDBRANCH   8  41
BRANCH   7  43
ATOM     43  O   UNL     1      33.360  -2.832 -38.068  1.00  0.00    -0.504 OA
ATOM     44  H   UNL     1      33.521  -1.954 -38.540  1.00  0.00     0.293 HD
ENDBRANCH   7  43
TORSDOF 11
ENDMDL
MODEL 9
REMARK VINA RESULT:    -6.370      6.185     10.248
REMARK INTER + INTRA:         -10.720
REMARK INTER:                  -9.636
REMARK INTRA:                  -1.083
REMARK UNBOUND:                -1.370
REMARK SMILES Cc1cc2c(C(C)C)c(O)c(O)c(C=O)c2c(O)c1-c1c(C)cc2c(C(C)C)c(O)c(O)c(C=O)c2c1O
REMARK SMILES IDX 1 1 2 2 3 3 4 4 16 5 13 6 11 7 9 8 5 9 17 10 19 11 20 12
REMARK SMILES IDX 37 13 21 14 36 15 23 16 22 17 24 18 33 19 25 20 31 21 29 22
REMARK SMILES IDX 38 23 34 25 35 26 26 27 27 28 28 29 32 30 30 32 18 34 6 36
REMARK SMILES IDX 7 37 8 38 14 39 15 40 10 41 12 43
REMARK H PARENT 38 24 32 31 30 33 18 35 10 42 12 44
REMARK Flexibility Score: inf
ROOT
ATOM      1  C   UNL     1      32.566  -4.379 -30.077  1.00  0.00     0.045 C 
ATOM      2  C   UNL     1      33.037  -2.982 -29.748  1.00  0.00    -0.039 A 
ATOM      3  C   UNL     1      32.880  -2.493 -28.450  1.00  0.00     0.013 A 
ATOM      4  C   UNL     1      33.306  -1.197 -28.086  1.00  0.00    -0.006 A 
ATOM      5  C   UNL     1      34.035  -0.426 -29.039  1.00  0.00     0.039 A 
ATOM      6  C   UNL     1      34.671   0.775 -28.612  1.00  0.00     0.072 A 
ATOM      7  C   UNL     1      34.522   1.219 -27.285  1.00  0.00     0.169 A 
ATOM      8  C   UNL     1      33.748   0.483 -26.366  1.00  0.00     0.162 A 
ATOM      9  C   UNL     1      33.049  -0.672 -26.785  1.00  0.00     0.008 A 
ATOM     10  C   UNL     1      34.077  -0.873 -30.392  1.00  0.00     0.132 A 
ATOM     11  C   UNL     1      33.603  -2.158 -30.735  1.00  0.00     0.031 A 
ENDROOT
BRANCH  11  12
ATOM     12  C   UNL     1      33.710  -2.647 -32.135  1.00  0.00     0.031 A 
ATOM     13  C   UNL     1      34.853  -3.362 -32.553  1.00  0.00     0.132 A 
ATOM     14  C   UNL     1      32.686  -2.359 -33.050  1.00  0.00    -0.039 A 
ATOM     15  C   UNL     1      34.970  -3.818 -33.902  1.00  0.00     0.039 A 
ATOM     16  C   UNL     1      32.794  -2.804 -34.368  1.00  0.00     0.013 A 
ATOM     17  C   UNL     1      31.470  -1.568 -32.631  1.00  0.00     0.045 C 
ATOM     18  C   UNL     1      33.894  -3.571 -34.811  1.00  0.00    -0.006 A 
ATOM     19  C   UNL     1      36.141  -4.476 -34.387  1.00  0.00     0.072 A 
ATOM     20  C   UNL     1      33.957  -4.060 -36.153  1.00  0.00     0.008 A 
ATOM     21  C   UNL     1      36.247  -4.811 -35.753  1.00  0.00     0.169 A 
ATOM     22  C   UNL     1      35.184  -4.570 -36.627  1.00  0.00     0.162 A 
BRANCH  13  23
ATOM     23  O   UNL     1      35.874  -3.609 -31.629  1.00  0.00    -0.507 OA
ATOM     24  H   UNL     1      36.147  -2.963 -30.898  1.00  0.00     0.293 HD
ENDBRANCH  13  23
BRANCH  19  25
ATOM     25  C   UNL     1      37.279  -4.801 -33.503  1.00  0.00     0.264 C 
ATOM     26  O   UNL     1      38.453  -4.480 -33.827  1.00  0.00    -0.298 OA
ENDBRANCH  19  25
BRANCH  20  27
ATOM     27  C   UNL     1      32.737  -4.014 -37.093  1.00  0.00     0.017 C 
ATOM     28  C   UNL     1      32.887  -2.892 -38.124  1.00  0.00     0.012 C 
ATOM     29  C   UNL     1      32.422  -5.360 -37.773  1.00  0.00     0.012 C 
ENDBRANCH  20  27
BRANCH  21  30
ATOM     30  O   UNL     1      37.397  -5.420 -36.271  1.00  0.00    -0.504 OA
ATOM     31  H   UNL     1      37.637  -6.392 -36.132  1.00  0.00     0.293 HD
ENDBRANCH  21  30
BRANCH  22  32
ATOM     32  O   UNL     1      35.347  -4.841 -37.988  1.00  0.00    -0.504 OA
ATOM     33  H   UNL     1      35.566  -5.762 -38.346  1.00  0.00     0.293 HD
ENDBRANCH  22  32
ENDBRANCH  11  12
BRANCH  10  34
ATOM     34  O   UNL     1      34.550  -0.026 -31.401  1.00  0.00    -0.507 OA
ATOM     35  H   UNL     1      34.945   0.890 -31.229  1.00  0.00     0.293 HD
ENDBRANCH  10  34
BRANCH   9  36
ATOM     36  C   UNL     1      32.050  -1.349 -25.829  1.00  0.00     0.017 C 
ATOM     37  C   UNL     1      32.777  -2.029 -24.664  1.00  0.00     0.012 C 
ATOM     38  C   UNL     1      30.938  -0.411 -25.323  1.00  0.00     0.012 C 
ENDBRANCH   9  36
BRANCH   6  39
ATOM     39  C   UNL     1      35.617   1.514 -29.484  1.00  0.00     0.264 C 
ATOM     40  O   UNL     1      36.722   1.927 -29.043  1.00  0.00    -0.298 OA
ENDBRANCH   6  39
BRANCH   8  41
ATOM     41  O   UNL     1      33.691   0.853 -25.019  1.00  0.00    -0.504 OA
ATOM     42  H   UNL     1      34.465   1.221 -24.488  1.00  0.00     0.293 HD
ENDBRANCH   8  41
BRANCH   7  43
ATOM     43  O   UNL     1      35.167   2.404 -26.904  1.00  0.00    -0.504 OA
ATOM     44  H   UNL     1      36.108   2.657 -27.168  1.00  0.00     0.293 HD
ENDBRANCH   7  43
TORSDOF 11
ENDMDL
