MODEL 1
REMARK VINA RESULT:    -4.315      0.000      0.000
REMARK INTER + INTRA:          -4.441
REMARK INTER:                  -4.441
REMARK INTRA:                   0.000
REMARK UNBOUND:                 0.000
REMARK SMILES CC1(C)[C@H]2CC[C@](C)(C2)[C@H]1O
REMARK SMILES IDX 1 1 2 2 4 3 5 4 6 5 7 6 9 7 10 8 8 9 3 10 11 11
REMARK H PARENT 11 12
REMARK Flexibility Score: inf
ROOT
ATOM      1  C   UNL     1     103.917 105.265 104.331  1.00  0.00     0.014 C 
ATOM      2  C   UNL     1     104.446 105.900 103.019  1.00  0.00    -0.006 C 
ATOM      3  C   UNL     1     104.517 107.466 103.074  1.00  0.00    -0.002 C 
ATOM      4  C   UNL     1     105.229 107.947 104.356  1.00  0.00     0.005 C 
ATOM      5  C   UNL     1     106.679 107.491 104.133  1.00  0.00     0.010 C 
ATOM      6  C   UNL     1     106.636 106.909 102.699  1.00  0.00    -0.006 C 
ATOM      7  C   UNL     1     105.590 107.786 102.045  1.00  0.00     0.013 C 
ATOM      8  C   UNL     1     105.932 105.528 102.695  1.00  0.00     0.126 C 
ATOM      9  C   UNL     1     107.992 106.919 101.985  1.00  0.00     0.014 C 
ATOM     10  C   UNL     1     103.503 105.451 101.876  1.00  0.00     0.014 C 
ENDROOT
BRANCH   8  11
ATOM     11  O   UNL     1     106.513 104.656 103.632  1.00  0.00    -0.392 OA
ATOM     12  H   UNL     1     106.335 105.047 104.527  1.00  0.00     0.211 HD
ENDBRANCH   8  11
TORSDOF 1
ENDMDL
MODEL 2
REMARK VINA RESULT:    -4.311      1.431      2.585
REMARK INTER + INTRA:          -4.437
REMARK INTER:                  -4.437
REMARK INTRA:                   0.000
REMARK UNBOUND:                 0.000
REMARK SMILES CC1(C)[C@H]2CC[C@](C)(C2)[C@H]1O
REMARK SMILES IDX 1 1 2 2 4 3 5 4 6 5 7 6 9 7 10 8 8 9 3 10 11 11
REMARK H PARENT 11 12
REMARK Flexibility Score: inf
ROOT
ATOM      1  C   UNL     1     105.246 108.075 104.329  1.00  0.00     0.014 C 
ATOM      2  C   UNL     1     105.898 107.549 103.024  1.00  0.00    -0.006 C 
ATOM      3  C   UNL     1     107.464 107.491 103.094  1.00  0.00    -0.002 C 
ATOM      4  C   UNL     1     107.938 106.784 104.383  1.00  0.00     0.005 C 
ATOM      5  C   UNL     1     107.496 105.330 104.156  1.00  0.00     0.010 C 
ATOM      6  C   UNL     1     106.928 105.367 102.717  1.00  0.00    -0.006 C 
ATOM      7  C   UNL     1     107.803 106.419 102.071  1.00  0.00     0.013 C 
ATOM      8  C   UNL     1     105.542 106.061 102.698  1.00  0.00     0.126 C 
ATOM      9  C   UNL     1     106.955 104.010 102.005  1.00  0.00     0.014 C 
ATOM     10  C   UNL     1     105.453 108.488 101.875  1.00  0.00     0.014 C 
ENDROOT
BRANCH   8  11
ATOM     11  O   UNL     1     104.665 105.473 103.627  1.00  0.00    -0.392 OA
ATOM     12  H   UNL     1     104.674 104.497 103.443  1.00  0.00     0.211 HD
ENDBRANCH   8  11
TORSDOF 1
ENDMDL
MODEL 3
REMARK VINA RESULT:    -4.309      1.662      2.891
REMARK INTER + INTRA:          -4.435
REMARK INTER:                  -4.435
REMARK INTRA:                   0.000
REMARK UNBOUND:                 0.000
REMARK SMILES CC1(C)[C@H]2CC[C@](C)(C2)[C@H]1O
REMARK SMILES IDX 1 1 2 2 4 3 5 4 6 5 7 6 9 7 10 8 8 9 3 10 11 11
REMARK H PARENT 11 12
REMARK Flexibility Score: inf
ROOT
ATOM      1  C   UNL     1     103.987 104.876 102.107  1.00  0.00     0.014 C 
ATOM      2  C   UNL     1     104.904 105.196 103.315  1.00  0.00    -0.006 C 
ATOM      3  C   UNL     1     106.062 104.156 103.507  1.00  0.00    -0.002 C 
ATOM      4  C   UNL     1     106.808 103.901 102.180  1.00  0.00     0.005 C 
ATOM      5  C   UNL     1     107.516 105.240 101.925  1.00  0.00     0.010 C 
ATOM      6  C   UNL     1     107.178 106.053 103.198  1.00  0.00    -0.006 C 
ATOM      7  C   UNL     1     107.116 104.964 104.247  1.00  0.00     0.013 C 
ATOM      8  C   UNL     1     105.704 106.533 103.160  1.00  0.00     0.126 C 
ATOM      9  C   UNL     1     108.187 107.163 103.511  1.00  0.00     0.014 C 
ATOM     10  C   UNL     1     104.009 105.233 104.578  1.00  0.00     0.014 C 
ENDROOT
BRANCH   8  11
ATOM     11  O   UNL     1     105.424 107.224 101.968  1.00  0.00    -0.392 OA
ATOM     12  H   UNL     1     105.020 106.562 101.348  1.00  0.00     0.211 HD
ENDBRANCH   8  11
TORSDOF 1
ENDMDL
MODEL 4
REMARK VINA RESULT:    -4.305      1.395      2.597
REMARK INTER + INTRA:          -4.431
REMARK INTER:                  -4.431
REMARK INTRA:                   0.000
REMARK UNBOUND:                 0.000
REMARK SMILES CC1(C)[C@H]2CC[C@](C)(C2)[C@H]1O
REMARK SMILES IDX 1 1 2 2 4 3 5 4 6 5 7 6 9 7 10 8 8 9 3 10 11 11
REMARK H PARENT 11 12
REMARK Flexibility Score: inf
ROOT
ATOM      1  C   UNL     1     106.744 103.961 104.328  1.00  0.00     0.014 C 
ATOM      2  C   UNL     1     105.939 104.603 103.168  1.00  0.00    -0.006 C 
ATOM      3  C   UNL     1     104.394 104.645 103.435  1.00  0.00    -0.002 C 
ATOM      4  C   UNL     1     104.086 105.224 104.833  1.00  0.00     0.005 C 
ATOM      5  C   UNL     1     104.504 106.696 104.691  1.00  0.00     0.010 C 
ATOM      6  C   UNL     1     104.891 106.798 103.196  1.00  0.00    -0.006 C 
ATOM      7  C   UNL     1     103.938 105.805 102.566  1.00  0.00     0.013 C 
ATOM      8  C   UNL     1     106.261 106.117 102.942  1.00  0.00     0.126 C 
ATOM      9  C   UNL     1     104.784 108.215 102.623  1.00  0.00     0.014 C 
ATOM     10  C   UNL     1     106.235 103.779 101.891  1.00  0.00     0.014 C 
ENDROOT
BRANCH   8  11
ATOM     11  O   UNL     1     107.248 106.621 103.807  1.00  0.00    -0.392 OA
ATOM     12  H   UNL     1     106.887 106.531 104.728  1.00  0.00     0.211 HD
ENDBRANCH   8  11
TORSDOF 1
ENDMDL
MODEL 5
REMARK VINA RESULT:    -4.303      1.524      3.105
REMARK INTER + INTRA:          -4.429
REMARK INTER:                  -4.429
REMARK INTRA:                   0.000
REMARK UNBOUND:                 0.000
REMARK SMILES CC1(C)[C@H]2CC[C@](C)(C2)[C@H]1O
REMARK SMILES IDX 1 1 2 2 4 3 5 4 6 5 7 6 9 7 10 8 8 9 3 10 11 11
REMARK H PARENT 11 12
REMARK Flexibility Score: inf
ROOT
ATOM      1  C   UNL     1     107.500 103.982 102.417  1.00  0.00     0.014 C 
ATOM      2  C   UNL     1     106.955 104.942 103.506  1.00  0.00    -0.006 C 
ATOM      3  C   UNL     1     107.874 106.190 103.747  1.00  0.00    -0.002 C 
ATOM      4  C   UNL     1     108.249 106.872 102.414  1.00  0.00     0.005 C 
ATOM      5  C   UNL     1     106.908 107.453 101.939  1.00  0.00     0.010 C 
ATOM      6  C   UNL     1     105.959 107.128 103.118  1.00  0.00    -0.006 C 
ATOM      7  C   UNL     1     106.900 107.218 104.300  1.00  0.00     0.013 C 
ATOM      8  C   UNL     1     105.597 105.620 103.123  1.00  0.00     0.126 C 
ATOM      9  C   UNL     1     104.747 108.060 103.214  1.00  0.00     0.014 C 
ATOM     10  C   UNL     1     106.815 104.125 104.813  1.00  0.00     0.014 C 
ENDROOT
BRANCH   8  11
ATOM     11  O   UNL     1     105.093 105.213 101.875  1.00  0.00    -0.392 OA
ATOM     12  H   UNL     1     105.762 104.585 101.494  1.00  0.00     0.211 HD
ENDBRANCH   8  11
TORSDOF 1
ENDMDL
MODEL 6
REMARK VINA RESULT:    -4.287      1.302      3.079
REMARK INTER + INTRA:          -4.412
REMARK INTER:                  -4.412
REMARK INTRA:                   0.000
REMARK UNBOUND:                 0.000
REMARK SMILES CC1(C)[C@H]2CC[C@](C)(C2)[C@H]1O
REMARK SMILES IDX 1 1 2 2 4 3 5 4 6 5 7 6 9 7 10 8 8 9 3 10 11 11
REMARK H PARENT 11 12
REMARK Flexibility Score: inf
ROOT
ATOM      1  C   UNL     1     104.809 107.989 102.130  1.00  0.00     0.014 C 
ATOM      2  C   UNL     1     105.126 107.094 103.356  1.00  0.00    -0.006 C 
ATOM      3  C   UNL     1     104.097 105.927 103.554  1.00  0.00    -0.002 C 
ATOM      4  C   UNL     1     103.867 105.158 102.235  1.00  0.00     0.005 C 
ATOM      5  C   UNL     1     105.217 104.461 102.007  1.00  0.00     0.010 C 
ATOM      6  C   UNL     1     106.011 104.829 103.284  1.00  0.00    -0.006 C 
ATOM      7  C   UNL     1     104.908 104.894 104.319  1.00  0.00     0.013 C 
ATOM      8  C   UNL     1     106.474 106.307 103.229  1.00  0.00     0.126 C 
ATOM      9  C   UNL     1     107.129 103.838 103.626  1.00  0.00     0.014 C 
ATOM     10  C   UNL     1     105.137 108.009 104.605  1.00  0.00     0.014 C 
ENDROOT
BRANCH   8  11
ATOM     11  O   UNL     1     107.176 106.578 102.041  1.00  0.00    -0.392 OA
ATOM     12  H   UNL     1     106.744 107.374 101.635  1.00  0.00     0.211 HD
ENDBRANCH   8  11
TORSDOF 1
ENDMDL
MODEL 7
REMARK VINA RESULT:    -4.275      1.582      3.646
REMARK INTER + INTRA:          -4.400
REMARK INTER:                  -4.400
REMARK INTRA:                   0.000
REMARK UNBOUND:                 0.000
REMARK SMILES CC1(C)[C@H]2CC[C@](C)(C2)[C@H]1O
REMARK SMILES IDX 1 1 2 2 4 3 5 4 6 5 7 6 9 7 10 8 8 9 3 10 11 11
REMARK H PARENT 11 12
REMARK Flexibility Score: inf
ROOT
ATOM      1  C   UNL     1     108.055 106.754 104.337  1.00  0.00     0.014 C 
ATOM      2  C   UNL     1     107.537 106.199 102.985  1.00  0.00    -0.006 C 
ATOM      3  C   UNL     1     107.498 104.632 102.932  1.00  0.00    -0.002 C 
ATOM      4  C   UNL     1     106.797 104.050 104.179  1.00  0.00     0.005 C 
ATOM      5  C   UNL     1     105.338 104.491 103.986  1.00  0.00     0.010 C 
ATOM      6  C   UNL     1     105.367 105.170 102.596  1.00  0.00    -0.006 C 
ATOM      7  C   UNL     1     106.430 104.361 101.884  1.00  0.00     0.013 C 
ATOM      8  C   UNL     1     106.044 106.562 102.686  1.00  0.00     0.126 C 
ATOM      9  C   UNL     1     104.011 105.182 101.882  1.00  0.00     0.014 C 
ATOM     10  C   UNL     1     108.470 106.744 101.875  1.00  0.00     0.014 C 
ENDROOT
BRANCH   8  11
ATOM     11  O   UNL     1     105.446 107.356 103.680  1.00  0.00    -0.392 OA
ATOM     12  H   UNL     1     106.022 108.159 103.782  1.00  0.00     0.211 HD
ENDBRANCH   8  11
TORSDOF 1
ENDMDL
MODEL 8
REMARK VINA RESULT:    -4.272      1.141      3.260
REMARK INTER + INTRA:          -4.397
REMARK INTER:                  -4.397
REMARK INTRA:                   0.000
REMARK UNBOUND:                 0.000
REMARK SMILES CC1(C)[C@H]2CC[C@](C)(C2)[C@H]1O
REMARK SMILES IDX 1 1 2 2 4 3 5 4 6 5 7 6 9 7 10 8 8 9 3 10 11 11
REMARK H PARENT 11 12
REMARK Flexibility Score: inf
ROOT
ATOM      1  C   UNL     1     108.145 107.522 102.583  1.00  0.00     0.014 C 
ATOM      2  C   UNL     1     107.171 106.919 103.628  1.00  0.00    -0.006 C 
ATOM      3  C   UNL     1     105.934 107.837 103.924  1.00  0.00    -0.002 C 
ATOM      4  C   UNL     1     105.266 108.311 102.615  1.00  0.00     0.005 C 
ATOM      5  C   UNL     1     104.670 107.013 102.049  1.00  0.00     0.010 C 
ATOM      6  C   UNL     1     104.974 105.983 103.163  1.00  0.00    -0.006 C 
ATOM      7  C   UNL     1     104.890 106.843 104.405  1.00  0.00     0.013 C 
ATOM      8  C   UNL     1     106.476 105.599 103.152  1.00  0.00     0.126 C 
ATOM      9  C   UNL     1     104.024 104.780 103.172  1.00  0.00     0.014 C 
ATOM     10  C   UNL     1     107.978 106.680 104.928  1.00  0.00     0.014 C 
ENDROOT
BRANCH   8  11
ATOM     11  O   UNL     1     106.884 105.174 101.875  1.00  0.00    -0.392 OA
ATOM     12  H   UNL     1     107.061 105.998 101.349  1.00  0.00     0.211 HD
ENDBRANCH   8  11
TORSDOF 1
ENDMDL
MODEL 9
REMARK VINA RESULT:    -4.076      1.701      2.947
REMARK INTER + INTRA:          -4.195
REMARK INTER:                  -4.195
REMARK INTRA:                   0.000
REMARK UNBOUND:                 0.000
REMARK SMILES CC1(C)[C@H]2CC[C@](C)(C2)[C@H]1O
REMARK SMILES IDX 1 1 2 2 4 3 5 4 6 5 7 6 9 7 10 8 8 9 3 10 11 11
REMARK H PARENT 11 12
REMARK Flexibility Score: inf
ROOT
ATOM      1  C   UNL     1     105.559 108.360 101.935  1.00  0.00     0.014 C 
ATOM      2  C   UNL     1     105.753 106.925 102.490  1.00  0.00    -0.006 C 
ATOM      3  C   UNL     1     107.090 106.253 102.017  1.00  0.00    -0.002 C 
ATOM      4  C   UNL     1     108.293 107.196 102.230  1.00  0.00     0.005 C 
ATOM      5  C   UNL     1     108.404 107.266 103.761  1.00  0.00     0.010 C 
ATOM      6  C   UNL     1     107.322 106.263 104.228  1.00  0.00    -0.006 C 
ATOM      7  C   UNL     1     107.358 105.237 103.115  1.00  0.00     0.013 C 
ATOM      8  C   UNL     1     105.907 106.869 104.047  1.00  0.00     0.126 C 
ATOM      9  C   UNL     1     107.577 105.680 105.622  1.00  0.00     0.014 C 
ATOM     10  C   UNL     1     104.541 106.082 102.024  1.00  0.00     0.014 C 
ENDROOT
BRANCH   8  11
ATOM     11  O   UNL     1     105.806 108.125 104.671  1.00  0.00    -0.392 OA
ATOM     12  H   UNL     1     105.513 108.763 103.969  1.00  0.00     0.211 HD
ENDBRANCH   8  11
TORSDOF 1
ENDMDL
