MODEL 1
REMARK VINA RESULT:    -7.561      0.000      0.000
REMARK INTER + INTRA:          -9.183
REMARK INTER:                  -8.887
REMARK INTRA:                  -0.296
REMARK UNBOUND:                -0.296
REMARK SMILES O=c1cc(-c2ccc(O)c(O)c2)oc2cc(O)cc(O)c12
REMARK SMILES IDX 4 1 3 2 2 3 1 4 21 5 19 6 18 7 16 8 15 9 14 10 13 11 5 12
REMARK SMILES IDX 6 13 7 14 8 15 12 16 10 17 9 18 11 20 20 22 17 24
REMARK H PARENT 9 19 11 21 20 23 17 25
REMARK Flexibility Score: inf
ROOT
ATOM      1  C   UNL     1       7.856  16.678  23.639  1.00  0.00     0.138 A 
ATOM      2  C   UNL     1       8.651  16.211  22.584  1.00  0.00     0.100 A 
ATOM      3  C   UNL     1       9.984  15.871  22.822  1.00  0.00     0.197 A 
ATOM      4  O   UNL     1      10.691  15.515  21.844  1.00  0.00    -0.289 OA
ATOM      5  C   UNL     1      10.512  15.970  24.131  1.00  0.00     0.107 A 
ATOM      6  C   UNL     1      11.844  15.614  24.500  1.00  0.00     0.134 A 
ATOM      7  C   UNL     1      12.289  15.865  25.803  1.00  0.00     0.093 A 
ATOM      8  C   UNL     1      11.436  16.402  26.767  1.00  0.00     0.123 A 
ATOM      9  C   UNL     1      10.115  16.705  26.432  1.00  0.00     0.094 A 
ATOM     10  C   UNL     1       9.650  16.499  25.129  1.00  0.00     0.146 A 
ATOM     11  O   UNL     1       8.391  16.814  24.847  1.00  0.00    -0.456 OA
ENDROOT
BRANCH   1  12
ATOM     12  C   UNL     1       6.432  17.051  23.441  1.00  0.00     0.021 A 
ATOM     13  C   UNL     1       5.723  17.654  24.495  1.00  0.00     0.016 A 
ATOM     14  C   UNL     1       4.381  18.008  24.336  1.00  0.00     0.051 A 
ATOM     15  C   UNL     1       3.722  17.757  23.127  1.00  0.00     0.157 A 
ATOM     16  C   UNL     1       5.759  16.789  22.231  1.00  0.00     0.062 A 
ATOM     17  C   UNL     1       4.411  17.143  22.075  1.00  0.00     0.158 A 
BRANCH  15  18
ATOM     18  O   UNL     1       2.383  18.110  22.965  1.00  0.00    -0.504 OA
ATOM     19  H   UNL     1       2.049  18.542  22.112  1.00  0.00     0.293 HD
ENDBRANCH  15  18
BRANCH  17  20
ATOM     20  O   UNL     1       3.749  16.884  20.876  1.00  0.00    -0.504 OA
ATOM     21  H   UNL     1       3.780  17.534  20.100  1.00  0.00     0.293 HD
ENDBRANCH  17  20
ENDBRANCH   1  12
BRANCH   6  22
ATOM     22  O   UNL     1      12.752  14.993  23.639  1.00  0.00    -0.507 OA
ATOM     23  H   UNL     1      13.751  14.969  23.773  1.00  0.00     0.293 HD
ENDBRANCH   6  22
BRANCH   8  24
ATOM     24  O   UNL     1      11.909  16.623  28.058  1.00  0.00    -0.508 OA
ATOM     25  H   UNL     1      11.945  15.879  28.745  1.00  0.00     0.293 HD
ENDBRANCH   8  24
TORSDOF 5
ENDMDL
MODEL 2
REMARK VINA RESULT:    -7.118      8.507     10.706
REMARK INTER + INTRA:          -8.663
REMARK INTER:                  -8.357
REMARK INTRA:                  -0.306
REMARK UNBOUND:                -0.296
REMARK SMILES O=c1cc(-c2ccc(O)c(O)c2)oc2cc(O)cc(O)c12
REMARK SMILES IDX 4 1 3 2 2 3 1 4 21 5 19 6 18 7 16 8 15 9 14 10 13 11 5 12
REMARK SMILES IDX 6 13 7 14 8 15 12 16 10 17 9 18 11 20 20 22 17 24
REMARK H PARENT 9 19 11 21 20 23 17 25
REMARK Flexibility Score: inf
ROOT
ATOM      1  C   UNL     1      14.345  18.442  32.058  1.00  0.00     0.138 A 
ATOM      2  C   UNL     1      14.591  18.256  33.425  1.00  0.00     0.100 A 
ATOM      3  C   UNL     1      15.382  17.185  33.844  1.00  0.00     0.197 A 
ATOM      4  O   UNL     1      15.534  17.006  35.080  1.00  0.00    -0.289 OA
ATOM      5  C   UNL     1      15.954  16.315  32.885  1.00  0.00     0.107 A 
ATOM      6  C   UNL     1      16.810  15.215  33.194  1.00  0.00     0.134 A 
ATOM      7  C   UNL     1      17.221  14.353  32.169  1.00  0.00     0.093 A 
ATOM      8  C   UNL     1      16.861  14.586  30.842  1.00  0.00     0.123 A 
ATOM      9  C   UNL     1      16.069  15.690  30.522  1.00  0.00     0.094 A 
ATOM     10  C   UNL     1      15.613  16.548  31.526  1.00  0.00     0.146 A 
ATOM     11  O   UNL     1      14.849  17.579  31.182  1.00  0.00    -0.456 OA
ENDROOT
BRANCH   1  12
ATOM     12  C   UNL     1      13.513  19.565  31.557  1.00  0.00     0.021 A 
ATOM     13  C   UNL     1      13.464  20.767  32.286  1.00  0.00     0.016 A 
ATOM     14  C   UNL     1      12.683  21.836  31.841  1.00  0.00     0.051 A 
ATOM     15  C   UNL     1      11.930  21.720  30.667  1.00  0.00     0.157 A 
ATOM     16  C   UNL     1      12.742  19.450  30.384  1.00  0.00     0.062 A 
ATOM     17  C   UNL     1      11.956  20.525  29.939  1.00  0.00     0.158 A 
BRANCH  15  18
ATOM     18  O   UNL     1      11.151  22.785  30.219  1.00  0.00    -0.504 OA
ATOM     19  H   UNL     1      10.155  22.685  30.064  1.00  0.00     0.293 HD
ENDBRANCH  15  18
BRANCH  17  20
ATOM     20  O   UNL     1      11.196  20.408  28.776  1.00  0.00    -0.504 OA
ATOM     21  H   UNL     1      10.751  19.536  28.519  1.00  0.00     0.293 HD
ENDBRANCH  17  20
ENDBRANCH   1  12
BRANCH   6  22
ATOM     22  O   UNL     1      17.299  14.941  34.474  1.00  0.00    -0.507 OA
ATOM     23  H   UNL     1      17.632  14.041  34.784  1.00  0.00     0.293 HD
ENDBRANCH   6  22
BRANCH   8  24
ATOM     24  O   UNL     1      17.303  13.717  29.848  1.00  0.00    -0.508 OA
ATOM     25  H   UNL     1      17.292  13.981  28.869  1.00  0.00     0.293 HD
ENDBRANCH   8  24
TORSDOF 5
ENDMDL
MODEL 3
REMARK VINA RESULT:    -7.087      1.383      6.885
REMARK INTER + INTRA:          -8.626
REMARK INTER:                  -8.331
REMARK INTRA:                  -0.295
REMARK UNBOUND:                -0.296
REMARK SMILES O=c1cc(-c2ccc(O)c(O)c2)oc2cc(O)cc(O)c12
REMARK SMILES IDX 4 1 3 2 2 3 1 4 21 5 19 6 18 7 16 8 15 9 14 10 13 11 5 12
REMARK SMILES IDX 6 13 7 14 8 15 12 16 10 17 9 18 11 20 20 22 17 24
REMARK H PARENT 9 19 11 21 20 23 17 25
REMARK Flexibility Score: inf
ROOT
ATOM      1  C   UNL     1       8.503  16.724  23.241  1.00  0.00     0.138 A 
ATOM      2  C   UNL     1       8.731  16.707  21.858  1.00  0.00     0.100 A 
ATOM      3  C   UNL     1       7.676  16.963  20.981  1.00  0.00     0.197 A 
ATOM      4  O   UNL     1       7.897  16.879  19.745  1.00  0.00    -0.289 OA
ATOM      5  C   UNL     1       6.393  17.270  21.494  1.00  0.00     0.107 A 
ATOM      6  C   UNL     1       5.254  17.588  20.696  1.00  0.00     0.134 A 
ATOM      7  C   UNL     1       4.008  17.759  21.312  1.00  0.00     0.093 A 
ATOM      8  C   UNL     1       3.871  17.686  22.697  1.00  0.00     0.123 A 
ATOM      9  C   UNL     1       4.989  17.429  23.492  1.00  0.00     0.094 A 
ATOM     10  C   UNL     1       6.240  17.217  22.905  1.00  0.00     0.146 A 
ATOM     11  O   UNL     1       7.277  16.961  23.696  1.00  0.00    -0.456 OA
ENDROOT
BRANCH   1  12
ATOM     12  C   UNL     1       9.590  16.460  24.218  1.00  0.00     0.021 A 
ATOM     13  C   UNL     1       9.369  16.715  25.583  1.00  0.00     0.016 A 
ATOM     14  C   UNL     1      10.377  16.483  26.521  1.00  0.00     0.051 A 
ATOM     15  C   UNL     1      11.626  16.001  26.111  1.00  0.00     0.157 A 
ATOM     16  C   UNL     1      10.853  15.988  23.811  1.00  0.00     0.062 A 
ATOM     17  C   UNL     1      11.865  15.757  24.754  1.00  0.00     0.158 A 
BRANCH  15  18
ATOM     18  O   UNL     1      12.634  15.765  27.045  1.00  0.00    -0.504 OA
ATOM     19  H   UNL     1      12.440  15.742  28.039  1.00  0.00     0.293 HD
ENDBRANCH  15  18
BRANCH  17  20
ATOM     20  O   UNL     1      13.114  15.287  24.348  1.00  0.00    -0.504 OA
ATOM     21  H   UNL     1      13.266  14.312  24.123  1.00  0.00     0.293 HD
ENDBRANCH  17  20
ENDBRANCH   1  12
BRANCH   6  22
ATOM     22  O   UNL     1       5.296  17.769  19.311  1.00  0.00    -0.507 OA
ATOM     23  H   UNL     1       5.891  18.429  18.834  1.00  0.00     0.293 HD
ENDBRANCH   6  22
BRANCH   8  24
ATOM     24  O   UNL     1       2.619  17.878  23.276  1.00  0.00    -0.508 OA
ATOM     25  H   UNL     1       2.513  18.037  24.271  1.00  0.00     0.293 HD
ENDBRANCH   8  24
TORSDOF 5
ENDMDL
MODEL 4
REMARK VINA RESULT:    -7.084      8.526     12.350
REMARK INTER + INTRA:          -8.622
REMARK INTER:                  -8.308
REMARK INTRA:                  -0.315
REMARK UNBOUND:                -0.296
REMARK SMILES O=c1cc(-c2ccc(O)c(O)c2)oc2cc(O)cc(O)c12
REMARK SMILES IDX 4 1 3 2 2 3 1 4 21 5 19 6 18 7 16 8 15 9 14 10 13 11 5 12
REMARK SMILES IDX 6 13 7 14 8 15 12 16 10 17 9 18 11 20 20 22 17 24
REMARK H PARENT 9 19 11 21 20 23 17 25
REMARK Flexibility Score: inf
ROOT
ATOM      1  C   UNL     1      14.394  17.503  33.250  1.00  0.00     0.138 A 
ATOM      2  C   UNL     1      14.935  18.615  33.908  1.00  0.00     0.100 A 
ATOM      3  C   UNL     1      14.685  19.897  33.416  1.00  0.00     0.197 A 
ATOM      4  O   UNL     1      15.235  20.873  33.990  1.00  0.00    -0.289 OA
ATOM      5  C   UNL     1      13.863  20.065  32.276  1.00  0.00     0.107 A 
ATOM      6  C   UNL     1      13.507  21.326  31.709  1.00  0.00     0.134 A 
ATOM      7  C   UNL     1      12.783  21.363  30.511  1.00  0.00     0.093 A 
ATOM      8  C   UNL     1      12.349  20.190  29.893  1.00  0.00     0.123 A 
ATOM      9  C   UNL     1      12.645  18.953  30.467  1.00  0.00     0.094 A 
ATOM     10  C   UNL     1      13.397  18.881  31.644  1.00  0.00     0.146 A 
ATOM     11  O   UNL     1      13.671  17.684  32.151  1.00  0.00    -0.456 OA
ENDROOT
BRANCH   1  12
ATOM     12  C   UNL     1      14.626  16.117  33.733  1.00  0.00     0.021 A 
ATOM     13  C   UNL     1      15.654  15.873  34.661  1.00  0.00     0.016 A 
ATOM     14  C   UNL     1      15.898  14.578  35.125  1.00  0.00     0.051 A 
ATOM     15  C   UNL     1      15.127  13.505  34.663  1.00  0.00     0.157 A 
ATOM     16  C   UNL     1      13.863  15.031  33.262  1.00  0.00     0.062 A 
ATOM     17  C   UNL     1      14.111  13.731  33.728  1.00  0.00     0.158 A 
BRANCH  15  18
ATOM     18  O   UNL     1      15.367  12.212  35.125  1.00  0.00    -0.504 OA
ATOM     19  H   UNL     1      15.070  11.398  34.600  1.00  0.00     0.293 HD
ENDBRANCH  15  18
BRANCH  17  20
ATOM     20  O   UNL     1      13.352  12.659  33.261  1.00  0.00    -0.504 OA
ATOM     21  H   UNL     1      13.526  12.239  32.356  1.00  0.00     0.293 HD
ENDBRANCH  17  20
ENDBRANCH   1  12
BRANCH   6  22
ATOM     22  O   UNL     1      13.815  22.558  32.290  1.00  0.00    -0.507 OA
ATOM     23  H   UNL     1      14.562  23.167  31.991  1.00  0.00     0.293 HD
ENDBRANCH   6  22
BRANCH   8  24
ATOM     24  O   UNL     1      11.617  20.266  28.711  1.00  0.00    -0.508 OA
ATOM     25  H   UNL     1      11.837  19.682  27.912  1.00  0.00     0.293 HD
ENDBRANCH   8  24
TORSDOF 5
ENDMDL
MODEL 5
REMARK VINA RESULT:    -7.073      8.505     11.782
REMARK INTER + INTRA:          -8.610
REMARK INTER:                  -8.298
REMARK INTRA:                  -0.312
REMARK UNBOUND:                -0.296
REMARK SMILES O=c1cc(-c2ccc(O)c(O)c2)oc2cc(O)cc(O)c12
REMARK SMILES IDX 4 1 3 2 2 3 1 4 21 5 19 6 18 7 16 8 15 9 14 10 13 11 5 12
REMARK SMILES IDX 6 13 7 14 8 15 12 16 10 17 9 18 11 20 20 22 17 24
REMARK H PARENT 9 19 11 21 20 23 17 25
REMARK Flexibility Score: inf
ROOT
ATOM      1  C   UNL     1      15.178  17.760  31.839  1.00  0.00     0.138 A 
ATOM      2  C   UNL     1      16.313  18.487  31.453  1.00  0.00     0.100 A 
ATOM      3  C   UNL     1      16.167  19.622  30.654  1.00  0.00     0.197 A 
ATOM      4  O   UNL     1      17.207  20.217  30.271  1.00  0.00    -0.289 OA
ATOM      5  C   UNL     1      14.874  20.047  30.266  1.00  0.00     0.107 A 
ATOM      6  C   UNL     1      14.601  21.211  29.487  1.00  0.00     0.134 A 
ATOM      7  C   UNL     1      13.290  21.468  29.067  1.00  0.00     0.093 A 
ATOM      8  C   UNL     1      12.235  20.639  29.447  1.00  0.00     0.123 A 
ATOM      9  C   UNL     1      12.482  19.528  30.254  1.00  0.00     0.094 A 
ATOM     10  C   UNL     1      13.785  19.225  30.661  1.00  0.00     0.146 A 
ATOM     11  O   UNL     1      13.981  18.149  31.417  1.00  0.00    -0.456 OA
ENDROOT
BRANCH   1  12
ATOM     12  C   UNL     1      15.277  16.547  32.690  1.00  0.00     0.021 A 
ATOM     13  C   UNL     1      16.427  16.345  33.474  1.00  0.00     0.016 A 
ATOM     14  C   UNL     1      16.548  15.208  34.277  1.00  0.00     0.051 A 
ATOM     15  C   UNL     1      15.527  14.250  34.303  1.00  0.00     0.157 A 
ATOM     16  C   UNL     1      14.260  15.572  32.711  1.00  0.00     0.062 A 
ATOM     17  C   UNL     1      14.384  14.430  33.517  1.00  0.00     0.158 A 
BRANCH  15  18
ATOM     18  O   UNL     1      15.643  13.115  35.105  1.00  0.00    -0.504 OA
ATOM     19  H   UNL     1      15.149  12.259  34.885  1.00  0.00     0.293 HD
ENDBRANCH  15  18
BRANCH  17  20
ATOM     20  O   UNL     1      13.374  13.469  33.536  1.00  0.00    -0.504 OA
ATOM     21  H   UNL     1      13.480  12.578  33.066  1.00  0.00     0.293 HD
ENDBRANCH  17  20
ENDBRANCH   1  12
BRANCH   6  22
ATOM     22  O   UNL     1      15.568  22.152  29.123  1.00  0.00    -0.507 OA
ATOM     23  H   UNL     1      15.979  22.233  28.206  1.00  0.00     0.293 HD
ENDBRANCH   6  22
BRANCH   8  24
ATOM     24  O   UNL     1      10.942  20.935  29.023  1.00  0.00    -0.508 OA
ATOM     25  H   UNL     1      10.349  21.577  29.536  1.00  0.00     0.293 HD
ENDBRANCH   8  24
TORSDOF 5
ENDMDL
MODEL 6
REMARK VINA RESULT:    -7.026      8.301     11.018
REMARK INTER + INTRA:          -8.555
REMARK INTER:                  -8.269
REMARK INTRA:                  -0.286
REMARK UNBOUND:                -0.296
REMARK SMILES O=c1cc(-c2ccc(O)c(O)c2)oc2cc(O)cc(O)c12
REMARK SMILES IDX 4 1 3 2 2 3 1 4 21 5 19 6 18 7 16 8 15 9 14 10 13 11 5 12
REMARK SMILES IDX 6 13 7 14 8 15 12 16 10 17 9 18 11 20 20 22 17 24
REMARK H PARENT 9 19 11 21 20 23 17 25
REMARK Flexibility Score: inf
ROOT
ATOM      1  C   UNL     1      14.147  17.621  30.935  1.00  0.00     0.138 A 
ATOM      2  C   UNL     1      13.562  18.580  31.773  1.00  0.00     0.100 A 
ATOM      3  C   UNL     1      13.184  19.817  31.249  1.00  0.00     0.197 A 
ATOM      4  O   UNL     1      12.720  20.681  32.037  1.00  0.00    -0.289 OA
ATOM      5  C   UNL     1      13.366  20.081  29.870  1.00  0.00     0.107 A 
ATOM      6  C   UNL     1      12.981  21.291  29.217  1.00  0.00     0.134 A 
ATOM      7  C   UNL     1      13.317  21.484  27.871  1.00  0.00     0.093 A 
ATOM      8  C   UNL     1      13.967  20.491  27.140  1.00  0.00     0.123 A 
ATOM      9  C   UNL     1      14.299  19.282  27.754  1.00  0.00     0.094 A 
ATOM     10  C   UNL     1      14.010  19.073  29.105  1.00  0.00     0.146 A 
ATOM     11  O   UNL     1      14.356  17.914  29.657  1.00  0.00    -0.456 OA
ENDROOT
BRANCH   1  12
ATOM     12  C   UNL     1      14.565  16.289  31.441  1.00  0.00     0.021 A 
ATOM     13  C   UNL     1      15.684  15.654  30.872  1.00  0.00     0.016 A 
ATOM     14  C   UNL     1      16.093  14.398  31.325  1.00  0.00     0.051 A 
ATOM     15  C   UNL     1      15.387  13.750  32.347  1.00  0.00     0.157 A 
ATOM     16  C   UNL     1      13.852  15.626  32.459  1.00  0.00     0.062 A 
ATOM     17  C   UNL     1      14.264  14.363  32.912  1.00  0.00     0.158 A 
BRANCH  15  18
ATOM     18  O   UNL     1      15.794  12.497  32.802  1.00  0.00    -0.504 OA
ATOM     19  H   UNL     1      15.451  12.114  33.675  1.00  0.00     0.293 HD
ENDBRANCH  15  18
BRANCH  17  20
ATOM     20  O   UNL     1      13.556  13.711  33.921  1.00  0.00    -0.504 OA
ATOM     21  H   UNL     1      13.481  12.702  33.949  1.00  0.00     0.293 HD
ENDBRANCH  17  20
ENDBRANCH   1  12
BRANCH   6  22
ATOM     22  O   UNL     1      12.253  22.313  29.832  1.00  0.00    -0.507 OA
ATOM     23  H   UNL     1      12.013  23.191  29.399  1.00  0.00     0.293 HD
ENDBRANCH   6  22
BRANCH   8  24
ATOM     24  O   UNL     1      14.271  20.712  25.799  1.00  0.00    -0.508 OA
ATOM     25  H   UNL     1      13.734  20.281  25.055  1.00  0.00     0.293 HD
ENDBRANCH   8  24
TORSDOF 5
ENDMDL
MODEL 7
REMARK VINA RESULT:    -6.992      7.831     12.378
REMARK INTER + INTRA:          -8.514
REMARK INTER:                  -8.208
REMARK INTRA:                  -0.307
REMARK UNBOUND:                -0.296
REMARK SMILES O=c1cc(-c2ccc(O)c(O)c2)oc2cc(O)cc(O)c12
REMARK SMILES IDX 4 1 3 2 2 3 1 4 21 5 19 6 18 7 16 8 15 9 14 10 13 11 5 12
REMARK SMILES IDX 6 13 7 14 8 15 12 16 10 17 9 18 11 20 20 22 17 24
REMARK H PARENT 9 19 11 21 20 23 17 25
REMARK Flexibility Score: inf
ROOT
ATOM      1  C   UNL     1      15.995  21.694  29.996  1.00  0.00     0.138 A 
ATOM      2  C   UNL     1      15.173  21.457  31.106  1.00  0.00     0.100 A 
ATOM      3  C   UNL     1      14.183  20.476  31.035  1.00  0.00     0.197 A 
ATOM      4  O   UNL     1      13.420  20.328  32.024  1.00  0.00    -0.289 OA
ATOM      5  C   UNL     1      14.038  19.707  29.855  1.00  0.00     0.107 A 
ATOM      6  C   UNL     1      13.091  18.654  29.683  1.00  0.00     0.134 A 
ATOM      7  C   UNL     1      12.961  18.042  28.430  1.00  0.00     0.093 A 
ATOM      8  C   UNL     1      13.783  18.401  27.362  1.00  0.00     0.123 A 
ATOM      9  C   UNL     1      14.749  19.393  27.534  1.00  0.00     0.094 A 
ATOM     10  C   UNL     1      14.880  20.048  28.763  1.00  0.00     0.146 A 
ATOM     11  O   UNL     1      15.803  20.997  28.882  1.00  0.00    -0.456 OA
ENDROOT
BRANCH   1  12
ATOM     12  C   UNL     1      17.065  22.725  30.019  1.00  0.00     0.021 A 
ATOM     13  C   UNL     1      16.916  23.856  30.840  1.00  0.00     0.016 A 
ATOM     14  C   UNL     1      17.904  24.843  30.874  1.00  0.00     0.051 A 
ATOM     15  C   UNL     1      19.051  24.722  30.081  1.00  0.00     0.157 A 
ATOM     16  C   UNL     1      18.215  22.615  29.213  1.00  0.00     0.062 A 
ATOM     17  C   UNL     1      19.206  23.609  29.247  1.00  0.00     0.158 A 
BRANCH  15  18
ATOM     18  O   UNL     1      20.040  25.705  30.114  1.00  0.00    -0.504 OA
ATOM     19  H   UNL     1      20.691  25.827  29.347  1.00  0.00     0.293 HD
ENDBRANCH  15  18
BRANCH  17  20
ATOM     20  O   UNL     1      20.344  23.496  28.450  1.00  0.00    -0.504 OA
ATOM     21  H   UNL     1      21.148  24.098  28.585  1.00  0.00     0.293 HD
ENDBRANCH  17  20
ENDBRANCH   1  12
BRANCH   6  22
ATOM     22  O   UNL     1      12.280  18.158  30.707  1.00  0.00    -0.507 OA
ATOM     23  H   UNL     1      12.236  18.534  31.641  1.00  0.00     0.293 HD
ENDBRANCH   6  22
BRANCH   8  24
ATOM     24  O   UNL     1      13.636  17.759  26.135  1.00  0.00    -0.508 OA
ATOM     25  H   UNL     1      12.738  17.403  25.827  1.00  0.00     0.293 HD
ENDBRANCH   8  24
TORSDOF 5
ENDMDL
MODEL 8
REMARK VINA RESULT:    -6.978      8.781     10.417
REMARK INTER + INTRA:          -8.498
REMARK INTER:                  -8.235
REMARK INTRA:                  -0.263
REMARK UNBOUND:                -0.296
REMARK SMILES O=c1cc(-c2ccc(O)c(O)c2)oc2cc(O)cc(O)c12
REMARK SMILES IDX 4 1 3 2 2 3 1 4 21 5 19 6 18 7 16 8 15 9 14 10 13 11 5 12
REMARK SMILES IDX 6 13 7 14 8 15 12 16 10 17 9 18 11 20 20 22 17 24
REMARK H PARENT 9 19 11 21 20 23 17 25
REMARK Flexibility Score: inf
ROOT
ATOM      1  C   UNL     1      14.342  17.024  31.561  1.00  0.00     0.138 A 
ATOM      2  C   UNL     1      15.422  16.605  30.773  1.00  0.00     0.100 A 
ATOM      3  C   UNL     1      15.898  15.298  30.893  1.00  0.00     0.197 A 
ATOM      4  O   UNL     1      16.909  14.969  30.220  1.00  0.00    -0.289 OA
ATOM      5  C   UNL     1      15.267  14.399  31.786  1.00  0.00     0.107 A 
ATOM      6  C   UNL     1      15.640  13.033  31.962  1.00  0.00     0.134 A 
ATOM      7  C   UNL     1      15.017  12.272  32.959  1.00  0.00     0.093 A 
ATOM      8  C   UNL     1      13.996  12.806  33.743  1.00  0.00     0.123 A 
ATOM      9  C   UNL     1      13.586  14.125  33.543  1.00  0.00     0.094 A 
ATOM     10  C   UNL     1      14.212  14.922  32.580  1.00  0.00     0.146 A 
ATOM     11  O   UNL     1      13.802  16.178  32.430  1.00  0.00    -0.456 OA
ENDROOT
BRANCH   1  12
ATOM     12  C   UNL     1      13.795  18.402  31.470  1.00  0.00     0.021 A 
ATOM     13  C   UNL     1      14.157  19.354  32.440  1.00  0.00     0.016 A 
ATOM     14  C   UNL     1      13.651  20.654  32.382  1.00  0.00     0.051 A 
ATOM     15  C   UNL     1      12.767  21.024  31.361  1.00  0.00     0.157 A 
ATOM     16  C   UNL     1      12.895  18.776  30.453  1.00  0.00     0.062 A 
ATOM     17  C   UNL     1      12.386  20.083  30.398  1.00  0.00     0.158 A 
BRANCH  15  18
ATOM     18  O   UNL     1      12.261  22.321  31.299  1.00  0.00    -0.504 OA
ATOM     19  H   UNL     1      12.218  22.912  32.120  1.00  0.00     0.293 HD
ENDBRANCH  15  18
BRANCH  17  20
ATOM     20  O   UNL     1      11.497  20.450  29.389  1.00  0.00    -0.504 OA
ATOM     21  H   UNL     1      10.838  21.209  29.512  1.00  0.00     0.293 HD
ENDBRANCH  17  20
ENDBRANCH   1  12
BRANCH   6  22
ATOM     22  O   UNL     1      16.589  12.375  31.176  1.00  0.00    -0.507 OA
ATOM     23  H   UNL     1      17.405  11.901  31.532  1.00  0.00     0.293 HD
ENDBRANCH   6  22
BRANCH   8  24
ATOM     24  O   UNL     1      13.388  12.015  34.715  1.00  0.00    -0.508 OA
ATOM     25  H   UNL     1      12.383  12.007  34.841  1.00  0.00     0.293 HD
ENDBRANCH   8  24
TORSDOF 5
ENDMDL
MODEL 9
REMARK VINA RESULT:    -6.889     12.942     16.241
REMARK INTER + INTRA:          -8.394
REMARK INTER:                  -8.098
REMARK INTRA:                  -0.296
REMARK UNBOUND:                -0.296
REMARK SMILES O=c1cc(-c2ccc(O)c(O)c2)oc2cc(O)cc(O)c12
REMARK SMILES IDX 4 1 3 2 2 3 1 4 21 5 19 6 18 7 16 8 15 9 14 10 13 11 5 12
REMARK SMILES IDX 6 13 7 14 8 15 12 16 10 17 9 18 11 20 20 22 17 24
REMARK H PARENT 9 19 11 21 20 23 17 25
REMARK Flexibility Score: inf
ROOT
ATOM      1  C   UNL     1      18.429  25.548  30.791  1.00  0.00     0.138 A 
ATOM      2  C   UNL     1      18.343  25.886  32.148  1.00  0.00     0.100 A 
ATOM      3  C   UNL     1      19.015  27.014  32.623  1.00  0.00     0.197 A 
ATOM      4  O   UNL     1      18.971  27.257  33.856  1.00  0.00    -0.289 OA
ATOM      5  C   UNL     1      19.751  27.824  31.725  1.00  0.00     0.107 A 
ATOM      6  C   UNL     1      20.442  29.018  32.088  1.00  0.00     0.134 A 
ATOM      7  C   UNL     1      21.234  29.673  31.136  1.00  0.00     0.093 A 
ATOM      8  C   UNL     1      21.311  29.213  29.822  1.00  0.00     0.123 A 
ATOM      9  C   UNL     1      20.596  28.076  29.442  1.00  0.00     0.094 A 
ATOM     10  C   UNL     1      19.825  27.379  30.378  1.00  0.00     0.146 A 
ATOM     11  O   UNL     1      19.171  26.293  29.980  1.00  0.00    -0.456 OA
ENDROOT
BRANCH   1  12
ATOM     12  C   UNL     1      17.733  24.360  30.234  1.00  0.00     0.021 A 
ATOM     13  C   UNL     1      17.972  23.981  28.901  1.00  0.00     0.016 A 
ATOM     14  C   UNL     1      17.324  22.872  28.351  1.00  0.00     0.051 A 
ATOM     15  C   UNL     1      16.419  22.130  29.119  1.00  0.00     0.157 A 
ATOM     16  C   UNL     1      16.811  23.617  30.997  1.00  0.00     0.062 A 
ATOM     17  C   UNL     1      16.160  22.505  30.442  1.00  0.00     0.158 A 
BRANCH  15  18
ATOM     18  O   UNL     1      15.772  21.022  28.574  1.00  0.00    -0.504 OA
ATOM     19  H   UNL     1      16.225  20.429  27.889  1.00  0.00     0.293 HD
ENDBRANCH  15  18
BRANCH  17  20
ATOM     20  O   UNL     1      15.249  21.770  31.201  1.00  0.00    -0.504 OA
ATOM     21  H   UNL     1      15.548  21.200  31.982  1.00  0.00     0.293 HD
ENDBRANCH  17  20
ENDBRANCH   1  12
BRANCH   6  22
ATOM     22  O   UNL     1      20.365  29.612  33.351  1.00  0.00    -0.507 OA
ATOM     23  H   UNL     1      20.708  30.533  33.577  1.00  0.00     0.293 HD
ENDBRANCH   6  22
BRANCH   8  24
ATOM     24  O   UNL     1      22.096  29.899  28.898  1.00  0.00    -0.508 OA
ATOM     25  H   UNL     1      22.841  29.437  28.390  1.00  0.00     0.293 HD
ENDBRANCH   8  24
TORSDOF 5
ENDMDL
