MODEL 1
REMARK VINA RESULT:    -3.600      0.000      0.000
REMARK INTER + INTRA:          -5.622
REMARK INTER:                  -5.284
REMARK INTRA:                  -0.338
REMARK UNBOUND:                -0.338
REMARK SMILES O=C([O-])CCCCCCCC(=O)[O-]
REMARK SMILES IDX 7 1 6 2 5 3 4 4 2 5 1 6 3 7 8 8 9 9 10 10 11 11 12 12 13 13
REMARK H PARENT
REMARK Flexibility Score: inf
ROOT
ATOM      1  C   UNL     1      -5.656  21.085 -12.512  1.00  0.00     0.000 C 
ENDROOT
BRANCH   1   2
ATOM      2  C   UNL     1      -6.714  20.487 -11.569  1.00  0.00     0.000 C 
BRANCH   2   3
ATOM      3  C   UNL     1      -6.090  19.707 -10.401  1.00  0.00     0.006 C 
BRANCH   3   4
ATOM      4  C   UNL     1      -6.585  20.194  -9.032  1.00  0.00     0.053 C 
BRANCH   4   5
ATOM      5  C   UNL     1      -7.298  19.093  -8.313  1.00  0.00     0.041 C 
ATOM      6  O   UNL     1      -7.426  17.963  -8.854  1.00  0.00    -0.550 OA
ATOM      7  O   UNL     1      -7.863  19.328  -7.067  1.00  0.00    -0.550 OA
ENDBRANCH   4   5
ENDBRANCH   3   4
ENDBRANCH   2   3
ENDBRANCH   1   2
BRANCH   1   8
ATOM      8  C   UNL     1      -4.878  22.244 -11.870  1.00  0.00     0.000 C 
BRANCH   8   9
ATOM      9  C   UNL     1      -5.583  23.598 -12.039  1.00  0.00     0.006 C 
BRANCH   9  10
ATOM     10  C   UNL     1      -4.634  24.755 -11.709  1.00  0.00     0.053 C 
BRANCH  10  11
ATOM     11  C   UNL     1      -4.589  25.735 -12.838  1.00  0.00     0.041 C 
ATOM     12  O   UNL     1      -5.144  26.859 -12.722  1.00  0.00    -0.550 OA
ATOM     13  O   UNL     1      -3.977  25.388 -14.035  1.00  0.00    -0.550 OA
ENDBRANCH  10  11
ENDBRANCH   9  10
ENDBRANCH   8   9
ENDBRANCH   1   8
TORSDOF 8
ENDMDL
MODEL 2
REMARK VINA RESULT:    -3.571      8.524     10.799
REMARK INTER + INTRA:          -5.579
REMARK INTER:                  -5.225
REMARK INTRA:                  -0.354
REMARK UNBOUND:                -0.338
REMARK SMILES O=C([O-])CCCCCCCC(=O)[O-]
REMARK SMILES IDX 7 1 6 2 5 3 4 4 2 5 1 6 3 7 8 8 9 9 10 10 11 11 12 12 13 13
REMARK H PARENT
REMARK Flexibility Score: inf
ROOT
ATOM      1  C   UNL     1      -6.714  30.320  -8.877  1.00  0.00     0.000 C 
ENDROOT
BRANCH   1   2
ATOM      2  C   UNL     1      -5.208  30.626  -8.948  1.00  0.00     0.000 C 
BRANCH   2   3
ATOM      3  C   UNL     1      -4.635  31.082  -7.596  1.00  0.00     0.006 C 
BRANCH   3   4
ATOM      4  C   UNL     1      -5.691  31.735  -6.695  1.00  0.00     0.053 C 
BRANCH   4   5
ATOM      5  C   UNL     1      -5.039  32.649  -5.705  1.00  0.00     0.041 C 
ATOM      6  O   UNL     1      -5.176  32.446  -4.470  1.00  0.00    -0.550 OA
ATOM      7  O   UNL     1      -4.322  33.753  -6.146  1.00  0.00    -0.550 OA
ENDBRANCH   4   5
ENDBRANCH   3   4
ENDBRANCH   2   3
ENDBRANCH   1   2
BRANCH   1   8
ATOM      8  C   UNL     1      -7.054  28.906  -9.374  1.00  0.00     0.000 C 
BRANCH   8   9
ATOM      9  C   UNL     1      -8.423  28.834 -10.069  1.00  0.00     0.006 C 
BRANCH   9  10
ATOM     10  C   UNL     1      -9.110  30.203 -10.067  1.00  0.00     0.053 C 
BRANCH  10  11
ATOM     11  C   UNL     1     -10.449  30.117  -9.406  1.00  0.00     0.041 C 
ATOM     12  O   UNL     1     -11.159  29.087  -9.546  1.00  0.00    -0.550 OA
ATOM     13  O   UNL     1     -10.934  31.195  -8.677  1.00  0.00    -0.550 OA
ENDBRANCH  10  11
ENDBRANCH   9  10
ENDBRANCH   8   9
ENDBRANCH   1   8
TORSDOF 8
ENDMDL
MODEL 3
REMARK VINA RESULT:    -3.561     10.163     11.614
REMARK INTER + INTRA:          -5.564
REMARK INTER:                  -5.063
REMARK INTRA:                  -0.501
REMARK UNBOUND:                -0.338
REMARK SMILES O=C([O-])CCCCCCCC(=O)[O-]
REMARK SMILES IDX 7 1 6 2 5 3 4 4 2 5 1 6 3 7 8 8 9 9 10 10 11 11 12 12 13 13
REMARK H PARENT
REMARK Flexibility Score: inf
ROOT
ATOM      1  C   UNL     1     -13.863  26.587 -11.613  1.00  0.00     0.000 C 
ENDROOT
BRANCH   1   2
ATOM      2  C   UNL     1     -15.348  26.281 -11.874  1.00  0.00     0.000 C 
BRANCH   2   3
ATOM      3  C   UNL     1     -16.256  27.493 -11.614  1.00  0.00     0.006 C 
BRANCH   3   4
ATOM      4  C   UNL     1     -17.041  27.923 -12.860  1.00  0.00     0.053 C 
BRANCH   4   5
ATOM      5  C   UNL     1     -16.384  29.100 -13.511  1.00  0.00     0.041 C 
ATOM      6  O   UNL     1     -16.541  29.312 -14.742  1.00  0.00    -0.550 OA
ATOM      7  O   UNL     1     -15.559  29.933 -12.768  1.00  0.00    -0.550 OA
ENDBRANCH   4   5
ENDBRANCH   3   4
ENDBRANCH   2   3
ENDBRANCH   1   2
BRANCH   1   8
ATOM      8  C   UNL     1     -13.661  27.844 -10.751  1.00  0.00     0.000 C 
BRANCH   8   9
ATOM      9  C   UNL     1     -12.851  27.564  -9.476  1.00  0.00     0.006 C 
BRANCH   9  10
ATOM     10  C   UNL     1     -12.917  28.755  -8.514  1.00  0.00     0.053 C 
BRANCH  10  11
ATOM     11  C   UNL     1     -12.053  29.873  -9.004  1.00  0.00     0.041 C 
ATOM     12  O   UNL     1     -12.470  31.061  -8.963  1.00  0.00    -0.550 OA
ATOM     13  O   UNL     1     -10.807  29.600  -9.552  1.00  0.00    -0.550 OA
ENDBRANCH  10  11
ENDBRANCH   9  10
ENDBRANCH   8   9
ENDBRANCH   1   8
TORSDOF 8
ENDMDL
MODEL 4
REMARK VINA RESULT:    -3.536     10.515     11.511
REMARK INTER + INTRA:          -5.527
REMARK INTER:                  -5.201
REMARK INTRA:                  -0.326
REMARK UNBOUND:                -0.338
REMARK SMILES O=C([O-])CCCCCCCC(=O)[O-]
REMARK SMILES IDX 7 1 6 2 5 3 4 4 2 5 1 6 3 7 8 8 9 9 10 10 11 11 12 12 13 13
REMARK H PARENT
REMARK Flexibility Score: inf
ROOT
ATOM      1  C   UNL     1     -13.335  28.503  -9.326  1.00  0.00     0.000 C 
ENDROOT
BRANCH   1   2
ATOM      2  C   UNL     1     -12.998  27.175 -10.026  1.00  0.00     0.000 C 
BRANCH   2   3
ATOM      3  C   UNL     1     -14.004  26.819 -11.133  1.00  0.00     0.006 C 
BRANCH   3   4
ATOM      4  C   UNL     1     -15.223  27.752 -11.148  1.00  0.00     0.053 C 
BRANCH   4   5
ATOM      5  C   UNL     1     -16.343  27.134 -11.923  1.00  0.00     0.041 C 
ATOM      6  O   UNL     1     -16.541  25.891 -11.868  1.00  0.00    -0.550 OA
ATOM      7  O   UNL     1     -17.139  27.922 -12.743  1.00  0.00    -0.550 OA
ENDBRANCH   4   5
ENDBRANCH   3   4
ENDBRANCH   2   3
ENDBRANCH   1   2
BRANCH   1   8
ATOM      8  C   UNL     1     -12.715  28.605  -7.923  1.00  0.00     0.000 C 
BRANCH   8   9
ATOM      9  C   UNL     1     -12.657  30.050  -7.404  1.00  0.00     0.006 C 
BRANCH   9  10
ATOM     10  C   UNL     1     -12.098  30.993  -8.474  1.00  0.00     0.053 C 
BRANCH  10  11
ATOM     11  C   UNL     1     -12.774  32.326  -8.403  1.00  0.00     0.041 C 
ATOM     12  O   UNL     1     -13.127  32.799  -7.291  1.00  0.00    -0.550 OA
ATOM     13  O   UNL     1     -13.058  33.023  -9.570  1.00  0.00    -0.550 OA
ENDBRANCH  10  11
ENDBRANCH   9  10
ENDBRANCH   8   9
ENDBRANCH   1   8
TORSDOF 8
ENDMDL
MODEL 5
REMARK VINA RESULT:    -3.529      8.624     10.108
REMARK INTER + INTRA:          -5.518
REMARK INTER:                  -5.151
REMARK INTRA:                  -0.367
REMARK UNBOUND:                -0.338
REMARK SMILES O=C([O-])CCCCCCCC(=O)[O-]
REMARK SMILES IDX 7 1 6 2 5 3 4 4 2 5 1 6 3 7 8 8 9 9 10 10 11 11 12 12 13 13
REMARK H PARENT
REMARK Flexibility Score: inf
ROOT
ATOM      1  C   UNL     1      -6.700  30.272  -8.836  1.00  0.00     0.000 C 
ENDROOT
BRANCH   1   2
ATOM      2  C   UNL     1      -6.962  28.844  -9.344  1.00  0.00     0.000 C 
BRANCH   2   3
ATOM      3  C   UNL     1      -8.322  28.707 -10.046  1.00  0.00     0.006 C 
BRANCH   3   4
ATOM      4  C   UNL     1      -9.153  29.996  -9.985  1.00  0.00     0.053 C 
BRANCH   4   5
ATOM      5  C   UNL     1     -10.318  29.822  -9.061  1.00  0.00     0.041 C 
ATOM      6  O   UNL     1     -10.169  29.971  -7.819  1.00  0.00    -0.550 OA
ATOM      7  O   UNL     1     -11.555  29.448  -9.567  1.00  0.00    -0.550 OA
ENDBRANCH   4   5
ENDBRANCH   3   4
ENDBRANCH   2   3
ENDBRANCH   1   2
BRANCH   1   8
ATOM      8  C   UNL     1      -5.213  30.658  -8.896  1.00  0.00     0.000 C 
BRANCH   8   9
ATOM      9  C   UNL     1      -4.642  31.034  -7.520  1.00  0.00     0.006 C 
BRANCH   9  10
ATOM     10  C   UNL     1      -5.681  31.789  -6.684  1.00  0.00     0.053 C 
BRANCH  10  11
ATOM     11  C   UNL     1      -5.006  32.691  -5.700  1.00  0.00     0.041 C 
ATOM     12  O   UNL     1      -5.049  32.430  -4.469  1.00  0.00    -0.550 OA
ATOM     13  O   UNL     1      -4.371  33.846  -6.138  1.00  0.00    -0.550 OA
ENDBRANCH  10  11
ENDBRANCH   9  10
ENDBRANCH   8   9
ENDBRANCH   1   8
TORSDOF 8
ENDMDL
MODEL 6
REMARK VINA RESULT:    -3.487      2.064      6.471
REMARK INTER + INTRA:          -5.456
REMARK INTER:                  -4.903
REMARK INTRA:                  -0.553
REMARK UNBOUND:                -0.338
REMARK SMILES O=C([O-])CCCCCCCC(=O)[O-]
REMARK SMILES IDX 7 1 6 2 5 3 4 4 2 5 1 6 3 7 8 8 9 9 10 10 11 11 12 12 13 13
REMARK H PARENT
REMARK Flexibility Score: inf
ROOT
ATOM      1  C   UNL     1      -7.029  21.854 -11.684  1.00  0.00     0.000 C 
ENDROOT
BRANCH   1   2
ATOM      2  C   UNL     1      -7.059  23.335 -11.268  1.00  0.00     0.000 C 
BRANCH   2   3
ATOM      3  C   UNL     1      -5.720  23.809 -10.679  1.00  0.00     0.006 C 
BRANCH   3   4
ATOM      4  C   UNL     1      -5.896  24.617  -9.386  1.00  0.00     0.053 C 
BRANCH   4   5
ATOM      5  C   UNL     1      -6.772  25.805  -9.629  1.00  0.00     0.041 C 
ATOM      6  O   UNL     1      -6.386  26.733 -10.387  1.00  0.00    -0.550 OA
ATOM      7  O   UNL     1      -7.995  25.911  -8.980  1.00  0.00    -0.550 OA
ENDBRANCH   4   5
ENDBRANCH   3   4
ENDBRANCH   2   3
ENDBRANCH   1   2
BRANCH   1   8
ATOM      8  C   UNL     1      -5.795  21.113 -11.146  1.00  0.00     0.000 C 
BRANCH   8   9
ATOM      9  C   UNL     1      -6.163  19.887 -10.295  1.00  0.00     0.006 C 
BRANCH   9  10
ATOM     10  C   UNL     1      -6.542  20.305  -8.870  1.00  0.00     0.053 C 
BRANCH  10  11
ATOM     11  C   UNL     1      -7.323  19.222  -8.197  1.00  0.00     0.041 C 
ATOM     12  O   UNL     1      -7.444  18.094  -8.744  1.00  0.00    -0.550 OA
ATOM     13  O   UNL     1      -7.958  19.473  -6.988  1.00  0.00    -0.550 OA
ENDBRANCH  10  11
ENDBRANCH   9  10
ENDBRANCH   8   9
ENDBRANCH   1   8
TORSDOF 8
ENDMDL
MODEL 7
REMARK VINA RESULT:    -3.478      1.260      6.673
REMARK INTER + INTRA:          -5.442
REMARK INTER:                  -4.909
REMARK INTRA:                  -0.533
REMARK UNBOUND:                -0.338
REMARK SMILES O=C([O-])CCCCCCCC(=O)[O-]
REMARK SMILES IDX 7 1 6 2 5 3 4 4 2 5 1 6 3 7 8 8 9 9 10 10 11 11 12 12 13 13
REMARK H PARENT
REMARK Flexibility Score: inf
ROOT
ATOM      1  C   UNL     1      -7.226  21.667 -11.691  1.00  0.00     0.000 C 
ENDROOT
BRANCH   1   2
ATOM      2  C   UNL     1      -7.375  23.135 -11.256  1.00  0.00     0.000 C 
BRANCH   2   3
ATOM      3  C   UNL     1      -6.193  23.620 -10.401  1.00  0.00     0.006 C 
BRANCH   3   4
ATOM      4  C   UNL     1      -5.629  24.965 -10.878  1.00  0.00     0.053 C 
BRANCH   4   5
ATOM      5  C   UNL     1      -4.593  24.750 -11.935  1.00  0.00     0.041 C 
ATOM      6  O   UNL     1      -3.875  23.715 -11.918  1.00  0.00    -0.550 OA
ATOM      7  O   UNL     1      -4.386  25.714 -12.912  1.00  0.00    -0.550 OA
ENDBRANCH   4   5
ENDBRANCH   3   4
ENDBRANCH   2   3
ENDBRANCH   1   2
BRANCH   1   8
ATOM      8  C   UNL     1      -5.949  21.013 -11.141  1.00  0.00     0.000 C 
BRANCH   8   9
ATOM      9  C   UNL     1      -6.230  19.706 -10.384  1.00  0.00     0.006 C 
BRANCH   9  10
ATOM     10  C   UNL     1      -6.300  19.953  -8.873  1.00  0.00     0.053 C 
BRANCH  10  11
ATOM     11  C   UNL     1      -7.267  19.009  -8.232  1.00  0.00     0.041 C 
ATOM     12  O   UNL     1      -7.523  17.900  -8.772  1.00  0.00    -0.550 OA
ATOM     13  O   UNL     1      -7.923  19.373  -7.064  1.00  0.00    -0.550 OA
ENDBRANCH  10  11
ENDBRANCH   9  10
ENDBRANCH   8   9
ENDBRANCH   1   8
TORSDOF 8
ENDMDL
MODEL 8
REMARK VINA RESULT:    -3.464      9.256     10.446
REMARK INTER + INTRA:          -5.422
REMARK INTER:                  -4.971
REMARK INTRA:                  -0.451
REMARK UNBOUND:                -0.338
REMARK SMILES O=C([O-])CCCCCCCC(=O)[O-]
REMARK SMILES IDX 7 1 6 2 5 3 4 4 2 5 1 6 3 7 8 8 9 9 10 10 11 11 12 12 13 13
REMARK H PARENT
REMARK Flexibility Score: inf
ROOT
ATOM      1  C   UNL     1     -13.865  28.056 -10.434  1.00  0.00     0.000 C 
ENDROOT
BRANCH   1   2
ATOM      2  C   UNL     1     -13.709  26.660 -11.061  1.00  0.00     0.000 C 
BRANCH   2   3
ATOM      3  C   UNL     1     -14.944  26.235 -11.870  1.00  0.00     0.006 C 
BRANCH   3   4
ATOM      4  C   UNL     1     -16.222  26.960 -11.426  1.00  0.00     0.053 C 
BRANCH   4   5
ATOM      5  C   UNL     1     -16.776  27.776 -12.551  1.00  0.00     0.041 C 
ATOM      6  O   UNL     1     -17.285  27.210 -13.554  1.00  0.00    -0.550 OA
ATOM      7  O   UNL     1     -16.687  29.161 -12.515  1.00  0.00    -0.550 OA
ENDBRANCH   4   5
ENDBRANCH   3   4
ENDBRANCH   2   3
ENDBRANCH   1   2
BRANCH   1   8
ATOM      8  C   UNL     1     -12.946  28.266  -9.220  1.00  0.00     0.000 C 
BRANCH   8   9
ATOM      9  C   UNL     1     -12.229  26.977  -8.789  1.00  0.00     0.006 C 
BRANCH   9  10
ATOM     10  C   UNL     1     -10.762  27.256  -8.444  1.00  0.00     0.053 C 
BRANCH  10  11
ATOM     11  C   UNL     1      -9.856  26.411  -9.282  1.00  0.00     0.041 C 
ATOM     12  O   UNL     1     -10.238  25.997 -10.408  1.00  0.00    -0.550 OA
ATOM     13  O   UNL     1      -8.608  26.040  -8.799  1.00  0.00    -0.550 OA
ENDBRANCH  10  11
ENDBRANCH   9  10
ENDBRANCH   8   9
ENDBRANCH   1   8
TORSDOF 8
ENDMDL
MODEL 9
REMARK VINA RESULT:    -3.426      1.950      2.455
REMARK INTER + INTRA:          -5.366
REMARK INTER:                  -4.803
REMARK INTRA:                  -0.564
REMARK UNBOUND:                -0.338
REMARK SMILES O=C([O-])CCCCCCCC(=O)[O-]
REMARK SMILES IDX 7 1 6 2 5 3 4 4 2 5 1 6 3 7 8 8 9 9 10 10 11 11 12 12 13 13
REMARK H PARENT
REMARK Flexibility Score: inf
ROOT
ATOM      1  C   UNL     1      -7.927  21.193 -11.368  1.00  0.00     0.000 C 
ENDROOT
BRANCH   1   2
ATOM      2  C   UNL     1      -6.460  20.730 -11.351  1.00  0.00     0.000 C 
BRANCH   2   3
ATOM      3  C   UNL     1      -6.172  19.719 -10.229  1.00  0.00     0.006 C 
BRANCH   3   4
ATOM      4  C   UNL     1      -6.559  20.248  -8.842  1.00  0.00     0.053 C 
BRANCH   4   5
ATOM      5  C   UNL     1      -7.370  19.230  -8.103  1.00  0.00     0.041 C 
ATOM      6  O   UNL     1      -7.875  19.513  -6.984  1.00  0.00    -0.550 OA
ATOM      7  O   UNL     1      -7.526  17.954  -8.625  1.00  0.00    -0.550 OA
ENDBRANCH   4   5
ENDBRANCH   3   4
ENDBRANCH   2   3
ENDBRANCH   1   2
BRANCH   1   8
ATOM      8  C   UNL     1      -8.142  22.444 -12.233  1.00  0.00     0.000 C 
BRANCH   8   9
ATOM      9  C   UNL     1      -8.210  23.736 -11.403  1.00  0.00     0.006 C 
BRANCH   9  10
ATOM     10  C   UNL     1      -7.000  24.632 -11.685  1.00  0.00     0.053 C 
BRANCH  10  11
ATOM     11  C   UNL     1      -5.878  24.307 -10.751  1.00  0.00     0.041 C 
ATOM     12  O   UNL     1      -6.122  23.858  -9.600  1.00  0.00    -0.550 OA
ATOM     13  O   UNL     1      -4.565  24.546 -11.133  1.00  0.00    -0.550 OA
ENDBRANCH  10  11
ENDBRANCH   9  10
ENDBRANCH   8   9
ENDBRANCH   1   8
TORSDOF 8
ENDMDL
