MODEL 1
REMARK VINA RESULT:    -3.691      0.000      0.000
REMARK INTER + INTRA:          -4.030
REMARK INTER:                  -4.015
REMARK INTRA:                  -0.016
REMARK UNBOUND:                -0.016
REMARK SMILES OCc1ccco1
REMARK SMILES IDX 2 1 3 2 5 3 6 4 4 5 7 6 1 7
REMARK H PARENT 1 8
REMARK Flexibility Score: inf
ROOT
ATOM      1  C   UNL     1      27.652  37.529   0.842  1.00  0.00     0.231 C 
ENDROOT
BRANCH   1   2
ATOM      2  C   UNL     1      27.826  36.580  -0.301  1.00  0.00     0.129 A 
ATOM      3  C   UNL     1      27.942  34.754  -1.516  1.00  0.00     0.042 A 
ATOM      4  C   UNL     1      28.121  35.881  -2.293  1.00  0.00     0.195 A 
ATOM      5  C   UNL     1      27.748  35.205  -0.228  1.00  0.00     0.048 A 
ATOM      6  O   UNL     1      28.045  36.955  -1.540  1.00  0.00    -0.467 OA
ENDBRANCH   1   2
BRANCH   1   7
ATOM      7  O   UNL     1      26.995  36.888   1.901  1.00  0.00    -0.388 OA
ATOM      8  H   UNL     1      26.031  37.106   1.811  1.00  0.00     0.211 HD
ENDBRANCH   1   7
TORSDOF 2
ENDMDL
MODEL 2
REMARK VINA RESULT:    -3.524      1.417      3.298
REMARK INTER + INTRA:          -3.848
REMARK INTER:                  -3.827
REMARK INTRA:                  -0.021
REMARK UNBOUND:                -0.016
REMARK SMILES OCc1ccco1
REMARK SMILES IDX 2 1 3 2 5 3 6 4 4 5 7 6 1 7
REMARK H PARENT 1 8
REMARK Flexibility Score: inf
ROOT
ATOM      1  C   UNL     1      27.756  35.712  -1.958  1.00  0.00     0.231 C 
ENDROOT
BRANCH   1   2
ATOM      2  C   UNL     1      27.523  36.631  -0.802  1.00  0.00     0.129 A 
ATOM      3  C   UNL     1      27.367  38.424   0.458  1.00  0.00     0.042 A 
ATOM      4  C   UNL     1      26.933  37.301   1.134  1.00  0.00     0.195 A 
ATOM      5  C   UNL     1      27.746  37.993  -0.796  1.00  0.00     0.048 A 
ATOM      6  O   UNL     1      27.037  36.247   0.356  1.00  0.00    -0.467 OA
ENDBRANCH   1   2
BRANCH   1   7
ATOM      7  O   UNL     1      27.752  34.381  -1.521  1.00  0.00    -0.388 OA
ATOM      8  H   UNL     1      27.597  33.818  -2.324  1.00  0.00     0.211 HD
ENDBRANCH   1   7
TORSDOF 2
ENDMDL
MODEL 3
REMARK VINA RESULT:    -3.443     19.090     19.682
REMARK INTER + INTRA:          -3.760
REMARK INTER:                  -3.743
REMARK INTRA:                  -0.017
REMARK UNBOUND:                -0.016
REMARK SMILES OCc1ccco1
REMARK SMILES IDX 2 1 3 2 5 3 6 4 4 5 7 6 1 7
REMARK H PARENT 1 8
REMARK Flexibility Score: inf
ROOT
ATOM      1  C   UNL     1      10.165  31.417   1.845  1.00  0.00     0.231 C 
ENDROOT
BRANCH   1   2
ATOM      2  C   UNL     1       9.528  31.641   3.179  1.00  0.00     0.129 A 
ATOM      3  C   UNL     1       9.145  32.293   5.242  1.00  0.00     0.042 A 
ATOM      4  C   UNL     1       8.053  31.628   4.720  1.00  0.00     0.195 A 
ATOM      5  C   UNL     1      10.098  32.305   4.246  1.00  0.00     0.048 A 
ATOM      6  O   UNL     1       8.311  31.253   3.487  1.00  0.00    -0.467 OA
ENDBRANCH   1   2
BRANCH   1   7
ATOM      7  O   UNL     1       9.406  32.034   0.842  1.00  0.00    -0.388 OA
ATOM      8  H   UNL     1       8.461  32.007   1.143  1.00  0.00     0.211 HD
ENDBRANCH   1   7
TORSDOF 2
ENDMDL
MODEL 4
REMARK VINA RESULT:    -3.139     12.404     12.871
REMARK INTER + INTRA:          -3.430
REMARK INTER:                  -3.409
REMARK INTRA:                  -0.021
REMARK UNBOUND:                -0.016
REMARK SMILES OCc1ccco1
REMARK SMILES IDX 2 1 3 2 5 3 6 4 4 5 7 6 1 7
REMARK H PARENT 1 8
REMARK Flexibility Score: inf
ROOT
ATOM      1  C   UNL     1      22.827  34.666  11.255  1.00  0.00     0.231 C 
ENDROOT
BRANCH   1   2
ATOM      2  C   UNL     1      23.975  33.715  11.373  1.00  0.00     0.129 A 
ATOM      3  C   UNL     1      25.464  32.157  10.949  1.00  0.00     0.042 A 
ATOM      4  C   UNL     1      25.704  32.755  12.169  1.00  0.00     0.195 A 
ATOM      5  C   UNL     1      24.348  32.779  10.431  1.00  0.00     0.048 A 
ATOM      6  O   UNL     1      24.800  33.682  12.394  1.00  0.00    -0.467 OA
ENDBRANCH   1   2
BRANCH   1   7
ATOM      7  O   UNL     1      23.028  35.767  12.098  1.00  0.00    -0.388 OA
ATOM      8  H   UNL     1      22.302  36.414  11.898  1.00  0.00     0.211 HD
ENDBRANCH   1   7
TORSDOF 2
ENDMDL
MODEL 5
REMARK VINA RESULT:    -3.096     15.210     16.007
REMARK INTER + INTRA:          -3.383
REMARK INTER:                  -3.370
REMARK INTRA:                  -0.013
REMARK UNBOUND:                -0.016
REMARK SMILES OCc1ccco1
REMARK SMILES IDX 2 1 3 2 5 3 6 4 4 5 7 6 1 7
REMARK H PARENT 1 8
REMARK Flexibility Score: inf
ROOT
ATOM      1  C   UNL     1      24.499  39.223  14.893  1.00  0.00     0.231 C 
ENDROOT
BRANCH   1   2
ATOM      2  C   UNL     1      23.676  37.975  14.840  1.00  0.00     0.129 A 
ATOM      3  C   UNL     1      22.956  35.952  14.377  1.00  0.00     0.042 A 
ATOM      4  C   UNL     1      22.122  36.583  15.279  1.00  0.00     0.195 A 
ATOM      5  C   UNL     1      23.963  36.850  14.094  1.00  0.00     0.048 A 
ATOM      6  O   UNL     1      22.580  37.787  15.537  1.00  0.00    -0.467 OA
ENDBRANCH   1   2
BRANCH   1   7
ATOM      7  O   UNL     1      23.984  40.175  14.002  1.00  0.00    -0.388 OA
ATOM      8  H   UNL     1      24.605  40.949  14.025  1.00  0.00     0.211 HD
ENDBRANCH   1   7
TORSDOF 2
ENDMDL
MODEL 6
REMARK VINA RESULT:    -3.092     19.080     19.558
REMARK INTER + INTRA:          -3.379
REMARK INTER:                  -3.365
REMARK INTRA:                  -0.014
REMARK UNBOUND:                -0.016
REMARK SMILES OCc1ccco1
REMARK SMILES IDX 2 1 3 2 5 3 6 4 4 5 7 6 1 7
REMARK H PARENT 1 8
REMARK Flexibility Score: inf
ROOT
ATOM      1  C   UNL     1       8.021  31.704   5.367  1.00  0.00     0.231 C 
ENDROOT
BRANCH   1   2
ATOM      2  C   UNL     1       8.991  31.859   4.239  1.00  0.00     0.129 A 
ATOM      3  C   UNL     1      10.768  32.364   3.051  1.00  0.00     0.042 A 
ATOM      4  C   UNL     1       9.849  31.662   2.297  1.00  0.00     0.195 A 
ATOM      5  C   UNL     1      10.216  32.489   4.309  1.00  0.00     0.048 A 
ATOM      6  O   UNL     1       8.800  31.373   3.034  1.00  0.00    -0.467 OA
ENDBRANCH   1   2
BRANCH   1   7
ATOM      7  O   UNL     1       8.689  31.255   6.515  1.00  0.00    -0.388 OA
ATOM      8  H   UNL     1       8.582  31.964   7.201  1.00  0.00     0.211 HD
ENDBRANCH   1   7
TORSDOF 2
ENDMDL
MODEL 7
REMARK VINA RESULT:    -3.023     12.516     13.254
REMARK INTER + INTRA:          -3.304
REMARK INTER:                  -3.290
REMARK INTRA:                  -0.014
REMARK UNBOUND:                -0.016
REMARK SMILES OCc1ccco1
REMARK SMILES IDX 2 1 3 2 5 3 6 4 4 5 7 6 1 7
REMARK H PARENT 1 8
REMARK Flexibility Score: inf
ROOT
ATOM      1  C   UNL     1      22.984  35.177  13.129  1.00  0.00     0.231 C 
ENDROOT
BRANCH   1   2
ATOM      2  C   UNL     1      23.817  34.271  12.280  1.00  0.00     0.129 A 
ATOM      3  C   UNL     1      24.575  33.075  10.601  1.00  0.00     0.042 A 
ATOM      4  C   UNL     1      25.445  33.037  11.671  1.00  0.00     0.195 A 
ATOM      5  C   UNL     1      23.522  33.875  10.992  1.00  0.00     0.048 A 
ATOM      6  O   UNL     1      24.967  33.761  12.657  1.00  0.00    -0.467 OA
ENDBRANCH   1   2
BRANCH   1   7
ATOM      7  O   UNL     1      23.292  36.515  12.848  1.00  0.00    -0.388 OA
ATOM      8  H   UNL     1      22.781  37.067  13.495  1.00  0.00     0.211 HD
ENDBRANCH   1   7
TORSDOF 2
ENDMDL
MODEL 8
REMARK VINA RESULT:    -2.984     12.414     13.342
REMARK INTER + INTRA:          -3.261
REMARK INTER:                  -3.249
REMARK INTRA:                  -0.013
REMARK UNBOUND:                -0.016
REMARK SMILES OCc1ccco1
REMARK SMILES IDX 2 1 3 2 5 3 6 4 4 5 7 6 1 7
REMARK H PARENT 1 8
REMARK Flexibility Score: inf
ROOT
ATOM      1  C   UNL     1      26.231  33.607  12.008  1.00  0.00     0.231 C 
ENDROOT
BRANCH   1   2
ATOM      2  C   UNL     1      24.796  34.020  12.087  1.00  0.00     0.129 A 
ATOM      3  C   UNL     1      22.675  34.347  11.617  1.00  0.00     0.042 A 
ATOM      4  C   UNL     1      22.975  34.784  12.891  1.00  0.00     0.195 A 
ATOM      5  C   UNL     1      23.851  33.849  11.096  1.00  0.00     0.048 A 
ATOM      6  O   UNL     1      24.247  34.574  13.144  1.00  0.00    -0.467 OA
ENDBRANCH   1   2
BRANCH   1   7
ATOM      7  O   UNL     1      26.986  34.612  11.389  1.00  0.00    -0.388 OA
ATOM      8  H   UNL     1      26.814  35.448  11.895  1.00  0.00     0.211 HD
ENDBRANCH   1   7
TORSDOF 2
ENDMDL
MODEL 9
REMARK VINA RESULT:    -2.966     11.360     12.494
REMARK INTER + INTRA:          -3.242
REMARK INTER:                  -3.229
REMARK INTRA:                  -0.013
REMARK UNBOUND:                -0.016
REMARK SMILES OCc1ccco1
REMARK SMILES IDX 2 1 3 2 5 3 6 4 4 5 7 6 1 7
REMARK H PARENT 1 8
REMARK Flexibility Score: inf
ROOT
ATOM      1  C   UNL     1      24.574  30.958   9.267  1.00  0.00     0.231 C 
ENDROOT
BRANCH   1   2
ATOM      2  C   UNL     1      24.926  31.872  10.397  1.00  0.00     0.129 A 
ATOM      3  C   UNL     1      24.996  33.586  11.770  1.00  0.00     0.042 A 
ATOM      4  C   UNL     1      25.820  32.567  12.204  1.00  0.00     0.195 A 
ATOM      5  C   UNL     1      24.415  33.137  10.602  1.00  0.00     0.048 A 
ATOM      6  O   UNL     1      25.755  31.557  11.366  1.00  0.00    -0.467 OA
ENDBRANCH   1   2
BRANCH   1   7
ATOM      7  O   UNL     1      25.570  31.008   8.282  1.00  0.00    -0.388 OA
ATOM      8  H   UNL     1      25.825  31.962   8.185  1.00  0.00     0.211 HD
ENDBRANCH   1   7
TORSDOF 2
ENDMDL
