MODEL 1
REMARK VINA RESULT:    -6.411      0.000      0.000
REMARK INTER + INTRA:          -6.411
REMARK INTER:                  -6.411
REMARK INTRA:                   0.000
REMARK UNBOUND:                 0.000
REMARK SMILES C=C1CCC[C@]2(C)Cc3occ(C)c3C[C@@H]12
REMARK SMILES IDX 13 1 12 2 11 3 10 4 9 5 14 6 15 7 16 8 2 9 1 10 3 11 4 12
REMARK SMILES IDX 5 13 6 14 8 15 7 16
REMARK H PARENT
REMARK Flexibility Score: inf
ROOT
ATOM      1  C   UNL     1       9.355  46.684   7.096  1.00  0.00     0.048 C 
ATOM      2  C   UNL     1       8.815  46.306   8.448  1.00  0.00    -0.009 A 
ATOM      3  C   UNL     1       9.524  45.565   9.371  1.00  0.00     0.198 A 
ATOM      4  O   UNL     1       8.702  45.075  10.283  1.00  0.00    -0.469 OA
ATOM      5  C   UNL     1       7.470  45.445   9.991  1.00  0.00     0.107 A 
ATOM      6  C   UNL     1       7.470  46.063   8.753  1.00  0.00    -0.003 A 
ATOM      7  C   UNL     1       6.520  45.530   7.696  1.00  0.00     0.048 C 
ATOM      8  C   UNL     1       5.238  44.839   8.246  1.00  0.00     0.025 C 
ATOM      9  C   UNL     1       4.571  43.852   7.276  1.00  0.00    -0.073 C 
ATOM     10  C   UNL     1       4.677  44.057   5.938  1.00  0.00     0.008 C 
ATOM     11  C   UNL     1       3.541  42.858   7.745  1.00  0.00     0.031 C 
ATOM     12  C   UNL     1       3.227  42.817   9.296  1.00  0.00     0.005 C 
ATOM     13  C   UNL     1       3.983  43.901  10.186  1.00  0.00     0.008 C 
ATOM     14  C   UNL     1       5.415  44.123   9.653  1.00  0.00    -0.019 C 
ATOM     15  C   UNL     1       6.209  44.983  10.638  1.00  0.00     0.083 C 
ATOM     16  C   UNL     1       6.255  42.782   9.510  1.00  0.00     0.012 C 
ENDROOT
TORSDOF 0
ENDMDL
MODEL 2
REMARK VINA RESULT:    -6.314      7.552      9.957
REMARK INTER + INTRA:          -6.314
REMARK INTER:                  -6.314
REMARK INTRA:                   0.000
REMARK UNBOUND:                 0.000
REMARK SMILES C=C1CCC[C@]2(C)Cc3occ(C)c3C[C@@H]12
REMARK SMILES IDX 13 1 12 2 11 3 10 4 9 5 14 6 15 7 16 8 2 9 1 10 3 11 4 12
REMARK SMILES IDX 5 13 6 14 8 15 7 16
REMARK H PARENT
REMARK Flexibility Score: inf
ROOT
ATOM      1  C   UNL     1      10.422  46.670   3.738  1.00  0.00     0.048 C 
ATOM      2  C   UNL     1      10.796  46.917   2.301  1.00  0.00    -0.009 A 
ATOM      3  C   UNL     1      11.755  47.826   1.909  1.00  0.00     0.198 A 
ATOM      4  O   UNL     1      11.616  48.103   0.623  1.00  0.00    -0.469 OA
ATOM      5  C   UNL     1      10.587  47.427   0.150  1.00  0.00     0.107 A 
ATOM      6  C   UNL     1       9.932  46.812   1.203  1.00  0.00    -0.003 A 
ATOM      7  C   UNL     1       8.445  47.072   1.359  1.00  0.00     0.048 C 
ATOM      8  C   UNL     1       7.692  47.421   0.041  1.00  0.00     0.025 C 
ATOM      9  C   UNL     1       6.377  48.192   0.235  1.00  0.00    -0.073 C 
ATOM     10  C   UNL     1       5.653  48.003   1.368  1.00  0.00     0.008 C 
ATOM     11  C   UNL     1       5.699  48.896  -0.910  1.00  0.00     0.031 C 
ATOM     12  C   UNL     1       6.436  48.878  -2.311  1.00  0.00     0.005 C 
ATOM     13  C   UNL     1       7.786  48.034  -2.374  1.00  0.00     0.008 C 
ATOM     14  C   UNL     1       8.565  48.177  -1.048  1.00  0.00    -0.019 C 
ATOM     15  C   UNL     1       9.959  47.562  -1.195  1.00  0.00     0.083 C 
ATOM     16  C   UNL     1       8.827  49.686  -0.624  1.00  0.00     0.012 C 
ENDROOT
TORSDOF 0
ENDMDL
MODEL 3
REMARK VINA RESULT:    -6.161      8.229     10.883
REMARK INTER + INTRA:          -6.161
REMARK INTER:                  -6.161
REMARK INTRA:                   0.000
REMARK UNBOUND:                 0.000
REMARK SMILES C=C1CCC[C@]2(C)Cc3occ(C)c3C[C@@H]12
REMARK SMILES IDX 13 1 12 2 11 3 10 4 9 5 14 6 15 7 16 8 2 9 1 10 3 11 4 12
REMARK SMILES IDX 5 13 6 14 8 15 7 16
REMARK H PARENT
REMARK Flexibility Score: inf
ROOT
ATOM      1  C   UNL     1      -2.314  45.846   6.122  1.00  0.00     0.048 C 
ATOM      2  C   UNL     1      -2.906  45.518   4.778  1.00  0.00    -0.009 A 
ATOM      3  C   UNL     1      -3.718  44.428   4.549  1.00  0.00     0.198 A 
ATOM      4  O   UNL     1      -3.783  44.178   3.252  1.00  0.00    -0.469 OA
ATOM      5  C   UNL     1      -3.028  45.050   2.611  1.00  0.00     0.107 A 
ATOM      6  C   UNL     1      -2.317  45.793   3.537  1.00  0.00    -0.003 A 
ATOM      7  C   UNL     1      -0.807  45.848   3.391  1.00  0.00     0.048 C 
ATOM      8  C   UNL     1      -0.275  45.654   1.940  1.00  0.00     0.025 C 
ATOM      9  C   UNL     1       1.181  45.173   1.846  1.00  0.00    -0.073 C 
ATOM     10  C   UNL     1       2.061  45.515   2.822  1.00  0.00     0.008 C 
ATOM     11  C   UNL     1       1.748  44.617   0.566  1.00  0.00     0.031 C 
ATOM     12  C   UNL     1       0.760  44.474  -0.662  1.00  0.00     0.005 C 
ATOM     13  C   UNL     1      -0.719  45.020  -0.431  1.00  0.00     0.008 C 
ATOM     14  C   UNL     1      -1.174  44.727   1.016  1.00  0.00    -0.019 C 
ATOM     15  C   UNL     1      -2.664  45.039   1.165  1.00  0.00     0.083 C 
ATOM     16  C   UNL     1      -1.033  43.199   1.429  1.00  0.00     0.012 C 
ENDROOT
TORSDOF 0
ENDMDL
MODEL 4
REMARK VINA RESULT:    -6.024      8.597     11.398
REMARK INTER + INTRA:          -6.024
REMARK INTER:                  -6.024
REMARK INTRA:                   0.000
REMARK UNBOUND:                 0.000
REMARK SMILES C=C1CCC[C@]2(C)Cc3occ(C)c3C[C@@H]12
REMARK SMILES IDX 13 1 12 2 11 3 10 4 9 5 14 6 15 7 16 8 2 9 1 10 3 11 4 12
REMARK SMILES IDX 5 13 6 14 8 15 7 16
REMARK H PARENT
REMARK Flexibility Score: inf
ROOT
ATOM      1  C   UNL     1       1.001  44.515  -2.629  1.00  0.00     0.048 C 
ATOM      2  C   UNL     1      -0.373  44.570  -2.016  1.00  0.00    -0.009 A 
ATOM      3  C   UNL     1      -1.374  45.405  -2.465  1.00  0.00     0.198 A 
ATOM      4  O   UNL     1      -2.315  45.518  -1.543  1.00  0.00    -0.469 OA
ATOM      5  C   UNL     1      -1.967  44.805  -0.489  1.00  0.00     0.107 A 
ATOM      6  C   UNL     1      -0.676  44.341  -0.668  1.00  0.00    -0.003 A 
ATOM      7  C   UNL     1       0.342  44.644   0.417  1.00  0.00     0.048 C 
ATOM      8  C   UNL     1      -0.250  44.835   1.845  1.00  0.00     0.025 C 
ATOM      9  C   UNL     1       0.632  45.646   2.805  1.00  0.00    -0.073 C 
ATOM     10  C   UNL     1       1.982  45.616   2.658  1.00  0.00     0.008 C 
ATOM     11  C   UNL     1       0.088  46.210   4.091  1.00  0.00     0.031 C 
ATOM     12  C   UNL     1      -1.454  46.001   4.380  1.00  0.00     0.005 C 
ATOM     13  C   UNL     1      -2.249  45.133   3.305  1.00  0.00     0.008 C 
ATOM     14  C   UNL     1      -1.721  45.430   1.885  1.00  0.00    -0.019 C 
ATOM     15  C   UNL     1      -2.634  44.778   0.844  1.00  0.00     0.083 C 
ATOM     16  C   UNL     1      -1.722  46.977   1.518  1.00  0.00     0.012 C 
ENDROOT
TORSDOF 0
ENDMDL
MODEL 5
REMARK VINA RESULT:    -5.712      6.962      8.526
REMARK INTER + INTRA:          -5.712
REMARK INTER:                  -5.712
REMARK INTRA:                   0.000
REMARK UNBOUND:                 0.000
REMARK SMILES C=C1CCC[C@]2(C)Cc3occ(C)c3C[C@@H]12
REMARK SMILES IDX 13 1 12 2 11 3 10 4 9 5 14 6 15 7 16 8 2 9 1 10 3 11 4 12
REMARK SMILES IDX 5 13 6 14 8 15 7 16
REMARK H PARENT
REMARK Flexibility Score: inf
ROOT
ATOM      1  C   UNL     1      10.747  36.606   7.205  1.00  0.00     0.048 C 
ATOM      2  C   UNL     1       9.299  36.229   7.049  1.00  0.00    -0.009 A 
ATOM      3  C   UNL     1       8.529  36.594   5.965  1.00  0.00     0.198 A 
ATOM      4  O   UNL     1       7.246  36.460   6.256  1.00  0.00    -0.469 OA
ATOM      5  C   UNL     1       7.133  36.036   7.500  1.00  0.00     0.107 A 
ATOM      6  C   UNL     1       8.383  36.052   8.094  1.00  0.00    -0.003 A 
ATOM      7  C   UNL     1       8.538  36.814   9.397  1.00  0.00     0.048 C 
ATOM      8  C   UNL     1       7.243  36.931  10.254  1.00  0.00     0.025 C 
ATOM      9  C   UNL     1       7.230  38.103  11.246  1.00  0.00    -0.073 C 
ATOM     10  C   UNL     1       8.401  38.545  11.773  1.00  0.00     0.008 C 
ATOM     11  C   UNL     1       5.957  38.568  11.902  1.00  0.00     0.031 C 
ATOM     12  C   UNL     1       4.614  37.850  11.470  1.00  0.00     0.005 C 
ATOM     13  C   UNL     1       4.773  36.644  10.440  1.00  0.00     0.008 C 
ATOM     14  C   UNL     1       5.890  36.958   9.422  1.00  0.00    -0.019 C 
ATOM     15  C   UNL     1       5.883  35.914   8.303  1.00  0.00     0.083 C 
ATOM     16  C   UNL     1       5.703  38.352   8.681  1.00  0.00     0.012 C 
ENDROOT
TORSDOF 0
ENDMDL
MODEL 6
REMARK VINA RESULT:    -5.565      1.955      3.347
REMARK INTER + INTRA:          -5.565
REMARK INTER:                  -5.565
REMARK INTRA:                   0.000
REMARK UNBOUND:                 0.000
REMARK SMILES C=C1CCC[C@]2(C)Cc3occ(C)c3C[C@@H]12
REMARK SMILES IDX 13 1 12 2 11 3 10 4 9 5 14 6 15 7 16 8 2 9 1 10 3 11 4 12
REMARK SMILES IDX 5 13 6 14 8 15 7 16
REMARK H PARENT
REMARK Flexibility Score: inf
ROOT
ATOM      1  C   UNL     1       9.233  42.518  12.911  1.00  0.00     0.048 C 
ATOM      2  C   UNL     1       8.812  43.696  12.075  1.00  0.00    -0.009 A 
ATOM      3  C   UNL     1       8.414  44.904  12.608  1.00  0.00     0.198 A 
ATOM      4  O   UNL     1       7.762  45.606  11.697  1.00  0.00    -0.469 OA
ATOM      5  C   UNL     1       7.695  44.902  10.583  1.00  0.00     0.107 A 
ATOM      6  C   UNL     1       8.178  43.629  10.828  1.00  0.00    -0.003 A 
ATOM      7  C   UNL     1       7.286  42.453  10.475  1.00  0.00     0.048 C 
ATOM      8  C   UNL     1       6.269  42.716   9.325  1.00  0.00     0.025 C 
ATOM      9  C   UNL     1       5.045  41.787   9.322  1.00  0.00    -0.073 C 
ATOM     10  C   UNL     1       5.165  40.525   9.810  1.00  0.00     0.008 C 
ATOM     11  C   UNL     1       3.817  42.102   8.511  1.00  0.00     0.031 C 
ATOM     12  C   UNL     1       3.802  43.473   7.720  1.00  0.00     0.005 C 
ATOM     13  C   UNL     1       5.140  44.336   7.802  1.00  0.00     0.008 C 
ATOM     14  C   UNL     1       5.763  44.217   9.210  1.00  0.00    -0.019 C 
ATOM     15  C   UNL     1       6.908  45.222   9.358  1.00  0.00     0.083 C 
ATOM     16  C   UNL     1       4.753  44.572  10.385  1.00  0.00     0.012 C 
ENDROOT
TORSDOF 0
ENDMDL
MODEL 7
REMARK VINA RESULT:    -5.534      6.634      8.384
REMARK INTER + INTRA:          -5.534
REMARK INTER:                  -5.534
REMARK INTRA:                   0.000
REMARK UNBOUND:                 0.000
REMARK SMILES C=C1CCC[C@]2(C)Cc3occ(C)c3C[C@@H]12
REMARK SMILES IDX 13 1 12 2 11 3 10 4 9 5 14 6 15 7 16 8 2 9 1 10 3 11 4 12
REMARK SMILES IDX 5 13 6 14 8 15 7 16
REMARK H PARENT
REMARK Flexibility Score: inf
ROOT
ATOM      1  C   UNL     1      11.114  37.756   9.787  1.00  0.00     0.048 C 
ATOM      2  C   UNL     1       9.946  37.733   8.838  1.00  0.00    -0.009 A 
ATOM      3  C   UNL     1       9.513  38.839   8.138  1.00  0.00     0.198 A 
ATOM      4  O   UNL     1       8.286  38.637   7.689  1.00  0.00    -0.469 OA
ATOM      5  C   UNL     1       7.879  37.445   8.082  1.00  0.00     0.107 A 
ATOM      6  C   UNL     1       8.814  36.918   8.955  1.00  0.00    -0.003 A 
ATOM      7  C   UNL     1       8.329  36.457  10.317  1.00  0.00     0.048 C 
ATOM      8  C   UNL     1       6.838  36.008  10.371  1.00  0.00     0.025 C 
ATOM      9  C   UNL     1       6.198  36.064  11.767  1.00  0.00    -0.073 C 
ATOM     10  C   UNL     1       6.975  35.878  12.865  1.00  0.00     0.008 C 
ATOM     11  C   UNL     1       4.706  35.994  11.954  1.00  0.00     0.031 C 
ATOM     12  C   UNL     1       3.813  35.939  10.649  1.00  0.00     0.005 C 
ATOM     13  C   UNL     1       4.606  35.876   9.268  1.00  0.00     0.008 C 
ATOM     14  C   UNL     1       5.878  36.747   9.345  1.00  0.00    -0.019 C 
ATOM     15  C   UNL     1       6.509  36.871   7.957  1.00  0.00     0.083 C 
ATOM     16  C   UNL     1       5.598  38.243   9.802  1.00  0.00     0.012 C 
ENDROOT
TORSDOF 0
ENDMDL
MODEL 8
REMARK VINA RESULT:    -5.506      9.199     10.795
REMARK INTER + INTRA:          -5.506
REMARK INTER:                  -5.506
REMARK INTRA:                   0.000
REMARK UNBOUND:                 0.000
REMARK SMILES C=C1CCC[C@]2(C)Cc3occ(C)c3C[C@@H]12
REMARK SMILES IDX 13 1 12 2 11 3 10 4 9 5 14 6 15 7 16 8 2 9 1 10 3 11 4 12
REMARK SMILES IDX 5 13 6 14 8 15 7 16
REMARK H PARENT
REMARK Flexibility Score: inf
ROOT
ATOM      1  C   UNL     1      12.807  50.600  -1.102  1.00  0.00     0.048 C 
ATOM      2  C   UNL     1      12.160  49.382  -0.499  1.00  0.00    -0.009 A 
ATOM      3  C   UNL     1      12.426  48.094  -0.914  1.00  0.00     0.198 A 
ATOM      4  O   UNL     1      11.475  47.279  -0.490  1.00  0.00    -0.469 OA
ATOM      5  C   UNL     1      10.576  47.980   0.174  1.00  0.00     0.107 A 
ATOM      6  C   UNL     1      10.869  49.326   0.040  1.00  0.00    -0.003 A 
ATOM      7  C   UNL     1       9.773  50.240  -0.477  1.00  0.00     0.048 C 
ATOM      8  C   UNL     1       8.320  49.761  -0.187  1.00  0.00     0.025 C 
ATOM      9  C   UNL     1       7.251  50.338  -1.127  1.00  0.00    -0.073 C 
ATOM     10  C   UNL     1       7.434  51.569  -1.670  1.00  0.00     0.008 C 
ATOM     11  C   UNL     1       5.871  49.742  -1.214  1.00  0.00     0.031 C 
ATOM     12  C   UNL     1       5.586  48.444  -0.355  1.00  0.00     0.005 C 
ATOM     13  C   UNL     1       6.779  47.957   0.583  1.00  0.00     0.008 C 
ATOM     14  C   UNL     1       8.135  48.185  -0.120  1.00  0.00    -0.019 C 
ATOM     15  C   UNL     1       9.254  47.509   0.677  1.00  0.00     0.083 C 
ATOM     16  C   UNL     1       8.217  47.538  -1.569  1.00  0.00     0.012 C 
ENDROOT
TORSDOF 0
ENDMDL
MODEL 9
REMARK VINA RESULT:    -5.420     11.021     12.272
REMARK INTER + INTRA:          -5.420
REMARK INTER:                  -5.420
REMARK INTRA:                   0.000
REMARK UNBOUND:                 0.000
REMARK SMILES C=C1CCC[C@]2(C)Cc3occ(C)c3C[C@@H]12
REMARK SMILES IDX 13 1 12 2 11 3 10 4 9 5 14 6 15 7 16 8 2 9 1 10 3 11 4 12
REMARK SMILES IDX 5 13 6 14 8 15 7 16
REMARK H PARENT
REMARK Flexibility Score: inf
ROOT
ATOM      1  C   UNL     1       8.908  46.727  -2.779  1.00  0.00     0.048 C 
ATOM      2  C   UNL     1       7.756  47.530  -2.237  1.00  0.00    -0.009 A 
ATOM      3  C   UNL     1       6.687  47.942  -3.005  1.00  0.00     0.198 A 
ATOM      4  O   UNL     1       6.037  48.914  -2.388  1.00  0.00    -0.469 OA
ATOM      5  C   UNL     1       6.646  49.179  -1.248  1.00  0.00     0.107 A 
ATOM      6  C   UNL     1       7.829  48.464  -1.196  1.00  0.00    -0.003 A 
ATOM      7  C   UNL     1       9.110  49.234  -0.934  1.00  0.00     0.048 C 
ATOM      8  C   UNL     1       8.935  50.555  -0.127  1.00  0.00     0.025 C 
ATOM      9  C   UNL     1      10.063  51.581  -0.318  1.00  0.00    -0.073 C 
ATOM     10  C   UNL     1      11.320  51.147  -0.593  1.00  0.00     0.008 C 
ATOM     11  C   UNL     1       9.902  53.017   0.105  1.00  0.00     0.031 C 
ATOM     12  C   UNL     1       8.494  53.450   0.683  1.00  0.00     0.005 C 
ATOM     13  C   UNL     1       7.418  52.284   0.835  1.00  0.00     0.008 C 
ATOM     14  C   UNL     1       7.543  51.289  -0.339  1.00  0.00    -0.019 C 
ATOM     15  C   UNL     1       6.368  50.309  -0.317  1.00  0.00     0.083 C 
ATOM     16  C   UNL     1       7.473  51.980  -1.768  1.00  0.00     0.012 C 
ENDROOT
TORSDOF 0
ENDMDL
