MODEL 1
REMARK VINA RESULT:    -6.168      0.000      0.000
REMARK INTER + INTRA:          -6.529
REMARK INTER:                  -6.529
REMARK INTRA:                   0.000
REMARK UNBOUND:                 0.000
REMARK SMILES O=c1ccc2cc(O)c(O)cc2o1
REMARK SMILES IDX 4 1 3 2 2 3 1 4 13 5 12 6 11 7 9 8 7 9 6 10 5 11 8 12 10 14
REMARK H PARENT 8 13 10 15
REMARK Flexibility Score: inf
ROOT
ATOM      1  C   UNL     1      73.247  40.708  -3.070  1.00  0.00     0.019 A 
ATOM      2  C   UNL     1      73.697  40.114  -4.248  1.00  0.00     0.094 A 
ATOM      3  C   UNL     1      74.548  40.840  -5.090  1.00  0.00     0.336 A 
ATOM      4  O   UNL     1      74.966  40.321  -6.158  1.00  0.00    -0.246 OA
ATOM      5  O   UNL     1      74.918  42.077  -4.770  1.00  0.00    -0.423 OA
ATOM      6  C   UNL     1      74.511  42.680  -3.656  1.00  0.00     0.142 A 
ATOM      7  C   UNL     1      74.933  43.982  -3.371  1.00  0.00     0.098 A 
ATOM      8  C   UNL     1      74.507  44.624  -2.198  1.00  0.00     0.161 A 
ATOM      9  C   UNL     1      73.651  43.955  -1.304  1.00  0.00     0.158 A 
ATOM     10  C   UNL     1      73.226  42.651  -1.587  1.00  0.00     0.062 A 
ATOM     11  C   UNL     1      73.652  42.009  -2.758  1.00  0.00     0.022 A 
ENDROOT
BRANCH   9  12
ATOM     12  O   UNL     1      73.213  44.569  -0.131  1.00  0.00    -0.504 OA
ATOM     13  H   UNL     1      73.548  44.286   0.781  1.00  0.00     0.293 HD
ENDBRANCH   9  12
BRANCH   8  14
ATOM     14  O   UNL     1      74.931  45.922  -1.918  1.00  0.00    -0.504 OA
ATOM     15  H   UNL     1      75.069  46.241  -0.967  1.00  0.00     0.293 HD
ENDBRANCH   8  14
TORSDOF 2
ENDMDL
MODEL 2
REMARK VINA RESULT:    -5.837      1.101      2.247
REMARK INTER + INTRA:          -6.179
REMARK INTER:                  -6.179
REMARK INTRA:                   0.000
REMARK UNBOUND:                 0.000
REMARK SMILES O=c1ccc2cc(O)c(O)cc2o1
REMARK SMILES IDX 4 1 3 2 2 3 1 4 13 5 12 6 11 7 9 8 7 9 6 10 5 11 8 12 10 14
REMARK H PARENT 8 13 10 15
REMARK Flexibility Score: inf
ROOT
ATOM      1  C   UNL     1      75.125  42.061  -4.867  1.00  0.00     0.019 A 
ATOM      2  C   UNL     1      74.631  40.798  -5.193  1.00  0.00     0.094 A 
ATOM      3  C   UNL     1      73.674  40.209  -4.360  1.00  0.00     0.336 A 
ATOM      4  O   UNL     1      73.216  39.070  -4.637  1.00  0.00    -0.246 OA
ATOM      5  O   UNL     1      73.243  40.845  -3.274  1.00  0.00    -0.423 OA
ATOM      6  C   UNL     1      73.687  42.051  -2.927  1.00  0.00     0.142 A 
ATOM      7  C   UNL     1      73.198  42.672  -1.774  1.00  0.00     0.098 A 
ATOM      8  C   UNL     1      73.663  43.942  -1.403  1.00  0.00     0.161 A 
ATOM      9  C   UNL     1      74.626  44.595  -2.194  1.00  0.00     0.158 A 
ATOM     10  C   UNL     1      75.118  43.976  -3.349  1.00  0.00     0.062 A 
ATOM     11  C   UNL     1      74.654  42.706  -3.720  1.00  0.00     0.022 A 
ENDROOT
BRANCH   9  12
ATOM     12  O   UNL     1      75.105  45.859  -1.848  1.00  0.00    -0.504 OA
ATOM     13  H   UNL     1      75.546  46.471  -2.525  1.00  0.00     0.293 HD
ENDBRANCH   9  12
BRANCH   8  14
ATOM     14  O   UNL     1      73.172  44.558  -0.253  1.00  0.00    -0.504 OA
ATOM     15  H   UNL     1      72.679  45.443  -0.293  1.00  0.00     0.293 HD
ENDBRANCH   8  14
TORSDOF 2
ENDMDL
MODEL 3
REMARK VINA RESULT:    -5.600      1.145      5.032
REMARK INTER + INTRA:          -5.927
REMARK INTER:                  -5.927
REMARK INTRA:                   0.000
REMARK UNBOUND:                 0.000
REMARK SMILES O=c1ccc2cc(O)c(O)cc2o1
REMARK SMILES IDX 4 1 3 2 2 3 1 4 13 5 12 6 11 7 9 8 7 9 6 10 5 11 8 12 10 14
REMARK H PARENT 8 13 10 15
REMARK Flexibility Score: inf
ROOT
ATOM      1  C   UNL     1      74.749  44.375  -3.000  1.00  0.00     0.019 A 
ATOM      2  C   UNL     1      74.173  44.924  -1.855  1.00  0.00     0.094 A 
ATOM      3  C   UNL     1      73.249  44.163  -1.130  1.00  0.00     0.336 A 
ATOM      4  O   UNL     1      72.719  44.640  -0.094  1.00  0.00    -0.246 OA
ATOM      5  O   UNL     1      72.926  42.936  -1.530  1.00  0.00    -0.423 OA
ATOM      6  C   UNL     1      73.452  42.375  -2.617  1.00  0.00     0.142 A 
ATOM      7  C   UNL     1      73.074  41.081  -2.988  1.00  0.00     0.098 A 
ATOM      8  C   UNL     1      73.625  40.485  -4.133  1.00  0.00     0.161 A 
ATOM      9  C   UNL     1      74.561  41.192  -4.911  1.00  0.00     0.158 A 
ATOM     10  C   UNL     1      74.941  42.487  -4.540  1.00  0.00     0.062 A 
ATOM     11  C   UNL     1      74.391  43.083  -3.397  1.00  0.00     0.022 A 
ENDROOT
BRANCH   9  12
ATOM     12  O   UNL     1      75.124  40.622  -6.053  1.00  0.00    -0.504 OA
ATOM     13  H   UNL     1      75.282  41.157  -6.898  1.00  0.00     0.293 HD
ENDBRANCH   9  12
BRANCH   8  14
ATOM     14  O   UNL     1      73.246  39.195  -4.500  1.00  0.00    -0.504 OA
ATOM     15  H   UNL     1      73.671  38.377  -4.079  1.00  0.00     0.293 HD
ENDBRANCH   8  14
TORSDOF 2
ENDMDL
MODEL 4
REMARK VINA RESULT:    -5.257     12.365     14.378
REMARK INTER + INTRA:          -5.564
REMARK INTER:                  -5.564
REMARK INTRA:                   0.000
REMARK UNBOUND:                 0.000
REMARK SMILES O=c1ccc2cc(O)c(O)cc2o1
REMARK SMILES IDX 4 1 3 2 2 3 1 4 13 5 12 6 11 7 9 8 7 9 6 10 5 11 8 12 10 14
REMARK H PARENT 8 13 10 15
REMARK Flexibility Score: inf
ROOT
ATOM      1  C   UNL     1      69.801  50.134   8.863  1.00  0.00     0.019 A 
ATOM      2  C   UNL     1      70.957  49.756   8.182  1.00  0.00     0.094 A 
ATOM      3  C   UNL     1      70.848  48.875   7.100  1.00  0.00     0.336 A 
ATOM      4  O   UNL     1      71.880  48.521   6.472  1.00  0.00    -0.246 OA
ATOM      5  O   UNL     1      69.659  48.406   6.729  1.00  0.00    -0.423 OA
ATOM      6  C   UNL     1      68.532  48.742   7.352  1.00  0.00     0.142 A 
ATOM      7  C   UNL     1      67.311  48.219   6.918  1.00  0.00     0.098 A 
ATOM      8  C   UNL     1      66.118  48.568   7.570  1.00  0.00     0.161 A 
ATOM      9  C   UNL     1      66.152  49.450   8.666  1.00  0.00     0.158 A 
ATOM     10  C   UNL     1      67.373  49.976   9.103  1.00  0.00     0.062 A 
ATOM     11  C   UNL     1      68.564  49.627   8.451  1.00  0.00     0.022 A 
ENDROOT
BRANCH   9  12
ATOM     12  O   UNL     1      64.982  49.815   9.333  1.00  0.00    -0.504 OA
ATOM     13  H   UNL     1      64.827  50.757   9.670  1.00  0.00     0.293 HD
ENDBRANCH   9  12
BRANCH   8  14
ATOM     14  O   UNL     1      64.903  48.044   7.134  1.00  0.00    -0.504 OA
ATOM     15  H   UNL     1      64.447  47.283   7.623  1.00  0.00     0.293 HD
ENDBRANCH   8  14
TORSDOF 2
ENDMDL
MODEL 5
REMARK VINA RESULT:    -5.177     11.252     13.182
REMARK INTER + INTRA:          -5.480
REMARK INTER:                  -5.480
REMARK INTRA:                   0.000
REMARK UNBOUND:                 0.000
REMARK SMILES O=c1ccc2cc(O)c(O)cc2o1
REMARK SMILES IDX 4 1 3 2 2 3 1 4 13 5 12 6 11 7 9 8 7 9 6 10 5 11 8 12 10 14
REMARK H PARENT 8 13 10 15
REMARK Flexibility Score: inf
ROOT
ATOM      1  C   UNL     1      73.060  49.683   8.508  1.00  0.00     0.019 A 
ATOM      2  C   UNL     1      74.010  49.035   7.721  1.00  0.00     0.094 A 
ATOM      3  C   UNL     1      73.580  48.281   6.624  1.00  0.00     0.336 A 
ATOM      4  O   UNL     1      74.423  47.688   5.900  1.00  0.00    -0.246 OA
ATOM      5  O   UNL     1      72.284  48.183   6.339  1.00  0.00    -0.423 OA
ATOM      6  C   UNL     1      71.345  48.785   7.065  1.00  0.00     0.142 A 
ATOM      7  C   UNL     1      69.998  48.648   6.718  1.00  0.00     0.098 A 
ATOM      8  C   UNL     1      69.003  49.279   7.480  1.00  0.00     0.161 A 
ATOM      9  C   UNL     1      69.362  50.055   8.597  1.00  0.00     0.158 A 
ATOM     10  C   UNL     1      70.710  50.195   8.947  1.00  0.00     0.062 A 
ATOM     11  C   UNL     1      71.705  49.564   8.186  1.00  0.00     0.022 A 
ENDROOT
BRANCH   9  12
ATOM     12  O   UNL     1      68.393  50.695   9.371  1.00  0.00    -0.504 OA
ATOM     13  H   UNL     1      67.702  51.313   8.964  1.00  0.00     0.293 HD
ENDBRANCH   9  12
BRANCH   8  14
ATOM     14  O   UNL     1      67.661  49.140   7.130  1.00  0.00    -0.504 OA
ATOM     15  H   UNL     1      66.918  49.461   7.739  1.00  0.00     0.293 HD
ENDBRANCH   8  14
TORSDOF 2
ENDMDL
MODEL 6
REMARK VINA RESULT:    -5.175      1.426      5.032
REMARK INTER + INTRA:          -5.478
REMARK INTER:                  -5.478
REMARK INTRA:                   0.000
REMARK UNBOUND:                 0.000
REMARK SMILES O=c1ccc2cc(O)c(O)cc2o1
REMARK SMILES IDX 4 1 3 2 2 3 1 4 13 5 12 6 11 7 9 8 7 9 6 10 5 11 8 12 10 14
REMARK H PARENT 8 13 10 15
REMARK Flexibility Score: inf
ROOT
ATOM      1  C   UNL     1      73.015  41.147  -2.729  1.00  0.00     0.019 A 
ATOM      2  C   UNL     1      73.433  42.376  -2.221  1.00  0.00     0.094 A 
ATOM      3  C   UNL     1      74.354  43.133  -2.952  1.00  0.00     0.336 A 
ATOM      4  O   UNL     1      74.744  44.246  -2.511  1.00  0.00    -0.246 OA
ATOM      5  O   UNL     1      74.824  42.685  -4.113  1.00  0.00    -0.423 OA
ATOM      6  C   UNL     1      74.451  41.518  -4.634  1.00  0.00     0.142 A 
ATOM      7  C   UNL     1      74.978  41.099  -5.859  1.00  0.00     0.098 A 
ATOM      8  C   UNL     1      74.590  39.869  -6.412  1.00  0.00     0.161 A 
ATOM      9  C   UNL     1      73.666  39.054  -5.732  1.00  0.00     0.158 A 
ATOM     10  C   UNL     1      73.136  39.472  -4.505  1.00  0.00     0.062 A 
ATOM     11  C   UNL     1      73.524  40.701  -3.952  1.00  0.00     0.022 A 
ENDROOT
BRANCH   9  12
ATOM     12  O   UNL     1      73.262  37.828  -6.260  1.00  0.00    -0.504 OA
ATOM     13  H   UNL     1      73.802  37.343  -6.966  1.00  0.00     0.293 HD
ENDBRANCH   9  12
BRANCH   8  14
ATOM     14  O   UNL     1      75.117  39.455  -7.634  1.00  0.00    -0.504 OA
ATOM     15  H   UNL     1      74.646  39.651  -8.509  1.00  0.00     0.293 HD
ENDBRANCH   8  14
TORSDOF 2
ENDMDL
MODEL 7
REMARK VINA RESULT:    -5.021      1.952      5.599
REMARK INTER + INTRA:          -5.314
REMARK INTER:                  -5.314
REMARK INTRA:                   0.000
REMARK UNBOUND:                 0.000
REMARK SMILES O=c1ccc2cc(O)c(O)cc2o1
REMARK SMILES IDX 4 1 3 2 2 3 1 4 13 5 12 6 11 7 9 8 7 9 6 10 5 11 8 12 10 14
REMARK H PARENT 8 13 10 15
REMARK Flexibility Score: inf
ROOT
ATOM      1  C   UNL     1      75.044  42.012  -4.089  1.00  0.00     0.019 A 
ATOM      2  C   UNL     1      74.664  42.740  -2.963  1.00  0.00     0.094 A 
ATOM      3  C   UNL     1      73.527  42.343  -2.251  1.00  0.00     0.336 A 
ATOM      4  O   UNL     1      73.168  42.987  -1.231  1.00  0.00    -0.246 OA
ATOM      5  O   UNL     1      72.820  41.287  -2.645  1.00  0.00    -0.423 OA
ATOM      6  C   UNL     1      73.147  40.565  -3.714  1.00  0.00     0.142 A 
ATOM      7  C   UNL     1      72.366  39.465  -4.081  1.00  0.00     0.098 A 
ATOM      8  C   UNL     1      72.706  38.700  -5.207  1.00  0.00     0.161 A 
ATOM      9  C   UNL     1      73.837  39.041  -5.971  1.00  0.00     0.158 A 
ATOM     10  C   UNL     1      74.621  40.142  -5.606  1.00  0.00     0.062 A 
ATOM     11  C   UNL     1      74.282  40.906  -4.481  1.00  0.00     0.022 A 
ENDROOT
BRANCH   9  12
ATOM     12  O   UNL     1      74.198  38.297  -7.095  1.00  0.00    -0.504 OA
ATOM     13  H   UNL     1      74.729  38.699  -7.857  1.00  0.00     0.293 HD
ENDBRANCH   9  12
BRANCH   8  14
ATOM     14  O   UNL     1      71.924  37.604  -5.569  1.00  0.00    -0.504 OA
ATOM     15  H   UNL     1      70.913  37.656  -5.588  1.00  0.00     0.293 HD
ENDBRANCH   8  14
TORSDOF 2
ENDMDL
MODEL 8
REMARK VINA RESULT:    -4.975      8.093     11.348
REMARK INTER + INTRA:          -5.266
REMARK INTER:                  -5.266
REMARK INTRA:                   0.000
REMARK UNBOUND:                 0.000
REMARK SMILES O=c1ccc2cc(O)c(O)cc2o1
REMARK SMILES IDX 4 1 3 2 2 3 1 4 13 5 12 6 11 7 9 8 7 9 6 10 5 11 8 12 10 14
REMARK H PARENT 8 13 10 15
REMARK Flexibility Score: inf
ROOT
ATOM      1  C   UNL     1      73.561  48.825   6.365  1.00  0.00     0.019 A 
ATOM      2  C   UNL     1      73.707  49.104   7.723  1.00  0.00     0.094 A 
ATOM      3  C   UNL     1      73.824  48.041   8.624  1.00  0.00     0.336 A 
ATOM      4  O   UNL     1      73.957  48.272   9.854  1.00  0.00    -0.246 OA
ATOM      5  O   UNL     1      73.797  46.783   8.191  1.00  0.00    -0.423 OA
ATOM      6  C   UNL     1      73.659  46.473   6.904  1.00  0.00     0.142 A 
ATOM      7  C   UNL     1      73.637  45.133   6.506  1.00  0.00     0.098 A 
ATOM      8  C   UNL     1      73.492  44.799   5.151  1.00  0.00     0.161 A 
ATOM      9  C   UNL     1      73.369  45.818   4.187  1.00  0.00     0.158 A 
ATOM     10  C   UNL     1      73.391  47.160   4.583  1.00  0.00     0.062 A 
ATOM     11  C   UNL     1      73.535  47.494   5.937  1.00  0.00     0.022 A 
ENDROOT
BRANCH   9  12
ATOM     12  O   UNL     1      73.224  45.514   2.834  1.00  0.00    -0.504 OA
ATOM     13  H   UNL     1      72.677  46.093   2.208  1.00  0.00     0.293 HD
ENDBRANCH   9  12
BRANCH   8  14
ATOM     14  O   UNL     1      73.471  43.462   4.758  1.00  0.00    -0.504 OA
ATOM     15  H   UNL     1      72.614  43.008   4.465  1.00  0.00     0.293 HD
ENDBRANCH   8  14
TORSDOF 2
ENDMDL
MODEL 9
REMARK VINA RESULT:    -4.910     12.261     13.200
REMARK INTER + INTRA:          -5.197
REMARK INTER:                  -5.197
REMARK INTRA:                   0.000
REMARK UNBOUND:                 0.000
REMARK SMILES O=c1ccc2cc(O)c(O)cc2o1
REMARK SMILES IDX 4 1 3 2 2 3 1 4 13 5 12 6 11 7 9 8 7 9 6 10 5 11 8 12 10 14
REMARK H PARENT 8 13 10 15
REMARK Flexibility Score: inf
ROOT
ATOM      1  C   UNL     1      71.834  50.346   7.832  1.00  0.00     0.019 A 
ATOM      2  C   UNL     1      73.172  50.000   8.018  1.00  0.00     0.094 A 
ATOM      3  C   UNL     1      73.530  48.648   8.002  1.00  0.00     0.336 A 
ATOM      4  O   UNL     1      74.732  48.315   8.168  1.00  0.00    -0.246 OA
ATOM      5  O   UNL     1      72.607  47.708   7.813  1.00  0.00    -0.423 OA
ATOM      6  C   UNL     1      71.320  47.995   7.631  1.00  0.00     0.142 A 
ATOM      7  C   UNL     1      70.395  46.966   7.437  1.00  0.00     0.098 A 
ATOM      8  C   UNL     1      69.036  47.262   7.246  1.00  0.00     0.161 A 
ATOM      9  C   UNL     1      68.603  48.601   7.249  1.00  0.00     0.158 A 
ATOM     10  C   UNL     1      69.528  49.634   7.443  1.00  0.00     0.062 A 
ATOM     11  C   UNL     1      70.885  49.338   7.635  1.00  0.00     0.022 A 
ENDROOT
BRANCH   9  12
ATOM     12  O   UNL     1      67.259  48.924   7.061  1.00  0.00    -0.504 OA
ATOM     13  H   UNL     1      66.970  49.799   6.642  1.00  0.00     0.293 HD
ENDBRANCH   9  12
BRANCH   8  14
ATOM     14  O   UNL     1      68.117  46.233   7.052  1.00  0.00    -0.504 OA
ATOM     15  H   UNL     1      67.118  46.397   7.101  1.00  0.00     0.293 HD
ENDBRANCH   8  14
TORSDOF 2
ENDMDL
