MODEL 1
REMARK VINA RESULT:     7.102      0.000      0.000
REMARK INTER + INTRA:           7.681
REMARK INTER:                   7.725
REMARK INTRA:                  -0.043
REMARK UNBOUND:                -0.043
REMARK SMILES COc1cc2ccc(=O)oc2cc1O
REMARK SMILES IDX 3 1 13 2 12 3 11 4 5 5 4 6 6 7 7 8 8 9 9 10 10 11 2 12 1 13
REMARK SMILES IDX 14 14
REMARK H PARENT 14 15
REMARK Flexibility Score: inf
ROOT
ATOM      1  C   UNL     1      -8.521  -6.843  21.269  1.00  0.00     0.161 A 
ATOM      2  C   UNL     1      -8.530  -6.849  19.860  1.00  0.00     0.161 A 
ATOM      3  C   UNL     1      -7.936  -5.801  19.147  1.00  0.00     0.098 A 
ATOM      4  C   UNL     1      -7.331  -4.740  19.822  1.00  0.00     0.142 A 
ATOM      5  C   UNL     1      -7.315  -4.724  21.233  1.00  0.00     0.022 A 
ATOM      6  C   UNL     1      -7.909  -5.771  21.950  1.00  0.00     0.062 A 
ATOM      7  C   UNL     1      -6.701  -3.648  21.880  1.00  0.00     0.019 A 
ATOM      8  C   UNL     1      -6.125  -2.630  21.121  1.00  0.00     0.094 A 
ATOM      9  C   UNL     1      -6.178  -2.713  19.726  1.00  0.00     0.336 A 
ATOM     10  O   UNL     1      -5.663  -1.804  19.023  1.00  0.00    -0.246 OA
ATOM     11  O   UNL     1      -6.769  -3.748  19.134  1.00  0.00    -0.423 OA
ENDROOT
BRANCH   1  12
ATOM     12  O   UNL     1      -9.125  -7.910  21.953  1.00  0.00    -0.493 OA
ATOM     13  C   UNL     1      -9.122  -8.067  23.368  1.00  0.00     0.278 C 
ENDBRANCH   1  12
BRANCH   2  14
ATOM     14  O   UNL     1      -9.125  -7.891  19.149  1.00  0.00    -0.504 OA
ATOM     15  H   UNL     1      -9.315  -8.793  19.569  1.00  0.00     0.293 HD
ENDBRANCH   2  14
TORSDOF 2
ENDMDL
MODEL 2
REMARK VINA RESULT:     7.660      2.072      3.512
REMARK INTER + INTRA:           8.289
REMARK INTER:                   8.128
REMARK INTRA:                   0.161
REMARK UNBOUND:                -0.043
REMARK SMILES COc1cc2ccc(=O)oc2cc1O
REMARK SMILES IDX 3 1 13 2 12 3 11 4 5 5 4 6 6 7 7 8 8 9 9 10 10 11 2 12 1 13
REMARK SMILES IDX 14 14
REMARK H PARENT 14 15
REMARK Flexibility Score: inf
ROOT
ATOM      1  C   UNL     1      -8.778  -8.046  23.276  1.00  0.00     0.161 A 
ATOM      2  C   UNL     1      -8.078  -6.930  23.777  1.00  0.00     0.161 A 
ATOM      3  C   UNL     1      -7.717  -5.883  22.921  1.00  0.00     0.098 A 
ATOM      4  C   UNL     1      -8.046  -5.931  21.565  1.00  0.00     0.142 A 
ATOM      5  C   UNL     1      -8.747  -7.043  21.054  1.00  0.00     0.022 A 
ATOM      6  C   UNL     1      -9.110  -8.095  21.907  1.00  0.00     0.062 A 
ATOM      7  C   UNL     1      -9.063  -7.063  19.692  1.00  0.00     0.019 A 
ATOM      8  C   UNL     1      -8.679  -5.993  18.884  1.00  0.00     0.094 A 
ATOM      9  C   UNL     1      -7.986  -4.924  19.461  1.00  0.00     0.336 A 
ATOM     10  O   UNL     1      -7.632  -3.948  18.749  1.00  0.00    -0.246 OA
ATOM     11  O   UNL     1      -7.699  -4.930  20.760  1.00  0.00    -0.423 OA
ENDROOT
BRANCH   1  12
ATOM     12  O   UNL     1      -9.125  -9.079  24.162  1.00  0.00    -0.493 OA
ATOM     13  C   UNL     1      -8.188  -9.906  24.845  1.00  0.00     0.278 C 
ENDBRANCH   1  12
BRANCH   2  14
ATOM     14  O   UNL     1      -7.732  -6.845  25.125  1.00  0.00    -0.504 OA
ATOM     15  H   UNL     1      -7.907  -6.014  25.677  1.00  0.00     0.293 HD
ENDBRANCH   2  14
TORSDOF 2
ENDMDL
MODEL 3
REMARK VINA RESULT:     7.687      1.623      5.215
REMARK INTER + INTRA:           8.318
REMARK INTER:                   8.368
REMARK INTRA:                  -0.050
REMARK UNBOUND:                -0.043
REMARK SMILES COc1cc2ccc(=O)oc2cc1O
REMARK SMILES IDX 3 1 13 2 12 3 11 4 5 5 4 6 6 7 7 8 8 9 9 10 10 11 2 12 1 13
REMARK SMILES IDX 14 14
REMARK H PARENT 14 15
REMARK Flexibility Score: inf
ROOT
ATOM      1  C   UNL     1      -8.126  -5.635  20.666  1.00  0.00     0.161 A 
ATOM      2  C   UNL     1      -8.706  -6.802  20.131  1.00  0.00     0.161 A 
ATOM      3  C   UNL     1      -9.014  -7.882  20.966  1.00  0.00     0.098 A 
ATOM      4  C   UNL     1      -8.751  -7.816  22.335  1.00  0.00     0.142 A 
ATOM      5  C   UNL     1      -8.172  -6.651  22.882  1.00  0.00     0.022 A 
ATOM      6  C   UNL     1      -7.861  -5.568  22.050  1.00  0.00     0.062 A 
ATOM      7  C   UNL     1      -7.921  -6.614  24.257  1.00  0.00     0.019 A 
ATOM      8  C   UNL     1      -8.248  -7.719  25.043  1.00  0.00     0.094 A 
ATOM      9  C   UNL     1      -8.820  -8.839  24.432  1.00  0.00     0.336 A 
ATOM     10  O   UNL     1      -9.122  -9.846  25.124  1.00  0.00    -0.246 OA
ATOM     11  O   UNL     1      -9.048  -8.849  23.121  1.00  0.00    -0.423 OA
ENDROOT
BRANCH   1  12
ATOM     12  O   UNL     1      -7.830  -4.569  19.800  1.00  0.00    -0.493 OA
ATOM     13  C   UNL     1      -6.614  -3.828  19.819  1.00  0.00     0.278 C 
ENDBRANCH   1  12
BRANCH   2  14
ATOM     14  O   UNL     1      -8.983  -6.907  18.768  1.00  0.00    -0.504 OA
ATOM     15  H   UNL     1      -9.820  -6.514  18.355  1.00  0.00     0.293 HD
ENDBRANCH   2  14
TORSDOF 2
ENDMDL
