MODEL 1
REMARK VINA RESULT:    -6.623      0.000      0.000
REMARK INTER + INTRA:          -6.623
REMARK INTER:                  -6.623
REMARK INTRA:                   0.000
REMARK UNBOUND:                 0.000
REMARK SMILES O=c1ccc2ccccc2o1
REMARK SMILES IDX 7 1 8 2 9 3 10 4 5 5 6 6 4 7 3 8 2 9 1 10 11 11
REMARK H PARENT
REMARK Flexibility Score: inf
ROOT
ATOM      1  C   UNL     1       9.381  67.650  -1.916  1.00  0.00     0.001 A 
ATOM      2  C   UNL     1       9.314  69.025  -2.163  1.00  0.00     0.004 A 
ATOM      3  C   UNL     1       9.352  69.935  -1.101  1.00  0.00     0.048 A 
ATOM      4  C   UNL     1       9.456  69.470   0.216  1.00  0.00     0.138 A 
ATOM      5  C   UNL     1       9.523  68.081   0.466  1.00  0.00     0.018 A 
ATOM      6  C   UNL     1       9.485  67.175  -0.604  1.00  0.00     0.012 A 
ATOM      7  C   UNL     1       9.628  67.648   1.791  1.00  0.00     0.019 A 
ATOM      8  C   UNL     1       9.663  68.590   2.819  1.00  0.00     0.094 A 
ATOM      9  C   UNL     1       9.591  69.949   2.495  1.00  0.00     0.336 A 
ATOM     10  O   UNL     1       9.621  70.815   3.409  1.00  0.00    -0.246 OA
ATOM     11  O   UNL     1       9.492  70.336   1.226  1.00  0.00    -0.423 OA
ENDROOT
TORSDOF 0
ENDMDL
MODEL 2
REMARK VINA RESULT:    -6.590      1.621      3.777
REMARK INTER + INTRA:          -6.590
REMARK INTER:                  -6.590
REMARK INTRA:                   0.000
REMARK UNBOUND:                 0.000
REMARK SMILES O=c1ccc2ccccc2o1
REMARK SMILES IDX 7 1 8 2 9 3 10 4 5 5 6 6 4 7 3 8 2 9 1 10 11 11
REMARK H PARENT
REMARK Flexibility Score: inf
ROOT
ATOM      1  C   UNL     1       9.418  67.586   2.267  1.00  0.00     0.001 A 
ATOM      2  C   UNL     1       9.876  68.883   2.523  1.00  0.00     0.004 A 
ATOM      3  C   UNL     1      10.117  69.766   1.465  1.00  0.00     0.048 A 
ATOM      4  C   UNL     1       9.901  69.354   0.145  1.00  0.00     0.138 A 
ATOM      5  C   UNL     1       9.438  68.044  -0.114  1.00  0.00     0.018 A 
ATOM      6  C   UNL     1       9.198  67.164   0.952  1.00  0.00     0.012 A 
ATOM      7  C   UNL     1       9.230  67.662  -1.442  1.00  0.00     0.019 A 
ATOM      8  C   UNL     1       9.483  68.575  -2.465  1.00  0.00     0.094 A 
ATOM      9  C   UNL     1       9.940  69.855  -2.133  1.00  0.00     0.336 A 
ATOM     10  O   UNL     1      10.174  70.693  -3.043  1.00  0.00    -0.246 OA
ATOM     11  O   UNL     1      10.130  70.195  -0.861  1.00  0.00    -0.423 OA
ENDROOT
TORSDOF 0
ENDMDL
MODEL 3
REMARK VINA RESULT:    -6.539      1.871      3.443
REMARK INTER + INTRA:          -6.539
REMARK INTER:                  -6.539
REMARK INTRA:                   0.000
REMARK UNBOUND:                 0.000
REMARK SMILES O=c1ccc2ccccc2o1
REMARK SMILES IDX 7 1 8 2 9 3 10 4 5 5 6 6 4 7 3 8 2 9 1 10 11 11
REMARK H PARENT
REMARK Flexibility Score: inf
ROOT
ATOM      1  C   UNL     1       9.445  67.477   2.657  1.00  0.00     0.001 A 
ATOM      2  C   UNL     1       8.978  67.017   1.422  1.00  0.00     0.004 A 
ATOM      3  C   UNL     1       8.930  67.880   0.322  1.00  0.00     0.048 A 
ATOM      4  C   UNL     1       9.350  69.208   0.454  1.00  0.00     0.138 A 
ATOM      5  C   UNL     1       9.822  69.674   1.702  1.00  0.00     0.018 A 
ATOM      6  C   UNL     1       9.867  68.804   2.801  1.00  0.00     0.012 A 
ATOM      7  C   UNL     1      10.236  71.005   1.803  1.00  0.00     0.019 A 
ATOM      8  C   UNL     1      10.171  71.830   0.680  1.00  0.00     0.094 A 
ATOM      9  C   UNL     1       9.691  71.299  -0.523  1.00  0.00     0.336 A 
ATOM     10  O   UNL     1       9.626  72.028  -1.547  1.00  0.00    -0.246 OA
ATOM     11  O   UNL     1       9.304  70.029  -0.593  1.00  0.00    -0.423 OA
ENDROOT
TORSDOF 0
ENDMDL
MODEL 4
REMARK VINA RESULT:    -6.498      1.498      3.115
REMARK INTER + INTRA:          -6.498
REMARK INTER:                  -6.498
REMARK INTRA:                   0.000
REMARK UNBOUND:                 0.000
REMARK SMILES O=c1ccc2ccccc2o1
REMARK SMILES IDX 7 1 8 2 9 3 10 4 5 5 6 6 4 7 3 8 2 9 1 10 11 11
REMARK H PARENT
REMARK Flexibility Score: inf
ROOT
ATOM      1  C   UNL     1       9.002  67.134   1.130  1.00  0.00     0.001 A 
ATOM      2  C   UNL     1       9.422  67.496   2.414  1.00  0.00     0.004 A 
ATOM      3  C   UNL     1       9.869  68.797   2.668  1.00  0.00     0.048 A 
ATOM      4  C   UNL     1       9.898  69.742   1.636  1.00  0.00     0.138 A 
ATOM      5  C   UNL     1       9.473  69.378   0.338  1.00  0.00     0.018 A 
ATOM      6  C   UNL     1       9.026  68.071   0.091  1.00  0.00     0.012 A 
ATOM      7  C   UNL     1       9.512  70.343  -0.671  1.00  0.00     0.019 A 
ATOM      8  C   UNL     1       9.965  71.628  -0.373  1.00  0.00     0.094 A 
ATOM      9  C   UNL     1      10.370  71.917   0.935  1.00  0.00     0.336 A 
ATOM     10  O   UNL     1      10.781  73.071   1.224  1.00  0.00    -0.246 OA
ATOM     11  O   UNL     1      10.323  70.980   1.878  1.00  0.00    -0.423 OA
ENDROOT
TORSDOF 0
ENDMDL
MODEL 5
REMARK VINA RESULT:    -6.479      1.466      2.329
REMARK INTER + INTRA:          -6.479
REMARK INTER:                  -6.479
REMARK INTRA:                   0.000
REMARK UNBOUND:                 0.000
REMARK SMILES O=c1ccc2ccccc2o1
REMARK SMILES IDX 7 1 8 2 9 3 10 4 5 5 6 6 4 7 3 8 2 9 1 10 11 11
REMARK H PARENT
REMARK Flexibility Score: inf
ROOT
ATOM      1  C   UNL     1      10.120  70.726  -2.490  1.00  0.00     0.001 A 
ATOM      2  C   UNL     1      10.091  71.632  -1.426  1.00  0.00     0.004 A 
ATOM      3  C   UNL     1       9.933  71.174  -0.114  1.00  0.00     0.048 A 
ATOM      4  C   UNL     1       9.802  69.803   0.138  1.00  0.00     0.138 A 
ATOM      5  C   UNL     1       9.831  68.886  -0.937  1.00  0.00     0.018 A 
ATOM      6  C   UNL     1       9.990  69.353  -2.250  1.00  0.00     0.012 A 
ATOM      7  C   UNL     1       9.699  67.524  -0.654  1.00  0.00     0.019 A 
ATOM      8  C   UNL     1       9.543  67.111   0.669  1.00  0.00     0.094 A 
ATOM      9  C   UNL     1       9.523  68.076   1.682  1.00  0.00     0.336 A 
ATOM     10  O   UNL     1       9.383  67.723   2.883  1.00  0.00    -0.246 OA
ATOM     11  O   UNL     1       9.651  69.367   1.387  1.00  0.00    -0.423 OA
ENDROOT
TORSDOF 0
ENDMDL
MODEL 6
REMARK VINA RESULT:    -6.471      2.245      4.070
REMARK INTER + INTRA:          -6.471
REMARK INTER:                  -6.471
REMARK INTRA:                   0.000
REMARK UNBOUND:                 0.000
REMARK SMILES O=c1ccc2ccccc2o1
REMARK SMILES IDX 7 1 8 2 9 3 10 4 5 5 6 6 4 7 3 8 2 9 1 10 11 11
REMARK H PARENT
REMARK Flexibility Score: inf
ROOT
ATOM      1  C   UNL     1       9.371  68.157   1.943  1.00  0.00     0.001 A 
ATOM      2  C   UNL     1       9.482  67.141   0.988  1.00  0.00     0.004 A 
ATOM      3  C   UNL     1       9.685  67.460  -0.359  1.00  0.00     0.048 A 
ATOM      4  C   UNL     1       9.778  68.800  -0.756  1.00  0.00     0.138 A 
ATOM      5  C   UNL     1       9.666  69.826   0.209  1.00  0.00     0.018 A 
ATOM      6  C   UNL     1       9.462  69.499   1.558  1.00  0.00     0.012 A 
ATOM      7  C   UNL     1       9.763  71.154  -0.217  1.00  0.00     0.019 A 
ATOM      8  C   UNL     1       9.966  71.426  -1.569  1.00  0.00     0.094 A 
ATOM      9  C   UNL     1      10.067  70.358  -2.468  1.00  0.00     0.336 A 
ATOM     10  O   UNL     1      10.250  70.583  -3.693  1.00  0.00    -0.246 OA
ATOM     11  O   UNL     1       9.971  69.103  -2.037  1.00  0.00    -0.423 OA
ENDROOT
TORSDOF 0
ENDMDL
MODEL 7
REMARK VINA RESULT:    -6.466      1.460      2.254
REMARK INTER + INTRA:          -6.466
REMARK INTER:                  -6.466
REMARK INTRA:                   0.000
REMARK UNBOUND:                 0.000
REMARK SMILES O=c1ccc2ccccc2o1
REMARK SMILES IDX 7 1 8 2 9 3 10 4 5 5 6 6 4 7 3 8 2 9 1 10 11 11
REMARK H PARENT
REMARK Flexibility Score: inf
ROOT
ATOM      1  C   UNL     1       9.591  69.457  -2.539  1.00  0.00     0.001 A 
ATOM      2  C   UNL     1       9.384  68.075  -2.487  1.00  0.00     0.004 A 
ATOM      3  C   UNL     1       9.346  67.415  -1.254  1.00  0.00     0.048 A 
ATOM      4  C   UNL     1       9.514  68.137  -0.067  1.00  0.00     0.138 A 
ATOM      5  C   UNL     1       9.723  69.534  -0.119  1.00  0.00     0.018 A 
ATOM      6  C   UNL     1       9.761  70.189  -1.359  1.00  0.00     0.012 A 
ATOM      7  C   UNL     1       9.887  70.229   1.083  1.00  0.00     0.019 A 
ATOM      8  C   UNL     1       9.841  69.530   2.289  1.00  0.00     0.094 A 
ATOM      9  C   UNL     1       9.631  68.147   2.263  1.00  0.00     0.336 A 
ATOM     10  O   UNL     1       9.587  67.499   3.342  1.00  0.00    -0.246 OA
ATOM     11  O   UNL     1       9.477  67.509   1.106  1.00  0.00    -0.423 OA
ENDROOT
TORSDOF 0
ENDMDL
MODEL 8
REMARK VINA RESULT:    -6.459      1.938      4.347
REMARK INTER + INTRA:          -6.459
REMARK INTER:                  -6.459
REMARK INTRA:                   0.000
REMARK UNBOUND:                 0.000
REMARK SMILES O=c1ccc2ccccc2o1
REMARK SMILES IDX 7 1 8 2 9 3 10 4 5 5 6 6 4 7 3 8 2 9 1 10 11 11
REMARK H PARENT
REMARK Flexibility Score: inf
ROOT
ATOM      1  C   UNL     1       9.821  69.732   2.906  1.00  0.00     0.001 A 
ATOM      2  C   UNL     1       9.673  68.342   2.957  1.00  0.00     0.004 A 
ATOM      3  C   UNL     1       9.500  67.609   1.778  1.00  0.00     0.048 A 
ATOM      4  C   UNL     1       9.475  68.265   0.542  1.00  0.00     0.138 A 
ATOM      5  C   UNL     1       9.625  69.669   0.489  1.00  0.00     0.018 A 
ATOM      6  C   UNL     1       9.798  70.398   1.675  1.00  0.00     0.012 A 
ATOM      7  C   UNL     1       9.597  70.296  -0.760  1.00  0.00     0.019 A 
ATOM      8  C   UNL     1       9.422  69.525  -1.909  1.00  0.00     0.094 A 
ATOM      9  C   UNL     1       9.280  68.139  -1.780  1.00  0.00     0.336 A 
ATOM     10  O   UNL     1       9.122  67.426  -2.806  1.00  0.00    -0.246 OA
ATOM     11  O   UNL     1       9.311  67.566  -0.579  1.00  0.00    -0.423 OA
ENDROOT
TORSDOF 0
ENDMDL
MODEL 9
REMARK VINA RESULT:    -6.456      1.130      2.269
REMARK INTER + INTRA:          -6.456
REMARK INTER:                  -6.456
REMARK INTRA:                   0.000
REMARK UNBOUND:                 0.000
REMARK SMILES O=c1ccc2ccccc2o1
REMARK SMILES IDX 7 1 8 2 9 3 10 4 5 5 6 6 4 7 3 8 2 9 1 10 11 11
REMARK H PARENT
REMARK Flexibility Score: inf
ROOT
ATOM      1  C   UNL     1       9.363  68.928  -2.152  1.00  0.00     0.001 A 
ATOM      2  C   UNL     1       8.951  67.907  -1.290  1.00  0.00     0.004 A 
ATOM      3  C   UNL     1       8.925  68.120   0.092  1.00  0.00     0.048 A 
ATOM      4  C   UNL     1       9.312  69.358   0.617  1.00  0.00     0.138 A 
ATOM      5  C   UNL     1       9.728  70.391  -0.253  1.00  0.00     0.018 A 
ATOM      6  C   UNL     1       9.752  70.170  -1.638  1.00  0.00     0.012 A 
ATOM      7  C   UNL     1      10.107  71.617   0.301  1.00  0.00     0.019 A 
ATOM      8  C   UNL     1      10.065  71.785   1.684  1.00  0.00     0.094 A 
ATOM      9  C   UNL     1       9.643  70.718   2.484  1.00  0.00     0.336 A 
ATOM     10  O   UNL     1       9.599  70.851   3.736  1.00  0.00    -0.246 OA
ATOM     11  O   UNL     1       9.287  69.561   1.933  1.00  0.00    -0.423 OA
ENDROOT
TORSDOF 0
ENDMDL
