MODEL 1
REMARK VINA RESULT:    -5.387      0.000      0.000
REMARK INTER + INTRA:          -5.702
REMARK INTER:                  -5.702
REMARK INTRA:                   0.000
REMARK UNBOUND:                 0.000
REMARK SMILES Cc1cc(O)c(C)c(C)c1O
REMARK SMILES IDX 1 1 2 2 3 3 4 4 6 5 8 6 10 7 9 8 7 9 11 10 5 12
REMARK H PARENT 11 11 5 13
REMARK Flexibility Score: inf
ROOT
ATOM      1  C   UNL     1      19.524  24.157  16.875  1.00  0.00     0.048 C 
ATOM      2  C   UNL     1      20.169  23.646  18.133  1.00  0.00    -0.005 A 
ATOM      3  C   UNL     1      21.386  22.964  18.066  1.00  0.00     0.053 A 
ATOM      4  C   UNL     1      22.017  22.508  19.225  1.00  0.00     0.119 A 
ATOM      5  C   UNL     1      21.428  22.728  20.488  1.00  0.00    -0.003 A 
ATOM      6  C   UNL     1      20.166  23.381  20.567  1.00  0.00    -0.002 A 
ATOM      7  C   UNL     1      19.563  23.872  19.380  1.00  0.00     0.121 A 
ATOM      8  C   UNL     1      19.464  23.590  21.892  1.00  0.00     0.049 C 
ATOM      9  C   UNL     1      22.138  22.246  21.733  1.00  0.00     0.049 C 
ENDROOT
BRANCH   7  10
ATOM     10  O   UNL     1      18.364  24.594  19.412  1.00  0.00    -0.507 OA
ATOM     11  H   UNL     1      18.303  25.591  19.253  1.00  0.00     0.293 HD
ENDBRANCH   7  10
BRANCH   4  12
ATOM     12  O   UNL     1      23.235  21.836  19.121  1.00  0.00    -0.508 OA
ATOM     13  H   UNL     1      24.063  22.149  19.616  1.00  0.00     0.293 HD
ENDBRANCH   4  12
TORSDOF 2
ENDMDL
MODEL 2
REMARK VINA RESULT:    -4.817     17.606     18.498
REMARK INTER + INTRA:          -5.099
REMARK INTER:                  -5.099
REMARK INTRA:                   0.000
REMARK UNBOUND:                 0.000
REMARK SMILES Cc1cc(O)c(C)c(C)c1O
REMARK SMILES IDX 1 1 2 2 3 3 4 4 6 5 8 6 10 7 9 8 7 9 11 10 5 12
REMARK H PARENT 11 11 5 13
REMARK Flexibility Score: inf
ROOT
ATOM      1  C   UNL     1      19.221  25.985  36.565  1.00  0.00     0.048 C 
ATOM      2  C   UNL     1      19.285  27.481  36.702  1.00  0.00    -0.005 A 
ATOM      3  C   UNL     1      20.522  28.130  36.697  1.00  0.00     0.053 A 
ATOM      4  C   UNL     1      20.601  29.521  36.792  1.00  0.00     0.119 A 
ATOM      5  C   UNL     1      19.426  30.294  36.900  1.00  0.00    -0.003 A 
ATOM      6  C   UNL     1      18.163  29.642  36.952  1.00  0.00    -0.002 A 
ATOM      7  C   UNL     1      18.103  28.231  36.813  1.00  0.00     0.121 A 
ATOM      8  C   UNL     1      16.876  30.421  37.124  1.00  0.00     0.049 C 
ATOM      9  C   UNL     1      19.532  31.800  36.979  1.00  0.00     0.049 C 
ENDROOT
BRANCH   7  10
ATOM     10  O   UNL     1      16.881  27.549  36.773  1.00  0.00    -0.507 OA
ATOM     11  H   UNL     1      16.788  26.575  36.516  1.00  0.00     0.293 HD
ENDBRANCH   7  10
BRANCH   4  12
ATOM     12  O   UNL     1      21.854  30.136  36.778  1.00  0.00    -0.508 OA
ATOM     13  H   UNL     1      21.954  31.145  36.790  1.00  0.00     0.293 HD
ENDBRANCH   4  12
TORSDOF 2
ENDMDL
MODEL 3
REMARK VINA RESULT:    -4.707      1.915      4.035
REMARK INTER + INTRA:          -4.983
REMARK INTER:                  -4.983
REMARK INTRA:                   0.000
REMARK UNBOUND:                 0.000
REMARK SMILES Cc1cc(O)c(C)c(C)c1O
REMARK SMILES IDX 1 1 2 2 3 3 4 4 6 5 8 6 10 7 9 8 7 9 11 10 5 12
REMARK H PARENT 11 11 5 13
REMARK Flexibility Score: inf
ROOT
ATOM      1  C   UNL     1      18.331  20.238  21.159  1.00  0.00     0.048 C 
ATOM      2  C   UNL     1      19.066  21.377  20.508  1.00  0.00    -0.005 A 
ATOM      3  C   UNL     1      18.359  22.485  20.035  1.00  0.00     0.053 A 
ATOM      4  C   UNL     1      19.026  23.566  19.456  1.00  0.00     0.119 A 
ATOM      5  C   UNL     1      20.431  23.553  19.336  1.00  0.00    -0.003 A 
ATOM      6  C   UNL     1      21.159  22.411  19.773  1.00  0.00    -0.002 A 
ATOM      7  C   UNL     1      20.466  21.341  20.395  1.00  0.00     0.121 A 
ATOM      8  C   UNL     1      22.662  22.323  19.615  1.00  0.00     0.049 C 
ATOM      9  C   UNL     1      21.136  24.743  18.726  1.00  0.00     0.049 C 
ENDROOT
BRANCH   7  10
ATOM     10  O   UNL     1      21.144  20.233  20.918  1.00  0.00    -0.507 OA
ATOM     11  H   UNL     1      20.682  19.398  21.252  1.00  0.00     0.293 HD
ENDBRANCH   7  10
BRANCH   4  12
ATOM     12  O   UNL     1      18.288  24.658  18.999  1.00  0.00    -0.508 OA
ATOM     13  H   UNL     1      18.662  25.310  18.318  1.00  0.00     0.293 HD
ENDBRANCH   4  12
TORSDOF 2
ENDMDL
MODEL 4
REMARK VINA RESULT:    -4.594      2.466      2.851
REMARK INTER + INTRA:          -4.862
REMARK INTER:                  -4.862
REMARK INTRA:                   0.000
REMARK UNBOUND:                 0.000
REMARK SMILES Cc1cc(O)c(C)c(C)c1O
REMARK SMILES IDX 1 1 2 2 3 3 4 4 6 5 8 6 10 7 9 8 7 9 11 10 5 12
REMARK H PARENT 11 11 5 13
REMARK Flexibility Score: inf
ROOT
ATOM      1  C   UNL     1      20.594  24.737  16.875  1.00  0.00     0.048 C 
ATOM      2  C   UNL     1      20.099  24.273  18.217  1.00  0.00    -0.005 A 
ATOM      3  C   UNL     1      20.526  24.919  19.380  1.00  0.00     0.053 A 
ATOM      4  C   UNL     1      20.053  24.523  20.633  1.00  0.00     0.119 A 
ATOM      5  C   UNL     1      19.137  23.456  20.743  1.00  0.00    -0.003 A 
ATOM      6  C   UNL     1      18.731  22.761  19.570  1.00  0.00    -0.002 A 
ATOM      7  C   UNL     1      19.190  23.205  18.304  1.00  0.00     0.121 A 
ATOM      8  C   UNL     1      17.795  21.573  19.639  1.00  0.00     0.049 C 
ATOM      9  C   UNL     1      18.621  23.057  22.107  1.00  0.00     0.049 C 
ENDROOT
BRANCH   7  10
ATOM     10  O   UNL     1      18.755  22.610  17.114  1.00  0.00    -0.507 OA
ATOM     11  H   UNL     1      17.788  22.390  16.916  1.00  0.00     0.293 HD
ENDBRANCH   7  10
BRANCH   4  12
ATOM     12  O   UNL     1      20.496  25.195  21.773  1.00  0.00    -0.508 OA
ATOM     13  H   UNL     1      19.890  25.814  22.298  1.00  0.00     0.293 HD
ENDBRANCH   4  12
TORSDOF 2
ENDMDL
MODEL 5
REMARK VINA RESULT:    -4.583      2.384      3.902
REMARK INTER + INTRA:          -4.851
REMARK INTER:                  -4.851
REMARK INTRA:                   0.000
REMARK UNBOUND:                 0.000
REMARK SMILES Cc1cc(O)c(C)c(C)c1O
REMARK SMILES IDX 1 1 2 2 3 3 4 4 6 5 8 6 10 7 9 8 7 9 11 10 5 12
REMARK H PARENT 11 11 5 13
REMARK Flexibility Score: inf
ROOT
ATOM      1  C   UNL     1      18.358  22.747  22.371  1.00  0.00     0.048 C 
ATOM      2  C   UNL     1      18.860  23.175  21.020  1.00  0.00    -0.005 A 
ATOM      3  C   UNL     1      19.653  24.320  20.900  1.00  0.00     0.053 A 
ATOM      4  C   UNL     1      20.154  24.716  19.658  1.00  0.00     0.119 A 
ATOM      5  C   UNL     1      19.862  23.965  18.501  1.00  0.00    -0.003 A 
ATOM      6  C   UNL     1      19.019  22.823  18.603  1.00  0.00    -0.002 A 
ATOM      7  C   UNL     1      18.554  22.415  19.879  1.00  0.00     0.121 A 
ATOM      8  C   UNL     1      18.629  22.017  17.382  1.00  0.00     0.049 C 
ATOM      9  C   UNL     1      20.434  24.399  17.170  1.00  0.00     0.049 C 
ENDROOT
BRANCH   7  10
ATOM     10  O   UNL     1      17.791  21.253  20.044  1.00  0.00    -0.507 OA
ATOM     11  H   UNL     1      17.450  20.689  19.277  1.00  0.00     0.293 HD
ENDBRANCH   7  10
BRANCH   4  12
ATOM     12  O   UNL     1      20.947  25.862  19.577  1.00  0.00    -0.508 OA
ATOM     13  H   UNL     1      20.733  26.616  18.935  1.00  0.00     0.293 HD
ENDBRANCH   4  12
TORSDOF 2
ENDMDL
MODEL 6
REMARK VINA RESULT:    -4.509     18.611     19.286
REMARK INTER + INTRA:          -4.773
REMARK INTER:                  -4.773
REMARK INTRA:                   0.000
REMARK UNBOUND:                 0.000
REMARK SMILES Cc1cc(O)c(C)c(C)c1O
REMARK SMILES IDX 1 1 2 2 3 3 4 4 6 5 8 6 10 7 9 8 7 9 11 10 5 12
REMARK H PARENT 11 11 5 13
REMARK Flexibility Score: inf
ROOT
ATOM      1  C   UNL     1      17.721  33.072  36.989  1.00  0.00     0.048 C 
ATOM      2  C   UNL     1      19.138  33.042  36.488  1.00  0.00    -0.005 A 
ATOM      3  C   UNL     1      19.995  32.010  36.880  1.00  0.00     0.053 A 
ATOM      4  C   UNL     1      21.306  31.948  36.401  1.00  0.00     0.119 A 
ATOM      5  C   UNL     1      21.786  32.932  35.513  1.00  0.00    -0.003 A 
ATOM      6  C   UNL     1      20.937  34.012  35.141  1.00  0.00    -0.002 A 
ATOM      7  C   UNL     1      19.597  34.035  35.607  1.00  0.00     0.121 A 
ATOM      8  C   UNL     1      21.422  35.125  34.236  1.00  0.00     0.049 C 
ATOM      9  C   UNL     1      23.201  32.834  34.988  1.00  0.00     0.049 C 
ENDROOT
BRANCH   7  10
ATOM     10  O   UNL     1      18.697  35.028  35.204  1.00  0.00    -0.507 OA
ATOM     11  H   UNL     1      18.155  35.591  35.847  1.00  0.00     0.293 HD
ENDBRANCH   7  10
BRANCH   4  12
ATOM     12  O   UNL     1      22.133  30.900  36.810  1.00  0.00    -0.508 OA
ATOM     13  H   UNL     1      22.223  30.640  37.785  1.00  0.00     0.293 HD
ENDBRANCH   4  12
TORSDOF 2
ENDMDL
MODEL 7
REMARK VINA RESULT:    -4.366      2.239      2.819
REMARK INTER + INTRA:          -4.622
REMARK INTER:                  -4.622
REMARK INTRA:                   0.000
REMARK UNBOUND:                 0.000
REMARK SMILES Cc1cc(O)c(C)c(C)c1O
REMARK SMILES IDX 1 1 2 2 3 3 4 4 6 5 8 6 10 7 9 8 7 9 11 10 5 12
REMARK H PARENT 11 11 5 13
REMARK Flexibility Score: inf
ROOT
ATOM      1  C   UNL     1      20.083  24.875  16.875  1.00  0.00     0.048 C 
ATOM      2  C   UNL     1      19.613  24.124  18.090  1.00  0.00    -0.005 A 
ATOM      3  C   UNL     1      18.745  23.038  17.946  1.00  0.00     0.053 A 
ATOM      4  C   UNL     1      18.322  22.308  19.060  1.00  0.00     0.119 A 
ATOM      5  C   UNL     1      18.764  22.661  20.351  1.00  0.00    -0.003 A 
ATOM      6  C   UNL     1      19.612  23.792  20.515  1.00  0.00    -0.002 A 
ATOM      7  C   UNL     1      20.063  24.495  19.368  1.00  0.00     0.121 A 
ATOM      8  C   UNL     1      20.069  24.248  21.885  1.00  0.00     0.049 C 
ATOM      9  C   UNL     1      18.312  21.845  21.541  1.00  0.00     0.049 C 
ENDROOT
BRANCH   7  10
ATOM     10  O   UNL     1      20.964  25.561  19.467  1.00  0.00    -0.507 OA
ATOM     11  H   UNL     1      21.790  25.656  18.892  1.00  0.00     0.293 HD
ENDBRANCH   7  10
BRANCH   4  12
ATOM     12  O   UNL     1      17.459  21.226  18.879  1.00  0.00    -0.508 OA
ATOM     13  H   UNL     1      16.454  21.325  18.961  1.00  0.00     0.293 HD
ENDBRANCH   4  12
TORSDOF 2
ENDMDL
MODEL 8
REMARK VINA RESULT:    -4.365      1.996      2.344
REMARK INTER + INTRA:          -4.621
REMARK INTER:                  -4.621
REMARK INTRA:                   0.000
REMARK UNBOUND:                 0.000
REMARK SMILES Cc1cc(O)c(C)c(C)c1O
REMARK SMILES IDX 1 1 2 2 3 3 4 4 6 5 8 6 10 7 9 8 7 9 11 10 5 12
REMARK H PARENT 11 11 5 13
REMARK Flexibility Score: inf
ROOT
ATOM      1  C   UNL     1      20.927  25.202  19.163  1.00  0.00     0.048 C 
ATOM      2  C   UNL     1      20.543  23.794  19.522  1.00  0.00    -0.005 A 
ATOM      3  C   UNL     1      21.510  22.907  20.002  1.00  0.00     0.053 A 
ATOM      4  C   UNL     1      21.167  21.605  20.371  1.00  0.00     0.119 A 
ATOM      5  C   UNL     1      19.833  21.162  20.258  1.00  0.00    -0.003 A 
ATOM      6  C   UNL     1      18.847  22.041  19.728  1.00  0.00    -0.002 A 
ATOM      7  C   UNL     1      19.208  23.372  19.399  1.00  0.00     0.121 A 
ATOM      8  C   UNL     1      17.413  21.596  19.534  1.00  0.00     0.049 C 
ATOM      9  C   UNL     1      19.478  19.755  20.683  1.00  0.00     0.049 C 
ENDROOT
BRANCH   7  10
ATOM     10  O   UNL     1      18.261  24.301  18.953  1.00  0.00    -0.507 OA
ATOM     11  H   UNL     1      18.452  25.287  18.832  1.00  0.00     0.293 HD
ENDBRANCH   7  10
BRANCH   4  12
ATOM     12  O   UNL     1      22.158  20.748  20.852  1.00  0.00    -0.508 OA
ATOM     13  H   UNL     1      22.873  20.362  20.245  1.00  0.00     0.293 HD
ENDBRANCH   4  12
TORSDOF 2
ENDMDL
MODEL 9
REMARK VINA RESULT:    -4.307      2.401      4.008
REMARK INTER + INTRA:          -4.559
REMARK INTER:                  -4.559
REMARK INTRA:                   0.000
REMARK UNBOUND:                 0.000
REMARK SMILES Cc1cc(O)c(C)c(C)c1O
REMARK SMILES IDX 1 1 2 2 3 3 4 4 6 5 8 6 10 7 9 8 7 9 11 10 5 12
REMARK H PARENT 11 11 5 13
REMARK Flexibility Score: inf
ROOT
ATOM      1  C   UNL     1      18.499  23.110  22.641  1.00  0.00     0.048 C 
ATOM      2  C   UNL     1      18.768  23.092  21.162  1.00  0.00    -0.005 A 
ATOM      3  C   UNL     1      18.127  22.156  20.347  1.00  0.00     0.053 A 
ATOM      4  C   UNL     1      18.340  22.143  18.967  1.00  0.00     0.119 A 
ATOM      5  C   UNL     1      19.213  23.078  18.374  1.00  0.00    -0.003 A 
ATOM      6  C   UNL     1      19.907  24.007  19.198  1.00  0.00    -0.002 A 
ATOM      7  C   UNL     1      19.646  24.030  20.592  1.00  0.00     0.121 A 
ATOM      8  C   UNL     1      20.899  24.993  18.618  1.00  0.00     0.049 C 
ATOM      9  C   UNL     1      19.413  23.061  16.875  1.00  0.00     0.049 C 
ENDROOT
BRANCH   7  10
ATOM     10  O   UNL     1      20.238  24.978  21.435  1.00  0.00    -0.507 OA
ATOM     11  H   UNL     1      19.935  25.941  21.499  1.00  0.00     0.293 HD
ENDBRANCH   7  10
BRANCH   4  12
ATOM     12  O   UNL     1      17.678  21.197  18.183  1.00  0.00    -0.508 OA
ATOM     13  H   UNL     1      16.670  21.093  18.208  1.00  0.00     0.293 HD
ENDBRANCH   4  12
TORSDOF 2
ENDMDL
