MODEL 1
REMARK VINA RESULT:    -4.053      0.000      0.000
REMARK INTER + INTRA:          -4.796
REMARK INTER:                  -4.763
REMARK INTRA:                  -0.033
REMARK UNBOUND:                -0.033
REMARK SMILES O=C([O-])CCC(=O)[O-]
REMARK SMILES IDX 4 1 2 2 1 3 3 4 5 5 6 6 7 7 8 8
REMARK H PARENT
REMARK Flexibility Score: inf
ROOT
ATOM      1  C   UNL     1      20.595  28.438  34.019  1.00  0.00     0.059 C 
ENDROOT
BRANCH   1   2
ATOM      2  C   UNL     1      21.306  29.750  34.114  1.00  0.00     0.042 C 
ATOM      3  O   UNL     1      22.542  29.786  34.350  1.00  0.00    -0.550 OA
ATOM      4  O   UNL     1      20.613  30.934  33.892  1.00  0.00    -0.550 OA
ENDBRANCH   1   2
BRANCH   1   5
ATOM      5  C   UNL     1      19.142  28.582  34.474  1.00  0.00     0.059 C 
BRANCH   5   6
ATOM      6  C   UNL     1      18.535  27.237  34.722  1.00  0.00     0.042 C 
ATOM      7  O   UNL     1      17.396  26.960  34.261  1.00  0.00    -0.550 OA
ATOM      8  O   UNL     1      19.248  26.269  35.418  1.00  0.00    -0.550 OA
ENDBRANCH   5   6
ENDBRANCH   1   5
TORSDOF 3
ENDMDL
MODEL 2
REMARK VINA RESULT:    -4.039      0.047      4.390
REMARK INTER + INTRA:          -4.780
REMARK INTER:                  -4.746
REMARK INTRA:                  -0.034
REMARK UNBOUND:                -0.033
REMARK SMILES O=C([O-])CCC(=O)[O-]
REMARK SMILES IDX 4 1 2 2 1 3 3 4 5 5 6 6 7 7 8 8
REMARK H PARENT
REMARK Flexibility Score: inf
ROOT
ATOM      1  C   UNL     1      19.119  28.565  34.435  1.00  0.00     0.059 C 
ENDROOT
BRANCH   1   2
ATOM      2  C   UNL     1      18.522  27.224  34.725  1.00  0.00     0.042 C 
ATOM      3  O   UNL     1      17.362  26.946  34.322  1.00  0.00    -0.550 OA
ATOM      4  O   UNL     1      19.265  26.263  35.399  1.00  0.00    -0.550 OA
ENDBRANCH   1   2
BRANCH   1   5
ATOM      5  C   UNL     1      20.592  28.423  34.050  1.00  0.00     0.059 C 
BRANCH   5   6
ATOM      6  C   UNL     1      21.288  29.743  34.149  1.00  0.00     0.042 C 
ATOM      7  O   UNL     1      22.517  29.793  34.420  1.00  0.00    -0.550 OA
ATOM      8  O   UNL     1      20.592  30.917  33.891  1.00  0.00    -0.550 OA
ENDBRANCH   5   6
ENDBRANCH   1   5
TORSDOF 3
ENDMDL
MODEL 3
REMARK VINA RESULT:    -3.936      2.355      3.637
REMARK INTER + INTRA:          -4.660
REMARK INTER:                  -4.621
REMARK INTRA:                  -0.039
REMARK UNBOUND:                -0.033
REMARK SMILES O=C([O-])CCC(=O)[O-]
REMARK SMILES IDX 4 1 2 2 1 3 3 4 5 5 6 6 7 7 8 8
REMARK H PARENT
REMARK Flexibility Score: inf
ROOT
ATOM      1  C   UNL     1      22.415  28.397  33.989  1.00  0.00     0.059 C 
ENDROOT
BRANCH   1   2
ATOM      2  C   UNL     1      23.895  28.186  34.014  1.00  0.00     0.042 C 
ATOM      3  O   UNL     1      24.665  29.128  34.337  1.00  0.00    -0.550 OA
ATOM      4  O   UNL     1      24.424  26.933  33.729  1.00  0.00    -0.550 OA
ENDBRANCH   1   2
BRANCH   1   5
ATOM      5  C   UNL     1      22.079  29.864  34.259  1.00  0.00     0.059 C 
BRANCH   5   6
ATOM      6  C   UNL     1      20.599  30.080  34.208  1.00  0.00     0.042 C 
ATOM      7  O   UNL     1      20.131  31.245  34.099  1.00  0.00    -0.550 OA
ATOM      8  O   UNL     1      19.736  28.991  34.230  1.00  0.00    -0.550 OA
ENDBRANCH   5   6
ENDBRANCH   1   5
TORSDOF 3
ENDMDL
MODEL 4
REMARK VINA RESULT:    -3.923      2.388      4.249
REMARK INTER + INTRA:          -4.644
REMARK INTER:                  -4.609
REMARK INTRA:                  -0.035
REMARK UNBOUND:                -0.033
REMARK SMILES O=C([O-])CCC(=O)[O-]
REMARK SMILES IDX 4 1 2 2 1 3 3 4 5 5 6 6 7 7 8 8
REMARK H PARENT
REMARK Flexibility Score: inf
ROOT
ATOM      1  C   UNL     1      22.050  29.859  34.373  1.00  0.00     0.059 C 
ENDROOT
BRANCH   1   2
ATOM      2  C   UNL     1      20.587  30.143  34.248  1.00  0.00     0.042 C 
ATOM      3  O   UNL     1      20.184  31.318  34.042  1.00  0.00    -0.550 OA
ATOM      4  O   UNL     1      19.669  29.102  34.309  1.00  0.00    -0.550 OA
ENDBRANCH   1   2
BRANCH   1   5
ATOM      5  C   UNL     1      22.351  28.415  33.974  1.00  0.00     0.059 C 
BRANCH   5   6
ATOM      6  C   UNL     1      23.826  28.163  33.992  1.00  0.00     0.042 C 
ATOM      7  O   UNL     1      24.285  27.051  33.617  1.00  0.00    -0.550 OA
ATOM      8  O   UNL     1      24.699  29.173  34.377  1.00  0.00    -0.550 OA
ENDBRANCH   5   6
ENDBRANCH   1   5
TORSDOF 3
ENDMDL
MODEL 5
REMARK VINA RESULT:    -3.815      3.462      4.508
REMARK INTER + INTRA:          -4.518
REMARK INTER:                  -4.458
REMARK INTRA:                  -0.060
REMARK UNBOUND:                -0.033
REMARK SMILES O=C([O-])CCC(=O)[O-]
REMARK SMILES IDX 4 1 2 2 1 3 3 4 5 5 6 6 7 7 8 8
REMARK H PARENT
REMARK Flexibility Score: inf
ROOT
ATOM      1  C   UNL     1      22.993  27.894  33.997  1.00  0.00     0.059 C 
ENDROOT
BRANCH   1   2
ATOM      2  C   UNL     1      22.965  29.360  34.290  1.00  0.00     0.042 C 
ATOM      3  O   UNL     1      24.038  29.989  34.485  1.00  0.00    -0.550 OA
ATOM      4  O   UNL     1      21.756  30.044  34.300  1.00  0.00    -0.550 OA
ENDBRANCH   1   2
BRANCH   1   5
ATOM      5  C   UNL     1      24.430  27.371  34.023  1.00  0.00     0.059 C 
BRANCH   5   6
ATOM      6  C   UNL     1      24.508  26.093  34.799  1.00  0.00     0.042 C 
ATOM      7  O   UNL     1      23.461  25.441  35.055  1.00  0.00    -0.550 OA
ATOM      8  O   UNL     1      25.743  25.596  35.196  1.00  0.00    -0.550 OA
ENDBRANCH   5   6
ENDBRANCH   1   5
TORSDOF 3
ENDMDL
MODEL 6
REMARK VINA RESULT:    -3.719      2.354      3.444
REMARK INTER + INTRA:          -4.405
REMARK INTER:                  -4.356
REMARK INTRA:                  -0.049
REMARK UNBOUND:                -0.033
REMARK SMILES O=C([O-])CCC(=O)[O-]
REMARK SMILES IDX 4 1 2 2 1 3 3 4 5 5 6 6 7 7 8 8
REMARK H PARENT
REMARK Flexibility Score: inf
ROOT
ATOM      1  C   UNL     1      19.164  26.294  35.053  1.00  0.00     0.059 C 
ENDROOT
BRANCH   1   2
ATOM      2  C   UNL     1      18.604  27.631  34.683  1.00  0.00     0.042 C 
ATOM      3  O   UNL     1      17.429  27.727  34.243  1.00  0.00    -0.550 OA
ATOM      4  O   UNL     1      19.364  28.779  34.873  1.00  0.00    -0.550 OA
ENDBRANCH   1   2
BRANCH   1   5
ATOM      5  C   UNL     1      19.088  26.081  36.565  1.00  0.00     0.059 C 
BRANCH   5   6
ATOM      6  C   UNL     1      17.663  26.067  37.021  1.00  0.00     0.042 C 
ATOM      7  O   UNL     1      16.836  25.275  36.495  1.00  0.00    -0.550 OA
ATOM      8  O   UNL     1      17.257  26.895  38.060  1.00  0.00    -0.550 OA
ENDBRANCH   5   6
ENDBRANCH   1   5
TORSDOF 3
ENDMDL
MODEL 7
REMARK VINA RESULT:    -3.644      1.741      2.299
REMARK INTER + INTRA:          -4.316
REMARK INTER:                  -4.251
REMARK INTRA:                  -0.065
REMARK UNBOUND:                -0.033
REMARK SMILES O=C([O-])CCC(=O)[O-]
REMARK SMILES IDX 4 1 2 2 1 3 3 4 5 5 6 6 7 7 8 8
REMARK H PARENT
REMARK Flexibility Score: inf
ROOT
ATOM      1  C   UNL     1      18.567  28.082  34.768  1.00  0.00     0.059 C 
ENDROOT
BRANCH   1   2
ATOM      2  C   UNL     1      19.798  28.849  34.400  1.00  0.00     0.042 C 
ATOM      3  O   UNL     1      20.818  28.245  33.976  1.00  0.00    -0.550 OA
ATOM      4  O   UNL     1      19.802  30.236  34.477  1.00  0.00    -0.550 OA
ENDBRANCH   1   2
BRANCH   1   5
ATOM      5  C   UNL     1      18.910  26.617  35.038  1.00  0.00     0.059 C 
BRANCH   5   6
ATOM      6  C   UNL     1      18.516  26.236  36.430  1.00  0.00     0.042 C 
ATOM      7  O   UNL     1      19.007  25.209  36.970  1.00  0.00    -0.550 OA
ATOM      8  O   UNL     1      17.644  27.042  37.152  1.00  0.00    -0.550 OA
ENDBRANCH   5   6
ENDBRANCH   1   5
TORSDOF 3
ENDMDL
MODEL 8
REMARK VINA RESULT:    -3.582      1.901      4.410
REMARK INTER + INTRA:          -4.243
REMARK INTER:                  -4.183
REMARK INTRA:                  -0.060
REMARK UNBOUND:                -0.033
REMARK SMILES O=C([O-])CCC(=O)[O-]
REMARK SMILES IDX 4 1 2 2 1 3 3 4 5 5 6 6 7 7 8 8
REMARK H PARENT
REMARK Flexibility Score: inf
ROOT
ATOM      1  C   UNL     1      18.118  27.113  35.490  1.00  0.00     0.059 C 
ENDROOT
BRANCH   1   2
ATOM      2  C   UNL     1      18.164  26.451  36.830  1.00  0.00     0.042 C 
ATOM      3  O   UNL     1      17.434  26.866  37.768  1.00  0.00    -0.550 OA
ATOM      4  O   UNL     1      18.977  25.342  37.030  1.00  0.00    -0.550 OA
ENDBRANCH   1   2
BRANCH   1   5
ATOM      5  C   UNL     1      19.482  27.031  34.804  1.00  0.00     0.059 C 
BRANCH   5   6
ATOM      6  C   UNL     1      19.934  28.390  34.373  1.00  0.00     0.042 C 
ATOM      7  O   UNL     1      19.246  29.407  34.654  1.00  0.00    -0.550 OA
ATOM      8  O   UNL     1      21.142  28.541  33.703  1.00  0.00    -0.550 OA
ENDBRANCH   5   6
ENDBRANCH   1   5
TORSDOF 3
ENDMDL
MODEL 9
REMARK VINA RESULT:    -3.476      4.224      5.937
REMARK INTER + INTRA:          -4.119
REMARK INTER:                  -4.082
REMARK INTRA:                  -0.037
REMARK UNBOUND:                -0.033
REMARK SMILES O=C([O-])CCC(=O)[O-]
REMARK SMILES IDX 4 1 2 2 1 3 3 4 5 5 6 6 7 7 8 8
REMARK H PARENT
REMARK Flexibility Score: inf
ROOT
ATOM      1  C   UNL     1      23.846  26.132  34.727  1.00  0.00     0.059 C 
ENDROOT
BRANCH   1   2
ATOM      2  C   UNL     1      24.839  25.079  35.105  1.00  0.00     0.042 C 
ATOM      3  O   UNL     1      24.526  23.861  35.047  1.00  0.00    -0.550 OA
ATOM      4  O   UNL     1      26.129  25.441  35.475  1.00  0.00    -0.550 OA
ENDBRANCH   1   2
BRANCH   1   5
ATOM      5  C   UNL     1      24.537  27.279  33.990  1.00  0.00     0.059 C 
BRANCH   5   6
ATOM      6  C   UNL     1      23.737  28.538  34.113  1.00  0.00     0.042 C 
ATOM      7  O   UNL     1      22.487  28.512  33.961  1.00  0.00    -0.550 OA
ATOM      8  O   UNL     1      24.366  29.731  34.445  1.00  0.00    -0.550 OA
ENDBRANCH   5   6
ENDBRANCH   1   5
TORSDOF 3
ENDMDL
