MODEL 1
REMARK VINA RESULT:    -3.990      0.000      0.000
REMARK INTER + INTRA:          -5.672
REMARK INTER:                  -5.389
REMARK INTRA:                  -0.283
REMARK UNBOUND:                -0.283
REMARK SMILES CCCCCCCC(=O)[O-]
REMARK SMILES IDX 5 1 6 2 7 3 8 4 9 5 10 6 4 7 3 8 2 9 1 10
REMARK H PARENT
REMARK Flexibility Score: inf
ROOT
ATOM      1  C   UNL     1     191.536 196.029 191.200  1.00  0.00     0.000 C 
ENDROOT
BRANCH   1   2
ATOM      2  C   UNL     1     191.651 197.193 192.197  1.00  0.00     0.006 C 
BRANCH   2   3
ATOM      3  C   UNL     1     191.804 198.553 191.503  1.00  0.00     0.053 C 
BRANCH   3   4
ATOM      4  C   UNL     1     192.834 199.382 192.203  1.00  0.00     0.041 C 
ATOM      5  O   UNL     1     193.413 198.938 193.230  1.00  0.00    -0.550 OA
ATOM      6  O   UNL     1     193.121 200.663 191.750  1.00  0.00    -0.550 OA
ENDBRANCH   3   4
ENDBRANCH   2   3
ENDBRANCH   1   2
BRANCH   1   7
ATOM      7  C   UNL     1     191.230 194.689 191.885  1.00  0.00     0.000 C 
BRANCH   7   8
ATOM      8  C   UNL     1     192.217 193.604 191.431  1.00  0.00    -0.000 C 
BRANCH   8   9
ATOM      9  C   UNL     1     193.481 194.190 190.782  1.00  0.00    -0.003 C 
ATOM     10  C   UNL     1     194.747 193.910 191.591  1.00  0.00     0.004 C 
ENDBRANCH   8   9
ENDBRANCH   7   8
ENDBRANCH   1   7
TORSDOF 6
ENDMDL
MODEL 2
REMARK VINA RESULT:    -3.816      5.709      7.056
REMARK INTER + INTRA:          -5.438
REMARK INTER:                  -5.180
REMARK INTRA:                  -0.258
REMARK UNBOUND:                -0.283
REMARK SMILES CCCCCCCC(=O)[O-]
REMARK SMILES IDX 5 1 6 2 7 3 8 4 9 5 10 6 4 7 3 8 2 9 1 10
REMARK H PARENT
REMARK Flexibility Score: inf
ROOT
ATOM      1  C   UNL     1     191.602 191.184 191.954  1.00  0.00     0.000 C 
ENDROOT
BRANCH   1   2
ATOM      2  C   UNL     1     190.414 191.025 192.915  1.00  0.00     0.006 C 
BRANCH   2   3
ATOM      3  C   UNL     1     189.100 191.553 192.324  1.00  0.00     0.053 C 
BRANCH   3   4
ATOM      4  C   UNL     1     188.125 190.434 192.140  1.00  0.00     0.041 C 
ATOM      5  O   UNL     1     187.195 190.535 191.297  1.00  0.00    -0.550 OA
ATOM      6  O   UNL     1     188.213 189.297 192.934  1.00  0.00    -0.550 OA
ENDBRANCH   3   4
ENDBRANCH   2   3
ENDBRANCH   1   2
BRANCH   1   7
ATOM      7  C   UNL     1     191.391 192.311 190.931  1.00  0.00     0.000 C 
BRANCH   7   8
ATOM      8  C   UNL     1     191.966 193.637 191.450  1.00  0.00    -0.000 C 
BRANCH   8   9
ATOM      9  C   UNL     1     193.248 194.054 190.713  1.00  0.00    -0.003 C 
ATOM     10  C   UNL     1     194.509 193.843 191.550  1.00  0.00     0.004 C 
ENDBRANCH   8   9
ENDBRANCH   7   8
ENDBRANCH   1   7
TORSDOF 6
ENDMDL
MODEL 3
REMARK VINA RESULT:    -3.808      3.041      5.281
REMARK INTER + INTRA:          -5.427
REMARK INTER:                  -5.159
REMARK INTRA:                  -0.268
REMARK UNBOUND:                -0.283
REMARK SMILES CCCCCCCC(=O)[O-]
REMARK SMILES IDX 5 1 6 2 7 3 8 4 9 5 10 6 4 7 3 8 2 9 1 10
REMARK H PARENT
REMARK Flexibility Score: inf
ROOT
ATOM      1  C   UNL     1     191.161 196.983 192.396  1.00  0.00     0.000 C 
ENDROOT
BRANCH   1   2
ATOM      2  C   UNL     1     191.615 195.971 191.331  1.00  0.00     0.006 C 
BRANCH   2   3
ATOM      3  C   UNL     1     191.263 194.525 191.703  1.00  0.00     0.053 C 
BRANCH   3   4
ATOM      4  C   UNL     1     192.166 193.570 190.989  1.00  0.00     0.041 C 
ATOM      5  O   UNL     1     193.332 193.921 190.665  1.00  0.00    -0.550 OA
ATOM      6  O   UNL     1     191.706 192.307 190.639  1.00  0.00    -0.550 OA
ENDBRANCH   3   4
ENDBRANCH   2   3
ENDBRANCH   1   2
BRANCH   1   7
ATOM      7  C   UNL     1     191.219 198.435 191.897  1.00  0.00     0.000 C 
BRANCH   7   8
ATOM      8  C   UNL     1     191.920 198.518 190.533  1.00  0.00    -0.000 C 
BRANCH   8   9
ATOM      9  C   UNL     1     192.735 199.809 190.365  1.00  0.00    -0.003 C 
ATOM     10  C   UNL     1     193.091 200.463 191.700  1.00  0.00     0.004 C 
ENDBRANCH   8   9
ENDBRANCH   7   8
ENDBRANCH   1   7
TORSDOF 6
ENDMDL
MODEL 4
REMARK VINA RESULT:    -3.783      1.838      2.930
REMARK INTER + INTRA:          -5.392
REMARK INTER:                  -5.021
REMARK INTRA:                  -0.371
REMARK UNBOUND:                -0.283
REMARK SMILES CCCCCCCC(=O)[O-]
REMARK SMILES IDX 5 1 6 2 7 3 8 4 9 5 10 6 4 7 3 8 2 9 1 10
REMARK H PARENT
REMARK Flexibility Score: inf
ROOT
ATOM      1  C   UNL     1     192.628 194.777 191.569  1.00  0.00     0.000 C 
ENDROOT
BRANCH   1   2
ATOM      2  C   UNL     1     191.167 195.221 191.744  1.00  0.00     0.006 C 
BRANCH   2   3
ATOM      3  C   UNL     1     190.970 196.138 192.958  1.00  0.00     0.053 C 
BRANCH   3   4
ATOM      4  C   UNL     1     191.426 197.527 192.641  1.00  0.00     0.041 C 
ATOM      5  O   UNL     1     190.881 198.176 191.709  1.00  0.00    -0.550 OA
ATOM      6  O   UNL     1     192.485 198.088 193.343  1.00  0.00    -0.550 OA
ENDBRANCH   3   4
ENDBRANCH   2   3
ENDBRANCH   1   2
BRANCH   1   7
ATOM      7  C   UNL     1     192.759 193.462 190.785  1.00  0.00     0.000 C 
BRANCH   7   8
ATOM      8  C   UNL     1     191.530 192.568 191.007  1.00  0.00    -0.000 C 
BRANCH   8   9
ATOM      9  C   UNL     1     191.785 191.460 192.040  1.00  0.00    -0.003 C 
ATOM     10  C   UNL     1     190.559 191.159 192.901  1.00  0.00     0.004 C 
ENDBRANCH   8   9
ENDBRANCH   7   8
ENDBRANCH   1   7
TORSDOF 6
ENDMDL
MODEL 5
REMARK VINA RESULT:    -3.778      2.197      3.487
REMARK INTER + INTRA:          -5.386
REMARK INTER:                  -4.918
REMARK INTRA:                  -0.468
REMARK UNBOUND:                -0.283
REMARK SMILES CCCCCCCC(=O)[O-]
REMARK SMILES IDX 5 1 6 2 7 3 8 4 9 5 10 6 4 7 3 8 2 9 1 10
REMARK H PARENT
REMARK Flexibility Score: inf
ROOT
ATOM      1  C   UNL     1     192.702 193.475 190.794  1.00  0.00     0.000 C 
ENDROOT
BRANCH   1   2
ATOM      2  C   UNL     1     192.725 194.724 191.688  1.00  0.00     0.006 C 
BRANCH   2   3
ATOM      3  C   UNL     1     191.491 195.615 191.492  1.00  0.00     0.053 C 
BRANCH   3   4
ATOM      4  C   UNL     1     191.294 196.500 192.681  1.00  0.00     0.041 C 
ATOM      5  O   UNL     1     190.391 196.241 193.521  1.00  0.00    -0.550 OA
ATOM      6  O   UNL     1     192.074 197.638 192.839  1.00  0.00    -0.550 OA
ENDBRANCH   3   4
ENDBRANCH   2   3
ENDBRANCH   1   2
BRANCH   1   7
ATOM      7  C   UNL     1     191.411 192.656 190.952  1.00  0.00     0.000 C 
BRANCH   7   8
ATOM      8  C   UNL     1     191.646 191.431 191.849  1.00  0.00    -0.000 C 
BRANCH   8   9
ATOM      9  C   UNL     1     190.626 191.333 192.993  1.00  0.00    -0.003 C 
ATOM     10  C   UNL     1     190.017 192.685 193.361  1.00  0.00     0.004 C 
ENDBRANCH   8   9
ENDBRANCH   7   8
ENDBRANCH   1   7
TORSDOF 6
ENDMDL
MODEL 6
REMARK VINA RESULT:    -3.755      4.205      6.047
REMARK INTER + INTRA:          -5.355
REMARK INTER:                  -5.255
REMARK INTRA:                  -0.100
REMARK UNBOUND:                -0.283
REMARK SMILES CCCCCCCC(=O)[O-]
REMARK SMILES IDX 5 1 6 2 7 3 8 4 9 5 10 6 4 7 3 8 2 9 1 10
REMARK H PARENT
REMARK Flexibility Score: inf
ROOT
ATOM      1  C   UNL     1     191.869 195.561 191.216  1.00  0.00     0.000 C 
ENDROOT
BRANCH   1   2
ATOM      2  C   UNL     1     191.144 194.291 191.688  1.00  0.00     0.006 C 
BRANCH   2   3
ATOM      3  C   UNL     1     191.874 193.006 191.277  1.00  0.00     0.053 C 
BRANCH   3   4
ATOM      4  C   UNL     1     191.045 191.806 191.611  1.00  0.00     0.041 C 
ATOM      5  O   UNL     1     189.889 191.680 191.127  1.00  0.00    -0.550 OA
ATOM      6  O   UNL     1     191.530 190.850 192.495  1.00  0.00    -0.550 OA
ENDBRANCH   3   4
ENDBRANCH   2   3
ENDBRANCH   1   2
BRANCH   1   7
ATOM      7  C   UNL     1     191.429 196.816 191.986  1.00  0.00     0.000 C 
BRANCH   7   8
ATOM      8  C   UNL     1     191.492 198.060 191.087  1.00  0.00    -0.000 C 
BRANCH   8   9
ATOM      9  C   UNL     1     192.202 199.242 191.764  1.00  0.00    -0.003 C 
ATOM     10  C   UNL     1     192.953 200.129 190.771  1.00  0.00     0.004 C 
ENDBRANCH   8   9
ENDBRANCH   7   8
ENDBRANCH   1   7
TORSDOF 6
ENDMDL
MODEL 7
REMARK VINA RESULT:    -3.744      4.622      6.388
REMARK INTER + INTRA:          -5.340
REMARK INTER:                  -5.156
REMARK INTRA:                  -0.184
REMARK UNBOUND:                -0.283
REMARK SMILES CCCCCCCC(=O)[O-]
REMARK SMILES IDX 5 1 6 2 7 3 8 4 9 5 10 6 4 7 3 8 2 9 1 10
REMARK H PARENT
REMARK Flexibility Score: inf
ROOT
ATOM      1  C   UNL     1     192.348 193.829 191.333  1.00  0.00     0.000 C 
ENDROOT
BRANCH   1   2
ATOM      2  C   UNL     1     191.207 192.920 191.815  1.00  0.00     0.006 C 
BRANCH   2   3
ATOM      3  C   UNL     1     191.647 191.461 191.992  1.00  0.00     0.053 C 
BRANCH   3   4
ATOM      4  C   UNL     1     190.684 190.730 192.872  1.00  0.00     0.041 C 
ATOM      5  O   UNL     1     191.107 190.018 193.822  1.00  0.00    -0.550 OA
ATOM      6  O   UNL     1     189.320 190.794 192.616  1.00  0.00    -0.550 OA
ENDBRANCH   3   4
ENDBRANCH   2   3
ENDBRANCH   1   2
BRANCH   1   7
ATOM      7  C   UNL     1     191.903 195.285 191.131  1.00  0.00     0.000 C 
BRANCH   7   8
ATOM      8  C   UNL     1     191.751 196.004 192.479  1.00  0.00    -0.000 C 
BRANCH   8   9
ATOM      9  C   UNL     1     191.195 197.428 192.329  1.00  0.00    -0.003 C 
ATOM     10  C   UNL     1     191.215 197.924 190.884  1.00  0.00     0.004 C 
ENDBRANCH   8   9
ENDBRANCH   7   8
ENDBRANCH   1   7
TORSDOF 6
ENDMDL
MODEL 8
REMARK VINA RESULT:    -3.738      5.234      6.527
REMARK INTER + INTRA:          -5.332
REMARK INTER:                  -5.097
REMARK INTRA:                  -0.234
REMARK UNBOUND:                -0.283
REMARK SMILES CCCCCCCC(=O)[O-]
REMARK SMILES IDX 5 1 6 2 7 3 8 4 9 5 10 6 4 7 3 8 2 9 1 10
REMARK H PARENT
REMARK Flexibility Score: inf
ROOT
ATOM      1  C   UNL     1     190.653 191.553 191.584  1.00  0.00     0.000 C 
ENDROOT
BRANCH   1   2
ATOM      2  C   UNL     1     189.667 192.558 190.968  1.00  0.00     0.006 C 
BRANCH   2   3
ATOM      3  C   UNL     1     188.202 192.168 191.203  1.00  0.00     0.053 C 
BRANCH   3   4
ATOM      4  C   UNL     1     187.560 191.758 189.915  1.00  0.00     0.041 C 
ATOM      5  O   UNL     1     186.881 190.698 189.855  1.00  0.00    -0.550 OA
ATOM      6  O   UNL     1     187.751 192.519 188.769  1.00  0.00    -0.550 OA
ENDBRANCH   3   4
ENDBRANCH   2   3
ENDBRANCH   1   2
BRANCH   1   7
ATOM      7  C   UNL     1     192.046 192.157 191.821  1.00  0.00     0.000 C 
BRANCH   7   8
ATOM      8  C   UNL     1     192.070 193.645 191.438  1.00  0.00    -0.000 C 
BRANCH   8   9
ATOM      9  C   UNL     1     193.366 194.048 190.719  1.00  0.00    -0.003 C 
ATOM     10  C   UNL     1     194.612 193.837 191.580  1.00  0.00     0.004 C 
ENDBRANCH   8   9
ENDBRANCH   7   8
ENDBRANCH   1   7
TORSDOF 6
ENDMDL
MODEL 9
REMARK VINA RESULT:    -3.736      4.660      6.471
REMARK INTER + INTRA:          -5.329
REMARK INTER:                  -4.892
REMARK INTRA:                  -0.437
REMARK UNBOUND:                -0.283
REMARK SMILES CCCCCCCC(=O)[O-]
REMARK SMILES IDX 5 1 6 2 7 3 8 4 9 5 10 6 4 7 3 8 2 9 1 10
REMARK H PARENT
REMARK Flexibility Score: inf
ROOT
ATOM      1  C   UNL     1     191.589 192.376 190.857  1.00  0.00     0.000 C 
ENDROOT
BRANCH   1   2
ATOM      2  C   UNL     1     191.560 191.372 192.019  1.00  0.00     0.006 C 
BRANCH   2   3
ATOM      3  C   UNL     1     190.430 191.655 193.018  1.00  0.00     0.053 C 
BRANCH   3   4
ATOM      4  C   UNL     1     189.119 191.193 192.465  1.00  0.00     0.041 C 
ATOM      5  O   UNL     1     188.765 189.990 192.594  1.00  0.00    -0.550 OA
ATOM      6  O   UNL     1     188.308 192.077 191.765  1.00  0.00    -0.550 OA
ENDBRANCH   3   4
ENDBRANCH   2   3
ENDBRANCH   1   2
BRANCH   1   7
ATOM      7  C   UNL     1     192.392 193.644 191.188  1.00  0.00     0.000 C 
BRANCH   7   8
ATOM      8  C   UNL     1     191.476 194.875 191.236  1.00  0.00    -0.000 C 
BRANCH   8   9
ATOM      9  C   UNL     1     191.523 195.592 192.595  1.00  0.00    -0.003 C 
ATOM     10  C   UNL     1     190.275 195.341 193.441  1.00  0.00     0.004 C 
ENDBRANCH   8   9
ENDBRANCH   7   8
ENDBRANCH   1   7
TORSDOF 6
ENDMDL
