MODEL 1
REMARK VINA RESULT:   137.841      0.000      0.000
REMARK INTER + INTRA:         158.068
REMARK INTER:                 157.987
REMARK INTRA:                   0.081
REMARK UNBOUND:                 0.081
REMARK SMILES C=C(C)[C@@H]1CC[C@@]2(C(=O)[O-])CC[C@]3(C)[C@H](CC[C@@H]4[C@]5(C)CC[C@H](O)C(C)(C)[C@@H]5CC[C@]43C)[C@@H]12
REMARK SMILES IDX 7 1 6 2 33 3 11 4 5 5 15 6 4 7 12 8 16 9 13 10 17 11 31 12
REMARK SMILES IDX 14 13 18 14 30 15 32 16 19 17 29 18 21 19 20 20 28 21 22 22
REMARK SMILES IDX 25 23 23 24 26 25 27 26 8 27 9 28 10 29 2 30 3 31 1 32 24 33
REMARK H PARENT 24 34
REMARK Flexibility Score: inf
ROOT
ATOM      1  C   UNL     1     -32.844  32.037 -18.295  1.00  0.00     0.014 C 
ATOM      2  C   UNL     1     -32.660  33.323 -19.135  1.00  0.00     0.014 C 
ATOM      3  C   UNL     1     -31.829  32.160 -17.101  1.00  0.00     0.012 C 
ATOM      4  C   UNL     1     -32.544  30.799 -19.187  1.00  0.00     0.014 C 
ATOM      5  C   UNL     1     -32.012  34.339 -18.221  1.00  0.00     0.009 C 
ATOM      6  C   UNL     1     -30.841  30.949 -17.006  1.00  0.00     0.000 C 
ATOM      7  C   UNL     1     -31.110  33.520 -17.307  1.00  0.00     0.018 C 
ATOM      8  C   UNL     1     -32.480  29.484 -18.390  1.00  0.00     0.008 C 
ATOM      9  C   UNL     1     -29.904  31.060 -15.777  1.00  0.00     0.005 C 
ATOM     10  C   UNL     1     -31.601  29.557 -17.075  1.00  0.00    -0.024 C 
ATOM     11  C   UNL     1     -28.904  29.896 -15.665  1.00  0.00     0.005 C 
ATOM     12  C   UNL     1     -30.501  28.376 -17.041  1.00  0.00    -0.024 C 
ATOM     13  C   UNL     1     -32.620  29.454 -15.888  1.00  0.00     0.012 C 
ATOM     14  C   UNL     1     -29.631  28.527 -15.718  1.00  0.00     0.002 C 
ATOM     15  C   UNL     1     -31.162  26.943 -17.041  1.00  0.00     0.008 C 
ATOM     16  C   UNL     1     -29.608  28.499 -18.348  1.00  0.00     0.012 C 
ATOM     17  C   UNL     1     -28.817  27.231 -15.266  1.00  0.00    -0.026 C 
ATOM     18  C   UNL     1     -31.246  26.288 -15.657  1.00  0.00     0.005 C 
ATOM     19  C   UNL     1     -27.733  26.861 -16.316  1.00  0.00     0.010 C 
ATOM     20  C   UNL     1     -28.087  27.567 -13.928  1.00  0.00     0.012 C 
ATOM     21  C   UNL     1     -29.843  26.024 -15.002  1.00  0.00     0.003 C 
ATOM     22  C   UNL     1     -27.085  25.504 -16.076  1.00  0.00     0.033 C 
ATOM     23  C   UNL     1     -29.262  24.524 -15.129  1.00  0.00    -0.006 C 
ATOM     24  C   UNL     1     -28.132  24.392 -16.196  1.00  0.00     0.120 C 
ATOM     25  C   UNL     1     -30.360  23.479 -15.474  1.00  0.00     0.014 C 
ATOM     26  C   UNL     1     -28.698  24.046 -13.755  1.00  0.00     0.014 C 
ENDROOT
BRANCH   1  27
ATOM     27  C   UNL     1     -34.286  32.009 -17.791  1.00  0.00     0.048 C 
ATOM     28  O   UNL     1     -35.096  32.915 -18.128  1.00  0.00    -0.550 OA
ATOM     29  O   UNL     1     -34.759  30.939 -17.037  1.00  0.00    -0.550 OA
ENDBRANCH   1  27
BRANCH   7  30
ATOM     30  C   UNL     1     -30.798  34.275 -16.018  1.00  0.00    -0.077 C 
ATOM     31  C   UNL     1     -29.424  34.835 -15.739  1.00  0.00     0.039 C 
ATOM     32  C   UNL     1     -31.738  34.393 -15.068  1.00  0.00     0.008 C 
ENDBRANCH   7  30
BRANCH  24  33
ATOM     33  O   UNL     1     -28.675  24.398 -17.497  1.00  0.00    -0.393 OA
ATOM     34  H   UNL     1     -29.653  24.538 -17.405  1.00  0.00     0.210 HD
ENDBRANCH  24  33
TORSDOF 3
ENDMDL
MODEL 2
REMARK VINA RESULT:   137.882      2.628      4.978
REMARK INTER + INTRA:         158.115
REMARK INTER:                 158.893
REMARK INTRA:                  -0.779
REMARK UNBOUND:                 0.081
REMARK SMILES C=C(C)[C@@H]1CC[C@@]2(C(=O)[O-])CC[C@]3(C)[C@H](CC[C@@H]4[C@]5(C)CC[C@H](O)C(C)(C)[C@@H]5CC[C@]43C)[C@@H]12
REMARK SMILES IDX 7 1 6 2 33 3 11 4 5 5 15 6 4 7 12 8 16 9 13 10 17 11 31 12
REMARK SMILES IDX 14 13 18 14 30 15 32 16 19 17 29 18 21 19 20 20 28 21 22 22
REMARK SMILES IDX 25 23 23 24 26 25 27 26 8 27 9 28 10 29 2 30 3 31 1 32 24 33
REMARK H PARENT 24 34
REMARK Flexibility Score: inf
ROOT
ATOM      1  C   UNL     1     -31.065  29.617 -16.211  1.00  0.00     0.014 C 
ATOM      2  C   UNL     1     -32.144  30.362 -17.033  1.00  0.00     0.014 C 
ATOM      3  C   UNL     1     -30.360  28.640 -17.219  1.00  0.00     0.012 C 
ATOM      4  C   UNL     1     -31.752  28.852 -15.044  1.00  0.00     0.014 C 
ATOM      5  C   UNL     1     -31.732  30.237 -18.483  1.00  0.00     0.009 C 
ATOM      6  C   UNL     1     -30.395  27.145 -16.755  1.00  0.00     0.000 C 
ATOM      7  C   UNL     1     -31.063  28.873 -18.583  1.00  0.00     0.018 C 
ATOM      8  C   UNL     1     -30.796  27.901 -14.303  1.00  0.00     0.008 C 
ATOM      9  C   UNL     1     -29.627  26.217 -17.729  1.00  0.00     0.005 C 
ATOM     10  C   UNL     1     -29.922  26.981 -15.249  1.00  0.00    -0.024 C 
ATOM     11  C   UNL     1     -29.661  24.735 -17.315  1.00  0.00     0.005 C 
ATOM     12  C   UNL     1     -30.059  25.425 -14.840  1.00  0.00    -0.024 C 
ATOM     13  C   UNL     1     -28.453  27.507 -15.098  1.00  0.00     0.012 C 
ATOM     14  C   UNL     1     -29.190  24.554 -15.848  1.00  0.00     0.002 C 
ATOM     15  C   UNL     1     -29.551  25.145 -13.374  1.00  0.00     0.008 C 
ATOM     16  C   UNL     1     -31.597  25.034 -14.904  1.00  0.00     0.012 C 
ATOM     17  C   UNL     1     -28.820  23.081 -15.359  1.00  0.00    -0.026 C 
ATOM     18  C   UNL     1     -28.130  24.570 -13.299  1.00  0.00     0.005 C 
ATOM     19  C   UNL     1     -30.098  22.208 -15.210  1.00  0.00     0.010 C 
ATOM     20  C   UNL     1     -27.922  22.424 -16.453  1.00  0.00     0.012 C 
ATOM     21  C   UNL     1     -27.983  23.169 -13.992  1.00  0.00     0.003 C 
ATOM     22  C   UNL     1     -29.852  20.875 -14.516  1.00  0.00     0.033 C 
ATOM     23  C   UNL     1     -28.021  21.881 -13.022  1.00  0.00    -0.006 C 
ATOM     24  C   UNL     1     -29.376  21.109 -13.079  1.00  0.00     0.120 C 
ATOM     25  C   UNL     1     -27.745  22.237 -11.534  1.00  0.00     0.014 C 
ATOM     26  C   UNL     1     -26.875  20.890 -13.396  1.00  0.00     0.014 C 
ENDROOT
BRANCH   1  27
ATOM     27  C   UNL     1     -30.083  30.658 -15.675  1.00  0.00     0.048 C 
ATOM     28  O   UNL     1     -28.889  30.675 -16.079  1.00  0.00    -0.550 OA
ATOM     29  O   UNL     1     -30.508  31.663 -14.810  1.00  0.00    -0.550 OA
ENDBRANCH   1  27
BRANCH   7  30
ATOM     30  C   UNL     1     -30.140  28.798 -19.796  1.00  0.00    -0.077 C 
ATOM     31  C   UNL     1     -28.730  29.337 -19.754  1.00  0.00     0.039 C 
ATOM     32  C   UNL     1     -30.599  28.306 -20.957  1.00  0.00     0.008 C 
ENDBRANCH   7  30
BRANCH  24  33
ATOM     33  O   UNL     1     -30.372  21.802 -12.363  1.00  0.00    -0.393 OA
ATOM     34  H   UNL     1     -30.956  21.120 -11.939  1.00  0.00     0.210 HD
ENDBRANCH  24  33
TORSDOF 3
ENDMDL
