MODEL 1
REMARK VINA RESULT:    -3.671      0.000      0.000
REMARK INTER + INTRA:         -14.644
REMARK INTER:                  -9.250
REMARK INTRA:                  -5.394
REMARK UNBOUND:                -5.394
REMARK SMILES CCCCCCCCCCCCCCCCCCCCCCCCCCCC(=O)[O-]
REMARK SMILES IDX 15 1 16 2 17 3 18 4 19 5 20 6 21 7 22 8 23 9 24 10 25 11
REMARK SMILES IDX 26 12 27 13 28 14 29 15 30 16 14 17 13 18 12 19 11 20 10 21
REMARK SMILES IDX 9 22 8 23 7 24 6 25 5 26 4 27 3 28 2 29 1 30
REMARK H PARENT
REMARK Flexibility Score: inf
ROOT
ATOM      1  C   UNL     1      24.473  -1.489  -8.908  1.00  0.00     0.000 C 
ENDROOT
BRANCH   1   2
ATOM      2  C   UNL     1      24.973  -2.643  -8.019  1.00  0.00     0.000 C 
BRANCH   2   3
ATOM      3  C   UNL     1      24.310  -3.989  -8.360  1.00  0.00     0.000 C 
BRANCH   3   4
ATOM      4  C   UNL     1      24.172  -4.232  -9.877  1.00  0.00     0.000 C 
BRANCH   4   5
ATOM      5  C   UNL     1      24.424  -5.680 -10.341  1.00  0.00     0.000 C 
BRANCH   5   6
ATOM      6  C   UNL     1      24.362  -6.701  -9.198  1.00  0.00     0.000 C 
BRANCH   6   7
ATOM      7  C   UNL     1      25.402  -7.813  -9.395  1.00  0.00     0.000 C 
BRANCH   7   8
ATOM      8  C   UNL     1      26.638  -7.650  -8.491  1.00  0.00     0.000 C 
BRANCH   8   9
ATOM      9  C   UNL     1      26.431  -6.756  -7.252  1.00  0.00     0.000 C 
BRANCH   9  10
ATOM     10  C   UNL     1      27.469  -5.628  -7.141  1.00  0.00     0.000 C 
BRANCH  10  11
ATOM     11  C   UNL     1      27.775  -5.024  -8.515  1.00  0.00     0.000 C 
BRANCH  11  12
ATOM     12  C   UNL     1      28.946  -4.033  -8.427  1.00  0.00     0.006 C 
BRANCH  12  13
ATOM     13  C   UNL     1      28.502  -2.581  -8.646  1.00  0.00     0.053 C 
BRANCH  13  14
ATOM     14  C   UNL     1      28.537  -1.788  -7.373  1.00  0.00     0.041 C 
ATOM     15  O   UNL     1      28.460  -0.530  -7.406  1.00  0.00    -0.550 OA
ATOM     16  O   UNL     1      28.679  -2.439  -6.152  1.00  0.00    -0.550 OA
ENDBRANCH  13  14
ENDBRANCH  12  13
ENDBRANCH  11  12
ENDBRANCH  10  11
ENDBRANCH   9  10
ENDBRANCH   8   9
ENDBRANCH   7   8
ENDBRANCH   6   7
ENDBRANCH   5   6
ENDBRANCH   4   5
ENDBRANCH   3   4
ENDBRANCH   2   3
ENDBRANCH   1   2
BRANCH   1  17
ATOM     17  C   UNL     1      25.570  -0.532  -9.411  1.00  0.00     0.000 C 
BRANCH  17  18
ATOM     18  C   UNL     1      25.526  -0.327 -10.935  1.00  0.00     0.000 C 
BRANCH  18  19
ATOM     19  C   UNL     1      24.251  -0.901 -11.581  1.00  0.00     0.000 C 
BRANCH  19  20
ATOM     20  C   UNL     1      24.013  -0.497 -13.050  1.00  0.00     0.000 C 
BRANCH  20  21
ATOM     21  C   UNL     1      24.738   0.781 -13.508  1.00  0.00     0.000 C 
BRANCH  21  22
ATOM     22  C   UNL     1      25.047   0.784 -15.015  1.00  0.00    -0.000 C 
BRANCH  22  23
ATOM     23  C   UNL     1      26.541   0.992 -15.322  1.00  0.00    -0.000 C 
BRANCH  23  24
ATOM     24  C   UNL     1      27.334  -0.289 -15.642  1.00  0.00    -0.000 C 
BRANCH  24  25
ATOM     25  C   UNL     1      26.455  -1.552 -15.660  1.00  0.00    -0.000 C 
BRANCH  25  26
ATOM     26  C   UNL     1      26.929  -2.614 -14.655  1.00  0.00    -0.000 C 
BRANCH  26  27
ATOM     27  C   UNL     1      27.697  -2.005 -13.471  1.00  0.00    -0.000 C 
BRANCH  27  28
ATOM     28  C   UNL     1      27.575  -2.894 -12.225  1.00  0.00    -0.000 C 
BRANCH  28  29
ATOM     29  C   UNL     1      26.862  -4.223 -12.513  1.00  0.00    -0.003 C 
ATOM     30  C   UNL     1      27.721  -5.443 -12.181  1.00  0.00     0.004 C 
ENDBRANCH  28  29
ENDBRANCH  27  28
ENDBRANCH  26  27
ENDBRANCH  25  26
ENDBRANCH  24  25
ENDBRANCH  23  24
ENDBRANCH  22  23
ENDBRANCH  21  22
ENDBRANCH  20  21
ENDBRANCH  19  20
ENDBRANCH  18  19
ENDBRANCH  17  18
ENDBRANCH   1  17
TORSDOF 26
ENDMDL
MODEL 2
REMARK VINA RESULT:    -3.646      2.467      5.540
REMARK INTER + INTRA:         -14.580
REMARK INTER:                  -8.829
REMARK INTRA:                  -5.751
REMARK UNBOUND:                -5.394
REMARK SMILES CCCCCCCCCCCCCCCCCCCCCCCCCCCC(=O)[O-]
REMARK SMILES IDX 15 1 16 2 17 3 18 4 19 5 20 6 21 7 22 8 23 9 24 10 25 11
REMARK SMILES IDX 26 12 27 13 28 14 29 15 30 16 14 17 13 18 12 19 11 20 10 21
REMARK SMILES IDX 9 22 8 23 7 24 6 25 5 26 4 27 3 28 2 29 1 30
REMARK H PARENT
REMARK Flexibility Score: inf
ROOT
ATOM      1  C   UNL     1      26.708  -0.160  -8.252  1.00  0.00     0.000 C 
ENDROOT
BRANCH   1   2
ATOM      2  C   UNL     1      25.627  -0.461  -9.306  1.00  0.00     0.000 C 
BRANCH   2   3
ATOM      3  C   UNL     1      24.575  -1.468  -8.810  1.00  0.00     0.000 C 
BRANCH   3   4
ATOM      4  C   UNL     1      23.997  -2.348  -9.936  1.00  0.00     0.000 C 
BRANCH   4   5
ATOM      5  C   UNL     1      24.002  -3.865  -9.660  1.00  0.00     0.000 C 
BRANCH   5   6
ATOM      6  C   UNL     1      24.600  -4.229  -8.295  1.00  0.00     0.000 C 
BRANCH   6   7
ATOM      7  C   UNL     1      25.247  -5.620  -8.331  1.00  0.00     0.000 C 
BRANCH   7   8
ATOM      8  C   UNL     1      24.649  -6.535  -9.417  1.00  0.00     0.000 C 
BRANCH   8   9
ATOM      9  C   UNL     1      25.590  -7.641  -9.934  1.00  0.00     0.000 C 
BRANCH   9  10
ATOM     10  C   UNL     1      26.538  -7.160 -11.042  1.00  0.00     0.000 C 
BRANCH  10  11
ATOM     11  C   UNL     1      25.836  -6.165 -11.973  1.00  0.00     0.000 C 
BRANCH  11  12
ATOM     12  C   UNL     1      26.433  -6.228 -13.388  1.00  0.00     0.006 C 
BRANCH  12  13
ATOM     13  C   UNL     1      27.957  -6.403 -13.374  1.00  0.00     0.053 C 
BRANCH  13  14
ATOM     14  C   UNL     1      28.661  -5.214 -13.955  1.00  0.00     0.041 C 
ATOM     15  O   UNL     1      29.748  -4.812 -13.456  1.00  0.00    -0.550 OA
ATOM     16  O   UNL     1      28.107  -4.535 -15.034  1.00  0.00    -0.550 OA
ENDBRANCH  13  14
ENDBRANCH  12  13
ENDBRANCH  11  12
ENDBRANCH  10  11
ENDBRANCH   9  10
ENDBRANCH   8   9
ENDBRANCH   7   8
ENDBRANCH   6   7
ENDBRANCH   5   6
ENDBRANCH   4   5
ENDBRANCH   3   4
ENDBRANCH   2   3
ENDBRANCH   1   2
BRANCH   1  17
ATOM     17  C   UNL     1      27.312  -1.400  -7.565  1.00  0.00     0.000 C 
BRANCH  17  18
ATOM     18  C   UNL     1      28.582  -1.073  -6.761  1.00  0.00     0.000 C 
BRANCH  18  19
ATOM     19  C   UNL     1      29.521  -2.283  -6.603  1.00  0.00     0.000 C 
BRANCH  19  20
ATOM     20  C   UNL     1      28.848  -3.665  -6.736  1.00  0.00     0.000 C 
BRANCH  20  21
ATOM     21  C   UNL     1      29.590  -4.676  -7.628  1.00  0.00     0.000 C 
BRANCH  21  22
ATOM     22  C   UNL     1      28.768  -5.103  -8.856  1.00  0.00    -0.000 C 
BRANCH  22  23
ATOM     23  C   UNL     1      28.870  -4.106 -10.025  1.00  0.00    -0.000 C 
BRANCH  23  24
ATOM     24  C   UNL     1      27.544  -3.446 -10.447  1.00  0.00    -0.000 C 
BRANCH  24  25
ATOM     25  C   UNL     1      27.697  -2.510 -11.658  1.00  0.00    -0.000 C 
BRANCH  25  26
ATOM     26  C   UNL     1      26.477  -2.553 -12.593  1.00  0.00    -0.000 C 
BRANCH  26  27
ATOM     27  C   UNL     1      26.168  -1.186 -13.223  1.00  0.00    -0.000 C 
BRANCH  27  28
ATOM     28  C   UNL     1      24.658  -0.904 -13.203  1.00  0.00    -0.000 C 
BRANCH  28  29
ATOM     29  C   UNL     1      24.330   0.528 -12.759  1.00  0.00    -0.003 C 
ATOM     30  C   UNL     1      24.912   1.588 -13.695  1.00  0.00     0.004 C 
ENDBRANCH  28  29
ENDBRANCH  27  28
ENDBRANCH  26  27
ENDBRANCH  25  26
ENDBRANCH  24  25
ENDBRANCH  23  24
ENDBRANCH  22  23
ENDBRANCH  21  22
ENDBRANCH  20  21
ENDBRANCH  19  20
ENDBRANCH  18  19
ENDBRANCH  17  18
ENDBRANCH   1  17
TORSDOF 26
ENDMDL
MODEL 3
REMARK VINA RESULT:    -3.627      2.544      5.007
REMARK INTER + INTRA:         -14.534
REMARK INTER:                  -9.730
REMARK INTRA:                  -4.805
REMARK UNBOUND:                -5.394
REMARK SMILES CCCCCCCCCCCCCCCCCCCCCCCCCCCC(=O)[O-]
REMARK SMILES IDX 15 1 16 2 17 3 18 4 19 5 20 6 21 7 22 8 23 9 24 10 25 11
REMARK SMILES IDX 26 12 27 13 28 14 29 15 30 16 14 17 13 18 12 19 11 20 10 21
REMARK SMILES IDX 9 22 8 23 7 24 6 25 5 26 4 27 3 28 2 29 1 30
REMARK H PARENT
REMARK Flexibility Score: inf
ROOT
ATOM      1  C   UNL     1      24.465  -1.746  -8.701  1.00  0.00     0.000 C 
ENDROOT
BRANCH   1   2
ATOM      2  C   UNL     1      25.628  -0.762  -8.918  1.00  0.00     0.000 C 
BRANCH   2   3
ATOM      3  C   UNL     1      26.982  -1.328  -8.453  1.00  0.00     0.000 C 
BRANCH   3   4
ATOM      4  C   UNL     1      27.717  -0.406  -7.460  1.00  0.00     0.000 C 
BRANCH   4   5
ATOM      5  C   UNL     1      28.961  -1.017  -6.785  1.00  0.00     0.000 C 
BRANCH   5   6
ATOM      6  C   UNL     1      28.750  -2.466  -6.327  1.00  0.00     0.000 C 
BRANCH   6   7
ATOM      7  C   UNL     1      29.703  -3.419  -7.061  1.00  0.00     0.000 C 
BRANCH   7   8
ATOM      8  C   UNL     1      29.059  -4.778  -7.394  1.00  0.00     0.000 C 
BRANCH   8   9
ATOM      9  C   UNL     1      27.720  -5.061  -6.683  1.00  0.00     0.000 C 
BRANCH   9  10
ATOM     10  C   UNL     1      26.937  -6.224  -7.311  1.00  0.00     0.000 C 
BRANCH  10  11
ATOM     11  C   UNL     1      27.432  -6.518  -8.732  1.00  0.00     0.000 C 
BRANCH  11  12
ATOM     12  C   UNL     1      26.735  -7.761  -9.306  1.00  0.00     0.006 C 
BRANCH  12  13
ATOM     13  C   UNL     1      25.251  -7.831  -8.920  1.00  0.00     0.053 C 
BRANCH  13  14
ATOM     14  C   UNL     1      24.361  -7.857 -10.127  1.00  0.00     0.041 C 
ATOM     15  O   UNL     1      23.108  -7.825  -9.993  1.00  0.00    -0.550 OA
ATOM     16  O   UNL     1      24.916  -7.938 -11.399  1.00  0.00    -0.550 OA
ENDBRANCH  13  14
ENDBRANCH  12  13
ENDBRANCH  11  12
ENDBRANCH  10  11
ENDBRANCH   9  10
ENDBRANCH   8   9
ENDBRANCH   7   8
ENDBRANCH   6   7
ENDBRANCH   5   6
ENDBRANCH   4   5
ENDBRANCH   3   4
ENDBRANCH   2   3
ENDBRANCH   1   2
BRANCH   1  17
ATOM     17  C   UNL     1      24.848  -3.066  -8.005  1.00  0.00     0.000 C 
BRANCH  17  18
ATOM     18  C   UNL     1      24.173  -4.292  -8.645  1.00  0.00     0.000 C 
BRANCH  18  19
ATOM     19  C   UNL     1      24.097  -4.202 -10.180  1.00  0.00     0.000 C 
BRANCH  19  20
ATOM     20  C   UNL     1      25.431  -4.418 -10.924  1.00  0.00     0.000 C 
BRANCH  20  21
ATOM     21  C   UNL     1      25.855  -3.274 -11.862  1.00  0.00     0.000 C 
BRANCH  21  22
ATOM     22  C   UNL     1      27.305  -2.817 -11.625  1.00  0.00    -0.000 C 
BRANCH  22  23
ATOM     23  C   UNL     1      27.920  -2.115 -12.850  1.00  0.00    -0.000 C 
BRANCH  23  24
ATOM     24  C   UNL     1      27.090  -2.199 -14.145  1.00  0.00    -0.000 C 
BRANCH  24  25
ATOM     25  C   UNL     1      27.565  -1.218 -15.230  1.00  0.00    -0.000 C 
BRANCH  25  26
ATOM     26  C   UNL     1      26.433  -0.315 -15.745  1.00  0.00    -0.000 C 
BRANCH  26  27
ATOM     27  C   UNL     1      25.173  -0.390 -14.869  1.00  0.00    -0.000 C 
BRANCH  27  28
ATOM     28  C   UNL     1      24.943   0.936 -14.127  1.00  0.00    -0.000 C 
BRANCH  28  29
ATOM     29  C   UNL     1      24.801   0.747 -12.610  1.00  0.00    -0.003 C 
ATOM     30  C   UNL     1      23.905  -0.435 -12.239  1.00  0.00     0.004 C 
ENDBRANCH  28  29
ENDBRANCH  27  28
ENDBRANCH  26  27
ENDBRANCH  25  26
ENDBRANCH  24  25
ENDBRANCH  23  24
ENDBRANCH  22  23
ENDBRANCH  21  22
ENDBRANCH  20  21
ENDBRANCH  19  20
ENDBRANCH  18  19
ENDBRANCH  17  18
ENDBRANCH   1  17
TORSDOF 26
ENDMDL
MODEL 4
REMARK VINA RESULT:    -3.545      2.385      4.225
REMARK INTER + INTRA:         -14.326
REMARK INTER:                  -9.831
REMARK INTRA:                  -4.496
REMARK UNBOUND:                -5.394
REMARK SMILES CCCCCCCCCCCCCCCCCCCCCCCCCCCC(=O)[O-]
REMARK SMILES IDX 15 1 16 2 17 3 18 4 19 5 20 6 21 7 22 8 23 9 24 10 25 11
REMARK SMILES IDX 26 12 27 13 28 14 29 15 30 16 14 17 13 18 12 19 11 20 10 21
REMARK SMILES IDX 9 22 8 23 7 24 6 25 5 26 4 27 3 28 2 29 1 30
REMARK H PARENT
REMARK Flexibility Score: inf
ROOT
ATOM      1  C   UNL     1      24.656  -1.304  -8.994  1.00  0.00     0.000 C 
ENDROOT
BRANCH   1   2
ATOM      2  C   UNL     1      26.093  -1.546  -8.498  1.00  0.00     0.000 C 
BRANCH   2   3
ATOM      3  C   UNL     1      26.741  -0.282  -7.908  1.00  0.00     0.000 C 
BRANCH   3   4
ATOM      4  C   UNL     1      28.215  -0.485  -7.504  1.00  0.00     0.000 C 
BRANCH   4   5
ATOM      5  C   UNL     1      28.473  -1.616  -6.488  1.00  0.00     0.000 C 
BRANCH   5   6
ATOM      6  C   UNL     1      29.810  -2.335  -6.712  1.00  0.00     0.000 C 
BRANCH   6   7
ATOM      7  C   UNL     1      29.598  -3.691  -7.397  1.00  0.00     0.000 C 
BRANCH   7   8
ATOM      8  C   UNL     1      28.964  -4.743  -6.467  1.00  0.00     0.000 C 
BRANCH   8   9
ATOM      9  C   UNL     1      27.900  -5.644  -7.124  1.00  0.00     0.000 C 
BRANCH   9  10
ATOM     10  C   UNL     1      26.537  -4.953  -7.282  1.00  0.00     0.000 C 
BRANCH  10  11
ATOM     11  C   UNL     1      25.574  -5.815  -8.107  1.00  0.00     0.000 C 
BRANCH  11  12
ATOM     12  C   UNL     1      24.467  -4.951  -8.731  1.00  0.00     0.006 C 
BRANCH  12  13
ATOM     13  C   UNL     1      23.422  -5.790  -9.478  1.00  0.00     0.053 C 
BRANCH  13  14
ATOM     14  C   UNL     1      24.049  -6.934 -10.218  1.00  0.00     0.041 C 
ATOM     15  O   UNL     1      23.766  -8.122  -9.908  1.00  0.00    -0.550 OA
ATOM     16  O   UNL     1      24.963  -6.686 -11.235  1.00  0.00    -0.550 OA
ENDBRANCH  13  14
ENDBRANCH  12  13
ENDBRANCH  11  12
ENDBRANCH  10  11
ENDBRANCH   9  10
ENDBRANCH   8   9
ENDBRANCH   7   8
ENDBRANCH   6   7
ENDBRANCH   5   6
ENDBRANCH   4   5
ENDBRANCH   3   4
ENDBRANCH   2   3
ENDBRANCH   1   2
BRANCH   1  17
ATOM     17  C   UNL     1      24.462  -1.437 -10.517  1.00  0.00     0.000 C 
BRANCH  17  18
ATOM     18  C   UNL     1      25.061  -0.252 -11.296  1.00  0.00     0.000 C 
BRANCH  18  19
ATOM     19  C   UNL     1      24.289   0.066 -12.590  1.00  0.00     0.000 C 
BRANCH  19  20
ATOM     20  C   UNL     1      24.865   1.218 -13.439  1.00  0.00     0.000 C 
BRANCH  20  21
ATOM     21  C   UNL     1      25.201   0.858 -14.897  1.00  0.00     0.000 C 
BRANCH  21  22
ATOM     22  C   UNL     1      24.918  -0.618 -15.227  1.00  0.00    -0.000 C 
BRANCH  22  23
ATOM     23  C   UNL     1      26.053  -1.284 -16.026  1.00  0.00    -0.000 C 
BRANCH  23  24
ATOM     24  C   UNL     1      26.798  -2.416 -15.295  1.00  0.00    -0.000 C 
BRANCH  24  25
ATOM     25  C   UNL     1      27.378  -1.978 -13.939  1.00  0.00    -0.000 C 
BRANCH  25  26
ATOM     26  C   UNL     1      26.992  -2.932 -12.797  1.00  0.00    -0.000 C 
BRANCH  26  27
ATOM     27  C   UNL     1      27.876  -2.752 -11.553  1.00  0.00    -0.000 C 
BRANCH  27  28
ATOM     28  C   UNL     1      27.649  -3.894 -10.551  1.00  0.00    -0.000 C 
BRANCH  28  29
ATOM     29  C   UNL     1      28.195  -5.238 -11.053  1.00  0.00    -0.003 C 
ATOM     30  C   UNL     1      29.630  -5.505 -10.598  1.00  0.00     0.004 C 
ENDBRANCH  28  29
ENDBRANCH  27  28
ENDBRANCH  26  27
ENDBRANCH  25  26
ENDBRANCH  24  25
ENDBRANCH  23  24
ENDBRANCH  22  23
ENDBRANCH  21  22
ENDBRANCH  20  21
ENDBRANCH  19  20
ENDBRANCH  18  19
ENDBRANCH  17  18
ENDBRANCH   1  17
TORSDOF 26
ENDMDL
MODEL 5
REMARK VINA RESULT:    -3.492      2.218      5.332
REMARK INTER + INTRA:         -14.193
REMARK INTER:                  -9.390
REMARK INTRA:                  -4.803
REMARK UNBOUND:                -5.394
REMARK SMILES CCCCCCCCCCCCCCCCCCCCCCCCCCCC(=O)[O-]
REMARK SMILES IDX 15 1 16 2 17 3 18 4 19 5 20 6 21 7 22 8 23 9 24 10 25 11
REMARK SMILES IDX 26 12 27 13 28 14 29 15 30 16 14 17 13 18 12 19 11 20 10 21
REMARK SMILES IDX 9 22 8 23 7 24 6 25 5 26 4 27 3 28 2 29 1 30
REMARK H PARENT
REMARK Flexibility Score: inf
ROOT
ATOM      1  C   UNL     1      26.996  -1.596 -14.853  1.00  0.00     0.000 C 
ENDROOT
BRANCH   1   2
ATOM      2  C   UNL     1      27.044  -2.997 -14.218  1.00  0.00     0.000 C 
BRANCH   2   3
ATOM      3  C   UNL     1      28.268  -3.198 -13.308  1.00  0.00     0.000 C 
BRANCH   3   4
ATOM      4  C   UNL     1      28.175  -2.418 -11.981  1.00  0.00     0.000 C 
BRANCH   4   5
ATOM      5  C   UNL     1      28.179  -3.281 -10.704  1.00  0.00     0.000 C 
BRANCH   5   6
ATOM      6  C   UNL     1      28.986  -4.577 -10.853  1.00  0.00     0.000 C 
BRANCH   6   7
ATOM      7  C   UNL     1      29.097  -5.314  -9.511  1.00  0.00     0.000 C 
BRANCH   7   8
ATOM      8  C   UNL     1      28.504  -4.515  -8.334  1.00  0.00     0.000 C 
BRANCH   8   9
ATOM      9  C   UNL     1      27.719  -5.351  -7.304  1.00  0.00     0.000 C 
BRANCH   9  10
ATOM     10  C   UNL     1      26.314  -4.798  -7.022  1.00  0.00     0.000 C 
BRANCH  10  11
ATOM     11  C   UNL     1      25.543  -4.561  -8.326  1.00  0.00     0.000 C 
BRANCH  11  12
ATOM     12  C   UNL     1      24.440  -5.616  -8.507  1.00  0.00     0.006 C 
BRANCH  12  13
ATOM     13  C   UNL     1      24.123  -5.884  -9.984  1.00  0.00     0.053 C 
BRANCH  13  14
ATOM     14  C   UNL     1      25.369  -6.049 -10.801  1.00  0.00     0.041 C 
ATOM     15  O   UNL     1      26.183  -6.977 -10.539  1.00  0.00    -0.550 OA
ATOM     16  O   UNL     1      25.644  -5.165 -11.839  1.00  0.00    -0.550 OA
ENDBRANCH  13  14
ENDBRANCH  12  13
ENDBRANCH  11  12
ENDBRANCH  10  11
ENDBRANCH   9  10
ENDBRANCH   8   9
ENDBRANCH   7   8
ENDBRANCH   6   7
ENDBRANCH   5   6
ENDBRANCH   4   5
ENDBRANCH   3   4
ENDBRANCH   2   3
ENDBRANCH   1   2
BRANCH   1  17
ATOM     17  C   UNL     1      26.082  -1.469 -16.086  1.00  0.00     0.000 C 
BRANCH  17  18
ATOM     18  C   UNL     1      25.085  -0.303 -15.968  1.00  0.00     0.000 C 
BRANCH  18  19
ATOM     19  C   UNL     1      25.653   0.895 -15.186  1.00  0.00     0.000 C 
BRANCH  19  20
ATOM     20  C   UNL     1      24.807   1.364 -13.984  1.00  0.00     0.000 C 
BRANCH  20  21
ATOM     21  C   UNL     1      25.047   0.597 -12.671  1.00  0.00     0.000 C 
BRANCH  21  22
ATOM     22  C   UNL     1      24.097  -0.601 -12.499  1.00  0.00    -0.000 C 
BRANCH  22  23
ATOM     23  C   UNL     1      24.666  -1.690 -11.570  1.00  0.00    -0.000 C 
BRANCH  23  24
ATOM     24  C   UNL     1      23.780  -2.057 -10.365  1.00  0.00    -0.000 C 
BRANCH  24  25
ATOM     25  C   UNL     1      24.096  -1.227  -9.110  1.00  0.00    -0.000 C 
BRANCH  25  26
ATOM     26  C   UNL     1      25.480  -0.560  -9.177  1.00  0.00    -0.000 C 
BRANCH  26  27
ATOM     27  C   UNL     1      26.534  -1.302  -8.341  1.00  0.00    -0.000 C 
BRANCH  27  28
ATOM     28  C   UNL     1      27.436  -0.309  -7.593  1.00  0.00    -0.000 C 
BRANCH  28  29
ATOM     29  C   UNL     1      28.841  -0.869  -7.330  1.00  0.00    -0.003 C 
ATOM     30  C   UNL     1      28.955  -1.581  -5.982  1.00  0.00     0.004 C 
ENDBRANCH  28  29
ENDBRANCH  27  28
ENDBRANCH  26  27
ENDBRANCH  25  26
ENDBRANCH  24  25
ENDBRANCH  23  24
ENDBRANCH  22  23
ENDBRANCH  21  22
ENDBRANCH  20  21
ENDBRANCH  19  20
ENDBRANCH  18  19
ENDBRANCH  17  18
ENDBRANCH   1  17
TORSDOF 26
ENDMDL
MODEL 6
REMARK VINA RESULT:    -3.485      2.677      7.101
REMARK INTER + INTRA:         -14.175
REMARK INTER:                  -9.464
REMARK INTRA:                  -4.711
REMARK UNBOUND:                -5.394
REMARK SMILES CCCCCCCCCCCCCCCCCCCCCCCCCCCC(=O)[O-]
REMARK SMILES IDX 15 1 16 2 17 3 18 4 19 5 20 6 21 7 22 8 23 9 24 10 25 11
REMARK SMILES IDX 26 12 27 13 28 14 29 15 30 16 14 17 13 18 12 19 11 20 10 21
REMARK SMILES IDX 9 22 8 23 7 24 6 25 5 26 4 27 3 28 2 29 1 30
REMARK H PARENT
REMARK Flexibility Score: inf
ROOT
ATOM      1  C   UNL     1      30.018  -3.308  -7.004  1.00  0.00     0.000 C 
ENDROOT
BRANCH   1   2
ATOM      2  C   UNL     1      29.847  -1.804  -7.283  1.00  0.00     0.000 C 
BRANCH   2   3
ATOM      3  C   UNL     1      28.650  -1.191  -6.535  1.00  0.00     0.000 C 
BRANCH   3   4
ATOM      4  C   UNL     1      27.586  -0.594  -7.478  1.00  0.00     0.000 C 
BRANCH   4   5
ATOM      5  C   UNL     1      27.076  -1.537  -8.584  1.00  0.00     0.000 C 
BRANCH   5   6
ATOM      6  C   UNL     1      25.545  -1.609  -8.660  1.00  0.00     0.000 C 
BRANCH   6   7
ATOM      7  C   UNL     1      24.999  -0.632  -9.710  1.00  0.00     0.000 C 
BRANCH   7   8
ATOM      8  C   UNL     1      24.017  -1.293 -10.695  1.00  0.00     0.000 C 
BRANCH   8   9
ATOM      9  C   UNL     1      24.040  -0.722 -12.127  1.00  0.00     0.000 C 
BRANCH   9  10
ATOM     10  C   UNL     1      25.222   0.227 -12.379  1.00  0.00     0.000 C 
BRANCH  10  11
ATOM     11  C   UNL     1      24.839   1.332 -13.370  1.00  0.00     0.000 C 
BRANCH  11  12
ATOM     12  C   UNL     1      24.934   0.823 -14.817  1.00  0.00     0.006 C 
BRANCH  12  13
ATOM     13  C   UNL     1      26.385   0.698 -15.300  1.00  0.00     0.053 C 
BRANCH  13  14
ATOM     14  C   UNL     1      26.692  -0.683 -15.796  1.00  0.00     0.041 C 
ATOM     15  O   UNL     1      25.771  -1.538 -15.904  1.00  0.00    -0.550 OA
ATOM     16  O   UNL     1      27.998  -1.033 -16.118  1.00  0.00    -0.550 OA
ENDBRANCH  13  14
ENDBRANCH  12  13
ENDBRANCH  11  12
ENDBRANCH  10  11
ENDBRANCH   9  10
ENDBRANCH   8   9
ENDBRANCH   7   8
ENDBRANCH   6   7
ENDBRANCH   5   6
ENDBRANCH   4   5
ENDBRANCH   3   4
ENDBRANCH   2   3
ENDBRANCH   1   2
BRANCH   1  17
ATOM     17  C   UNL     1      29.863  -4.221  -8.235  1.00  0.00     0.000 C 
BRANCH  17  18
ATOM     18  C   UNL     1      28.771  -5.290  -8.047  1.00  0.00     0.000 C 
BRANCH  18  19
ATOM     19  C   UNL     1      27.973  -5.110  -6.742  1.00  0.00     0.000 C 
BRANCH  19  20
ATOM     20  C   UNL     1      26.493  -4.717  -6.920  1.00  0.00     0.000 C 
BRANCH  20  21
ATOM     21  C   UNL     1      25.666  -5.652  -7.819  1.00  0.00     0.000 C 
BRANCH  21  22
ATOM     22  C   UNL     1      24.546  -4.916  -8.576  1.00  0.00    -0.000 C 
BRANCH  22  23
ATOM     23  C   UNL     1      23.738  -5.842  -9.503  1.00  0.00    -0.000 C 
BRANCH  23  24
ATOM     24  C   UNL     1      24.493  -7.082 -10.017  1.00  0.00    -0.000 C 
BRANCH  24  25
ATOM     25  C   UNL     1      25.352  -6.791 -11.261  1.00  0.00    -0.000 C 
BRANCH  25  26
ATOM     26  C   UNL     1      26.858  -6.903 -10.976  1.00  0.00    -0.000 C 
BRANCH  26  27
ATOM     27  C   UNL     1      27.661  -5.740 -11.578  1.00  0.00    -0.000 C 
BRANCH  27  28
ATOM     28  C   UNL     1      27.208  -4.397 -10.983  1.00  0.00    -0.000 C 
BRANCH  28  29
ATOM     29  C   UNL     1      26.537  -3.487 -12.021  1.00  0.00    -0.003 C 
ATOM     30  C   UNL     1      27.523  -2.543 -12.710  1.00  0.00     0.004 C 
ENDBRANCH  28  29
ENDBRANCH  27  28
ENDBRANCH  26  27
ENDBRANCH  25  26
ENDBRANCH  24  25
ENDBRANCH  23  24
ENDBRANCH  22  23
ENDBRANCH  21  22
ENDBRANCH  20  21
ENDBRANCH  19  20
ENDBRANCH  18  19
ENDBRANCH  17  18
ENDBRANCH   1  17
TORSDOF 26
ENDMDL
MODEL 7
REMARK VINA RESULT:    -3.451      2.676      6.932
REMARK INTER + INTRA:         -14.091
REMARK INTER:                  -8.662
REMARK INTRA:                  -5.429
REMARK UNBOUND:                -5.394
REMARK SMILES CCCCCCCCCCCCCCCCCCCCCCCCCCCC(=O)[O-]
REMARK SMILES IDX 15 1 16 2 17 3 18 4 19 5 20 6 21 7 22 8 23 9 24 10 25 11
REMARK SMILES IDX 26 12 27 13 28 14 29 15 30 16 14 17 13 18 12 19 11 20 10 21
REMARK SMILES IDX 9 22 8 23 7 24 6 25 5 26 4 27 3 28 2 29 1 30
REMARK H PARENT
REMARK Flexibility Score: inf
ROOT
ATOM      1  C   UNL     1      25.081   0.594 -12.624  1.00  0.00     0.000 C 
ENDROOT
BRANCH   1   2
ATOM      2  C   UNL     1      24.814   1.489 -13.847  1.00  0.00     0.000 C 
BRANCH   2   3
ATOM      3  C   UNL     1      25.698   1.130 -15.054  1.00  0.00     0.000 C 
BRANCH   3   4
ATOM      4  C   UNL     1      25.177  -0.083 -15.851  1.00  0.00     0.000 C 
BRANCH   4   5
ATOM      5  C   UNL     1      26.118  -1.304 -15.889  1.00  0.00     0.000 C 
BRANCH   5   6
ATOM      6  C   UNL     1      27.585  -0.945 -15.618  1.00  0.00     0.000 C 
BRANCH   6   7
ATOM      7  C   UNL     1      28.163  -1.811 -14.490  1.00  0.00     0.000 C 
BRANCH   7   8
ATOM      8  C   UNL     1      27.087  -2.342 -13.525  1.00  0.00     0.000 C 
BRANCH   8   9
ATOM      9  C   UNL     1      27.503  -2.392 -12.042  1.00  0.00     0.000 C 
BRANCH   9  10
ATOM     10  C   UNL     1      27.443  -3.806 -11.445  1.00  0.00     0.000 C 
BRANCH  10  11
ATOM     11  C   UNL     1      26.006  -4.341 -11.437  1.00  0.00     0.000 C 
BRANCH  11  12
ATOM     12  C   UNL     1      25.921  -5.687 -12.174  1.00  0.00     0.006 C 
BRANCH  12  13
ATOM     13  C   UNL     1      27.303  -6.302 -12.430  1.00  0.00     0.053 C 
BRANCH  13  14
ATOM     14  C   UNL     1      27.545  -6.542 -13.890  1.00  0.00     0.041 C 
ATOM     15  O   UNL     1      28.201  -7.550 -14.269  1.00  0.00    -0.550 OA
ATOM     16  O   UNL     1      27.064  -5.640 -14.833  1.00  0.00    -0.550 OA
ENDBRANCH  13  14
ENDBRANCH  12  13
ENDBRANCH  11  12
ENDBRANCH  10  11
ENDBRANCH   9  10
ENDBRANCH   8   9
ENDBRANCH   7   8
ENDBRANCH   6   7
ENDBRANCH   5   6
ENDBRANCH   4   5
ENDBRANCH   3   4
ENDBRANCH   2   3
ENDBRANCH   1   2
BRANCH   1  17
ATOM     17  C   UNL     1      24.005  -0.473 -12.351  1.00  0.00     0.000 C 
BRANCH  17  18
ATOM     18  C   UNL     1      24.194  -1.172 -10.993  1.00  0.00     0.000 C 
BRANCH  18  19
ATOM     19  C   UNL     1      25.248  -0.485 -10.106  1.00  0.00     0.000 C 
BRANCH  19  20
ATOM     20  C   UNL     1      25.541  -1.183  -8.763  1.00  0.00     0.000 C 
BRANCH  20  21
ATOM     21  C   UNL     1      24.847  -2.541  -8.561  1.00  0.00     0.000 C 
BRANCH  21  22
ATOM     22  C   UNL     1      25.503  -3.388  -7.456  1.00  0.00    -0.000 C 
BRANCH  22  23
ATOM     23  C   UNL     1      26.937  -3.825  -7.806  1.00  0.00    -0.000 C 
BRANCH  23  24
ATOM     24  C   UNL     1      27.287  -5.283  -7.452  1.00  0.00    -0.000 C 
BRANCH  24  25
ATOM     25  C   UNL     1      27.725  -6.110  -8.673  1.00  0.00    -0.000 C 
BRANCH  25  26
ATOM     26  C   UNL     1      26.879  -7.380  -8.859  1.00  0.00    -0.000 C 
BRANCH  26  27
ATOM     27  C   UNL     1      25.384  -7.136  -8.602  1.00  0.00    -0.000 C 
BRANCH  27  28
ATOM     28  C   UNL     1      24.526  -7.824  -9.674  1.00  0.00    -0.000 C 
BRANCH  28  29
ATOM     29  C   UNL     1      23.211  -7.079  -9.947  1.00  0.00    -0.003 C 
ATOM     30  C   UNL     1      23.142  -5.721  -9.248  1.00  0.00     0.004 C 
ENDBRANCH  28  29
ENDBRANCH  27  28
ENDBRANCH  26  27
ENDBRANCH  25  26
ENDBRANCH  24  25
ENDBRANCH  23  24
ENDBRANCH  22  23
ENDBRANCH  21  22
ENDBRANCH  20  21
ENDBRANCH  19  20
ENDBRANCH  18  19
ENDBRANCH  17  18
ENDBRANCH   1  17
TORSDOF 26
ENDMDL
MODEL 8
REMARK VINA RESULT:    -3.444      1.412      2.341
REMARK INTER + INTRA:         -14.072
REMARK INTER:                  -8.639
REMARK INTRA:                  -5.433
REMARK UNBOUND:                -5.394
REMARK SMILES CCCCCCCCCCCCCCCCCCCCCCCCCCCC(=O)[O-]
REMARK SMILES IDX 15 1 16 2 17 3 18 4 19 5 20 6 21 7 22 8 23 9 24 10 25 11
REMARK SMILES IDX 26 12 27 13 28 14 29 15 30 16 14 17 13 18 12 19 11 20 10 21
REMARK SMILES IDX 9 22 8 23 7 24 6 25 5 26 4 27 3 28 2 29 1 30
REMARK H PARENT
REMARK Flexibility Score: inf
ROOT
ATOM      1  C   UNL     1      24.877  -2.700  -7.809  1.00  0.00     0.000 C 
ENDROOT
BRANCH   1   2
ATOM      2  C   UNL     1      24.849  -4.133  -8.371  1.00  0.00     0.000 C 
BRANCH   2   3
ATOM      3  C   UNL     1      23.685  -4.367  -9.350  1.00  0.00     0.000 C 
BRANCH   3   4
ATOM      4  C   UNL     1      23.373  -5.860  -9.579  1.00  0.00     0.000 C 
BRANCH   4   5
ATOM      5  C   UNL     1      24.547  -6.828  -9.333  1.00  0.00     0.000 C 
BRANCH   5   6
ATOM      6  C   UNL     1      24.837  -7.743 -10.529  1.00  0.00     0.000 C 
BRANCH   6   7
ATOM      7  C   UNL     1      25.400  -6.941 -11.711  1.00  0.00     0.000 C 
BRANCH   7   8
ATOM      8  C   UNL     1      26.632  -6.096 -11.334  1.00  0.00     0.000 C 
BRANCH   8   9
ATOM      9  C   UNL     1      26.528  -4.597 -11.675  1.00  0.00     0.000 C 
BRANCH   9  10
ATOM     10  C   UNL     1      27.577  -3.738 -10.951  1.00  0.00     0.000 C 
BRANCH  10  11
ATOM     11  C   UNL     1      28.875  -4.523 -10.733  1.00  0.00     0.000 C 
BRANCH  11  12
ATOM     12  C   UNL     1      29.382  -4.350  -9.293  1.00  0.00     0.006 C 
BRANCH  12  13
ATOM     13  C   UNL     1      28.401  -4.914  -8.256  1.00  0.00     0.053 C 
BRANCH  13  14
ATOM     14  C   UNL     1      28.773  -4.511  -6.860  1.00  0.00     0.041 C 
ATOM     15  O   UNL     1      28.484  -3.361  -6.433  1.00  0.00    -0.550 OA
ATOM     16  O   UNL     1      29.457  -5.400  -6.038  1.00  0.00    -0.550 OA
ENDBRANCH  13  14
ENDBRANCH  12  13
ENDBRANCH  11  12
ENDBRANCH  10  11
ENDBRANCH   9  10
ENDBRANCH   8   9
ENDBRANCH   7   8
ENDBRANCH   6   7
ENDBRANCH   5   6
ENDBRANCH   4   5
ENDBRANCH   3   4
ENDBRANCH   2   3
ENDBRANCH   1   2
BRANCH   1  17
ATOM     17  C   UNL     1      25.964  -1.788  -8.407  1.00  0.00     0.000 C 
BRANCH  17  18
ATOM     18  C   UNL     1      25.376  -0.590  -9.175  1.00  0.00     0.000 C 
BRANCH  18  19
ATOM     19  C   UNL     1      25.616  -0.674 -10.693  1.00  0.00     0.000 C 
BRANCH  19  20
ATOM     20  C   UNL     1      24.479  -1.324 -11.508  1.00  0.00     0.000 C 
BRANCH  20  21
ATOM     21  C   UNL     1      23.810  -0.410 -12.550  1.00  0.00     0.000 C 
BRANCH  21  22
ATOM     22  C   UNL     1      24.720   0.746 -13.001  1.00  0.00    -0.000 C 
BRANCH  22  23
ATOM     23  C   UNL     1      25.144   0.635 -14.478  1.00  0.00    -0.000 C 
BRANCH  23  24
ATOM     24  C   UNL     1      24.816  -0.707 -15.159  1.00  0.00    -0.000 C 
BRANCH  24  25
ATOM     25  C   UNL     1      26.071  -1.502 -15.558  1.00  0.00    -0.000 C 
BRANCH  25  26
ATOM     26  C   UNL     1      26.727  -2.206 -14.359  1.00  0.00    -0.000 C 
BRANCH  26  27
ATOM     27  C   UNL     1      28.178  -1.754 -14.131  1.00  0.00    -0.000 C 
BRANCH  27  28
ATOM     28  C   UNL     1      29.139  -2.951 -14.188  1.00  0.00    -0.000 C 
BRANCH  28  29
ATOM     29  C   UNL     1      28.521  -4.173 -14.883  1.00  0.00    -0.003 C 
ATOM     30  C   UNL     1      29.016  -5.499 -14.305  1.00  0.00     0.004 C 
ENDBRANCH  28  29
ENDBRANCH  27  28
ENDBRANCH  26  27
ENDBRANCH  25  26
ENDBRANCH  24  25
ENDBRANCH  23  24
ENDBRANCH  22  23
ENDBRANCH  21  22
ENDBRANCH  20  21
ENDBRANCH  19  20
ENDBRANCH  18  19
ENDBRANCH  17  18
ENDBRANCH   1  17
TORSDOF 26
ENDMDL
MODEL 9
REMARK VINA RESULT:    -3.437      2.265      7.065
REMARK INTER + INTRA:         -14.055
REMARK INTER:                  -8.653
REMARK INTRA:                  -5.402
REMARK UNBOUND:                -5.394
REMARK SMILES CCCCCCCCCCCCCCCCCCCCCCCCCCCC(=O)[O-]
REMARK SMILES IDX 15 1 16 2 17 3 18 4 19 5 20 6 21 7 22 8 23 9 24 10 25 11
REMARK SMILES IDX 26 12 27 13 28 14 29 15 30 16 14 17 13 18 12 19 11 20 10 21
REMARK SMILES IDX 9 22 8 23 7 24 6 25 5 26 4 27 3 28 2 29 1 30
REMARK H PARENT
REMARK Flexibility Score: inf
ROOT
ATOM      1  C   UNL     1      24.559  -1.462  -8.954  1.00  0.00     0.000 C 
ENDROOT
BRANCH   1   2
ATOM      2  C   UNL     1      25.701  -0.636  -9.573  1.00  0.00     0.000 C 
BRANCH   2   3
ATOM      3  C   UNL     1      25.990  -1.020 -11.035  1.00  0.00     0.000 C 
BRANCH   3   4
ATOM      4  C   UNL     1      24.713  -1.211 -11.878  1.00  0.00     0.000 C 
BRANCH   4   5
ATOM      5  C   UNL     1      24.103   0.080 -12.459  1.00  0.00     0.000 C 
BRANCH   5   6
ATOM      6  C   UNL     1      24.684   0.461 -13.827  1.00  0.00     0.000 C 
BRANCH   6   7
ATOM      7  C   UNL     1      24.512  -0.683 -14.835  1.00  0.00     0.000 C 
BRANCH   7   8
ATOM      8  C   UNL     1      25.820  -1.047 -15.563  1.00  0.00     0.000 C 
BRANCH   8   9
ATOM      9  C   UNL     1      27.096  -0.412 -14.975  1.00  0.00     0.000 C 
BRANCH   9  10
ATOM     10  C   UNL     1      28.244  -1.418 -14.797  1.00  0.00     0.000 C 
BRANCH  10  11
ATOM     11  C   UNL     1      27.710  -2.849 -14.681  1.00  0.00     0.000 C 
BRANCH  11  12
ATOM     12  C   UNL     1      27.963  -3.414 -13.274  1.00  0.00     0.006 C 
BRANCH  12  13
ATOM     13  C   UNL     1      26.760  -4.197 -12.732  1.00  0.00     0.053 C 
BRANCH  13  14
ATOM     14  C   UNL     1      26.855  -5.658 -13.053  1.00  0.00     0.041 C 
ATOM     15  O   UNL     1      26.386  -6.102 -14.136  1.00  0.00    -0.550 OA
ATOM     16  O   UNL     1      27.440  -6.534 -12.146  1.00  0.00    -0.550 OA
ENDBRANCH  13  14
ENDBRANCH  12  13
ENDBRANCH  11  12
ENDBRANCH  10  11
ENDBRANCH   9  10
ENDBRANCH   8   9
ENDBRANCH   7   8
ENDBRANCH   6   7
ENDBRANCH   5   6
ENDBRANCH   4   5
ENDBRANCH   3   4
ENDBRANCH   2   3
ENDBRANCH   1   2
BRANCH   1  17
ATOM     17  C   UNL     1      25.002  -2.508  -7.914  1.00  0.00     0.000 C 
BRANCH  17  18
ATOM     18  C   UNL     1      24.367  -3.889  -8.154  1.00  0.00     0.000 C 
BRANCH  18  19
ATOM     19  C   UNL     1      23.987  -4.127  -9.627  1.00  0.00     0.000 C 
BRANCH  19  20
ATOM     20  C   UNL     1      24.438  -5.478 -10.218  1.00  0.00     0.000 C 
BRANCH  20  21
ATOM     21  C   UNL     1      24.241  -6.697  -9.299  1.00  0.00     0.000 C 
BRANCH  21  22
ATOM     22  C   UNL     1      25.561  -7.418  -8.975  1.00  0.00    -0.000 C 
BRANCH  22  23
ATOM     23  C   UNL     1      26.146  -7.013  -7.609  1.00  0.00    -0.000 C 
BRANCH  23  24
ATOM     24  C   UNL     1      27.617  -6.556  -7.631  1.00  0.00    -0.000 C 
BRANCH  24  25
ATOM     25  C   UNL     1      27.771  -5.029  -7.738  1.00  0.00    -0.000 C 
BRANCH  25  26
ATOM     26  C   UNL     1      27.916  -4.553  -9.193  1.00  0.00    -0.000 C 
BRANCH  26  27
ATOM     27  C   UNL     1      28.437  -3.110  -9.292  1.00  0.00    -0.000 C 
BRANCH  27  28
ATOM     28  C   UNL     1      29.437  -2.811  -8.165  1.00  0.00    -0.000 C 
BRANCH  28  29
ATOM     29  C   UNL     1      29.269  -1.400  -7.585  1.00  0.00    -0.003 C 
ATOM     30  C   UNL     1      28.364  -1.367  -6.353  1.00  0.00     0.004 C 
ENDBRANCH  28  29
ENDBRANCH  27  28
ENDBRANCH  26  27
ENDBRANCH  25  26
ENDBRANCH  24  25
ENDBRANCH  23  24
ENDBRANCH  22  23
ENDBRANCH  21  22
ENDBRANCH  20  21
ENDBRANCH  19  20
ENDBRANCH  18  19
ENDBRANCH  17  18
ENDBRANCH   1  17
TORSDOF 26
ENDMDL
