MODEL 1
REMARK VINA RESULT:    -6.395      0.000      0.000
REMARK INTER + INTRA:         -18.943
REMARK INTER:                 -16.115
REMARK INTRA:                  -2.828
REMARK UNBOUND:                -2.828
REMARK SMILES CCCCCCCCCCCCCCCCCCCCCCCCCCCC(=O)[O-]
REMARK SMILES IDX 15 1 16 2 17 3 18 4 19 5 20 6 21 7 22 8 23 9 24 10 25 11
REMARK SMILES IDX 26 12 27 13 28 14 29 15 30 16 14 17 13 18 12 19 11 20 10 21
REMARK SMILES IDX 9 22 8 23 7 24 6 25 5 26 4 27 3 28 2 29 1 30
REMARK H PARENT
REMARK Flexibility Score: inf
ROOT
ATOM      1  C   UNL     1     -13.637 -10.070  -7.084  1.00  0.00     0.000 C 
ENDROOT
BRANCH   1   2
ATOM      2  C   UNL     1     -13.972 -11.460  -7.647  1.00  0.00     0.000 C 
BRANCH   2   3
ATOM      3  C   UNL     1     -15.412 -11.857  -7.300  1.00  0.00     0.000 C 
BRANCH   3   4
ATOM      4  C   UNL     1     -15.981 -10.962  -6.189  1.00  0.00     0.000 C 
BRANCH   4   5
ATOM      5  C   UNL     1     -17.492 -10.722  -6.335  1.00  0.00     0.000 C 
BRANCH   5   6
ATOM      6  C   UNL     1     -17.836  -9.765  -7.489  1.00  0.00     0.000 C 
BRANCH   6   7
ATOM      7  C   UNL     1     -17.020  -8.460  -7.447  1.00  0.00     0.000 C 
BRANCH   7   8
ATOM      8  C   UNL     1     -16.316  -8.127  -8.779  1.00  0.00     0.000 C 
BRANCH   8   9
ATOM      9  C   UNL     1     -16.836  -8.993  -9.941  1.00  0.00     0.000 C 
BRANCH   9  10
ATOM     10  C   UNL     1     -15.922 -10.190 -10.243  1.00  0.00     0.000 C 
BRANCH  10  11
ATOM     11  C   UNL     1     -16.691 -11.396 -10.799  1.00  0.00     0.000 C 
BRANCH  11  12
ATOM     12  C   UNL     1     -18.189 -11.088 -10.910  1.00  0.00     0.006 C 
BRANCH  12  13
ATOM     13  C   UNL     1     -18.852 -11.944 -11.993  1.00  0.00     0.053 C 
BRANCH  13  14
ATOM     14  C   UNL     1     -19.995 -11.206 -12.613  1.00  0.00     0.041 C 
ATOM     15  O   UNL     1     -20.307 -10.059 -12.201  1.00  0.00    -0.550 OA
ATOM     16  O   UNL     1     -20.674 -11.758 -13.693  1.00  0.00    -0.550 OA
ENDBRANCH  13  14
ENDBRANCH  12  13
ENDBRANCH  11  12
ENDBRANCH  10  11
ENDBRANCH   9  10
ENDBRANCH   8   9
ENDBRANCH   7   8
ENDBRANCH   6   7
ENDBRANCH   5   6
ENDBRANCH   4   5
ENDBRANCH   3   4
ENDBRANCH   2   3
ENDBRANCH   1   2
BRANCH   1  17
ATOM     17  C   UNL     1     -12.374 -10.085  -6.197  1.00  0.00     0.000 C 
BRANCH  17  18
ATOM     18  C   UNL     1     -12.561 -10.838  -4.870  1.00  0.00     0.000 C 
BRANCH  18  19
ATOM     19  C   UNL     1     -11.373 -11.754  -4.535  1.00  0.00     0.000 C 
BRANCH  19  20
ATOM     20  C   UNL     1     -11.484 -12.382  -3.136  1.00  0.00     0.000 C 
BRANCH  20  21
ATOM     21  C   UNL     1     -12.099 -11.430  -2.099  1.00  0.00     0.000 C 
BRANCH  21  22
ATOM     22  C   UNL     1     -11.238 -11.364  -0.828  1.00  0.00    -0.000 C 
BRANCH  22  23
ATOM     23  C   UNL     1     -10.411 -12.639  -0.607  1.00  0.00    -0.000 C 
BRANCH  23  24
ATOM     24  C   UNL     1      -8.974 -12.342  -0.138  1.00  0.00    -0.000 C 
BRANCH  24  25
ATOM     25  C   UNL     1      -7.920 -13.131  -0.932  1.00  0.00    -0.000 C 
BRANCH  25  26
ATOM     26  C   UNL     1      -8.467 -14.462  -1.479  1.00  0.00    -0.000 C 
BRANCH  26  27
ATOM     27  C   UNL     1      -7.412 -15.579  -1.478  1.00  0.00    -0.000 C 
BRANCH  27  28
ATOM     28  C   UNL     1      -8.011 -16.953  -1.825  1.00  0.00    -0.000 C 
BRANCH  28  29
ATOM     29  C   UNL     1      -7.202 -17.694  -2.901  1.00  0.00    -0.003 C 
ATOM     30  C   UNL     1      -5.787 -17.140  -3.058  1.00  0.00     0.004 C 
ENDBRANCH  28  29
ENDBRANCH  27  28
ENDBRANCH  26  27
ENDBRANCH  25  26
ENDBRANCH  24  25
ENDBRANCH  23  24
ENDBRANCH  22  23
ENDBRANCH  21  22
ENDBRANCH  20  21
ENDBRANCH  19  20
ENDBRANCH  18  19
ENDBRANCH  17  18
ENDBRANCH   1  17
TORSDOF 26
ENDMDL
MODEL 2
REMARK VINA RESULT:    -6.308      4.801     11.683
REMARK INTER + INTRA:         -18.724
REMARK INTER:                 -15.637
REMARK INTRA:                  -3.086
REMARK UNBOUND:                -2.828
REMARK SMILES CCCCCCCCCCCCCCCCCCCCCCCCCCCC(=O)[O-]
REMARK SMILES IDX 15 1 16 2 17 3 18 4 19 5 20 6 21 7 22 8 23 9 24 10 25 11
REMARK SMILES IDX 26 12 27 13 28 14 29 15 30 16 14 17 13 18 12 19 11 20 10 21
REMARK SMILES IDX 9 22 8 23 7 24 6 25 5 26 4 27 3 28 2 29 1 30
REMARK H PARENT
REMARK Flexibility Score: inf
ROOT
ATOM      1  C   UNL     1     -15.145  -8.367  -8.045  1.00  0.00     0.000 C 
ENDROOT
BRANCH   1   2
ATOM      2  C   UNL     1     -14.317  -8.761  -6.812  1.00  0.00     0.000 C 
BRANCH   2   3
ATOM      3  C   UNL     1     -13.050  -9.520  -7.226  1.00  0.00     0.000 C 
BRANCH   3   4
ATOM      4  C   UNL     1     -12.149  -9.797  -6.012  1.00  0.00     0.000 C 
BRANCH   4   5
ATOM      5  C   UNL     1     -12.601 -11.023  -5.203  1.00  0.00     0.000 C 
BRANCH   5   6
ATOM      6  C   UNL     1     -11.433 -11.745  -4.512  1.00  0.00     0.000 C 
BRANCH   6   7
ATOM      7  C   UNL     1     -11.856 -12.457  -3.214  1.00  0.00     0.000 C 
BRANCH   7   8
ATOM      8  C   UNL     1     -11.804 -11.551  -1.966  1.00  0.00     0.000 C 
BRANCH   8   9
ATOM      9  C   UNL     1     -11.002 -12.191  -0.818  1.00  0.00     0.000 C 
BRANCH   9  10
ATOM     10  C   UNL     1      -9.566 -12.555  -1.229  1.00  0.00     0.000 C 
BRANCH  10  11
ATOM     11  C   UNL     1      -9.010 -13.749  -0.441  1.00  0.00     0.000 C 
BRANCH  11  12
ATOM     12  C   UNL     1      -7.945 -14.495  -1.254  1.00  0.00     0.006 C 
BRANCH  12  13
ATOM     13  C   UNL     1      -8.576 -15.591  -2.118  1.00  0.00     0.053 C 
BRANCH  13  14
ATOM     14  C   UNL     1      -7.810 -16.868  -1.980  1.00  0.00     0.041 C 
ATOM     15  O   UNL     1      -8.163 -17.731  -1.137  1.00  0.00    -0.550 OA
ATOM     16  O   UNL     1      -6.745 -17.133  -2.833  1.00  0.00    -0.550 OA
ENDBRANCH  13  14
ENDBRANCH  12  13
ENDBRANCH  11  12
ENDBRANCH  10  11
ENDBRANCH   9  10
ENDBRANCH   8   9
ENDBRANCH   7   8
ENDBRANCH   6   7
ENDBRANCH   5   6
ENDBRANCH   4   5
ENDBRANCH   3   4
ENDBRANCH   2   3
ENDBRANCH   1   2
BRANCH   1  17
ATOM     17  C   UNL     1     -16.657  -8.294  -7.738  1.00  0.00     0.000 C 
BRANCH  17  18
ATOM     18  C   UNL     1     -17.088  -9.175  -6.555  1.00  0.00     0.000 C 
BRANCH  18  19
ATOM     19  C   UNL     1     -17.592 -10.558  -6.998  1.00  0.00     0.000 C 
BRANCH  19  20
ATOM     20  C   UNL     1     -16.800 -11.711  -6.359  1.00  0.00     0.000 C 
BRANCH  20  21
ATOM     21  C   UNL     1     -15.433 -11.939  -7.023  1.00  0.00     0.000 C 
BRANCH  21  22
ATOM     22  C   UNL     1     -15.570 -12.793  -8.293  1.00  0.00    -0.000 C 
BRANCH  22  23
ATOM     23  C   UNL     1     -14.594 -12.366  -9.401  1.00  0.00    -0.000 C 
BRANCH  23  24
ATOM     24  C   UNL     1     -15.161 -11.248 -10.294  1.00  0.00    -0.000 C 
BRANCH  24  25
ATOM     25  C   UNL     1     -16.653 -11.444 -10.609  1.00  0.00    -0.000 C 
BRANCH  25  26
ATOM     26  C   UNL     1     -17.401 -10.109 -10.777  1.00  0.00    -0.000 C 
BRANCH  26  27
ATOM     27  C   UNL     1     -18.904 -10.234 -10.486  1.00  0.00    -0.000 C 
BRANCH  27  28
ATOM     28  C   UNL     1     -19.756 -10.208 -11.767  1.00  0.00    -0.000 C 
BRANCH  28  29
ATOM     29  C   UNL     1     -19.646 -11.512 -12.574  1.00  0.00    -0.003 C 
ATOM     30  C   UNL     1     -20.751 -11.650 -13.619  1.00  0.00     0.004 C 
ENDBRANCH  28  29
ENDBRANCH  27  28
ENDBRANCH  26  27
ENDBRANCH  25  26
ENDBRANCH  24  25
ENDBRANCH  23  24
ENDBRANCH  22  23
ENDBRANCH  21  22
ENDBRANCH  20  21
ENDBRANCH  19  20
ENDBRANCH  18  19
ENDBRANCH  17  18
ENDBRANCH   1  17
TORSDOF 26
ENDMDL
MODEL 3
REMARK VINA RESULT:    -6.225      4.775     11.480
REMARK INTER + INTRA:         -18.514
REMARK INTER:                 -15.589
REMARK INTRA:                  -2.925
REMARK UNBOUND:                -2.828
REMARK SMILES CCCCCCCCCCCCCCCCCCCCCCCCCCCC(=O)[O-]
REMARK SMILES IDX 15 1 16 2 17 3 18 4 19 5 20 6 21 7 22 8 23 9 24 10 25 11
REMARK SMILES IDX 26 12 27 13 28 14 29 15 30 16 14 17 13 18 12 19 11 20 10 21
REMARK SMILES IDX 9 22 8 23 7 24 6 25 5 26 4 27 3 28 2 29 1 30
REMARK H PARENT
REMARK Flexibility Score: inf
ROOT
ATOM      1  C   UNL     1     -12.389  -9.937  -6.487  1.00  0.00     0.000 C 
ENDROOT
BRANCH   1   2
ATOM      2  C   UNL     1     -12.708 -11.006  -5.429  1.00  0.00     0.000 C 
BRANCH   2   3
ATOM      3  C   UNL     1     -11.442 -11.415  -4.668  1.00  0.00     0.000 C 
BRANCH   3   4
ATOM      4  C   UNL     1     -11.787 -12.267  -3.436  1.00  0.00     0.000 C 
BRANCH   4   5
ATOM      5  C   UNL     1     -12.072 -11.419  -2.188  1.00  0.00     0.000 C 
BRANCH   5   6
ATOM      6  C   UNL     1     -11.427 -11.993  -0.915  1.00  0.00     0.000 C 
BRANCH   6   7
ATOM      7  C   UNL     1     -10.657 -10.934  -0.107  1.00  0.00     0.000 C 
BRANCH   7   8
ATOM      8  C   UNL     1      -9.227 -11.368   0.280  1.00  0.00     0.000 C 
BRANCH   8   9
ATOM      9  C   UNL     1      -8.856 -12.738  -0.319  1.00  0.00     0.000 C 
BRANCH   9  10
ATOM     10  C   UNL     1      -7.437 -12.763  -0.907  1.00  0.00     0.000 C 
BRANCH  10  11
ATOM     11  C   UNL     1      -6.801 -14.158  -0.859  1.00  0.00     0.000 C 
BRANCH  11  12
ATOM     12  C   UNL     1      -7.872 -15.253  -0.939  1.00  0.00     0.006 C 
BRANCH  12  13
ATOM     13  C   UNL     1      -8.006 -15.791  -2.366  1.00  0.00     0.053 C 
BRANCH  13  14
ATOM     14  C   UNL     1      -7.632 -17.239  -2.414  1.00  0.00     0.041 C 
ATOM     15  O   UNL     1      -8.023 -18.024  -1.512  1.00  0.00    -0.550 OA
ATOM     16  O   UNL     1      -6.910 -17.734  -3.493  1.00  0.00    -0.550 OA
ENDBRANCH  13  14
ENDBRANCH  12  13
ENDBRANCH  11  12
ENDBRANCH  10  11
ENDBRANCH   9  10
ENDBRANCH   8   9
ENDBRANCH   7   8
ENDBRANCH   6   7
ENDBRANCH   5   6
ENDBRANCH   4   5
ENDBRANCH   3   4
ENDBRANCH   2   3
ENDBRANCH   1   2
BRANCH   1  17
ATOM     17  C   UNL     1     -13.663  -9.347  -7.128  1.00  0.00     0.000 C 
BRANCH  17  18
ATOM     18  C   UNL     1     -14.884  -9.358  -6.196  1.00  0.00     0.000 C 
BRANCH  18  19
ATOM     19  C   UNL     1     -16.084  -8.596  -6.781  1.00  0.00     0.000 C 
BRANCH  19  20
ATOM     20  C   UNL     1     -15.766  -7.935  -8.132  1.00  0.00     0.000 C 
BRANCH  20  21
ATOM     21  C   UNL     1     -16.876  -8.138  -9.175  1.00  0.00     0.000 C 
BRANCH  21  22
ATOM     22  C   UNL     1     -18.092  -8.846  -8.559  1.00  0.00    -0.000 C 
BRANCH  22  23
ATOM     23  C   UNL     1     -18.765  -9.825  -9.534  1.00  0.00    -0.000 C 
BRANCH  23  24
ATOM     24  C   UNL     1     -17.938 -10.051 -10.813  1.00  0.00    -0.000 C 
BRANCH  24  25
ATOM     25  C   UNL     1     -17.818 -11.539 -11.181  1.00  0.00    -0.000 C 
BRANCH  25  26
ATOM     26  C   UNL     1     -16.361 -12.034 -11.174  1.00  0.00    -0.000 C 
BRANCH  26  27
ATOM     27  C   UNL     1     -15.472 -11.240 -10.205  1.00  0.00    -0.000 C 
BRANCH  27  28
ATOM     28  C   UNL     1     -14.444 -12.131  -9.485  1.00  0.00    -0.000 C 
BRANCH  28  29
ATOM     29  C   UNL     1     -15.088 -13.031  -8.419  1.00  0.00    -0.003 C 
ATOM     30  C   UNL     1     -15.868 -12.237  -7.373  1.00  0.00     0.004 C 
ENDBRANCH  28  29
ENDBRANCH  27  28
ENDBRANCH  26  27
ENDBRANCH  25  26
ENDBRANCH  24  25
ENDBRANCH  23  24
ENDBRANCH  22  23
ENDBRANCH  21  22
ENDBRANCH  20  21
ENDBRANCH  19  20
ENDBRANCH  18  19
ENDBRANCH  17  18
ENDBRANCH   1  17
TORSDOF 26
ENDMDL
MODEL 4
REMARK VINA RESULT:    -6.183      4.773     12.184
REMARK INTER + INTRA:         -18.408
REMARK INTER:                 -15.797
REMARK INTRA:                  -2.611
REMARK UNBOUND:                -2.828
REMARK SMILES CCCCCCCCCCCCCCCCCCCCCCCCCCCC(=O)[O-]
REMARK SMILES IDX 15 1 16 2 17 3 18 4 19 5 20 6 21 7 22 8 23 9 24 10 25 11
REMARK SMILES IDX 26 12 27 13 28 14 29 15 30 16 14 17 13 18 12 19 11 20 10 21
REMARK SMILES IDX 9 22 8 23 7 24 6 25 5 26 4 27 3 28 2 29 1 30
REMARK H PARENT
REMARK Flexibility Score: inf
ROOT
ATOM      1  C   UNL     1     -13.344  -9.901  -6.971  1.00  0.00     0.000 C 
ENDROOT
BRANCH   1   2
ATOM      2  C   UNL     1     -12.209  -9.973  -5.937  1.00  0.00     0.000 C 
BRANCH   2   3
ATOM      3  C   UNL     1     -12.172 -11.349  -5.262  1.00  0.00     0.000 C 
BRANCH   3   4
ATOM      4  C   UNL     1     -12.122 -11.216  -3.733  1.00  0.00     0.000 C 
BRANCH   4   5
ATOM      5  C   UNL     1     -11.328 -12.348  -3.063  1.00  0.00     0.000 C 
BRANCH   5   6
ATOM      6  C   UNL     1     -11.594 -12.451  -1.552  1.00  0.00     0.000 C 
BRANCH   6   7
ATOM      7  C   UNL     1     -11.360 -11.121  -0.812  1.00  0.00     0.000 C 
BRANCH   7   8
ATOM      8  C   UNL     1     -10.194 -11.172   0.198  1.00  0.00     0.000 C 
BRANCH   8   9
ATOM      9  C   UNL     1      -9.430 -12.508   0.134  1.00  0.00     0.000 C 
BRANCH   9  10
ATOM     10  C   UNL     1      -8.007 -12.351  -0.425  1.00  0.00     0.000 C 
BRANCH  10  11
ATOM     11  C   UNL     1      -7.542 -13.584  -1.212  1.00  0.00     0.000 C 
BRANCH  11  12
ATOM     12  C   UNL     1      -8.644 -14.648  -1.267  1.00  0.00     0.006 C 
BRANCH  12  13
ATOM     13  C   UNL     1      -8.439 -15.596  -2.452  1.00  0.00     0.053 C 
BRANCH  13  14
ATOM     14  C   UNL     1      -7.783 -16.861  -2.000  1.00  0.00     0.041 C 
ATOM     15  O   UNL     1      -8.006 -17.313  -0.847  1.00  0.00    -0.550 OA
ATOM     16  O   UNL     1      -6.978 -17.577  -2.877  1.00  0.00    -0.550 OA
ENDBRANCH  13  14
ENDBRANCH  12  13
ENDBRANCH  11  12
ENDBRANCH  10  11
ENDBRANCH   9  10
ENDBRANCH   8   9
ENDBRANCH   7   8
ENDBRANCH   6   7
ENDBRANCH   5   6
ENDBRANCH   4   5
ENDBRANCH   3   4
ENDBRANCH   2   3
ENDBRANCH   1   2
BRANCH   1  17
ATOM     17  C   UNL     1     -13.767 -11.297  -7.476  1.00  0.00     0.000 C 
BRANCH  17  18
ATOM     18  C   UNL     1     -15.198 -11.690  -7.077  1.00  0.00     0.000 C 
BRANCH  18  19
ATOM     19  C   UNL     1     -15.834 -10.694  -6.093  1.00  0.00     0.000 C 
BRANCH  19  20
ATOM     20  C   UNL     1     -17.370 -10.692  -6.162  1.00  0.00     0.000 C 
BRANCH  20  21
ATOM     21  C   UNL     1     -17.917  -9.816  -7.300  1.00  0.00     0.000 C 
BRANCH  21  22
ATOM     22  C   UNL     1     -17.136  -8.497  -7.409  1.00  0.00    -0.000 C 
BRANCH  22  23
ATOM     23  C   UNL     1     -16.500  -8.299  -8.794  1.00  0.00    -0.000 C 
BRANCH  23  24
ATOM     24  C   UNL     1     -16.523  -9.580  -9.648  1.00  0.00    -0.000 C 
BRANCH  24  25
ATOM     25  C   UNL     1     -17.492  -9.478 -10.837  1.00  0.00    -0.000 C 
BRANCH  25  26
ATOM     26  C   UNL     1     -18.807 -10.240 -10.594  1.00  0.00    -0.000 C 
BRANCH  26  27
ATOM     27  C   UNL     1     -18.910 -11.523 -11.432  1.00  0.00    -0.000 C 
BRANCH  27  28
ATOM     28  C   UNL     1     -19.240 -11.237 -12.908  1.00  0.00    -0.000 C 
BRANCH  28  29
ATOM     29  C   UNL     1     -20.733 -10.956 -13.135  1.00  0.00    -0.003 C 
ATOM     30  C   UNL     1     -21.412 -12.035 -13.977  1.00  0.00     0.004 C 
ENDBRANCH  28  29
ENDBRANCH  27  28
ENDBRANCH  26  27
ENDBRANCH  25  26
ENDBRANCH  24  25
ENDBRANCH  23  24
ENDBRANCH  22  23
ENDBRANCH  21  22
ENDBRANCH  20  21
ENDBRANCH  19  20
ENDBRANCH  18  19
ENDBRANCH  17  18
ENDBRANCH   1  17
TORSDOF 26
ENDMDL
MODEL 5
REMARK VINA RESULT:    -5.966      4.679     12.073
REMARK INTER + INTRA:         -17.861
REMARK INTER:                 -14.841
REMARK INTRA:                  -3.020
REMARK UNBOUND:                -2.828
REMARK SMILES CCCCCCCCCCCCCCCCCCCCCCCCCCCC(=O)[O-]
REMARK SMILES IDX 15 1 16 2 17 3 18 4 19 5 20 6 21 7 22 8 23 9 24 10 25 11
REMARK SMILES IDX 26 12 27 13 28 14 29 15 30 16 14 17 13 18 12 19 11 20 10 21
REMARK SMILES IDX 9 22 8 23 7 24 6 25 5 26 4 27 3 28 2 29 1 30
REMARK H PARENT
REMARK Flexibility Score: inf
ROOT
ATOM      1  C   UNL     1     -15.549 -11.549  -6.898  1.00  0.00     0.000 C 
ENDROOT
BRANCH   1   2
ATOM      2  C   UNL     1     -14.662 -10.365  -6.484  1.00  0.00     0.000 C 
BRANCH   2   3
ATOM      3  C   UNL     1     -13.192 -10.637  -6.826  1.00  0.00     0.000 C 
BRANCH   3   4
ATOM      4  C   UNL     1     -12.276 -10.299  -5.640  1.00  0.00     0.000 C 
BRANCH   4   5
ATOM      5  C   UNL     1     -11.748 -11.550  -4.921  1.00  0.00     0.000 C 
BRANCH   5   6
ATOM      6  C   UNL     1     -12.272 -11.677  -3.481  1.00  0.00     0.000 C 
BRANCH   6   7
ATOM      7  C   UNL     1     -11.322 -12.473  -2.568  1.00  0.00     0.000 C 
BRANCH   7   8
ATOM      8  C   UNL     1     -11.294 -11.966  -1.111  1.00  0.00     0.000 C 
BRANCH   8   9
ATOM      9  C   UNL     1     -10.363 -12.810  -0.221  1.00  0.00     0.000 C 
BRANCH   9  10
ATOM     10  C   UNL     1      -8.935 -12.246  -0.152  1.00  0.00     0.000 C 
BRANCH  10  11
ATOM     11  C   UNL     1      -7.908 -13.150  -0.846  1.00  0.00     0.000 C 
BRANCH  11  12
ATOM     12  C   UNL     1      -8.364 -14.614  -0.829  1.00  0.00     0.006 C 
BRANCH  12  13
ATOM     13  C   UNL     1      -8.184 -15.266  -2.203  1.00  0.00     0.053 C 
BRANCH  13  14
ATOM     14  C   UNL     1      -7.868 -16.720  -2.052  1.00  0.00     0.041 C 
ATOM     15  O   UNL     1      -7.380 -17.365  -3.016  1.00  0.00    -0.550 OA
ATOM     16  O   UNL     1      -8.048 -17.345  -0.825  1.00  0.00    -0.550 OA
ENDBRANCH  13  14
ENDBRANCH  12  13
ENDBRANCH  11  12
ENDBRANCH  10  11
ENDBRANCH   9  10
ENDBRANCH   8   9
ENDBRANCH   7   8
ENDBRANCH   6   7
ENDBRANCH   5   6
ENDBRANCH   4   5
ENDBRANCH   3   4
ENDBRANCH   2   3
ENDBRANCH   1   2
BRANCH   1  17
ATOM     17  C   UNL     1     -16.984 -11.431  -6.342  1.00  0.00     0.000 C 
BRANCH  17  18
ATOM     18  C   UNL     1     -17.578 -10.019  -6.466  1.00  0.00     0.000 C 
BRANCH  18  19
ATOM     19  C   UNL     1     -18.544  -9.883  -7.654  1.00  0.00     0.000 C 
BRANCH  19  20
ATOM     20  C   UNL     1     -18.264  -8.635  -8.507  1.00  0.00     0.000 C 
BRANCH  20  21
ATOM     21  C   UNL     1     -16.956  -7.927  -8.121  1.00  0.00     0.000 C 
BRANCH  21  22
ATOM     22  C   UNL     1     -15.797  -8.374  -9.024  1.00  0.00    -0.000 C 
BRANCH  22  23
ATOM     23  C   UNL     1     -16.259  -9.282 -10.175  1.00  0.00    -0.000 C 
BRANCH  23  24
ATOM     24  C   UNL     1     -15.406 -10.558 -10.305  1.00  0.00    -0.000 C 
BRANCH  24  25
ATOM     25  C   UNL     1     -16.195 -11.736 -10.899  1.00  0.00    -0.000 C 
BRANCH  25  26
ATOM     26  C   UNL     1     -17.687 -11.696 -10.524  1.00  0.00    -0.000 C 
BRANCH  26  27
ATOM     27  C   UNL     1     -18.606 -11.729 -11.755  1.00  0.00    -0.000 C 
BRANCH  27  28
ATOM     28  C   UNL     1     -19.209 -10.350 -12.076  1.00  0.00    -0.000 C 
BRANCH  28  29
ATOM     29  C   UNL     1     -20.659 -10.442 -12.576  1.00  0.00    -0.003 C 
ATOM     30  C   UNL     1     -20.868 -11.590 -13.562  1.00  0.00     0.004 C 
ENDBRANCH  28  29
ENDBRANCH  27  28
ENDBRANCH  26  27
ENDBRANCH  25  26
ENDBRANCH  24  25
ENDBRANCH  23  24
ENDBRANCH  22  23
ENDBRANCH  21  22
ENDBRANCH  20  21
ENDBRANCH  19  20
ENDBRANCH  18  19
ENDBRANCH  17  18
ENDBRANCH   1  17
TORSDOF 26
ENDMDL
MODEL 6
REMARK VINA RESULT:    -5.888      5.633     12.561
REMARK INTER + INTRA:         -17.664
REMARK INTER:                 -15.552
REMARK INTRA:                  -2.113
REMARK UNBOUND:                -2.828
REMARK SMILES CCCCCCCCCCCCCCCCCCCCCCCCCCCC(=O)[O-]
REMARK SMILES IDX 15 1 16 2 17 3 18 4 19 5 20 6 21 7 22 8 23 9 24 10 25 11
REMARK SMILES IDX 26 12 27 13 28 14 29 15 30 16 14 17 13 18 12 19 11 20 10 21
REMARK SMILES IDX 9 22 8 23 7 24 6 25 5 26 4 27 3 28 2 29 1 30
REMARK H PARENT
REMARK Flexibility Score: inf
ROOT
ATOM      1  C   UNL     1     -12.837 -10.958  -5.291  1.00  0.00     0.000 C 
ENDROOT
BRANCH   1   2
ATOM      2  C   UNL     1     -11.499 -11.390  -4.672  1.00  0.00     0.000 C 
BRANCH   2   3
ATOM      3  C   UNL     1     -11.726 -12.325  -3.478  1.00  0.00     0.000 C 
BRANCH   3   4
ATOM      4  C   UNL     1     -11.921 -11.527  -2.179  1.00  0.00     0.000 C 
BRANCH   4   5
ATOM      5  C   UNL     1     -11.324 -12.234  -0.953  1.00  0.00     0.000 C 
BRANCH   5   6
ATOM      6  C   UNL     1      -9.917 -12.797  -1.213  1.00  0.00     0.000 C 
BRANCH   6   7
ATOM      7  C   UNL     1      -8.885 -12.329  -0.172  1.00  0.00     0.000 C 
BRANCH   7   8
ATOM      8  C   UNL     1      -9.271 -11.012   0.534  1.00  0.00     0.000 C 
BRANCH   8   9
ATOM      9  C   UNL     1      -8.118  -9.992   0.527  1.00  0.00     0.000 C 
BRANCH   9  10
ATOM     10  C   UNL     1      -8.607  -8.543   0.681  1.00  0.00     0.000 C 
BRANCH  10  11
ATOM     11  C   UNL     1      -7.487  -7.582   1.101  1.00  0.00     0.000 C 
BRANCH  11  12
ATOM     12  C   UNL     1      -6.342  -7.595   0.082  1.00  0.00     0.006 C 
BRANCH  12  13
ATOM     13  C   UNL     1      -6.599  -6.598  -1.052  1.00  0.00     0.053 C 
BRANCH  13  14
ATOM     14  C   UNL     1      -5.782  -5.361  -0.854  1.00  0.00     0.041 C 
ATOM     15  O   UNL     1      -5.233  -4.801  -1.838  1.00  0.00    -0.550 OA
ATOM     16  O   UNL     1      -5.685  -4.789   0.408  1.00  0.00    -0.550 OA
ENDBRANCH  13  14
ENDBRANCH  12  13
ENDBRANCH  11  12
ENDBRANCH  10  11
ENDBRANCH   9  10
ENDBRANCH   8   9
ENDBRANCH   7   8
ENDBRANCH   6   7
ENDBRANCH   5   6
ENDBRANCH   4   5
ENDBRANCH   3   4
ENDBRANCH   2   3
ENDBRANCH   1   2
BRANCH   1  17
ATOM     17  C   UNL     1     -12.652  -9.950  -6.446  1.00  0.00     0.000 C 
BRANCH  17  18
ATOM     18  C   UNL     1     -13.625 -10.168  -7.616  1.00  0.00     0.000 C 
BRANCH  18  19
ATOM     19  C   UNL     1     -14.078 -11.631  -7.746  1.00  0.00     0.000 C 
BRANCH  19  20
ATOM     20  C   UNL     1     -15.607 -11.774  -7.828  1.00  0.00     0.000 C 
BRANCH  20  21
ATOM     21  C   UNL     1     -16.305 -11.522  -6.482  1.00  0.00     0.000 C 
BRANCH  21  22
ATOM     22  C   UNL     1     -17.405 -10.458  -6.619  1.00  0.00    -0.000 C 
BRANCH  22  23
ATOM     23  C   UNL     1     -16.867  -9.027  -6.465  1.00  0.00    -0.000 C 
BRANCH  23  24
ATOM     24  C   UNL     1     -16.347  -8.442  -7.790  1.00  0.00    -0.000 C 
BRANCH  24  25
ATOM     25  C   UNL     1     -17.449  -8.320  -8.854  1.00  0.00    -0.000 C 
BRANCH  25  26
ATOM     26  C   UNL     1     -17.218  -9.254 -10.055  1.00  0.00    -0.000 C 
BRANCH  26  27
ATOM     27  C   UNL     1     -18.372 -10.247 -10.262  1.00  0.00    -0.000 C 
BRANCH  27  28
ATOM     28  C   UNL     1     -18.060 -11.293 -11.347  1.00  0.00    -0.000 C 
BRANCH  28  29
ATOM     29  C   UNL     1     -19.166 -11.387 -12.410  1.00  0.00    -0.003 C 
ATOM     30  C   UNL     1     -20.226 -10.300 -12.253  1.00  0.00     0.004 C 
ENDBRANCH  28  29
ENDBRANCH  27  28
ENDBRANCH  26  27
ENDBRANCH  25  26
ENDBRANCH  24  25
ENDBRANCH  23  24
ENDBRANCH  22  23
ENDBRANCH  21  22
ENDBRANCH  20  21
ENDBRANCH  19  20
ENDBRANCH  18  19
ENDBRANCH  17  18
ENDBRANCH   1  17
TORSDOF 26
ENDMDL
MODEL 7
REMARK VINA RESULT:    -5.862      5.569     12.263
REMARK INTER + INTRA:         -17.599
REMARK INTER:                 -15.173
REMARK INTRA:                  -2.426
REMARK UNBOUND:                -2.828
REMARK SMILES CCCCCCCCCCCCCCCCCCCCCCCCCCCC(=O)[O-]
REMARK SMILES IDX 15 1 16 2 17 3 18 4 19 5 20 6 21 7 22 8 23 9 24 10 25 11
REMARK SMILES IDX 26 12 27 13 28 14 29 15 30 16 14 17 13 18 12 19 11 20 10 21
REMARK SMILES IDX 9 22 8 23 7 24 6 25 5 26 4 27 3 28 2 29 1 30
REMARK H PARENT
REMARK Flexibility Score: inf
ROOT
ATOM      1  C   UNL     1     -11.866 -11.376  -5.000  1.00  0.00     0.000 C 
ENDROOT
BRANCH   1   2
ATOM      2  C   UNL     1     -12.115 -11.397  -3.484  1.00  0.00     0.000 C 
BRANCH   2   3
ATOM      3  C   UNL     1     -11.211 -12.426  -2.796  1.00  0.00     0.000 C 
BRANCH   3   4
ATOM      4  C   UNL     1     -11.190 -12.216  -1.274  1.00  0.00     0.000 C 
BRANCH   4   5
ATOM      5  C   UNL     1     -10.158 -13.106  -0.565  1.00  0.00     0.000 C 
BRANCH   5   6
ATOM      6  C   UNL     1      -9.459 -12.394   0.605  1.00  0.00     0.000 C 
BRANCH   6   7
ATOM      7  C   UNL     1      -9.691 -10.872   0.603  1.00  0.00     0.000 C 
BRANCH   7   8
ATOM      8  C   UNL     1      -8.386 -10.047   0.592  1.00  0.00     0.000 C 
BRANCH   8   9
ATOM      9  C   UNL     1      -8.659  -8.532   0.612  1.00  0.00     0.000 C 
BRANCH   9  10
ATOM     10  C   UNL     1      -7.446  -7.717   1.085  1.00  0.00     0.000 C 
BRANCH  10  11
ATOM     11  C   UNL     1      -6.195  -7.969   0.233  1.00  0.00     0.000 C 
BRANCH  11  12
ATOM     12  C   UNL     1      -5.282  -6.737   0.218  1.00  0.00     0.006 C 
BRANCH  12  13
ATOM     13  C   UNL     1      -6.100  -5.443   0.246  1.00  0.00     0.053 C 
BRANCH  13  14
ATOM     14  C   UNL     1      -6.287  -4.915  -1.142  1.00  0.00     0.041 C 
ATOM     15  O   UNL     1      -5.295  -4.765  -1.901  1.00  0.00    -0.550 OA
ATOM     16  O   UNL     1      -7.565  -4.653  -1.618  1.00  0.00    -0.550 OA
ENDBRANCH  13  14
ENDBRANCH  12  13
ENDBRANCH  11  12
ENDBRANCH  10  11
ENDBRANCH   9  10
ENDBRANCH   8   9
ENDBRANCH   7   8
ENDBRANCH   6   7
ENDBRANCH   5   6
ENDBRANCH   4   5
ENDBRANCH   3   4
ENDBRANCH   2   3
ENDBRANCH   1   2
BRANCH   1  17
ATOM     17  C   UNL     1     -13.113 -10.930  -5.794  1.00  0.00     0.000 C 
BRANCH  17  18
ATOM     18  C   UNL     1     -12.819  -9.849  -6.846  1.00  0.00     0.000 C 
BRANCH  18  19
ATOM     19  C   UNL     1     -14.068  -9.039  -7.229  1.00  0.00     0.000 C 
BRANCH  19  20
ATOM     20  C   UNL     1     -15.315  -9.459  -6.434  1.00  0.00     0.000 C 
BRANCH  20  21
ATOM     21  C   UNL     1     -16.611  -8.846  -6.984  1.00  0.00     0.000 C 
BRANCH  21  22
ATOM     22  C   UNL     1     -17.752  -9.876  -6.989  1.00  0.00    -0.000 C 
BRANCH  22  23
ATOM     23  C   UNL     1     -18.837  -9.552  -8.028  1.00  0.00    -0.000 C 
BRANCH  23  24
ATOM     24  C   UNL     1     -18.256  -8.996  -9.341  1.00  0.00    -0.000 C 
BRANCH  24  25
ATOM     25  C   UNL     1     -18.618  -9.861 -10.558  1.00  0.00    -0.000 C 
BRANCH  25  26
ATOM     26  C   UNL     1     -17.596 -10.984 -10.810  1.00  0.00    -0.000 C 
BRANCH  26  27
ATOM     27  C   UNL     1     -16.185 -10.619 -10.324  1.00  0.00    -0.000 C 
BRANCH  27  28
ATOM     28  C   UNL     1     -15.192 -11.785 -10.470  1.00  0.00    -0.000 C 
BRANCH  28  29
ATOM     29  C   UNL     1     -14.488 -12.130  -9.148  1.00  0.00    -0.003 C 
ATOM     30  C   UNL     1     -15.163 -13.281  -8.406  1.00  0.00     0.004 C 
ENDBRANCH  28  29
ENDBRANCH  27  28
ENDBRANCH  26  27
ENDBRANCH  25  26
ENDBRANCH  24  25
ENDBRANCH  23  24
ENDBRANCH  22  23
ENDBRANCH  21  22
ENDBRANCH  20  21
ENDBRANCH  19  20
ENDBRANCH  18  19
ENDBRANCH  17  18
ENDBRANCH   1  17
TORSDOF 26
ENDMDL
MODEL 8
REMARK VINA RESULT:    -5.859      4.860     12.078
REMARK INTER + INTRA:         -17.593
REMARK INTER:                 -14.886
REMARK INTRA:                  -2.707
REMARK UNBOUND:                -2.828
REMARK SMILES CCCCCCCCCCCCCCCCCCCCCCCCCCCC(=O)[O-]
REMARK SMILES IDX 15 1 16 2 17 3 18 4 19 5 20 6 21 7 22 8 23 9 24 10 25 11
REMARK SMILES IDX 26 12 27 13 28 14 29 15 30 16 14 17 13 18 12 19 11 20 10 21
REMARK SMILES IDX 9 22 8 23 7 24 6 25 5 26 4 27 3 28 2 29 1 30
REMARK H PARENT
REMARK Flexibility Score: inf
ROOT
ATOM      1  C   UNL     1     -13.361 -10.733  -7.159  1.00  0.00     0.000 C 
ENDROOT
BRANCH   1   2
ATOM      2  C   UNL     1     -12.606 -10.319  -5.887  1.00  0.00     0.000 C 
BRANCH   2   3
ATOM      3  C   UNL     1     -12.135 -11.552  -5.106  1.00  0.00     0.000 C 
BRANCH   3   4
ATOM      4  C   UNL     1     -11.836 -11.199  -3.641  1.00  0.00     0.000 C 
BRANCH   4   5
ATOM      5  C   UNL     1     -11.654 -12.441  -2.755  1.00  0.00     0.000 C 
BRANCH   5   6
ATOM      6  C   UNL     1     -11.649 -12.109  -1.254  1.00  0.00     0.000 C 
BRANCH   6   7
ATOM      7  C   UNL     1     -10.476 -12.761  -0.501  1.00  0.00     0.000 C 
BRANCH   7   8
ATOM      8  C   UNL     1      -9.599 -11.754   0.273  1.00  0.00     0.000 C 
BRANCH   8   9
ATOM      9  C   UNL     1      -8.123 -11.818  -0.161  1.00  0.00     0.000 C 
BRANCH   9  10
ATOM     10  C   UNL     1      -7.850 -12.942  -1.172  1.00  0.00     0.000 C 
BRANCH  10  11
ATOM     11  C   UNL     1      -6.870 -13.994  -0.636  1.00  0.00     0.000 C 
BRANCH  11  12
ATOM     12  C   UNL     1      -6.693 -15.141  -1.638  1.00  0.00     0.006 C 
BRANCH  12  13
ATOM     13  C   UNL     1      -8.018 -15.867  -1.888  1.00  0.00     0.053 C 
BRANCH  13  14
ATOM     14  C   UNL     1      -7.859 -17.336  -1.651  1.00  0.00     0.041 C 
ATOM     15  O   UNL     1      -7.369 -18.072  -2.545  1.00  0.00    -0.550 OA
ATOM     16  O   UNL     1      -8.190 -17.879  -0.416  1.00  0.00    -0.550 OA
ENDBRANCH  13  14
ENDBRANCH  12  13
ENDBRANCH  11  12
ENDBRANCH  10  11
ENDBRANCH   9  10
ENDBRANCH   8   9
ENDBRANCH   7   8
ENDBRANCH   6   7
ENDBRANCH   5   6
ENDBRANCH   4   5
ENDBRANCH   3   4
ENDBRANCH   2   3
ENDBRANCH   1   2
BRANCH   1  17
ATOM     17  C   UNL     1     -14.434 -11.808  -6.882  1.00  0.00     0.000 C 
BRANCH  17  18
ATOM     18  C   UNL     1     -15.188 -12.265  -8.141  1.00  0.00     0.000 C 
BRANCH  18  19
ATOM     19  C   UNL     1     -14.362 -12.089  -9.425  1.00  0.00     0.000 C 
BRANCH  19  20
ATOM     20  C   UNL     1     -15.214 -11.636 -10.622  1.00  0.00     0.000 C 
BRANCH  20  21
ATOM     21  C   UNL     1     -16.670 -12.119 -10.537  1.00  0.00     0.000 C 
BRANCH  21  22
ATOM     22  C   UNL     1     -17.418 -11.858 -11.854  1.00  0.00    -0.000 C 
BRANCH  22  23
ATOM     23  C   UNL     1     -18.909 -11.558 -11.638  1.00  0.00    -0.000 C 
BRANCH  23  24
ATOM     24  C   UNL     1     -19.176 -10.078 -11.307  1.00  0.00    -0.000 C 
BRANCH  24  25
ATOM     25  C   UNL     1     -19.328  -9.830  -9.797  1.00  0.00    -0.000 C 
BRANCH  25  26
ATOM     26  C   UNL     1     -18.394  -8.719  -9.284  1.00  0.00    -0.000 C 
BRANCH  26  27
ATOM     27  C   UNL     1     -17.188  -9.272  -8.511  1.00  0.00    -0.000 C 
BRANCH  27  28
ATOM     28  C   UNL     1     -17.566  -9.761  -7.101  1.00  0.00    -0.000 C 
BRANCH  28  29
ATOM     29  C   UNL     1     -16.589  -9.266  -6.024  1.00  0.00    -0.003 C 
ATOM     30  C   UNL     1     -15.629  -8.199  -6.546  1.00  0.00     0.004 C 
ENDBRANCH  28  29
ENDBRANCH  27  28
ENDBRANCH  26  27
ENDBRANCH  25  26
ENDBRANCH  24  25
ENDBRANCH  23  24
ENDBRANCH  22  23
ENDBRANCH  21  22
ENDBRANCH  20  21
ENDBRANCH  19  20
ENDBRANCH  18  19
ENDBRANCH  17  18
ENDBRANCH   1  17
TORSDOF 26
ENDMDL
MODEL 9
REMARK VINA RESULT:    -5.853      1.017      2.013
REMARK INTER + INTRA:         -17.578
REMARK INTER:                 -15.784
REMARK INTRA:                  -1.794
REMARK UNBOUND:                -2.828
REMARK SMILES CCCCCCCCCCCCCCCCCCCCCCCCCCCC(=O)[O-]
REMARK SMILES IDX 15 1 16 2 17 3 18 4 19 5 20 6 21 7 22 8 23 9 24 10 25 11
REMARK SMILES IDX 26 12 27 13 28 14 29 15 30 16 14 17 13 18 12 19 11 20 10 21
REMARK SMILES IDX 9 22 8 23 7 24 6 25 5 26 4 27 3 28 2 29 1 30
REMARK H PARENT
REMARK Flexibility Score: inf
ROOT
ATOM      1  C   UNL     1     -13.009  -8.834  -7.230  1.00  0.00     0.000 C 
ENDROOT
BRANCH   1   2
ATOM      2  C   UNL     1     -14.477  -8.968  -6.798  1.00  0.00     0.000 C 
BRANCH   2   3
ATOM      3  C   UNL     1     -15.328  -7.843  -7.400  1.00  0.00     0.000 C 
BRANCH   3   4
ATOM      4  C   UNL     1     -16.337  -8.396  -8.418  1.00  0.00     0.000 C 
BRANCH   4   5
ATOM      5  C   UNL     1     -17.608  -8.948  -7.755  1.00  0.00     0.000 C 
BRANCH   5   6
ATOM      6  C   UNL     1     -17.321  -9.702  -6.446  1.00  0.00     0.000 C 
BRANCH   6   7
ATOM      7  C   UNL     1     -17.181 -11.221  -6.650  1.00  0.00     0.000 C 
BRANCH   7   8
ATOM      8  C   UNL     1     -15.720 -11.693  -6.807  1.00  0.00     0.000 C 
BRANCH   8   9
ATOM      9  C   UNL     1     -15.510 -12.511  -8.095  1.00  0.00     0.000 C 
BRANCH   9  10
ATOM     10  C   UNL     1     -14.642 -11.776  -9.128  1.00  0.00     0.000 C 
BRANCH  10  11
ATOM     11  C   UNL     1     -15.296 -11.715 -10.515  1.00  0.00     0.000 C 
BRANCH  11  12
ATOM     12  C   UNL     1     -16.696 -11.094 -10.434  1.00  0.00     0.006 C 
BRANCH  12  13
ATOM     13  C   UNL     1     -17.681 -11.830 -11.347  1.00  0.00     0.053 C 
BRANCH  13  14
ATOM     14  C   UNL     1     -18.943 -11.040 -11.495  1.00  0.00     0.041 C 
ATOM     15  O   UNL     1     -19.133 -10.013 -10.796  1.00  0.00    -0.550 OA
ATOM     16  O   UNL     1     -19.878 -11.402 -12.457  1.00  0.00    -0.550 OA
ENDBRANCH  13  14
ENDBRANCH  12  13
ENDBRANCH  11  12
ENDBRANCH  10  11
ENDBRANCH   9  10
ENDBRANCH   8   9
ENDBRANCH   7   8
ENDBRANCH   6   7
ENDBRANCH   5   6
ENDBRANCH   4   5
ENDBRANCH   3   4
ENDBRANCH   2   3
ENDBRANCH   1   2
BRANCH   1  17
ATOM     17  C   UNL     1     -12.112  -9.926  -6.607  1.00  0.00     0.000 C 
BRANCH  17  18
ATOM     18  C   UNL     1     -12.739 -10.616  -5.386  1.00  0.00     0.000 C 
BRANCH  18  19
ATOM     19  C   UNL     1     -11.735 -11.492  -4.619  1.00  0.00     0.000 C 
BRANCH  19  20
ATOM     20  C   UNL     1     -12.098 -11.648  -3.133  1.00  0.00     0.000 C 
BRANCH  20  21
ATOM     21  C   UNL     1     -11.086 -12.503  -2.355  1.00  0.00     0.000 C 
BRANCH  21  22
ATOM     22  C   UNL     1     -11.030 -12.089  -0.877  1.00  0.00    -0.000 C 
BRANCH  22  23
ATOM     23  C   UNL     1     -10.018 -12.916  -0.068  1.00  0.00    -0.000 C 
BRANCH  23  24
ATOM     24  C   UNL     1      -8.599 -12.320  -0.104  1.00  0.00    -0.000 C 
BRANCH  24  25
ATOM     25  C   UNL     1      -7.734 -12.923  -1.222  1.00  0.00    -0.000 C 
BRANCH  25  26
ATOM     26  C   UNL     1      -6.622 -13.839  -0.680  1.00  0.00    -0.000 C 
BRANCH  26  27
ATOM     27  C   UNL     1      -6.599 -15.212  -1.368  1.00  0.00    -0.000 C 
BRANCH  27  28
ATOM     28  C   UNL     1      -7.896 -16.007  -1.138  1.00  0.00    -0.000 C 
BRANCH  28  29
ATOM     29  C   UNL     1      -8.221 -16.956  -2.303  1.00  0.00    -0.003 C 
ATOM     30  C   UNL     1      -6.967 -17.528  -2.961  1.00  0.00     0.004 C 
ENDBRANCH  28  29
ENDBRANCH  27  28
ENDBRANCH  26  27
ENDBRANCH  25  26
ENDBRANCH  24  25
ENDBRANCH  23  24
ENDBRANCH  22  23
ENDBRANCH  21  22
ENDBRANCH  20  21
ENDBRANCH  19  20
ENDBRANCH  18  19
ENDBRANCH  17  18
ENDBRANCH   1  17
TORSDOF 26
ENDMDL
