MODEL 1
REMARK VINA RESULT:   144.983      0.000      0.000
REMARK INTER + INTRA:         157.547
REMARK INTER:                 157.697
REMARK INTRA:                  -0.150
REMARK UNBOUND:                -0.150
REMARK SMILES C[C@H]1[C@H](C)CC[C@@]2(C(=O)[O-])CC[C@]3(C)C(=CC[C@H]4[C@@]5(C)CC[C@@H](O)C(C)(C)[C@@H]5CC[C@]43C)[C@@H]12
REMARK SMILES IDX 7 1 6 2 11 3 33 4 5 5 12 6 15 7 2 8 3 9 13 10 16 11 1 12
REMARK SMILES IDX 4 13 14 14 31 15 17 16 18 17 30 18 32 19 19 20 29 21 28 22
REMARK SMILES IDX 21 23 20 24 25 25 22 26 23 27 26 28 27 29 8 30 9 31 10 32
REMARK SMILES IDX 24 33
REMARK H PARENT 24 34
REMARK Flexibility Score: inf
ROOT
ATOM      1  C   UNL     1     -29.516  25.495 -15.397  1.00  0.00     0.017 C 
ATOM      2  C   UNL     1     -27.999  25.360 -15.718  1.00  0.00     0.014 C 
ATOM      3  C   UNL     1     -29.647  26.468 -14.168  1.00  0.00     0.014 C 
ATOM      4  C   UNL     1     -30.280  26.065 -16.651  1.00  0.00     0.030 C 
ATOM      5  C   UNL     1     -27.728  24.554 -16.987  1.00  0.00     0.004 C 
ATOM      6  C   UNL     1     -30.989  27.239 -14.085  1.00  0.00     0.013 C 
ATOM      7  C   UNL     1     -30.429  27.586 -16.491  1.00  0.00    -0.063 C 
ATOM      8  C   UNL     1     -29.837  25.491 -18.046  1.00  0.00    -0.003 C 
ATOM      9  C   UNL     1     -28.307  25.265 -18.218  1.00  0.00    -0.011 C 
ATOM     10  C   UNL     1     -31.416  28.032 -15.402  1.00  0.00    -0.006 C 
ATOM     11  C   UNL     1     -29.392  28.358 -16.839  1.00  0.00    -0.027 C 
ATOM     12  C   UNL     1     -30.451  26.295 -19.209  1.00  0.00     0.008 C 
ATOM     13  C   UNL     1     -27.992  24.431 -19.473  1.00  0.00     0.008 C 
ATOM     14  C   UNL     1     -32.844  27.533 -15.834  1.00  0.00     0.017 C 
ATOM     15  C   UNL     1     -31.467  29.640 -15.192  1.00  0.00    -0.020 C 
ATOM     16  C   UNL     1     -29.154  29.748 -16.370  1.00  0.00     0.032 C 
ATOM     17  C   UNL     1     -30.006  30.260 -15.168  1.00  0.00     0.006 C 
ATOM     18  C   UNL     1     -32.243  30.346 -16.356  1.00  0.00     0.008 C 
ATOM     19  C   UNL     1     -32.245  29.915 -13.850  1.00  0.00     0.012 C 
ATOM     20  C   UNL     1     -29.951  31.869 -15.084  1.00  0.00    -0.025 C 
ATOM     21  C   UNL     1     -32.246  31.889 -16.292  1.00  0.00     0.005 C 
ATOM     22  C   UNL     1     -30.821  32.484 -16.250  1.00  0.00     0.003 C 
ATOM     23  C   UNL     1     -28.481  32.392 -15.253  1.00  0.00     0.010 C 
ATOM     24  C   UNL     1     -30.415  32.318 -13.662  1.00  0.00     0.012 C 
ATOM     25  C   UNL     1     -30.745  34.058 -16.425  1.00  0.00    -0.006 C 
ATOM     26  C   UNL     1     -28.359  33.924 -15.372  1.00  0.00     0.033 C 
ATOM     27  C   UNL     1     -29.245  34.521 -16.485  1.00  0.00     0.120 C 
ATOM     28  C   UNL     1     -31.479  34.840 -15.302  1.00  0.00     0.014 C 
ATOM     29  C   UNL     1     -31.427  34.478 -17.758  1.00  0.00     0.014 C 
ENDROOT
BRANCH   1  30
ATOM     30  C   UNL     1     -30.103  24.146 -14.984  1.00  0.00     0.048 C 
ATOM     31  O   UNL     1     -31.322  23.885 -15.171  1.00  0.00    -0.550 OA
ATOM     32  O   UNL     1     -29.277  23.138 -14.499  1.00  0.00    -0.550 OA
ENDBRANCH   1  30
BRANCH  27  33
ATOM     33  O   UNL     1     -28.661  34.296 -17.748  1.00  0.00    -0.393 OA
ATOM     34  H   UNL     1     -28.080  35.066 -17.969  1.00  0.00     0.210 HD
ENDBRANCH  27  33
TORSDOF 2
ENDMDL
MODEL 2
REMARK VINA RESULT:   146.488      9.725     12.325
REMARK INTER + INTRA:         159.184
REMARK INTER:                 158.785
REMARK INTRA:                   0.399
REMARK UNBOUND:                -0.150
REMARK SMILES C[C@H]1[C@H](C)CC[C@@]2(C(=O)[O-])CC[C@]3(C)C(=CC[C@H]4[C@@]5(C)CC[C@@H](O)C(C)(C)[C@@H]5CC[C@]43C)[C@@H]12
REMARK SMILES IDX 7 1 6 2 11 3 33 4 5 5 12 6 15 7 2 8 3 9 13 10 16 11 1 12
REMARK SMILES IDX 4 13 14 14 31 15 17 16 18 17 30 18 32 19 19 20 29 21 28 22
REMARK SMILES IDX 21 23 20 24 25 25 22 26 23 27 26 28 27 29 8 30 9 31 10 32
REMARK SMILES IDX 24 33
REMARK H PARENT 24 34
REMARK Flexibility Score: inf
ROOT
ATOM      1  C   UNL     1     -42.594  30.697 -22.669  1.00  0.00     0.017 C 
ATOM      2  C   UNL     1     -43.279  31.982 -22.116  1.00  0.00     0.014 C 
ATOM      3  C   UNL     1     -41.204  31.130 -23.261  1.00  0.00     0.014 C 
ATOM      4  C   UNL     1     -42.410  29.648 -21.508  1.00  0.00     0.030 C 
ATOM      5  C   UNL     1     -44.583  31.690 -21.374  1.00  0.00     0.004 C 
ATOM      6  C   UNL     1     -40.120  30.021 -23.264  1.00  0.00     0.013 C 
ATOM      7  C   UNL     1     -40.989  29.783 -20.938  1.00  0.00    -0.063 C 
ATOM      8  C   UNL     1     -43.616  29.507 -20.509  1.00  0.00    -0.003 C 
ATOM      9  C   UNL     1     -44.320  30.841 -20.124  1.00  0.00    -0.011 C 
ATOM     10  C   UNL     1     -39.867  29.296 -21.866  1.00  0.00    -0.006 C 
ATOM     11  C   UNL     1     -40.766  30.743 -20.032  1.00  0.00    -0.027 C 
ATOM     12  C   UNL     1     -43.235  28.662 -19.278  1.00  0.00     0.008 C 
ATOM     13  C   UNL     1     -45.655  30.591 -19.397  1.00  0.00     0.008 C 
ATOM     14  C   UNL     1     -40.070  27.750 -22.070  1.00  0.00     0.017 C 
ATOM     15  C   UNL     1     -38.379  29.552 -21.273  1.00  0.00    -0.020 C 
ATOM     16  C   UNL     1     -39.440  31.325 -19.698  1.00  0.00     0.032 C 
ATOM     17  C   UNL     1     -38.252  31.011 -20.658  1.00  0.00     0.006 C 
ATOM     18  C   UNL     1     -38.036  28.541 -20.126  1.00  0.00     0.008 C 
ATOM     19  C   UNL     1     -37.357  29.320 -22.450  1.00  0.00     0.012 C 
ATOM     20  C   UNL     1     -36.846  31.324 -19.934  1.00  0.00    -0.025 C 
ATOM     21  C   UNL     1     -36.678  28.784 -19.431  1.00  0.00     0.005 C 
ATOM     22  C   UNL     1     -36.555  30.211 -18.851  1.00  0.00     0.003 C 
ATOM     23  C   UNL     1     -36.886  32.710 -19.201  1.00  0.00     0.010 C 
ATOM     24  C   UNL     1     -35.730  31.435 -21.021  1.00  0.00     0.012 C 
ATOM     25  C   UNL     1     -35.294  30.452 -17.921  1.00  0.00    -0.006 C 
ATOM     26  C   UNL     1     -35.650  33.006 -18.328  1.00  0.00     0.033 C 
ATOM     27  C   UNL     1     -35.349  31.894 -17.302  1.00  0.00     0.120 C 
ATOM     28  C   UNL     1     -33.939  30.259 -18.656  1.00  0.00     0.014 C 
ATOM     29  C   UNL     1     -35.296  29.429 -16.749  1.00  0.00     0.014 C 
ENDROOT
BRANCH   1  30
ATOM     30  C   UNL     1     -43.416  30.094 -23.806  1.00  0.00     0.048 C 
ATOM     31  O   UNL     1     -44.676  30.120 -23.780  1.00  0.00    -0.550 OA
ATOM     32  O   UNL     1     -42.788  29.607 -24.947  1.00  0.00    -0.550 OA
ENDBRANCH   1  30
BRANCH  27  33
ATOM     33  O   UNL     1     -36.239  31.980 -16.212  1.00  0.00    -0.393 OA
ATOM     34  H   UNL     1     -36.581  32.908 -16.157  1.00  0.00     0.210 HD
ENDBRANCH  27  33
TORSDOF 2
ENDMDL
