MODEL 1
REMARK VINA RESULT:    -3.533      0.000      0.000
REMARK INTER + INTRA:          -3.637
REMARK INTER:                  -3.637
REMARK INTRA:                   0.000
REMARK UNBOUND:                 0.000
REMARK SMILES Oc1ccc2[nH]ccc2c1
REMARK SMILES IDX 3 1 4 2 5 3 9 4 8 5 7 6 6 7 10 8 2 9 1 11
REMARK H PARENT 6 10 1 12
REMARK Flexibility Score: inf
ROOT
ATOM      1  C   UNL     1    -114.178 145.724   4.924  1.00  0.00     0.048 A 
ATOM      2  C   UNL     1    -113.742 145.339   6.206  1.00  0.00     0.030 A 
ATOM      3  C   UNL     1    -114.494 145.760   7.303  1.00  0.00     0.046 A 
ATOM      4  C   UNL     1    -115.621 146.523   7.152  1.00  0.00     0.003 A 
ATOM      5  C   UNL     1    -116.125 146.766   8.411  1.00  0.00     0.028 A 
ATOM      6  C   UNL     1    -115.252 146.121   9.282  1.00  0.00     0.083 A 
ATOM      7  N   UNL     1    -114.257 145.507   8.600  1.00  0.00    -0.361 N 
ATOM      8  C   UNL     1    -116.079 146.921   5.897  1.00  0.00     0.056 A 
ATOM      9  C   UNL     1    -115.341 146.512   4.767  1.00  0.00     0.116 A 
ATOM     10  H   UNL     1    -113.471 144.953   9.004  1.00  0.00     0.166 HD
ENDROOT
BRANCH   9  11
ATOM     11  O   UNL     1    -115.751 146.879   3.487  1.00  0.00    -0.508 OA
ATOM     12  H   UNL     1    -115.180 147.474   2.899  1.00  0.00     0.293 HD
ENDBRANCH   9  11
TORSDOF 1
ENDMDL
MODEL 2
REMARK VINA RESULT:    -3.460     10.127     10.764
REMARK INTER + INTRA:          -3.561
REMARK INTER:                  -3.561
REMARK INTRA:                   0.000
REMARK UNBOUND:                 0.000
REMARK SMILES Oc1ccc2[nH]ccc2c1
REMARK SMILES IDX 3 1 4 2 5 3 9 4 8 5 7 6 6 7 10 8 2 9 1 11
REMARK H PARENT 6 10 1 12
REMARK Flexibility Score: inf
ROOT
ATOM      1  C   UNL     1    -115.437 155.855   7.943  1.00  0.00     0.048 A 
ATOM      2  C   UNL     1    -116.125 155.464   9.107  1.00  0.00     0.030 A 
ATOM      3  C   UNL     1    -115.627 155.901  10.334  1.00  0.00     0.046 A 
ATOM      4  C   UNL     1    -114.508 156.686  10.419  1.00  0.00     0.003 A 
ATOM      5  C   UNL     1    -114.284 156.942  11.754  1.00  0.00     0.028 A 
ATOM      6  C   UNL     1    -115.307 156.280  12.427  1.00  0.00     0.083 A 
ATOM      7  N   UNL     1    -116.125 155.646  11.555  1.00  0.00    -0.361 N 
ATOM      8  C   UNL     1    -113.804 157.090   9.285  1.00  0.00     0.056 A 
ATOM      9  C   UNL     1    -114.281 156.664   8.027  1.00  0.00     0.116 A 
ATOM     10  H   UNL     1    -116.968 155.078  11.789  1.00  0.00     0.166 HD
ENDROOT
BRANCH   9  11
ATOM     11  O   UNL     1    -113.620 157.038   6.859  1.00  0.00    -0.508 OA
ATOM     12  H   UNL     1    -112.693 156.691   6.643  1.00  0.00     0.293 HD
ENDBRANCH   9  11
TORSDOF 1
ENDMDL
MODEL 3
REMARK VINA RESULT:    -3.388      2.921      3.683
REMARK INTER + INTRA:          -3.487
REMARK INTER:                  -3.487
REMARK INTRA:                   0.000
REMARK UNBOUND:                 0.000
REMARK SMILES Oc1ccc2[nH]ccc2c1
REMARK SMILES IDX 3 1 4 2 5 3 9 4 8 5 7 6 6 7 10 8 2 9 1 11
REMARK H PARENT 6 10 1 12
REMARK Flexibility Score: inf
ROOT
ATOM      1  C   UNL     1    -112.934 144.060   7.045  1.00  0.00     0.048 A 
ATOM      2  C   UNL     1    -114.307 144.011   6.739  1.00  0.00     0.030 A 
ATOM      3  C   UNL     1    -114.832 145.024   5.938  1.00  0.00     0.046 A 
ATOM      4  C   UNL     1    -114.049 146.040   5.458  1.00  0.00     0.003 A 
ATOM      5  C   UNL     1    -114.859 146.866   4.710  1.00  0.00     0.028 A 
ATOM      6  C   UNL     1    -116.125 146.292   4.778  1.00  0.00     0.083 A 
ATOM      7  N   UNL     1    -116.103 145.167   5.530  1.00  0.00    -0.361 N 
ATOM      8  C   UNL     1    -112.687 146.119   5.743  1.00  0.00     0.056 A 
ATOM      9  C   UNL     1    -112.124 145.108   6.551  1.00  0.00     0.116 A 
ATOM     10  H   UNL     1    -116.911 144.542   5.744  1.00  0.00     0.166 HD
ENDROOT
BRANCH   9  11
ATOM     11  O   UNL     1    -110.768 145.133   6.869  1.00  0.00    -0.508 OA
ATOM     12  H   UNL     1    -110.351 144.428   7.466  1.00  0.00     0.293 HD
ENDBRANCH   9  11
TORSDOF 1
ENDMDL
MODEL 4
REMARK VINA RESULT:    -3.279     12.249     13.111
REMARK INTER + INTRA:          -3.375
REMARK INTER:                  -3.375
REMARK INTRA:                   0.000
REMARK UNBOUND:                 0.000
REMARK SMILES Oc1ccc2[nH]ccc2c1
REMARK SMILES IDX 3 1 4 2 5 3 9 4 8 5 7 6 6 7 10 8 2 9 1 11
REMARK H PARENT 6 10 1 12
REMARK Flexibility Score: inf
ROOT
ATOM      1  C   UNL     1    -113.840 156.457  13.214  1.00  0.00     0.048 A 
ATOM      2  C   UNL     1    -113.378 157.776  13.382  1.00  0.00     0.030 A 
ATOM      3  C   UNL     1    -113.209 158.557  12.240  1.00  0.00     0.046 A 
ATOM      4  C   UNL     1    -113.481 158.071  10.989  1.00  0.00     0.003 A 
ATOM      5  C   UNL     1    -113.215 159.079  10.088  1.00  0.00     0.028 A 
ATOM      6  C   UNL     1    -112.783 160.153  10.862  1.00  0.00     0.083 A 
ATOM      7  N   UNL     1    -112.782 159.829  12.176  1.00  0.00    -0.361 N 
ATOM      8  C   UNL     1    -113.940 156.771  10.787  1.00  0.00     0.056 A 
ATOM      9  C   UNL     1    -114.121 155.953  11.923  1.00  0.00     0.116 A 
ATOM     10  H   UNL     1    -112.504 160.444  12.972  1.00  0.00     0.166 HD
ENDROOT
BRANCH   9  11
ATOM     11  O   UNL     1    -114.579 154.645  11.784  1.00  0.00    -0.508 OA
ATOM     12  H   UNL     1    -115.390 154.426  11.217  1.00  0.00     0.293 HD
ENDBRANCH   9  11
TORSDOF 1
ENDMDL
MODEL 5
REMARK VINA RESULT:    -3.212     12.062     12.756
REMARK INTER + INTRA:          -3.306
REMARK INTER:                  -3.306
REMARK INTRA:                   0.000
REMARK UNBOUND:                 0.000
REMARK SMILES Oc1ccc2[nH]ccc2c1
REMARK SMILES IDX 3 1 4 2 5 3 9 4 8 5 7 6 6 7 10 8 2 9 1 11
REMARK H PARENT 6 10 1 12
REMARK Flexibility Score: inf
ROOT
ATOM      1  C   UNL     1    -113.913 157.777   9.497  1.00  0.00     0.048 A 
ATOM      2  C   UNL     1    -113.314 158.805  10.249  1.00  0.00     0.030 A 
ATOM      3  C   UNL     1    -113.255 158.649  11.633  1.00  0.00     0.046 A 
ATOM      4  C   UNL     1    -113.758 157.536  12.254  1.00  0.00     0.003 A 
ATOM      5  C   UNL     1    -113.545 157.687  13.607  1.00  0.00     0.028 A 
ATOM      6  C   UNL     1    -112.907 158.917  13.738  1.00  0.00     0.083 A 
ATOM      7  N   UNL     1    -112.732 159.500  12.530  1.00  0.00    -0.361 N 
ATOM      8  C   UNL     1    -114.357 156.501  11.538  1.00  0.00     0.056 A 
ATOM      9  C   UNL     1    -114.433 156.629  10.135  1.00  0.00     0.116 A 
ATOM     10  H   UNL     1    -112.281 160.422  12.340  1.00  0.00     0.166 HD
ENDROOT
BRANCH   9  11
ATOM     11  O   UNL     1    -115.020 155.625   9.367  1.00  0.00    -0.508 OA
ATOM     12  H   UNL     1    -114.662 155.383   8.450  1.00  0.00     0.293 HD
ENDBRANCH   9  11
TORSDOF 1
ENDMDL
MODEL 6
REMARK VINA RESULT:    -3.108     12.628     13.290
REMARK INTER + INTRA:          -3.199
REMARK INTER:                  -3.199
REMARK INTRA:                   0.000
REMARK UNBOUND:                 0.000
REMARK SMILES Oc1ccc2[nH]ccc2c1
REMARK SMILES IDX 3 1 4 2 5 3 9 4 8 5 7 6 6 7 10 8 2 9 1 11
REMARK H PARENT 6 10 1 12
REMARK Flexibility Score: inf
ROOT
ATOM      1  C   UNL     1    -113.066 159.204   9.888  1.00  0.00     0.048 A 
ATOM      2  C   UNL     1    -112.723 159.749  11.139  1.00  0.00     0.030 A 
ATOM      3  C   UNL     1    -112.972 158.978  12.275  1.00  0.00     0.046 A 
ATOM      4  C   UNL     1    -113.530 157.731  12.190  1.00  0.00     0.003 A 
ATOM      5  C   UNL     1    -113.642 157.241  13.473  1.00  0.00     0.028 A 
ATOM      6  C   UNL     1    -113.132 158.246  14.290  1.00  0.00     0.083 A 
ATOM      7  N   UNL     1    -112.723 159.305  13.554  1.00  0.00    -0.361 N 
ATOM      8  C   UNL     1    -113.882 157.163  10.967  1.00  0.00     0.056 A 
ATOM      9  C   UNL     1    -113.644 157.917   9.798  1.00  0.00     0.116 A 
ATOM     10  H   UNL     1    -112.302 160.190  13.911  1.00  0.00     0.166 HD
ENDROOT
BRANCH   9  11
ATOM     11  O   UNL     1    -113.973 157.400   8.546  1.00  0.00    -0.508 OA
ATOM     12  H   UNL     1    -113.302 156.876   7.997  1.00  0.00     0.293 HD
ENDBRANCH   9  11
TORSDOF 1
ENDMDL
MODEL 7
REMARK VINA RESULT:    -3.065      3.708      4.727
REMARK INTER + INTRA:          -3.154
REMARK INTER:                  -3.154
REMARK INTRA:                   0.000
REMARK UNBOUND:                 0.000
REMARK SMILES Oc1ccc2[nH]ccc2c1
REMARK SMILES IDX 3 1 4 2 5 3 9 4 8 5 7 6 6 7 10 8 2 9 1 11
REMARK H PARENT 6 10 1 12
REMARK Flexibility Score: inf
ROOT
ATOM      1  C   UNL     1    -114.641 149.482  11.076  1.00  0.00     0.048 A 
ATOM      2  C   UNL     1    -114.206 148.174  11.359  1.00  0.00     0.030 A 
ATOM      3  C   UNL     1    -114.748 147.132  10.608  1.00  0.00     0.046 A 
ATOM      4  C   UNL     1    -115.673 147.359   9.624  1.00  0.00     0.003 A 
ATOM      5  C   UNL     1    -116.003 146.137   9.079  1.00  0.00     0.028 A 
ATOM      6  C   UNL     1    -115.240 145.209   9.781  1.00  0.00     0.083 A 
ATOM      7  N   UNL     1    -114.475 145.821  10.714  1.00  0.00    -0.361 N 
ATOM      8  C   UNL     1    -116.125 148.642   9.319  1.00  0.00     0.056 A 
ATOM      9  C   UNL     1    -115.596 149.719  10.061  1.00  0.00     0.116 A 
ATOM     10  H   UNL     1    -113.810 145.364  11.376  1.00  0.00     0.166 HD
ENDROOT
BRANCH   9  11
ATOM     11  O   UNL     1    -116.009 151.024   9.801  1.00  0.00    -0.508 OA
ATOM     12  H   UNL     1    -116.871 151.217   9.303  1.00  0.00     0.293 HD
ENDBRANCH   9  11
TORSDOF 1
ENDMDL
MODEL 8
REMARK VINA RESULT:    -3.060     11.792     12.474
REMARK INTER + INTRA:          -3.149
REMARK INTER:                  -3.149
REMARK INTRA:                   0.000
REMARK UNBOUND:                 0.000
REMARK SMILES Oc1ccc2[nH]ccc2c1
REMARK SMILES IDX 3 1 4 2 5 3 9 4 8 5 7 6 6 7 10 8 2 9 1 11
REMARK H PARENT 6 10 1 12
REMARK Flexibility Score: inf
ROOT
ATOM      1  C   UNL     1    -114.589 156.273   9.991  1.00  0.00     0.048 A 
ATOM      2  C   UNL     1    -114.693 156.226  11.393  1.00  0.00     0.030 A 
ATOM      3  C   UNL     1    -114.122 157.269  12.123  1.00  0.00     0.046 A 
ATOM      4  C   UNL     1    -113.481 158.311  11.508  1.00  0.00     0.003 A 
ATOM      5  C   UNL     1    -113.037 159.163  12.496  1.00  0.00     0.028 A 
ATOM      6  C   UNL     1    -113.444 158.576  13.690  1.00  0.00     0.083 A 
ATOM      7  N   UNL     1    -114.107 157.419  13.457  1.00  0.00    -0.361 N 
ATOM      8  C   UNL     1    -113.361 158.387  10.121  1.00  0.00     0.056 A 
ATOM      9  C   UNL     1    -113.927 157.347   9.353  1.00  0.00     0.116 A 
ATOM     10  H   UNL     1    -114.519 156.780  14.171  1.00  0.00     0.166 HD
ENDROOT
BRANCH   9  11
ATOM     11  O   UNL     1    -113.840 157.369   7.963  1.00  0.00    -0.508 OA
ATOM     12  H   UNL     1    -114.155 158.169   7.426  1.00  0.00     0.293 HD
ENDBRANCH   9  11
TORSDOF 1
ENDMDL
MODEL 9
REMARK VINA RESULT:    -3.003     11.764     12.583
REMARK INTER + INTRA:          -3.090
REMARK INTER:                  -3.090
REMARK INTRA:                   0.000
REMARK UNBOUND:                 0.000
REMARK SMILES Oc1ccc2[nH]ccc2c1
REMARK SMILES IDX 3 1 4 2 5 3 9 4 8 5 7 6 6 7 10 8 2 9 1 11
REMARK H PARENT 6 10 1 12
REMARK Flexibility Score: inf
ROOT
ATOM      1  C   UNL     1    -115.720 152.743  -3.746  1.00  0.00     0.048 A 
ATOM      2  C   UNL     1    -115.697 151.348  -3.563  1.00  0.00     0.030 A 
ATOM      3  C   UNL     1    -114.598 150.645  -4.054  1.00  0.00     0.046 A 
ATOM      4  C   UNL     1    -113.566 151.278  -4.695  1.00  0.00     0.003 A 
ATOM      5  C   UNL     1    -112.649 150.314  -5.051  1.00  0.00     0.028 A 
ATOM      6  C   UNL     1    -113.187 149.114  -4.596  1.00  0.00     0.083 A 
ATOM      7  N   UNL     1    -114.378 149.322  -3.987  1.00  0.00    -0.361 N 
ATOM      8  C   UNL     1    -113.558 152.658  -4.893  1.00  0.00     0.056 A 
ATOM      9  C   UNL     1    -114.657 153.399  -4.408  1.00  0.00     0.116 A 
ATOM     10  H   UNL     1    -114.994 148.599  -3.555  1.00  0.00     0.166 HD
ENDROOT
BRANCH   9  11
ATOM     11  O   UNL     1    -114.704 154.781  -4.575  1.00  0.00    -0.508 OA
ATOM     12  H   UNL     1    -115.478 155.230  -5.050  1.00  0.00     0.293 HD
ENDBRANCH   9  11
TORSDOF 1
ENDMDL
