MODEL 1
REMARK VINA RESULT:    -9.465      0.000      0.000
REMARK INTER + INTRA:         -17.111
REMARK INTER:                 -14.998
REMARK INTRA:                  -2.113
REMARK UNBOUND:                -2.113
REMARK SMILES C[C@H]1O[C@@H](O[C@@H]2[C@@H](Oc3cc(O)c4c(c3)O[C@@H](c3ccc(O)cc3)CC4=O)O[C@H](CO)[C@@H](O)[C@H]2O)[C@H](O)[C@H](O)[C@H]1O
REMARK SMILES IDX 6 1 34 2 32 3 29 4 28 5 7 6 5 7 4 8 1 9 2 10 40 11 3 12
REMARK SMILES IDX 38 13 36 14 41 15 39 17 37 19 35 21 8 23 9 24 10 25 15 26
REMARK SMILES IDX 11 27 14 28 13 29 16 30 26 31 17 32 27 33 25 34 12 35 18 37
REMARK SMILES IDX 19 38 24 39 20 40 23 41 21 42 22 43 33 45 30 47 31 48
REMARK H PARENT 41 16 39 18 37 20 35 22 12 36 22 44 33 46 31 49
REMARK Flexibility Score: inf
ROOT
ATOM      1  C   UNL     1       8.935  48.465  25.113  1.00  0.00     0.221 C 
ATOM      2  C   UNL     1       9.360  47.068  24.412  1.00  0.00     0.181 C 
ATOM      3  C   UNL     1       8.065  46.199  24.394  1.00  0.00     0.177 C 
ATOM      4  C   UNL     1       7.074  46.969  23.549  1.00  0.00     0.179 C 
ATOM      5  O   UNL     1       6.843  48.301  23.990  1.00  0.00    -0.332 OA
ATOM      6  C   UNL     1       7.953  49.090  24.058  1.00  0.00     0.339 C 
ENDROOT
BRANCH   1   7
ATOM      7  O   UNL     1       8.461  48.158  26.435  1.00  0.00    -0.337 OA
BRANCH   7   8
ATOM      8  C   UNL     1       7.500  48.934  27.149  1.00  0.00     0.282 C 
ATOM      9  C   UNL     1       7.323  49.941  30.660  1.00  0.00     0.041 C 
ATOM     10  C   UNL     1       7.078  50.213  29.165  1.00  0.00     0.150 C 
ATOM     11  C   UNL     1       5.626  49.989  28.744  1.00  0.00     0.174 C 
ATOM     12  O   UNL     1       8.025  49.445  28.421  1.00  0.00    -0.344 OA
ATOM     13  C   UNL     1       5.375  48.470  28.672  1.00  0.00     0.179 C 
ATOM     14  C   UNL     1       6.058  48.083  27.392  1.00  0.00     0.202 C 
BRANCH  11  15
ATOM     15  O   UNL     1       4.708  50.692  29.513  1.00  0.00    -0.388 OA
ATOM     16  H   UNL     1       4.893  50.380  30.474  1.00  0.00     0.211 HD
ENDBRANCH  11  15
BRANCH  13  17
ATOM     17  O   UNL     1       3.993  48.259  28.602  1.00  0.00    -0.387 OA
ATOM     18  H   UNL     1       3.788  48.072  27.623  1.00  0.00     0.211 HD
ENDBRANCH  13  17
BRANCH  14  19
ATOM     19  O   UNL     1       5.093  48.190  26.332  1.00  0.00    -0.385 OA
ATOM     20  H   UNL     1       4.732  47.280  26.100  1.00  0.00     0.211 HD
ENDBRANCH  14  19
ENDBRANCH   7   8
ENDBRANCH   1   7
BRANCH   2  21
ATOM     21  O   UNL     1       9.931  47.228  23.095  1.00  0.00    -0.387 OA
ATOM     22  H   UNL     1      10.956  47.284  23.102  1.00  0.00     0.211 HD
ENDBRANCH   2  21
BRANCH   6  23
ATOM     23  O   UNL     1       8.701  49.205  22.861  1.00  0.00    -0.462 OA
BRANCH  23  24
ATOM     24  C   UNL     1       8.200  49.655  21.592  1.00  0.00     0.130 A 
ATOM     25  C   UNL     1       7.613  50.905  21.441  1.00  0.00     0.093 A 
ATOM     26  C   UNL     1       8.404  48.864  20.414  1.00  0.00     0.094 A 
ATOM     27  C   UNL     1       7.177  51.389  20.220  1.00  0.00     0.133 A 
ATOM     28  C   UNL     1       7.779  49.241  19.249  1.00  0.00     0.138 A 
ATOM     29  C   UNL     1       7.122  50.447  19.152  1.00  0.00     0.102 A 
ATOM     30  O   UNL     1       7.871  48.355  18.111  1.00  0.00    -0.484 OA
ATOM     31  C   UNL     1       6.207  50.590  17.952  1.00  0.00     0.174 C 
ATOM     32  C   UNL     1       7.318  48.711  16.818  1.00  0.00     0.211 C 
ATOM     33  O   UNL     1       5.486  51.589  17.745  1.00  0.00    -0.294 OA
ATOM     34  C   UNL     1       5.987  49.395  17.087  1.00  0.00     0.131 C 
BRANCH  27  35
ATOM     35  O   UNL     1       6.928  52.718  20.044  1.00  0.00    -0.507 OA
ATOM     36  H   UNL     1       6.569  53.145  19.192  1.00  0.00     0.293 HD
ENDBRANCH  27  35
BRANCH  32  37
ATOM     37  C   UNL     1       7.134  47.426  15.996  1.00  0.00    -0.007 A 
ATOM     38  C   UNL     1       6.093  46.533  16.168  1.00  0.00     0.011 A 
ATOM     39  C   UNL     1       7.987  47.242  14.917  1.00  0.00     0.011 A 
ATOM     40  C   UNL     1       5.871  45.460  15.227  1.00  0.00     0.046 A 
ATOM     41  C   UNL     1       7.753  46.253  13.932  1.00  0.00     0.046 A 
ATOM     42  C   UNL     1       6.699  45.399  14.135  1.00  0.00     0.115 A 
BRANCH  42  43
ATOM     43  O   UNL     1       6.464  44.380  13.178  1.00  0.00    -0.508 OA
ATOM     44  H   UNL     1       6.774  44.431  12.224  1.00  0.00     0.293 HD
ENDBRANCH  42  43
ENDBRANCH  32  37
ENDBRANCH  23  24
ENDBRANCH   6  23
BRANCH   3  45
ATOM     45  O   UNL     1       8.401  45.000  23.796  1.00  0.00    -0.387 OA
ATOM     46  H   UNL     1       7.686  44.273  23.931  1.00  0.00     0.211 HD
ENDBRANCH   3  45
BRANCH   4  47
ATOM     47  C   UNL     1       5.688  46.306  23.503  1.00  0.00     0.191 C 
BRANCH  47  48
ATOM     48  O   UNL     1       5.400  45.600  24.695  1.00  0.00    -0.394 OA
ATOM     49  H   UNL     1       4.381  45.457  24.772  1.00  0.00     0.210 HD
ENDBRANCH  47  48
ENDBRANCH   4  47
TORSDOF 14
ENDMDL
MODEL 2
REMARK VINA RESULT:    -9.197      2.051     10.460
REMARK INTER + INTRA:         -16.686
REMARK INTER:                 -14.628
REMARK INTRA:                  -2.058
REMARK UNBOUND:                -2.113
REMARK SMILES C[C@H]1O[C@@H](O[C@@H]2[C@@H](Oc3cc(O)c4c(c3)O[C@@H](c3ccc(O)cc3)CC4=O)O[C@H](CO)[C@@H](O)[C@H]2O)[C@H](O)[C@H](O)[C@H]1O
REMARK SMILES IDX 6 1 34 2 32 3 29 4 28 5 7 6 5 7 4 8 1 9 2 10 40 11 3 12
REMARK SMILES IDX 38 13 36 14 41 15 39 17 37 19 35 21 8 23 9 24 10 25 15 26
REMARK SMILES IDX 11 27 14 28 13 29 16 30 26 31 17 32 27 33 25 34 12 35 18 37
REMARK SMILES IDX 19 38 24 39 20 40 23 41 21 42 22 43 33 45 30 47 31 48
REMARK H PARENT 41 16 39 18 37 20 35 22 12 36 22 44 33 46 31 49
REMARK Flexibility Score: inf
ROOT
ATOM      1  C   UNL     1       9.980  47.743  19.305  1.00  0.00     0.221 C 
ATOM      2  C   UNL     1      10.357  49.085  20.131  1.00  0.00     0.181 C 
ATOM      3  C   UNL     1       9.321  50.158  19.678  1.00  0.00     0.177 C 
ATOM      4  C   UNL     1       7.969  49.613  20.086  1.00  0.00     0.179 C 
ATOM      5  O   UNL     1       7.687  48.317  19.574  1.00  0.00    -0.332 OA
ATOM      6  C   UNL     1       8.586  47.350  19.912  1.00  0.00     0.339 C 
ENDROOT
BRANCH   1   7
ATOM      7  O   UNL     1      10.088  48.054  17.906  1.00  0.00    -0.337 OA
BRANCH   7   8
ATOM      8  C   UNL     1       9.512  47.274  16.858  1.00  0.00     0.282 C 
ATOM      9  C   UNL     1      10.665  46.543  13.466  1.00  0.00     0.041 C 
ATOM     10  C   UNL     1       9.939  46.136  14.761  1.00  0.00     0.150 C 
ATOM     11  C   UNL     1       8.418  46.226  14.651  1.00  0.00     0.174 C 
ATOM     12  O   UNL     1      10.492  46.904  15.831  1.00  0.00    -0.344 OA
ATOM     13  C   UNL     1       8.019  47.713  14.708  1.00  0.00     0.179 C 
ATOM     14  C   UNL     1       8.173  48.042  16.164  1.00  0.00     0.202 C 
BRANCH  11  15
ATOM     15  O   UNL     1       7.895  45.526  13.572  1.00  0.00    -0.388 OA
ATOM     16  H   UNL     1       8.589  44.791  13.389  1.00  0.00     0.211 HD
ENDBRANCH  11  15
BRANCH  13  17
ATOM     17  O   UNL     1       6.685  47.824  14.294  1.00  0.00    -0.387 OA
ATOM     18  H   UNL     1       6.517  47.030  13.680  1.00  0.00     0.211 HD
ENDBRANCH  13  17
BRANCH  14  19
ATOM     19  O   UNL     1       6.913  47.785  16.807  1.00  0.00    -0.385 OA
ATOM     20  H   UNL     1       6.748  46.794  16.860  1.00  0.00     0.211 HD
ENDBRANCH  14  19
ENDBRANCH   7   8
ENDBRANCH   1   7
BRANCH   2  21
ATOM     21  O   UNL     1      10.367  48.902  21.564  1.00  0.00    -0.387 OA
ATOM     22  H   UNL     1      11.297  48.683  21.939  1.00  0.00     0.211 HD
ENDBRANCH   2  21
BRANCH   6  23
ATOM     23  O   UNL     1       8.809  47.175  21.300  1.00  0.00    -0.462 OA
BRANCH  23  24
ATOM     24  C   UNL     1       7.857  46.671  22.251  1.00  0.00     0.130 A 
ATOM     25  C   UNL     1       7.264  45.424  22.099  1.00  0.00     0.093 A 
ATOM     26  C   UNL     1       7.585  47.400  23.454  1.00  0.00     0.094 A 
ATOM     27  C   UNL     1       6.392  44.887  23.030  1.00  0.00     0.133 A 
ATOM     28  C   UNL     1       6.560  46.975  24.267  1.00  0.00     0.138 A 
ATOM     29  C   UNL     1       5.923  45.777  24.040  1.00  0.00     0.102 A 
ATOM     30  O   UNL     1       6.198  47.804  25.395  1.00  0.00    -0.484 OA
ATOM     31  C   UNL     1       4.615  45.589  24.782  1.00  0.00     0.174 C 
ATOM     32  C   UNL     1       5.190  47.393  26.352  1.00  0.00     0.211 C 
ATOM     33  O   UNL     1       3.875  44.592  24.643  1.00  0.00    -0.294 OA
ATOM     34  C   UNL     1       4.070  46.743  25.555  1.00  0.00     0.131 C 
BRANCH  27  35
ATOM     35  O   UNL     1       6.102  43.555  23.027  1.00  0.00    -0.507 OA
ATOM     36  H   UNL     1       5.178  43.151  22.885  1.00  0.00     0.293 HD
ENDBRANCH  27  35
BRANCH  32  37
ATOM     37  C   UNL     1       4.695  48.638  27.104  1.00  0.00    -0.007 A 
ATOM     38  C   UNL     1       4.471  48.689  28.466  1.00  0.00     0.011 A 
ATOM     39  C   UNL     1       4.616  49.820  26.380  1.00  0.00     0.011 A 
ATOM     40  C   UNL     1       4.204  49.944  29.129  1.00  0.00     0.046 A 
ATOM     41  C   UNL     1       4.437  51.076  27.005  1.00  0.00     0.046 A 
ATOM     42  C   UNL     1       4.235  51.081  28.362  1.00  0.00     0.115 A 
BRANCH  42  43
ATOM     43  O   UNL     1       4.023  52.325  29.007  1.00  0.00    -0.508 OA
ATOM     44  H   UNL     1       4.619  52.685  29.730  1.00  0.00     0.293 HD
ENDBRANCH  42  43
ENDBRANCH  32  37
ENDBRANCH  23  24
ENDBRANCH   6  23
BRANCH   3  45
ATOM     45  O   UNL     1       9.619  51.314  20.373  1.00  0.00    -0.387 OA
ATOM     46  H   UNL     1      10.341  51.883  19.911  1.00  0.00     0.211 HD
ENDBRANCH   3  45
BRANCH   4  47
ATOM     47  C   UNL     1       6.804  50.501  19.622  1.00  0.00     0.191 C 
BRANCH  47  48
ATOM     48  O   UNL     1       6.921  51.824  20.110  1.00  0.00    -0.394 OA
ATOM     49  H   UNL     1       6.496  52.478  19.434  1.00  0.00     0.210 HD
ENDBRANCH  47  48
ENDBRANCH   4  47
TORSDOF 14
ENDMDL
MODEL 3
REMARK VINA RESULT:    -9.179      1.784      2.225
REMARK INTER + INTRA:         -16.658
REMARK INTER:                 -15.040
REMARK INTRA:                  -1.618
REMARK UNBOUND:                -2.113
REMARK SMILES C[C@H]1O[C@@H](O[C@@H]2[C@@H](Oc3cc(O)c4c(c3)O[C@@H](c3ccc(O)cc3)CC4=O)O[C@H](CO)[C@@H](O)[C@H]2O)[C@H](O)[C@H](O)[C@H]1O
REMARK SMILES IDX 6 1 34 2 32 3 29 4 28 5 7 6 5 7 4 8 1 9 2 10 40 11 3 12
REMARK SMILES IDX 38 13 36 14 41 15 39 17 37 19 35 21 8 23 9 24 10 25 15 26
REMARK SMILES IDX 11 27 14 28 13 29 16 30 26 31 17 32 27 33 25 34 12 35 18 37
REMARK SMILES IDX 19 38 24 39 20 40 23 41 21 42 22 43 33 45 30 47 31 48
REMARK H PARENT 41 16 39 18 37 20 35 22 12 36 22 44 33 46 31 49
REMARK Flexibility Score: inf
ROOT
ATOM      1  C   UNL     1       8.744  48.241  24.482  1.00  0.00     0.221 C 
ATOM      2  C   UNL     1       9.286  46.830  23.896  1.00  0.00     0.181 C 
ATOM      3  C   UNL     1       8.069  45.857  23.961  1.00  0.00     0.177 C 
ATOM      4  C   UNL     1       7.016  46.467  23.061  1.00  0.00     0.179 C 
ATOM      5  O   UNL     1       6.674  47.808  23.392  1.00  0.00    -0.332 OA
ATOM      6  C   UNL     1       7.713  48.690  23.386  1.00  0.00     0.339 C 
ENDROOT
BRANCH   1   7
ATOM      7  O   UNL     1       8.299  48.006  25.828  1.00  0.00    -0.337 OA
BRANCH   7   8
ATOM      8  C   UNL     1       7.415  48.865  26.548  1.00  0.00     0.282 C 
ATOM      9  C   UNL     1       7.359  49.896  30.056  1.00  0.00     0.041 C 
ATOM     10  C   UNL     1       7.125  50.182  28.562  1.00  0.00     0.150 C 
ATOM     11  C   UNL     1       5.655  50.083  28.155  1.00  0.00     0.174 C 
ATOM     12  O   UNL     1       7.995  49.333  27.813  1.00  0.00    -0.344 OA
ATOM     13  C   UNL     1       5.273  48.592  28.091  1.00  0.00     0.179 C 
ATOM     14  C   UNL     1       5.907  48.143  26.807  1.00  0.00     0.202 C 
BRANCH  11  15
ATOM     15  O   UNL     1       4.808  50.867  28.929  1.00  0.00    -0.388 OA
ATOM     16  H   UNL     1       4.976  51.823  28.595  1.00  0.00     0.211 HD
ENDBRANCH  11  15
BRANCH  13  17
ATOM     17  O   UNL     1       3.876  48.501  28.034  1.00  0.00    -0.387 OA
ATOM     18  H   UNL     1       3.656  47.516  28.158  1.00  0.00     0.211 HD
ENDBRANCH  13  17
BRANCH  14  19
ATOM     19  O   UNL     1       4.945  48.329  25.755  1.00  0.00    -0.385 OA
ATOM     20  H   UNL     1       4.174  47.695  25.875  1.00  0.00     0.211 HD
ENDBRANCH  14  19
ENDBRANCH   7   8
ENDBRANCH   1   7
BRANCH   2  21
ATOM     21  O   UNL     1       9.841  46.928  22.566  1.00  0.00    -0.387 OA
ATOM     22  H   UNL     1      10.498  47.708  22.457  1.00  0.00     0.211 HD
ENDBRANCH   2  21
BRANCH   6  23
ATOM     23  O   UNL     1       8.448  48.767  22.177  1.00  0.00    -0.462 OA
BRANCH  23  24
ATOM     24  C   UNL     1       7.893  48.869  20.857  1.00  0.00     0.130 A 
ATOM     25  C   UNL     1       6.574  49.253  20.647  1.00  0.00     0.093 A 
ATOM     26  C   UNL     1       8.729  48.691  19.707  1.00  0.00     0.094 A 
ATOM     27  C   UNL     1       6.030  49.418  19.385  1.00  0.00     0.133 A 
ATOM     28  C   UNL     1       8.142  48.638  18.464  1.00  0.00     0.138 A 
ATOM     29  C   UNL     1       6.809  48.932  18.295  1.00  0.00     0.102 A 
ATOM     30  O   UNL     1       8.977  48.307  17.332  1.00  0.00    -0.484 OA
ATOM     31  C   UNL     1       6.218  48.516  16.963  1.00  0.00     0.174 C 
ATOM     32  C   UNL     1       8.463  48.314  15.976  1.00  0.00     0.211 C 
ATOM     33  O   UNL     1       5.011  48.645  16.667  1.00  0.00    -0.294 OA
ATOM     34  C   UNL     1       7.067  47.712  16.036  1.00  0.00     0.131 C 
BRANCH  27  35
ATOM     35  O   UNL     1       4.869  50.111  19.211  1.00  0.00    -0.507 OA
ATOM     36  H   UNL     1       4.273  50.069  18.386  1.00  0.00     0.293 HD
ENDBRANCH  27  35
BRANCH  32  37
ATOM     37  C   UNL     1       9.400  47.473  15.094  1.00  0.00    -0.007 A 
ATOM     38  C   UNL     1       9.423  47.521  13.714  1.00  0.00     0.011 A 
ATOM     39  C   UNL     1      10.381  46.737  15.744  1.00  0.00     0.011 A 
ATOM     40  C   UNL     1      10.464  46.860  12.965  1.00  0.00     0.046 A 
ATOM     41  C   UNL     1      11.461  46.144  15.048  1.00  0.00     0.046 A 
ATOM     42  C   UNL     1      11.452  46.231  13.679  1.00  0.00     0.115 A 
BRANCH  42  43
ATOM     43  O   UNL     1      12.507  45.617  12.958  1.00  0.00    -0.508 OA
ATOM     44  H   UNL     1      12.924  46.015  12.136  1.00  0.00     0.293 HD
ENDBRANCH  42  43
ENDBRANCH  32  37
ENDBRANCH  23  24
ENDBRANCH   6  23
BRANCH   3  45
ATOM     45  O   UNL     1       8.505  44.645  23.462  1.00  0.00    -0.387 OA
ATOM     46  H   UNL     1       9.306  44.741  22.823  1.00  0.00     0.211 HD
ENDBRANCH   3  45
BRANCH   4  47
ATOM     47  C   UNL     1       5.691  45.688  23.082  1.00  0.00     0.191 C 
BRANCH  47  48
ATOM     48  O   UNL     1       5.866  44.339  22.695  1.00  0.00    -0.394 OA
ATOM     49  H   UNL     1       6.595  44.282  21.967  1.00  0.00     0.210 HD
ENDBRANCH  47  48
ENDBRANCH   4  47
TORSDOF 14
ENDMDL
MODEL 4
REMARK VINA RESULT:    -8.700      1.037      1.721
REMARK INTER + INTRA:         -15.899
REMARK INTER:                 -14.452
REMARK INTRA:                  -1.447
REMARK UNBOUND:                -2.113
REMARK SMILES C[C@H]1O[C@@H](O[C@@H]2[C@@H](Oc3cc(O)c4c(c3)O[C@@H](c3ccc(O)cc3)CC4=O)O[C@H](CO)[C@@H](O)[C@H]2O)[C@H](O)[C@H](O)[C@H]1O
REMARK SMILES IDX 6 1 34 2 32 3 29 4 28 5 7 6 5 7 4 8 1 9 2 10 40 11 3 12
REMARK SMILES IDX 38 13 36 14 41 15 39 17 37 19 35 21 8 23 9 24 10 25 15 26
REMARK SMILES IDX 11 27 14 28 13 29 16 30 26 31 17 32 27 33 25 34 12 35 18 37
REMARK SMILES IDX 19 38 24 39 20 40 23 41 21 42 22 43 33 45 30 47 31 48
REMARK H PARENT 41 16 39 18 37 20 35 22 12 36 22 44 33 46 31 49
REMARK Flexibility Score: inf
ROOT
ATOM      1  C   UNL     1       7.095  48.263  25.326  1.00  0.00     0.221 C 
ATOM      2  C   UNL     1       8.342  47.252  25.102  1.00  0.00     0.181 C 
ATOM      3  C   UNL     1       7.706  45.894  24.675  1.00  0.00     0.177 C 
ATOM      4  C   UNL     1       6.978  46.177  23.379  1.00  0.00     0.179 C 
ATOM      5  O   UNL     1       6.029  47.233  23.464  1.00  0.00    -0.332 OA
ATOM      6  C   UNL     1       6.530  48.434  23.870  1.00  0.00     0.339 C 
ENDROOT
BRANCH   1   7
ATOM      7  O   UNL     1       6.263  47.699  26.353  1.00  0.00    -0.337 OA
BRANCH   7   8
ATOM      8  C   UNL     1       6.228  48.155  27.705  1.00  0.00     0.282 C 
ATOM      9  C   UNL     1       4.146  50.662  29.365  1.00  0.00     0.041 C 
ATOM     10  C   UNL     1       4.921  49.332  29.374  1.00  0.00     0.150 C 
ATOM     11  C   UNL     1       6.285  49.435  30.055  1.00  0.00     0.174 C 
ATOM     12  O   UNL     1       4.977  48.850  28.030  1.00  0.00    -0.344 OA
ATOM     13  C   UNL     1       7.245  50.171  29.101  1.00  0.00     0.179 C 
ATOM     14  C   UNL     1       7.567  49.119  28.079  1.00  0.00     0.202 C 
BRANCH  11  15
ATOM     15  O   UNL     1       6.228  49.962  31.339  1.00  0.00    -0.388 OA
ATOM     16  H   UNL     1       5.609  49.318  31.847  1.00  0.00     0.211 HD
ENDBRANCH  11  15
BRANCH  13  17
ATOM     17  O   UNL     1       8.382  50.547  29.828  1.00  0.00    -0.387 OA
ATOM     18  H   UNL     1       8.056  50.742  30.772  1.00  0.00     0.211 HD
ENDBRANCH  13  17
BRANCH  14  19
ATOM     19  O   UNL     1       8.730  48.407  28.537  1.00  0.00    -0.385 OA
ATOM     20  H   UNL     1       8.506  47.438  28.686  1.00  0.00     0.211 HD
ENDBRANCH  14  19
ENDBRANCH   7   8
ENDBRANCH   1   7
BRANCH   2  21
ATOM     21  O   UNL     1       9.312  47.729  24.143  1.00  0.00    -0.387 OA
ATOM     22  H   UNL     1       9.084  47.477  23.175  1.00  0.00     0.211 HD
ENDBRANCH   2  21
BRANCH   6  23
ATOM     23  O   UNL     1       7.605  48.944  23.100  1.00  0.00    -0.462 OA
BRANCH  23  24
ATOM     24  C   UNL     1       7.519  49.438  21.754  1.00  0.00     0.130 A 
ATOM     25  C   UNL     1       7.273  50.778  21.483  1.00  0.00     0.093 A 
ATOM     26  C   UNL     1       7.808  48.573  20.648  1.00  0.00     0.094 A 
ATOM     27  C   UNL     1       7.246  51.294  20.199  1.00  0.00     0.133 A 
ATOM     28  C   UNL     1       7.566  49.028  19.373  1.00  0.00     0.138 A 
ATOM     29  C   UNL     1       7.231  50.342  19.138  1.00  0.00     0.102 A 
ATOM     30  O   UNL     1       7.718  48.096  18.279  1.00  0.00    -0.484 OA
ATOM     31  C   UNL     1       6.670  50.630  17.761  1.00  0.00     0.174 C 
ATOM     32  C   UNL     1       7.569  48.509  16.897  1.00  0.00     0.211 C 
ATOM     33  O   UNL     1       6.254  51.751  17.401  1.00  0.00    -0.294 OA
ATOM     34  C   UNL     1       6.396  49.476  16.856  1.00  0.00     0.131 C 
BRANCH  27  35
ATOM     35  O   UNL     1       7.344  52.636  19.984  1.00  0.00    -0.507 OA
ATOM     36  H   UNL     1       8.012  53.260  20.433  1.00  0.00     0.293 HD
ENDBRANCH  27  35
BRANCH  32  37
ATOM     37  C   UNL     1       7.299  47.261  16.041  1.00  0.00    -0.007 A 
ATOM     38  C   UNL     1       6.180  46.459  16.163  1.00  0.00     0.011 A 
ATOM     39  C   UNL     1       8.166  47.025  14.984  1.00  0.00     0.011 A 
ATOM     40  C   UNL     1       5.895  45.429  15.193  1.00  0.00     0.046 A 
ATOM     41  C   UNL     1       7.878  46.079  13.971  1.00  0.00     0.046 A 
ATOM     42  C   UNL     1       6.748  45.317  14.124  1.00  0.00     0.115 A 
BRANCH  42  43
ATOM     43  O   UNL     1       6.455  44.342  13.138  1.00  0.00    -0.508 OA
ATOM     44  H   UNL     1       6.262  44.563  12.178  1.00  0.00     0.293 HD
ENDBRANCH  42  43
ENDBRANCH  32  37
ENDBRANCH  23  24
ENDBRANCH   6  23
BRANCH   3  45
ATOM     45  O   UNL     1       8.752  45.013  24.474  1.00  0.00    -0.387 OA
ATOM     46  H   UNL     1       8.760  44.242  25.155  1.00  0.00     0.211 HD
ENDBRANCH   3  45
BRANCH   4  47
ATOM     47  C   UNL     1       6.195  44.962  22.857  1.00  0.00     0.191 C 
BRANCH  47  48
ATOM     48  O   UNL     1       4.803  45.100  23.066  1.00  0.00    -0.394 OA
ATOM     49  H   UNL     1       4.335  44.204  22.859  1.00  0.00     0.210 HD
ENDBRANCH  47  48
ENDBRANCH   4  47
TORSDOF 14
ENDMDL
MODEL 5
REMARK VINA RESULT:    -7.945      2.064     10.487
REMARK INTER + INTRA:         -14.703
REMARK INTER:                 -13.015
REMARK INTRA:                  -1.688
REMARK UNBOUND:                -2.113
REMARK SMILES C[C@H]1O[C@@H](O[C@@H]2[C@@H](Oc3cc(O)c4c(c3)O[C@@H](c3ccc(O)cc3)CC4=O)O[C@H](CO)[C@@H](O)[C@H]2O)[C@H](O)[C@H](O)[C@H]1O
REMARK SMILES IDX 6 1 34 2 32 3 29 4 28 5 7 6 5 7 4 8 1 9 2 10 40 11 3 12
REMARK SMILES IDX 38 13 36 14 41 15 39 17 37 19 35 21 8 23 9 24 10 25 15 26
REMARK SMILES IDX 11 27 14 28 13 29 16 30 26 31 17 32 27 33 25 34 12 35 18 37
REMARK SMILES IDX 19 38 24 39 20 40 23 41 21 42 22 43 33 45 30 47 31 48
REMARK H PARENT 41 16 39 18 37 20 35 22 12 36 22 44 33 46 31 49
REMARK Flexibility Score: inf
ROOT
ATOM      1  C   UNL     1       9.025  48.366  18.764  1.00  0.00     0.221 C 
ATOM      2  C   UNL     1       9.797  49.388  19.756  1.00  0.00     0.181 C 
ATOM      3  C   UNL     1       8.855  50.622  19.898  1.00  0.00     0.177 C 
ATOM      4  C   UNL     1       7.584  50.091  20.524  1.00  0.00     0.179 C 
ATOM      5  O   UNL     1       6.988  49.017  19.808  1.00  0.00    -0.332 OA
ATOM      6  C   UNL     1       7.786  47.927  19.625  1.00  0.00     0.339 C 
ENDROOT
BRANCH   1   7
ATOM      7  O   UNL     1       8.822  49.048  17.515  1.00  0.00    -0.337 OA
BRANCH   7   8
ATOM      8  C   UNL     1       8.491  48.402  16.287  1.00  0.00     0.282 C 
ATOM      9  C   UNL     1       5.841  46.032  15.430  1.00  0.00     0.041 C 
ATOM     10  C   UNL     1       6.770  47.205  15.069  1.00  0.00     0.150 C 
ATOM     11  C   UNL     1       7.967  46.784  14.219  1.00  0.00     0.174 C 
ATOM     12  O   UNL     1       7.123  47.872  16.283  1.00  0.00    -0.344 OA
ATOM     13  C   UNL     1       8.975  46.061  15.133  1.00  0.00     0.179 C 
ATOM     14  C   UNL     1       9.606  47.192  15.891  1.00  0.00     0.202 C 
BRANCH  11  15
ATOM     15  O   UNL     1       7.617  46.083  13.072  1.00  0.00    -0.388 OA
ATOM     16  H   UNL     1       8.439  46.173  12.463  1.00  0.00     0.211 HD
ENDBRANCH  11  15
BRANCH  13  17
ATOM     17  O   UNL     1       9.907  45.403  14.320  1.00  0.00    -0.387 OA
ATOM     18  H   UNL     1       9.370  44.758  13.746  1.00  0.00     0.211 HD
ENDBRANCH  13  17
BRANCH  14  19
ATOM     19  O   UNL     1      10.754  47.632  15.145  1.00  0.00    -0.385 OA
ATOM     20  H   UNL     1      11.595  47.452  15.666  1.00  0.00     0.211 HD
ENDBRANCH  14  19
ENDBRANCH   7   8
ENDBRANCH   1   7
BRANCH   2  21
ATOM     21  O   UNL     1      10.140  48.809  21.035  1.00  0.00    -0.387 OA
ATOM     22  H   UNL     1       9.833  47.835  21.135  1.00  0.00     0.211 HD
ENDBRANCH   2  21
BRANCH   6  23
ATOM     23  O   UNL     1       8.323  47.353  20.803  1.00  0.00    -0.462 OA
BRANCH  23  24
ATOM     24  C   UNL     1       7.568  46.779  21.882  1.00  0.00     0.130 A 
ATOM     25  C   UNL     1       7.141  45.457  21.851  1.00  0.00     0.093 A 
ATOM     26  C   UNL     1       7.339  47.528  23.081  1.00  0.00     0.094 A 
ATOM     27  C   UNL     1       6.466  44.860  22.902  1.00  0.00     0.133 A 
ATOM     28  C   UNL     1       6.484  47.015  24.029  1.00  0.00     0.138 A 
ATOM     29  C   UNL     1       5.999  45.732  23.927  1.00  0.00     0.102 A 
ATOM     30  O   UNL     1       6.145  47.848  25.160  1.00  0.00    -0.484 OA
ATOM     31  C   UNL     1       4.826  45.411  24.831  1.00  0.00     0.174 C 
ATOM     32  C   UNL     1       5.322  47.359  26.249  1.00  0.00     0.211 C 
ATOM     33  O   UNL     1       4.220  44.318  24.821  1.00  0.00    -0.294 OA
ATOM     34  C   UNL     1       4.219  46.522  25.620  1.00  0.00     0.131 C 
BRANCH  27  35
ATOM     35  O   UNL     1       6.367  43.502  22.986  1.00  0.00    -0.507 OA
ATOM     36  H   UNL     1       6.892  42.835  22.424  1.00  0.00     0.293 HD
ENDBRANCH  27  35
BRANCH  32  37
ATOM     37  C   UNL     1       4.748  48.566  27.008  1.00  0.00    -0.007 A 
ATOM     38  C   UNL     1       4.380  48.546  28.340  1.00  0.00     0.011 A 
ATOM     39  C   UNL     1       4.747  49.784  26.343  1.00  0.00     0.011 A 
ATOM     40  C   UNL     1       4.043  49.765  29.035  1.00  0.00     0.046 A 
ATOM     41  C   UNL     1       4.502  51.006  27.011  1.00  0.00     0.046 A 
ATOM     42  C   UNL     1       4.156  50.941  28.337  1.00  0.00     0.115 A 
BRANCH  42  43
ATOM     43  O   UNL     1       3.875  52.151  29.020  1.00  0.00    -0.508 OA
ATOM     44  H   UNL     1       3.398  52.928  28.601  1.00  0.00     0.293 HD
ENDBRANCH  42  43
ENDBRANCH  32  37
ENDBRANCH  23  24
ENDBRANCH   6  23
BRANCH   3  45
ATOM     45  O   UNL     1       9.492  51.510  20.745  1.00  0.00    -0.387 OA
ATOM     46  H   UNL     1       9.741  52.394  20.282  1.00  0.00     0.211 HD
ENDBRANCH   3  45
BRANCH   4  47
ATOM     47  C   UNL     1       6.488  51.162  20.647  1.00  0.00     0.191 C 
BRANCH  47  48
ATOM     48  O   UNL     1       6.847  52.363  19.992  1.00  0.00    -0.394 OA
ATOM     49  H   UNL     1       7.757  52.239  19.521  1.00  0.00     0.210 HD
ENDBRANCH  47  48
ENDBRANCH   4  47
TORSDOF 14
ENDMDL
MODEL 6
REMARK VINA RESULT:    -7.935      1.950      2.745
REMARK INTER + INTRA:         -14.686
REMARK INTER:                 -14.678
REMARK INTRA:                  -0.008
REMARK UNBOUND:                -2.113
REMARK SMILES C[C@H]1O[C@@H](O[C@@H]2[C@@H](Oc3cc(O)c4c(c3)O[C@@H](c3ccc(O)cc3)CC4=O)O[C@H](CO)[C@@H](O)[C@H]2O)[C@H](O)[C@H](O)[C@H]1O
REMARK SMILES IDX 6 1 34 2 32 3 29 4 28 5 7 6 5 7 4 8 1 9 2 10 40 11 3 12
REMARK SMILES IDX 38 13 36 14 41 15 39 17 37 19 35 21 8 23 9 24 10 25 15 26
REMARK SMILES IDX 11 27 14 28 13 29 16 30 26 31 17 32 27 33 25 34 12 35 18 37
REMARK SMILES IDX 19 38 24 39 20 40 23 41 21 42 22 43 33 45 30 47 31 48
REMARK H PARENT 41 16 39 18 37 20 35 22 12 36 22 44 33 46 31 49
REMARK Flexibility Score: inf
ROOT
ATOM      1  C   UNL     1       8.301  49.528  24.176  1.00  0.00     0.221 C 
ATOM      2  C   UNL     1       9.132  48.153  24.382  1.00  0.00     0.181 C 
ATOM      3  C   UNL     1       8.159  47.185  25.121  1.00  0.00     0.177 C 
ATOM      4  C   UNL     1       6.988  46.993  24.182  1.00  0.00     0.179 C 
ATOM      5  O   UNL     1       6.364  48.205  23.775  1.00  0.00    -0.332 OA
ATOM      6  C   UNL     1       7.184  49.101  23.157  1.00  0.00     0.339 C 
ENDROOT
BRANCH   1   7
ATOM      7  O   UNL     1       7.932  50.009  25.479  1.00  0.00    -0.337 OA
BRANCH   7   8
ATOM      8  C   UNL     1       7.154  49.273  26.422  1.00  0.00     0.282 C 
ATOM      9  C   UNL     1       3.875  49.931  27.900  1.00  0.00     0.041 C 
ATOM     10  C   UNL     1       4.942  48.961  27.363  1.00  0.00     0.150 C 
ATOM     11  C   UNL     1       5.745  48.278  28.469  1.00  0.00     0.174 C 
ATOM     12  O   UNL     1       5.742  49.672  26.416  1.00  0.00    -0.344 OA
ATOM     13  C   UNL     1       6.741  49.303  29.044  1.00  0.00     0.179 C 
ATOM     14  C   UNL     1       7.801  49.366  27.983  1.00  0.00     0.202 C 
BRANCH  11  15
ATOM     15  O   UNL     1       4.956  47.641  29.418  1.00  0.00    -0.388 OA
ATOM     16  H   UNL     1       5.621  47.073  29.957  1.00  0.00     0.211 HD
ENDBRANCH  11  15
BRANCH  13  17
ATOM     17  O   UNL     1       7.247  48.795  30.247  1.00  0.00    -0.387 OA
ATOM     18  H   UNL     1       6.977  47.814  30.270  1.00  0.00     0.211 HD
ENDBRANCH  13  17
BRANCH  14  19
ATOM     19  O   UNL     1       8.795  48.377  28.299  1.00  0.00    -0.385 OA
ATOM     20  H   UNL     1       8.478  47.465  28.015  1.00  0.00     0.211 HD
ENDBRANCH  14  19
ENDBRANCH   7   8
ENDBRANCH   1   7
BRANCH   2  21
ATOM     21  O   UNL     1       9.638  47.590  23.152  1.00  0.00    -0.387 OA
ATOM     22  H   UNL     1      10.386  48.149  22.726  1.00  0.00     0.211 HD
ENDBRANCH   2  21
BRANCH   6  23
ATOM     23  O   UNL     1       7.871  48.621  22.015  1.00  0.00    -0.462 OA
BRANCH  23  24
ATOM     24  C   UNL     1       7.440  48.757  20.652  1.00  0.00     0.130 A 
ATOM     25  C   UNL     1       6.164  49.202  20.331  1.00  0.00     0.093 A 
ATOM     26  C   UNL     1       8.366  48.549  19.578  1.00  0.00     0.094 A 
ATOM     27  C   UNL     1       5.742  49.402  19.028  1.00  0.00     0.133 A 
ATOM     28  C   UNL     1       7.890  48.532  18.288  1.00  0.00     0.138 A 
ATOM     29  C   UNL     1       6.592  48.888  18.005  1.00  0.00     0.102 A 
ATOM     30  O   UNL     1       8.806  48.171  17.230  1.00  0.00    -0.484 OA
ATOM     31  C   UNL     1       6.104  48.508  16.621  1.00  0.00     0.174 C 
ATOM     32  C   UNL     1       8.415  48.211  15.834  1.00  0.00     0.211 C 
ATOM     33  O   UNL     1       4.935  48.695  16.222  1.00  0.00    -0.294 OA
ATOM     34  C   UNL     1       6.994  47.673  15.764  1.00  0.00     0.131 C 
BRANCH  27  35
ATOM     35  O   UNL     1       4.633  50.148  18.760  1.00  0.00    -0.507 OA
ATOM     36  H   UNL     1       4.199  50.813  19.398  1.00  0.00     0.293 HD
ENDBRANCH  27  35
BRANCH  32  37
ATOM     37  C   UNL     1       9.388  47.334  15.030  1.00  0.00    -0.007 A 
ATOM     38  C   UNL     1       9.305  47.127  13.666  1.00  0.00     0.011 A 
ATOM     39  C   UNL     1      10.501  46.850  15.703  1.00  0.00     0.011 A 
ATOM     40  C   UNL     1      10.367  46.462  12.950  1.00  0.00     0.046 A 
ATOM     41  C   UNL     1      11.596  46.266  15.023  1.00  0.00     0.046 A 
ATOM     42  C   UNL     1      11.478  46.095  13.667  1.00  0.00     0.115 A 
BRANCH  42  43
ATOM     43  O   UNL     1      12.549  45.483  12.969  1.00  0.00    -0.508 OA
ATOM     44  H   UNL     1      12.490  44.575  12.546  1.00  0.00     0.293 HD
ENDBRANCH  42  43
ENDBRANCH  32  37
ENDBRANCH  23  24
ENDBRANCH   6  23
BRANCH   3  45
ATOM     45  O   UNL     1       8.845  46.000  25.306  1.00  0.00    -0.387 OA
ATOM     46  H   UNL     1       8.613  45.290  24.598  1.00  0.00     0.211 HD
ENDBRANCH   3  45
BRANCH   4  47
ATOM     47  C   UNL     1       5.866  46.139  24.794  1.00  0.00     0.191 C 
BRANCH  47  48
ATOM     48  O   UNL     1       6.023  45.982  26.191  1.00  0.00    -0.394 OA
ATOM     49  H   UNL     1       5.380  46.622  26.682  1.00  0.00     0.210 HD
ENDBRANCH  47  48
ENDBRANCH   4  47
TORSDOF 14
ENDMDL
MODEL 7
REMARK VINA RESULT:    -7.797      2.058     10.793
REMARK INTER + INTRA:         -14.468
REMARK INTER:                 -12.451
REMARK INTRA:                  -2.017
REMARK UNBOUND:                -2.113
REMARK SMILES C[C@H]1O[C@@H](O[C@@H]2[C@@H](Oc3cc(O)c4c(c3)O[C@@H](c3ccc(O)cc3)CC4=O)O[C@H](CO)[C@@H](O)[C@H]2O)[C@H](O)[C@H](O)[C@H]1O
REMARK SMILES IDX 6 1 34 2 32 3 29 4 28 5 7 6 5 7 4 8 1 9 2 10 40 11 3 12
REMARK SMILES IDX 38 13 36 14 41 15 39 17 37 19 35 21 8 23 9 24 10 25 15 26
REMARK SMILES IDX 11 27 14 28 13 29 16 30 26 31 17 32 27 33 25 34 12 35 18 37
REMARK SMILES IDX 19 38 24 39 20 40 23 41 21 42 22 43 33 45 30 47 31 48
REMARK H PARENT 41 16 39 18 37 20 35 22 12 36 22 44 33 46 31 49
REMARK Flexibility Score: inf
ROOT
ATOM      1  C   UNL     1       8.182  49.762  19.437  1.00  0.00     0.221 C 
ATOM      2  C   UNL     1       7.922  51.335  19.725  1.00  0.00     0.181 C 
ATOM      3  C   UNL     1       6.745  51.742  18.787  1.00  0.00     0.177 C 
ATOM      4  C   UNL     1       5.569  50.893  19.221  1.00  0.00     0.179 C 
ATOM      5  O   UNL     1       5.828  49.495  19.215  1.00  0.00    -0.332 OA
ATOM      6  C   UNL     1       6.873  49.094  19.993  1.00  0.00     0.339 C 
ENDROOT
BRANCH   1   7
ATOM      7  O   UNL     1       8.517  49.628  18.046  1.00  0.00    -0.337 OA
BRANCH   7   8
ATOM      8  C   UNL     1       8.341  48.434  17.284  1.00  0.00     0.282 C 
ATOM      9  C   UNL     1      10.443  46.842  14.750  1.00  0.00     0.041 C 
ATOM     10  C   UNL     1       9.449  46.762  15.923  1.00  0.00     0.150 C 
ATOM     11  C   UNL     1       8.014  46.488  15.475  1.00  0.00     0.174 C 
ATOM     12  O   UNL     1       9.598  47.948  16.704  1.00  0.00    -0.344 OA
ATOM     13  C   UNL     1       7.441  47.785  14.872  1.00  0.00     0.179 C 
ATOM     14  C   UNL     1       7.158  48.618  16.088  1.00  0.00     0.202 C 
BRANCH  11  15
ATOM     15  O   UNL     1       7.887  45.367  14.665  1.00  0.00    -0.388 OA
ATOM     16  H   UNL     1       8.542  44.688  15.071  1.00  0.00     0.211 HD
ENDBRANCH  11  15
BRANCH  13  17
ATOM     17  O   UNL     1       6.266  47.465  14.182  1.00  0.00    -0.387 OA
ATOM     18  H   UNL     1       6.448  46.580  13.715  1.00  0.00     0.211 HD
ENDBRANCH  13  17
BRANCH  14  19
ATOM     19  O   UNL     1       5.811  48.339  16.505  1.00  0.00    -0.385 OA
ATOM     20  H   UNL     1       5.157  48.779  15.881  1.00  0.00     0.211 HD
ENDBRANCH  14  19
ENDBRANCH   7   8
ENDBRANCH   1   7
BRANCH   2  21
ATOM     21  O   UNL     1       7.647  51.635  21.111  1.00  0.00    -0.387 OA
ATOM     22  H   UNL     1       6.645  51.651  21.332  1.00  0.00     0.211 HD
ENDBRANCH   2  21
BRANCH   6  23
ATOM     23  O   UNL     1       6.803  49.466  21.358  1.00  0.00    -0.462 OA
BRANCH  23  24
ATOM     24  C   UNL     1       6.475  48.598  22.454  1.00  0.00     0.130 A 
ATOM     25  C   UNL     1       5.736  47.436  22.268  1.00  0.00     0.093 A 
ATOM     26  C   UNL     1       7.009  48.850  23.759  1.00  0.00     0.094 A 
ATOM     27  C   UNL     1       5.458  46.549  23.293  1.00  0.00     0.133 A 
ATOM     28  C   UNL     1       6.554  48.097  24.816  1.00  0.00     0.138 A 
ATOM     29  C   UNL     1       5.745  47.003  24.614  1.00  0.00     0.102 A 
ATOM     30  O   UNL     1       6.987  48.462  26.146  1.00  0.00    -0.484 OA
ATOM     31  C   UNL     1       5.050  46.474  25.852  1.00  0.00     0.174 C 
ATOM     32  C   UNL     1       6.628  47.673  27.309  1.00  0.00     0.211 C 
ATOM     33  O   UNL     1       4.231  45.531  25.839  1.00  0.00    -0.294 OA
ATOM     34  C   UNL     1       5.179  47.250  27.119  1.00  0.00     0.131 C 
BRANCH  27  35
ATOM     35  O   UNL     1       5.040  45.279  23.024  1.00  0.00    -0.507 OA
ATOM     36  H   UNL     1       4.357  44.754  23.566  1.00  0.00     0.293 HD
ENDBRANCH  27  35
BRANCH  32  37
ATOM     37  C   UNL     1       6.798  48.547  28.562  1.00  0.00    -0.007 A 
ATOM     38  C   UNL     1       6.083  48.379  29.733  1.00  0.00     0.011 A 
ATOM     39  C   UNL     1       7.844  49.459  28.555  1.00  0.00     0.011 A 
ATOM     40  C   UNL     1       6.439  49.101  30.931  1.00  0.00     0.046 A 
ATOM     41  C   UNL     1       8.271  50.123  29.729  1.00  0.00     0.046 A 
ATOM     42  C   UNL     1       7.542  49.914  30.872  1.00  0.00     0.115 A 
BRANCH  42  43
ATOM     43  O   UNL     1       7.933  50.593  32.054  1.00  0.00    -0.508 OA
ATOM     44  H   UNL     1       8.696  51.244  32.094  1.00  0.00     0.293 HD
ENDBRANCH  42  43
ENDBRANCH  32  37
ENDBRANCH  23  24
ENDBRANCH   6  23
BRANCH   3  45
ATOM     45  O   UNL     1       6.501  53.082  19.016  1.00  0.00    -0.387 OA
ATOM     46  H   UNL     1       6.780  53.679  18.226  1.00  0.00     0.211 HD
ENDBRANCH   3  45
BRANCH   4  47
ATOM     47  C   UNL     1       4.332  51.087  18.330  1.00  0.00     0.191 C 
BRANCH  47  48
ATOM     48  O   UNL     1       3.883  49.865  17.777  1.00  0.00    -0.394 OA
ATOM     49  H   UNL     1       2.893  49.718  18.030  1.00  0.00     0.210 HD
ENDBRANCH  47  48
ENDBRANCH   4  47
TORSDOF 14
ENDMDL
MODEL 8
REMARK VINA RESULT:    -7.346      2.163      3.422
REMARK INTER + INTRA:         -13.754
REMARK INTER:                 -13.568
REMARK INTRA:                  -0.185
REMARK UNBOUND:                -2.113
REMARK SMILES C[C@H]1O[C@@H](O[C@@H]2[C@@H](Oc3cc(O)c4c(c3)O[C@@H](c3ccc(O)cc3)CC4=O)O[C@H](CO)[C@@H](O)[C@H]2O)[C@H](O)[C@H](O)[C@H]1O
REMARK SMILES IDX 6 1 34 2 32 3 29 4 28 5 7 6 5 7 4 8 1 9 2 10 40 11 3 12
REMARK SMILES IDX 38 13 36 14 41 15 39 17 37 19 35 21 8 23 9 24 10 25 15 26
REMARK SMILES IDX 11 27 14 28 13 29 16 30 26 31 17 32 27 33 25 34 12 35 18 37
REMARK SMILES IDX 19 38 24 39 20 40 23 41 21 42 22 43 33 45 30 47 31 48
REMARK H PARENT 41 16 39 18 37 20 35 22 12 36 22 44 33 46 31 49
REMARK Flexibility Score: inf
ROOT
ATOM      1  C   UNL     1       6.578  46.523  25.668  1.00  0.00     0.221 C 
ATOM      2  C   UNL     1       5.706  46.374  24.311  1.00  0.00     0.181 C 
ATOM      3  C   UNL     1       5.397  47.832  23.852  1.00  0.00     0.177 C 
ATOM      4  C   UNL     1       6.744  48.465  23.582  1.00  0.00     0.179 C 
ATOM      5  O   UNL     1       7.645  48.407  24.681  1.00  0.00    -0.332 OA
ATOM      6  C   UNL     1       7.918  47.154  25.144  1.00  0.00     0.339 C 
ENDROOT
BRANCH   1   7
ATOM      7  O   UNL     1       5.776  47.240  26.621  1.00  0.00    -0.337 OA
BRANCH   7   8
ATOM      8  C   UNL     1       6.229  48.361  27.378  1.00  0.00     0.282 C 
ATOM      9  C   UNL     1       6.557  48.877  30.984  1.00  0.00     0.041 C 
ATOM     10  C   UNL     1       7.038  49.104  29.539  1.00  0.00     0.150 C 
ATOM     11  C   UNL     1       6.636  50.467  28.979  1.00  0.00     0.174 C 
ATOM     12  O   UNL     1       6.595  47.997  28.752  1.00  0.00    -0.344 OA
ATOM     13  C   UNL     1       5.134  50.423  28.639  1.00  0.00     0.179 C 
ATOM     14  C   UNL     1       5.105  49.625  27.369  1.00  0.00     0.202 C 
BRANCH  11  15
ATOM     15  O   UNL     1       7.018  51.535  29.782  1.00  0.00    -0.388 OA
ATOM     16  H   UNL     1       6.655  52.361  29.291  1.00  0.00     0.211 HD
ENDBRANCH  11  15
BRANCH  13  17
ATOM     17  O   UNL     1       4.694  51.737  28.432  1.00  0.00    -0.387 OA
ATOM     18  H   UNL     1       5.486  52.335  28.654  1.00  0.00     0.211 HD
ENDBRANCH  13  17
BRANCH  14  19
ATOM     19  O   UNL     1       5.222  50.546  26.271  1.00  0.00    -0.385 OA
ATOM     20  H   UNL     1       6.090  50.396  25.785  1.00  0.00     0.211 HD
ENDBRANCH  14  19
ENDBRANCH   7   8
ENDBRANCH   1   7
BRANCH   2  21
ATOM     21  O   UNL     1       6.360  45.601  23.281  1.00  0.00    -0.387 OA
ATOM     22  H   UNL     1       7.079  44.966  23.645  1.00  0.00     0.211 HD
ENDBRANCH   2  21
BRANCH   6  23
ATOM     23  O   UNL     1       8.422  46.241  24.185  1.00  0.00    -0.462 OA
BRANCH  23  24
ATOM     24  C   UNL     1       9.067  46.585  22.949  1.00  0.00     0.130 A 
ATOM     25  C   UNL     1      10.323  47.178  22.922  1.00  0.00     0.093 A 
ATOM     26  C   UNL     1       8.477  46.210  21.699  1.00  0.00     0.094 A 
ATOM     27  C   UNL     1      10.995  47.464  21.747  1.00  0.00     0.133 A 
ATOM     28  C   UNL     1       9.034  46.688  20.535  1.00  0.00     0.138 A 
ATOM     29  C   UNL     1      10.236  47.356  20.545  1.00  0.00     0.102 A 
ATOM     30  O   UNL     1       8.342  46.428  19.293  1.00  0.00    -0.484 OA
ATOM     31  C   UNL     1      10.567  48.112  19.274  1.00  0.00     0.174 C 
ATOM     32  C   UNL     1       8.898  46.817  18.012  1.00  0.00     0.211 C 
ATOM     33  O   UNL     1      11.583  48.825  19.134  1.00  0.00    -0.294 OA
ATOM     34  C   UNL     1       9.526  48.189  18.208  1.00  0.00     0.131 C 
BRANCH  27  35
ATOM     35  O   UNL     1      12.334  47.721  21.753  1.00  0.00    -0.507 OA
ATOM     36  H   UNL     1      12.820  48.347  21.112  1.00  0.00     0.293 HD
ENDBRANCH  27  35
BRANCH  32  37
ATOM     37  C   UNL     1       7.762  46.861  16.979  1.00  0.00    -0.007 A 
ATOM     38  C   UNL     1       6.650  47.677  17.077  1.00  0.00     0.011 A 
ATOM     39  C   UNL     1       7.950  46.144  15.806  1.00  0.00     0.011 A 
ATOM     40  C   UNL     1       5.730  47.815  15.974  1.00  0.00     0.046 A 
ATOM     41  C   UNL     1       7.115  46.315  14.677  1.00  0.00     0.046 A 
ATOM     42  C   UNL     1       6.033  47.147  14.814  1.00  0.00     0.115 A 
BRANCH  42  43
ATOM     43  O   UNL     1       5.164  47.311  13.706  1.00  0.00    -0.508 OA
ATOM     44  H   UNL     1       4.706  48.175  13.481  1.00  0.00     0.293 HD
ENDBRANCH  42  43
ENDBRANCH  32  37
ENDBRANCH  23  24
ENDBRANCH   6  23
BRANCH   3  45
ATOM     45  O   UNL     1       4.654  47.732  22.691  1.00  0.00    -0.387 OA
ATOM     46  H   UNL     1       4.157  46.835  22.612  1.00  0.00     0.211 HD
ENDBRANCH   3  45
BRANCH   4  47
ATOM     47  C   UNL     1       6.640  49.953  23.214  1.00  0.00     0.191 C 
BRANCH  47  48
ATOM     48  O   UNL     1       7.328  50.776  24.137  1.00  0.00    -0.394 OA
ATOM     49  H   UNL     1       8.305  50.896  23.827  1.00  0.00     0.210 HD
ENDBRANCH  47  48
ENDBRANCH   4  47
TORSDOF 14
ENDMDL
MODEL 9
REMARK VINA RESULT:    -6.851      1.833     10.856
REMARK INTER + INTRA:         -12.969
REMARK INTER:                 -11.345
REMARK INTRA:                  -1.624
REMARK UNBOUND:                -2.113
REMARK SMILES C[C@H]1O[C@@H](O[C@@H]2[C@@H](Oc3cc(O)c4c(c3)O[C@@H](c3ccc(O)cc3)CC4=O)O[C@H](CO)[C@@H](O)[C@H]2O)[C@H](O)[C@H](O)[C@H]1O
REMARK SMILES IDX 6 1 34 2 32 3 29 4 28 5 7 6 5 7 4 8 1 9 2 10 40 11 3 12
REMARK SMILES IDX 38 13 36 14 41 15 39 17 37 19 35 21 8 23 9 24 10 25 15 26
REMARK SMILES IDX 11 27 14 28 13 29 16 30 26 31 17 32 27 33 25 34 12 35 18 37
REMARK SMILES IDX 19 38 24 39 20 40 23 41 21 42 22 43 33 45 30 47 31 48
REMARK H PARENT 41 16 39 18 37 20 35 22 12 36 22 44 33 46 31 49
REMARK Flexibility Score: inf
ROOT
ATOM      1  C   UNL     1       7.833  49.611  18.837  1.00  0.00     0.221 C 
ATOM      2  C   UNL     1       7.646  51.202  19.084  1.00  0.00     0.181 C 
ATOM      3  C   UNL     1       6.471  51.633  18.154  1.00  0.00     0.177 C 
ATOM      4  C   UNL     1       5.269  50.849  18.633  1.00  0.00     0.179 C 
ATOM      5  O   UNL     1       5.466  49.441  18.663  1.00  0.00    -0.332 OA
ATOM      6  C   UNL     1       6.507  49.017  19.433  1.00  0.00     0.339 C 
ENDROOT
BRANCH   1   7
ATOM      7  O   UNL     1       8.137  49.424  17.445  1.00  0.00    -0.337 OA
BRANCH   7   8
ATOM      8  C   UNL     1       7.968  48.195  16.740  1.00  0.00     0.282 C 
ATOM      9  C   UNL     1       9.990  46.587  14.151  1.00  0.00     0.041 C 
ATOM     10  C   UNL     1       9.066  46.514  15.381  1.00  0.00     0.150 C 
ATOM     11  C   UNL     1       7.621  46.167  15.026  1.00  0.00     0.174 C 
ATOM     12  O   UNL     1       9.210  47.736  16.108  1.00  0.00    -0.344 OA
ATOM     13  C   UNL     1       6.964  47.416  14.409  1.00  0.00     0.179 C 
ATOM     14  C   UNL     1       6.714  48.286  15.607  1.00  0.00     0.202 C 
BRANCH  11  15
ATOM     15  O   UNL     1       7.495  45.011  14.267  1.00  0.00    -0.388 OA
ATOM     16  H   UNL     1       6.573  44.640  14.525  1.00  0.00     0.211 HD
ENDBRANCH  11  15
BRANCH  13  17
ATOM     17  O   UNL     1       5.765  47.024  13.800  1.00  0.00    -0.387 OA
ATOM     18  H   UNL     1       6.025  46.646  12.892  1.00  0.00     0.211 HD
ENDBRANCH  13  17
BRANCH  14  19
ATOM     19  O   UNL     1       5.405  47.971  16.110  1.00  0.00    -0.385 OA
ATOM     20  H   UNL     1       4.785  48.751  15.973  1.00  0.00     0.211 HD
ENDBRANCH  14  19
ENDBRANCH   7   8
ENDBRANCH   1   7
BRANCH   2  21
ATOM     21  O   UNL     1       7.410  51.552  20.465  1.00  0.00    -0.387 OA
ATOM     22  H   UNL     1       6.612  52.183  20.593  1.00  0.00     0.211 HD
ENDBRANCH   2  21
BRANCH   6  23
ATOM     23  O   UNL     1       6.478  49.430  20.788  1.00  0.00    -0.462 OA
BRANCH  23  24
ATOM     24  C   UNL     1       7.137  48.776  21.884  1.00  0.00     0.130 A 
ATOM     25  C   UNL     1       7.846  47.594  21.709  1.00  0.00     0.093 A 
ATOM     26  C   UNL     1       7.181  49.398  23.174  1.00  0.00     0.094 A 
ATOM     27  C   UNL     1       8.542  46.975  22.733  1.00  0.00     0.133 A 
ATOM     28  C   UNL     1       7.680  48.681  24.237  1.00  0.00     0.138 A 
ATOM     29  C   UNL     1       8.296  47.466  24.048  1.00  0.00     0.102 A 
ATOM     30  O   UNL     1       7.579  49.262  25.556  1.00  0.00    -0.484 OA
ATOM     31  C   UNL     1       8.493  46.638  25.302  1.00  0.00     0.174 C 
ATOM     32  C   UNL     1       8.154  48.619  26.721  1.00  0.00     0.211 C 
ATOM     33  O   UNL     1       8.974  45.485  25.304  1.00  0.00    -0.294 OA
ATOM     34  C   UNL     1       7.886  47.129  26.573  1.00  0.00     0.131 C 
BRANCH  27  35
ATOM     35  O   UNL     1       9.488  46.031  22.462  1.00  0.00    -0.507 OA
ATOM     36  H   UNL     1      10.069  45.560  23.154  1.00  0.00     0.293 HD
ENDBRANCH  27  35
BRANCH  32  37
ATOM     37  C   UNL     1       7.479  49.189  27.978  1.00  0.00    -0.007 A 
ATOM     38  C   UNL     1       6.115  49.187  28.199  1.00  0.00     0.011 A 
ATOM     39  C   UNL     1       8.312  49.591  29.012  1.00  0.00     0.011 A 
ATOM     40  C   UNL     1       5.570  49.551  29.485  1.00  0.00     0.046 A 
ATOM     41  C   UNL     1       7.820  49.877  30.308  1.00  0.00     0.046 A 
ATOM     42  C   UNL     1       6.461  49.846  30.486  1.00  0.00     0.115 A 
BRANCH  42  43
ATOM     43  O   UNL     1       5.942  50.159  31.768  1.00  0.00    -0.508 OA
ATOM     44  H   UNL     1       5.073  50.639  31.914  1.00  0.00     0.293 HD
ENDBRANCH  42  43
ENDBRANCH  32  37
ENDBRANCH  23  24
ENDBRANCH   6  23
BRANCH   3  45
ATOM     45  O   UNL     1       6.289  52.988  18.349  1.00  0.00    -0.387 OA
ATOM     46  H   UNL     1       6.517  53.545  17.515  1.00  0.00     0.211 HD
ENDBRANCH   3  45
BRANCH   4  47
ATOM     47  C   UNL     1       4.025  51.071  17.757  1.00  0.00     0.191 C 
BRANCH  47  48
ATOM     48  O   UNL     1       3.875  52.429  17.387  1.00  0.00    -0.394 OA
ATOM     49  H   UNL     1       3.438  52.949  18.163  1.00  0.00     0.210 HD
ENDBRANCH  47  48
ENDBRANCH   4  47
TORSDOF 14
ENDMDL
