MODEL 1
REMARK VINA RESULT:    -3.226      0.000      0.000
REMARK INTER + INTRA:          -3.808
REMARK INTER:                  -3.791
REMARK INTRA:                  -0.016
REMARK UNBOUND:                -0.016
REMARK SMILES CCCCC(=O)[O-]
REMARK SMILES IDX 4 1 5 2 6 3 7 4 3 5 2 6 1 7
REMARK H PARENT
REMARK Flexibility Score: inf
ROOT
ATOM      1  C   UNL     1      -1.301   2.630  -3.739  1.00  0.00     0.053 C 
ENDROOT
BRANCH   1   2
ATOM      2  C   UNL     1      -2.302   1.992  -2.827  1.00  0.00     0.041 C 
ATOM      3  O   UNL     1      -2.864   0.915  -3.158  1.00  0.00    -0.550 OA
ATOM      4  O   UNL     1      -2.577   2.559  -1.590  1.00  0.00    -0.550 OA
ENDBRANCH   1   2
BRANCH   1   5
ATOM      5  C   UNL     1      -0.037   3.013  -2.964  1.00  0.00     0.006 C 
BRANCH   5   6
ATOM      6  C   UNL     1       1.179   3.077  -3.895  1.00  0.00    -0.003 C 
ATOM      7  C   UNL     1       2.337   2.245  -3.348  1.00  0.00     0.004 C 
ENDBRANCH   5   6
ENDBRANCH   1   5
TORSDOF 3
ENDMDL
MODEL 2
REMARK VINA RESULT:    -3.205      3.144      4.277
REMARK INTER + INTRA:          -3.783
REMARK INTER:                  -3.763
REMARK INTRA:                  -0.021
REMARK UNBOUND:                -0.016
REMARK SMILES CCCCC(=O)[O-]
REMARK SMILES IDX 4 1 5 2 6 3 7 4 3 5 2 6 1 7
REMARK H PARENT
REMARK Flexibility Score: inf
ROOT
ATOM      1  C   UNL     1       1.078   3.010  -3.906  1.00  0.00     0.053 C 
ENDROOT
BRANCH   1   2
ATOM      2  C   UNL     1       2.385   2.715  -3.240  1.00  0.00     0.041 C 
ATOM      3  O   UNL     1       2.693   1.530  -2.945  1.00  0.00    -0.550 OA
ATOM      4  O   UNL     1       3.285   3.742  -2.988  1.00  0.00    -0.550 OA
ENDBRANCH   1   2
BRANCH   1   5
ATOM      5  C   UNL     1      -0.042   3.114  -2.866  1.00  0.00     0.006 C 
BRANCH   5   6
ATOM      6  C   UNL     1      -1.374   2.623  -3.444  1.00  0.00    -0.003 C 
ATOM      7  C   UNL     1      -2.410   2.414  -2.342  1.00  0.00     0.004 C 
ENDBRANCH   5   6
ENDBRANCH   1   5
TORSDOF 3
ENDMDL
MODEL 3
REMARK VINA RESULT:    -3.189      3.141      4.394
REMARK INTER + INTRA:          -3.765
REMARK INTER:                  -3.746
REMARK INTRA:                  -0.018
REMARK UNBOUND:                -0.016
REMARK SMILES CCCCC(=O)[O-]
REMARK SMILES IDX 4 1 5 2 6 3 7 4 3 5 2 6 1 7
REMARK H PARENT
REMARK Flexibility Score: inf
ROOT
ATOM      1  C   UNL     1       1.077   3.072  -3.944  1.00  0.00     0.053 C 
ENDROOT
BRANCH   1   2
ATOM      2  C   UNL     1       2.407   2.817  -3.306  1.00  0.00     0.041 C 
ATOM      3  O   UNL     1       3.196   3.772  -3.084  1.00  0.00    -0.550 OA
ATOM      4  O   UNL     1       2.755   1.532  -2.913  1.00  0.00    -0.550 OA
ENDBRANCH   1   2
BRANCH   1   5
ATOM      5  C   UNL     1      -0.027   3.108  -2.884  1.00  0.00     0.006 C 
BRANCH   5   6
ATOM      6  C   UNL     1      -1.373   2.680  -3.478  1.00  0.00    -0.003 C 
ATOM      7  C   UNL     1      -2.381   2.349  -2.381  1.00  0.00     0.004 C 
ENDBRANCH   5   6
ENDBRANCH   1   5
TORSDOF 3
ENDMDL
MODEL 4
REMARK VINA RESULT:    -3.025      3.790      4.868
REMARK INTER + INTRA:          -3.572
REMARK INTER:                  -3.553
REMARK INTRA:                  -0.020
REMARK UNBOUND:                -0.016
REMARK SMILES CCCCC(=O)[O-]
REMARK SMILES IDX 4 1 5 2 6 3 7 4 3 5 2 6 1 7
REMARK H PARENT
REMARK Flexibility Score: inf
ROOT
ATOM      1  C   UNL     1       2.008   2.050  -2.969  1.00  0.00     0.053 C 
ENDROOT
BRANCH   1   2
ATOM      2  C   UNL     1       3.461   1.883  -3.289  1.00  0.00     0.041 C 
ATOM      3  O   UNL     1       4.323   1.958  -2.375  1.00  0.00    -0.550 OA
ATOM      4  O   UNL     1       3.859   1.595  -4.588  1.00  0.00    -0.550 OA
ENDBRANCH   1   2
BRANCH   1   5
ATOM      5  C   UNL     1       1.427   3.247  -3.727  1.00  0.00     0.006 C 
BRANCH   5   6
ATOM      6  C   UNL     1       0.159   3.768  -3.041  1.00  0.00    -0.003 C 
ATOM      7  C   UNL     1      -0.899   2.674  -2.933  1.00  0.00     0.004 C 
ENDBRANCH   5   6
ENDBRANCH   1   5
TORSDOF 3
ENDMDL
MODEL 5
REMARK VINA RESULT:    -2.982      2.433      4.390
REMARK INTER + INTRA:          -3.521
REMARK INTER:                  -3.417
REMARK INTRA:                  -0.104
REMARK UNBOUND:                -0.016
REMARK SMILES CCCCC(=O)[O-]
REMARK SMILES IDX 4 1 5 2 6 3 7 4 3 5 2 6 1 7
REMARK H PARENT
REMARK Flexibility Score: inf
ROOT
ATOM      1  C   UNL     1      -2.594   1.781  -3.814  1.00  0.00     0.053 C 
ENDROOT
BRANCH   1   2
ATOM      2  C   UNL     1      -1.915   2.447  -2.658  1.00  0.00     0.041 C 
ATOM      3  O   UNL     1      -2.518   2.581  -1.561  1.00  0.00    -0.550 OA
ATOM      4  O   UNL     1      -0.600   2.875  -2.777  1.00  0.00    -0.550 OA
ENDBRANCH   1   2
BRANCH   1   5
ATOM      5  C   UNL     1      -3.280   0.489  -3.360  1.00  0.00     0.006 C 
BRANCH   5   6
ATOM      6  C   UNL     1      -4.746   0.461  -3.806  1.00  0.00    -0.003 C 
ATOM      7  C   UNL     1      -5.529   1.624  -3.204  1.00  0.00     0.004 C 
ENDBRANCH   5   6
ENDBRANCH   1   5
TORSDOF 3
ENDMDL
MODEL 6
REMARK VINA RESULT:    -2.945      1.594      2.709
REMARK INTER + INTRA:          -3.478
REMARK INTER:                  -3.372
REMARK INTRA:                  -0.105
REMARK UNBOUND:                -0.016
REMARK SMILES CCCCC(=O)[O-]
REMARK SMILES IDX 4 1 5 2 6 3 7 4 3 5 2 6 1 7
REMARK H PARENT
REMARK Flexibility Score: inf
ROOT
ATOM      1  C   UNL     1      -0.982   2.659  -3.479  1.00  0.00     0.053 C 
ENDROOT
BRANCH   1   2
ATOM      2  C   UNL     1      -2.124   2.072  -2.709  1.00  0.00     0.041 C 
ATOM      3  O   UNL     1      -2.711   1.042  -3.134  1.00  0.00    -0.550 OA
ATOM      4  O   UNL     1      -2.508   2.632  -1.499  1.00  0.00    -0.550 OA
ENDBRANCH   1   2
BRANCH   1   5
ATOM      5  C   UNL     1      -1.498   3.607  -4.564  1.00  0.00     0.006 C 
BRANCH   5   6
ATOM      6  C   UNL     1      -1.318   2.996  -5.958  1.00  0.00    -0.003 C 
ATOM      7  C   UNL     1      -2.662   2.622  -6.576  1.00  0.00     0.004 C 
ENDBRANCH   5   6
ENDBRANCH   1   5
TORSDOF 3
ENDMDL
MODEL 7
REMARK VINA RESULT:    -2.934      1.723      2.339
REMARK INTER + INTRA:          -3.465
REMARK INTER:                  -3.420
REMARK INTRA:                  -0.045
REMARK UNBOUND:                -0.016
REMARK SMILES CCCCC(=O)[O-]
REMARK SMILES IDX 4 1 5 2 6 3 7 4 3 5 2 6 1 7
REMARK H PARENT
REMARK Flexibility Score: inf
ROOT
ATOM      1  C   UNL     1      -3.194   2.536  -2.649  1.00  0.00     0.053 C 
ENDROOT
BRANCH   1   2
ATOM      2  C   UNL     1      -3.972   1.329  -3.073  1.00  0.00     0.041 C 
ATOM      3  O   UNL     1      -5.227   1.379  -3.148  1.00  0.00    -0.550 OA
ATOM      4  O   UNL     1      -3.307   0.164  -3.433  1.00  0.00    -0.550 OA
ENDBRANCH   1   2
BRANCH   1   5
ATOM      5  C   UNL     1      -1.694   2.227  -2.629  1.00  0.00     0.006 C 
BRANCH   5   6
ATOM      6  C   UNL     1      -0.943   3.084  -3.653  1.00  0.00    -0.003 C 
ATOM      7  C   UNL     1       0.265   3.769  -3.021  1.00  0.00     0.004 C 
ENDBRANCH   5   6
ENDBRANCH   1   5
TORSDOF 3
ENDMDL
MODEL 8
REMARK VINA RESULT:    -2.919      2.495      3.920
REMARK INTER + INTRA:          -3.447
REMARK INTER:                  -3.431
REMARK INTRA:                  -0.016
REMARK UNBOUND:                -0.016
REMARK SMILES CCCCC(=O)[O-]
REMARK SMILES IDX 4 1 5 2 6 3 7 4 3 5 2 6 1 7
REMARK H PARENT
REMARK Flexibility Score: inf
ROOT
ATOM      1  C   UNL     1      -1.070   3.127  -3.679  1.00  0.00     0.053 C 
ENDROOT
BRANCH   1   2
ATOM      2  C   UNL     1       0.327   3.460  -3.257  1.00  0.00     0.041 C 
ATOM      3  O   UNL     1       1.186   2.548  -3.134  1.00  0.00    -0.550 OA
ATOM      4  O   UNL     1       0.694   4.783  -3.048  1.00  0.00    -0.550 OA
ENDBRANCH   1   2
BRANCH   1   5
ATOM      5  C   UNL     1      -1.781   2.321  -2.588  1.00  0.00     0.006 C 
BRANCH   5   6
ATOM      6  C   UNL     1      -3.237   2.038  -2.976  1.00  0.00    -0.003 C 
ATOM      7  C   UNL     1      -3.434   0.572  -3.349  1.00  0.00     0.004 C 
ENDBRANCH   5   6
ENDBRANCH   1   5
TORSDOF 3
ENDMDL
MODEL 9
REMARK VINA RESULT:    -2.805      5.048      5.963
REMARK INTER + INTRA:          -3.314
REMARK INTER:                  -3.293
REMARK INTRA:                  -0.020
REMARK UNBOUND:                -0.016
REMARK SMILES CCCCC(=O)[O-]
REMARK SMILES IDX 4 1 5 2 6 3 7 4 3 5 2 6 1 7
REMARK H PARENT
REMARK Flexibility Score: inf
ROOT
ATOM      1  C   UNL     1       4.592   2.991  -4.364  1.00  0.00     0.053 C 
ENDROOT
BRANCH   1   2
ATOM      2  C   UNL     1       4.398   2.098  -3.178  1.00  0.00     0.041 C 
ATOM      3  O   UNL     1       5.350   1.888  -2.382  1.00  0.00    -0.550 OA
ATOM      4  O   UNL     1       3.153   1.538  -2.926  1.00  0.00    -0.550 OA
ENDBRANCH   1   2
BRANCH   1   5
ATOM      5  C   UNL     1       3.704   2.539  -5.527  1.00  0.00     0.006 C 
BRANCH   5   6
ATOM      6  C   UNL     1       4.437   2.684  -6.865  1.00  0.00    -0.003 C 
ATOM      7  C   UNL     1       4.389   1.385  -7.665  1.00  0.00     0.004 C 
ENDBRANCH   5   6
ENDBRANCH   1   5
TORSDOF 3
ENDMDL
