MODEL 1
REMARK VINA RESULT:    -3.734      0.000      0.000
REMARK INTER + INTRA:          -6.029
REMARK INTER:                  -5.698
REMARK INTRA:                  -0.330
REMARK UNBOUND:                -0.330
REMARK SMILES O=C([O-])CCCCCCCCC(=O)[O-]
REMARK SMILES IDX 7 1 6 2 5 3 4 4 2 5 1 6 3 7 8 8 9 9 10 10 11 11 12 12 13 13
REMARK SMILES IDX 14 14
REMARK H PARENT
REMARK Flexibility Score: inf
ROOT
ATOM      1  C   UNL     1      43.904  21.409  79.251  1.00  0.00     0.000 C 
ENDROOT
BRANCH   1   2
ATOM      2  C   UNL     1      45.098  20.987  78.379  1.00  0.00     0.000 C 
BRANCH   2   3
ATOM      3  C   UNL     1      44.879  19.624  77.698  1.00  0.00     0.006 C 
BRANCH   3   4
ATOM      4  C   UNL     1      46.192  18.854  77.510  1.00  0.00     0.053 C 
BRANCH   4   5
ATOM      5  C   UNL     1      46.144  17.954  76.313  1.00  0.00     0.041 C 
ATOM      6  O   UNL     1      46.274  18.431  75.156  1.00  0.00    -0.550 OA
ATOM      7  O   UNL     1      45.985  16.584  76.477  1.00  0.00    -0.550 OA
ENDBRANCH   4   5
ENDBRANCH   3   4
ENDBRANCH   2   3
ENDBRANCH   1   2
BRANCH   1   8
ATOM      8  C   UNL     1      42.551  21.012  78.635  1.00  0.00     0.000 C 
BRANCH   8   9
ATOM      9  C   UNL     1      41.626  20.312  79.643  1.00  0.00     0.000 C 
BRANCH   9  10
ATOM     10  C   UNL     1      40.304  19.847  79.007  1.00  0.00     0.006 C 
BRANCH  10  11
ATOM     11  C   UNL     1      39.346  19.240  80.040  1.00  0.00     0.053 C 
BRANCH  11  12
ATOM     12  C   UNL     1      38.214  20.168  80.364  1.00  0.00     0.041 C 
ATOM     13  O   UNL     1      38.007  21.185  79.651  1.00  0.00    -0.550 OA
ATOM     14  O   UNL     1      37.372  19.893  81.433  1.00  0.00    -0.550 OA
ENDBRANCH  11  12
ENDBRANCH  10  11
ENDBRANCH   9  10
ENDBRANCH   8   9
ENDBRANCH   1   8
TORSDOF 9
ENDMDL
MODEL 2
REMARK VINA RESULT:    -3.650     14.000     15.547
REMARK INTER + INTRA:          -5.900
REMARK INTER:                  -4.958
REMARK INTRA:                  -0.942
REMARK UNBOUND:                -0.330
REMARK SMILES O=C([O-])CCCCCCCCC(=O)[O-]
REMARK SMILES IDX 7 1 6 2 5 3 4 4 2 5 1 6 3 7 8 8 9 9 10 10 11 11 12 12 13 13
REMARK SMILES IDX 14 14
REMARK H PARENT
REMARK Flexibility Score: inf
ROOT
ATOM      1  C   UNL     1      43.716  29.083  89.334  1.00  0.00     0.000 C 
ENDROOT
BRANCH   1   2
ATOM      2  C   UNL     1      43.521  29.962  90.580  1.00  0.00     0.000 C 
BRANCH   2   3
ATOM      3  C   UNL     1      44.828  30.169  91.367  1.00  0.00     0.006 C 
BRANCH   3   4
ATOM      4  C   UNL     1      45.454  31.544  91.098  1.00  0.00     0.053 C 
BRANCH   4   5
ATOM      5  C   UNL     1      46.586  31.460  90.121  1.00  0.00     0.041 C 
ATOM      6  O   UNL     1      46.437  31.877  88.942  1.00  0.00    -0.550 OA
ATOM      7  O   UNL     1      47.815  30.949  90.518  1.00  0.00    -0.550 OA
ENDBRANCH   4   5
ENDBRANCH   3   4
ENDBRANCH   2   3
ENDBRANCH   1   2
BRANCH   1   8
ATOM      8  C   UNL     1      43.646  29.888  88.024  1.00  0.00     0.000 C 
BRANCH   8   9
ATOM      9  C   UNL     1      42.902  31.222  88.190  1.00  0.00     0.000 C 
BRANCH   9  10
ATOM     10  C   UNL     1      41.604  31.281  87.366  1.00  0.00     0.006 C 
BRANCH  10  11
ATOM     11  C   UNL     1      40.364  30.969  88.213  1.00  0.00     0.053 C 
BRANCH  11  12
ATOM     12  C   UNL     1      40.102  29.496  88.299  1.00  0.00     0.041 C 
ATOM     13  O   UNL     1      39.864  28.835  87.254  1.00  0.00    -0.550 OA
ATOM     14  O   UNL     1      40.148  28.851  89.527  1.00  0.00    -0.550 OA
ENDBRANCH  11  12
ENDBRANCH  10  11
ENDBRANCH   9  10
ENDBRANCH   8   9
ENDBRANCH   1   8
TORSDOF 9
ENDMDL
MODEL 3
REMARK VINA RESULT:    -3.649     14.237     16.300
REMARK INTER + INTRA:          -5.899
REMARK INTER:                  -5.344
REMARK INTRA:                  -0.555
REMARK UNBOUND:                -0.330
REMARK SMILES O=C([O-])CCCCCCCCC(=O)[O-]
REMARK SMILES IDX 7 1 6 2 5 3 4 4 2 5 1 6 3 7 8 8 9 9 10 10 11 11 12 12 13 13
REMARK SMILES IDX 14 14
REMARK H PARENT
REMARK Flexibility Score: inf
ROOT
ATOM      1  C   UNL     1      42.848  30.523  88.461  1.00  0.00     0.000 C 
ENDROOT
BRANCH   1   2
ATOM      2  C   UNL     1      41.646  31.089  87.688  1.00  0.00     0.000 C 
BRANCH   2   3
ATOM      3  C   UNL     1      40.300  30.718  88.335  1.00  0.00     0.006 C 
BRANCH   3   4
ATOM      4  C   UNL     1      40.475  29.783  89.540  1.00  0.00     0.053 C 
BRANCH   4   5
ATOM      5  C   UNL     1      39.994  28.395  89.243  1.00  0.00     0.041 C 
ATOM      6  O   UNL     1      40.076  27.933  88.075  1.00  0.00    -0.550 OA
ATOM      7  O   UNL     1      39.482  27.603  90.262  1.00  0.00    -0.550 OA
ENDBRANCH   4   5
ENDBRANCH   3   4
ENDBRANCH   2   3
ENDBRANCH   1   2
BRANCH   1   8
ATOM      8  C   UNL     1      43.825  31.618  88.921  1.00  0.00     0.000 C 
BRANCH   8   9
ATOM      9  C   UNL     1      45.268  31.105  89.055  1.00  0.00     0.000 C 
BRANCH   9  10
ATOM     10  C   UNL     1      45.865  31.376  90.447  1.00  0.00     0.006 C 
BRANCH  10  11
ATOM     11  C   UNL     1      44.804  31.317  91.553  1.00  0.00     0.053 C 
BRANCH  11  12
ATOM     12  C   UNL     1      44.536  29.910  91.996  1.00  0.00     0.041 C 
ATOM     13  O   UNL     1      43.371  29.561  92.322  1.00  0.00    -0.550 OA
ATOM     14  O   UNL     1      45.567  28.979  92.019  1.00  0.00    -0.550 OA
ENDBRANCH  11  12
ENDBRANCH  10  11
ENDBRANCH   9  10
ENDBRANCH   8   9
ENDBRANCH   1   8
TORSDOF 9
ENDMDL
MODEL 4
REMARK VINA RESULT:    -3.642      1.205      7.094
REMARK INTER + INTRA:          -5.888
REMARK INTER:                  -5.446
REMARK INTRA:                  -0.441
REMARK UNBOUND:                -0.330
REMARK SMILES O=C([O-])CCCCCCCCC(=O)[O-]
REMARK SMILES IDX 7 1 6 2 5 3 4 4 2 5 1 6 3 7 8 8 9 9 10 10 11 11 12 12 13 13
REMARK SMILES IDX 14 14
REMARK H PARENT
REMARK Flexibility Score: inf
ROOT
ATOM      1  C   UNL     1      41.833  21.684  77.444  1.00  0.00     0.000 C 
ENDROOT
BRANCH   1   2
ATOM      2  C   UNL     1      40.770  20.627  77.784  1.00  0.00     0.000 C 
BRANCH   2   3
ATOM      3  C   UNL     1      40.165  20.828  79.185  1.00  0.00     0.006 C 
BRANCH   3   4
ATOM      4  C   UNL     1      40.019  19.504  79.948  1.00  0.00     0.053 C 
BRANCH   4   5
ATOM      5  C   UNL     1      38.597  19.034  79.983  1.00  0.00     0.041 C 
ATOM      6  O   UNL     1      37.673  19.835  80.285  1.00  0.00    -0.550 OA
ATOM      7  O   UNL     1      38.288  17.721  79.653  1.00  0.00    -0.550 OA
ENDBRANCH   4   5
ENDBRANCH   3   4
ENDBRANCH   2   3
ENDBRANCH   1   2
BRANCH   1   8
ATOM      8  C   UNL     1      43.076  21.585  78.345  1.00  0.00     0.000 C 
BRANCH   8   9
ATOM      9  C   UNL     1      43.754  20.208  78.268  1.00  0.00     0.000 C 
BRANCH   9  10
ATOM     10  C   UNL     1      44.987  20.208  77.346  1.00  0.00     0.006 C 
BRANCH  10  11
ATOM     11  C   UNL     1      45.911  19.014  77.616  1.00  0.00     0.053 C 
BRANCH  11  12
ATOM     12  C   UNL     1      46.037  18.123  76.418  1.00  0.00     0.041 C 
ATOM     13  O   UNL     1      46.226  18.622  75.276  1.00  0.00    -0.550 OA
ATOM     14  O   UNL     1      45.975  16.744  76.565  1.00  0.00    -0.550 OA
ENDBRANCH  11  12
ENDBRANCH  10  11
ENDBRANCH   9  10
ENDBRANCH   8   9
ENDBRANCH   1   8
TORSDOF 9
ENDMDL
MODEL 5
REMARK VINA RESULT:    -3.628     14.109     15.596
REMARK INTER + INTRA:          -5.867
REMARK INTER:                  -5.083
REMARK INTRA:                  -0.784
REMARK UNBOUND:                -0.330
REMARK SMILES O=C([O-])CCCCCCCCC(=O)[O-]
REMARK SMILES IDX 7 1 6 2 5 3 4 4 2 5 1 6 3 7 8 8 9 9 10 10 11 11 12 12 13 13
REMARK SMILES IDX 14 14
REMARK H PARENT
REMARK Flexibility Score: inf
ROOT
ATOM      1  C   UNL     1      43.523  30.209  87.697  1.00  0.00     0.000 C 
ENDROOT
BRANCH   1   2
ATOM      2  C   UNL     1      43.684  31.286  88.783  1.00  0.00     0.000 C 
BRANCH   2   3
ATOM      3  C   UNL     1      44.914  31.044  89.676  1.00  0.00     0.006 C 
BRANCH   3   4
ATOM      4  C   UNL     1      44.556  31.061  91.169  1.00  0.00     0.053 C 
BRANCH   4   5
ATOM      5  C   UNL     1      44.935  29.780  91.847  1.00  0.00     0.041 C 
ATOM      6  O   UNL     1      44.177  29.276  92.717  1.00  0.00    -0.550 OA
ATOM      7  O   UNL     1      46.111  29.129  91.500  1.00  0.00    -0.550 OA
ENDBRANCH   4   5
ENDBRANCH   3   4
ENDBRANCH   2   3
ENDBRANCH   1   2
BRANCH   1   8
ATOM      8  C   UNL     1      42.205  30.349  86.916  1.00  0.00     0.000 C 
BRANCH   8   9
ATOM      9  C   UNL     1      41.207  31.293  87.604  1.00  0.00     0.000 C 
BRANCH   9  10
ATOM     10  C   UNL     1      40.033  30.541  88.252  1.00  0.00     0.006 C 
BRANCH  10  11
ATOM     11  C   UNL     1      40.344  30.111  89.692  1.00  0.00     0.053 C 
BRANCH  11  12
ATOM     12  C   UNL     1      40.762  28.674  89.767  1.00  0.00     0.041 C 
ATOM     13  O   UNL     1      40.014  27.773  89.303  1.00  0.00    -0.550 OA
ATOM     14  O   UNL     1      41.989  28.333  90.321  1.00  0.00    -0.550 OA
ENDBRANCH  11  12
ENDBRANCH  10  11
ENDBRANCH   9  10
ENDBRANCH   8   9
ENDBRANCH   1   8
TORSDOF 9
ENDMDL
MODEL 6
REMARK VINA RESULT:    -3.618     14.495     16.527
REMARK INTER + INTRA:          -5.851
REMARK INTER:                  -5.131
REMARK INTRA:                  -0.720
REMARK UNBOUND:                -0.330
REMARK SMILES O=C([O-])CCCCCCCCC(=O)[O-]
REMARK SMILES IDX 7 1 6 2 5 3 4 4 2 5 1 6 3 7 8 8 9 9 10 10 11 11 12 12 13 13
REMARK SMILES IDX 14 14
REMARK H PARENT
REMARK Flexibility Score: inf
ROOT
ATOM      1  C   UNL     1      42.121  28.396  90.479  1.00  0.00     0.000 C 
ENDROOT
BRANCH   1   2
ATOM      2  C   UNL     1      41.118  28.685  89.350  1.00  0.00     0.000 C 
BRANCH   2   3
ATOM      3  C   UNL     1      40.512  30.096  89.446  1.00  0.00     0.006 C 
BRANCH   3   4
ATOM      4  C   UNL     1      40.531  30.827  88.097  1.00  0.00     0.053 C 
BRANCH   4   5
ATOM      5  C   UNL     1      41.914  30.906  87.525  1.00  0.00     0.041 C 
ATOM      6  O   UNL     1      42.812  31.552  88.126  1.00  0.00    -0.550 OA
ATOM      7  O   UNL     1      42.219  30.242  86.344  1.00  0.00    -0.550 OA
ENDBRANCH   4   5
ENDBRANCH   3   4
ENDBRANCH   2   3
ENDBRANCH   1   2
BRANCH   1   8
ATOM      8  C   UNL     1      42.595  29.676  91.191  1.00  0.00     0.000 C 
BRANCH   8   9
ATOM      9  C   UNL     1      43.696  29.401  92.228  1.00  0.00     0.000 C 
BRANCH   9  10
ATOM     10  C   UNL     1      44.679  30.576  92.370  1.00  0.00     0.006 C 
BRANCH  10  11
ATOM     11  C   UNL     1      44.768  31.416  91.089  1.00  0.00     0.053 C 
BRANCH  11  12
ATOM     12  C   UNL     1      46.046  31.170  90.347  1.00  0.00     0.041 C 
ATOM     13  O   UNL     1      46.373  31.915  89.386  1.00  0.00    -0.550 OA
ATOM     14  O   UNL     1      46.890  30.138  90.736  1.00  0.00    -0.550 OA
ENDBRANCH  11  12
ENDBRANCH  10  11
ENDBRANCH   9  10
ENDBRANCH   8   9
ENDBRANCH   1   8
TORSDOF 9
ENDMDL
MODEL 7
REMARK VINA RESULT:    -3.606     13.607     15.551
REMARK INTER + INTRA:          -5.834
REMARK INTER:                  -5.279
REMARK INTRA:                  -0.555
REMARK UNBOUND:                -0.330
REMARK SMILES O=C([O-])CCCCCCCCC(=O)[O-]
REMARK SMILES IDX 7 1 6 2 5 3 4 4 2 5 1 6 3 7 8 8 9 9 10 10 11 11 12 12 13 13
REMARK SMILES IDX 14 14
REMARK H PARENT
REMARK Flexibility Score: inf
ROOT
ATOM      1  C   UNL     1      42.803  30.526  88.004  1.00  0.00     0.000 C 
ENDROOT
BRANCH   1   2
ATOM      2  C   UNL     1      43.664  31.360  88.967  1.00  0.00     0.000 C 
BRANCH   2   3
ATOM      3  C   UNL     1      44.739  30.518  89.677  1.00  0.00     0.006 C 
BRANCH   3   4
ATOM      4  C   UNL     1      45.403  31.282  90.831  1.00  0.00     0.053 C 
BRANCH   4   5
ATOM      5  C   UNL     1      44.509  31.365  92.031  1.00  0.00     0.041 C 
ATOM      6  O   UNL     1      43.840  30.361  92.394  1.00  0.00    -0.550 OA
ATOM      7  O   UNL     1      44.437  32.541  92.766  1.00  0.00    -0.550 OA
ENDBRANCH   4   5
ENDBRANCH   3   4
ENDBRANCH   2   3
ENDBRANCH   1   2
BRANCH   1   8
ATOM      8  C   UNL     1      41.655  31.339  87.382  1.00  0.00     0.000 C 
BRANCH   8   9
ATOM      9  C   UNL     1      40.309  31.095  88.083  1.00  0.00     0.000 C 
BRANCH   9  10
ATOM     10  C   UNL     1      40.196  29.675  88.665  1.00  0.00     0.006 C 
BRANCH  10  11
ATOM     11  C   UNL     1      39.291  28.772  87.818  1.00  0.00     0.053 C 
BRANCH  11  12
ATOM     12  C   UNL     1      40.067  28.021  86.778  1.00  0.00     0.041 C 
ATOM     13  O   UNL     1      41.149  27.454  87.084  1.00  0.00    -0.550 OA
ATOM     14  O   UNL     1      39.581  27.925  85.481  1.00  0.00    -0.550 OA
ENDBRANCH  11  12
ENDBRANCH  10  11
ENDBRANCH   9  10
ENDBRANCH   8   9
ENDBRANCH   1   8
TORSDOF 9
ENDMDL
MODEL 8
REMARK VINA RESULT:    -3.535     14.178     16.517
REMARK INTER + INTRA:          -5.725
REMARK INTER:                  -5.211
REMARK INTRA:                  -0.514
REMARK UNBOUND:                -0.330
REMARK SMILES O=C([O-])CCCCCCCCC(=O)[O-]
REMARK SMILES IDX 7 1 6 2 5 3 4 4 2 5 1 6 3 7 8 8 9 9 10 10 11 11 12 12 13 13
REMARK SMILES IDX 14 14
REMARK H PARENT
REMARK Flexibility Score: inf
ROOT
ATOM      1  C   UNL     1      42.912  30.420  88.151  1.00  0.00     0.000 C 
ENDROOT
BRANCH   1   2
ATOM      2  C   UNL     1      41.730  31.242  87.611  1.00  0.00     0.000 C 
BRANCH   2   3
ATOM      3  C   UNL     1      40.381  30.796  88.205  1.00  0.00     0.006 C 
BRANCH   3   4
ATOM      4  C   UNL     1      40.560  29.880  89.423  1.00  0.00     0.053 C 
BRANCH   4   5
ATOM      5  C   UNL     1      40.001  28.512  89.179  1.00  0.00     0.041 C 
ATOM      6  O   UNL     1      39.931  28.056  88.007  1.00  0.00    -0.550 OA
ATOM      7  O   UNL     1      39.584  27.728  90.247  1.00  0.00    -0.550 OA
ENDBRANCH   4   5
ENDBRANCH   3   4
ENDBRANCH   2   3
ENDBRANCH   1   2
BRANCH   1   8
ATOM      8  C   UNL     1      43.946  31.286  88.891  1.00  0.00     0.000 C 
BRANCH   8   9
ATOM      9  C   UNL     1      44.127  30.865  90.358  1.00  0.00     0.000 C 
BRANCH   9  10
ATOM     10  C   UNL     1      45.498  31.273  90.924  1.00  0.00     0.006 C 
BRANCH  10  11
ATOM     11  C   UNL     1      46.514  31.583  89.817  1.00  0.00     0.053 C 
BRANCH  11  12
ATOM     12  C   UNL     1      47.759  30.759  89.955  1.00  0.00     0.041 C 
ATOM     13  O   UNL     1      48.851  31.183  89.493  1.00  0.00    -0.550 OA
ATOM     14  O   UNL     1      47.717  29.540  90.619  1.00  0.00    -0.550 OA
ENDBRANCH  11  12
ENDBRANCH  10  11
ENDBRANCH   9  10
ENDBRANCH   8   9
ENDBRANCH   1   8
TORSDOF 9
ENDMDL
MODEL 9
REMARK VINA RESULT:    -3.529     13.995     16.127
REMARK INTER + INTRA:          -5.716
REMARK INTER:                  -4.863
REMARK INTRA:                  -0.853
REMARK UNBOUND:                -0.330
REMARK SMILES O=C([O-])CCCCCCCCC(=O)[O-]
REMARK SMILES IDX 7 1 6 2 5 3 4 4 2 5 1 6 3 7 8 8 9 9 10 10 11 11 12 12 13 13
REMARK SMILES IDX 14 14
REMARK H PARENT
REMARK Flexibility Score: inf
ROOT
ATOM      1  C   UNL     1      43.933  30.066  88.116  1.00  0.00     0.000 C 
ENDROOT
BRANCH   1   2
ATOM      2  C   UNL     1      42.978  31.239  88.390  1.00  0.00     0.000 C 
BRANCH   2   3
ATOM      3  C   UNL     1      41.752  31.232  87.460  1.00  0.00     0.006 C 
BRANCH   3   4
ATOM      4  C   UNL     1      40.492  30.716  88.167  1.00  0.00     0.053 C 
BRANCH   4   5
ATOM      5  C   UNL     1      40.162  29.312  87.764  1.00  0.00     0.041 C 
ATOM      6  O   UNL     1      40.660  28.819  86.718  1.00  0.00    -0.550 OA
ATOM      7  O   UNL     1      39.327  28.536  88.558  1.00  0.00    -0.550 OA
ENDBRANCH   4   5
ENDBRANCH   3   4
ENDBRANCH   2   3
ENDBRANCH   1   2
BRANCH   1   8
ATOM      8  C   UNL     1      43.571  28.808  88.924  1.00  0.00     0.000 C 
BRANCH   8   9
ATOM      9  C   UNL     1      43.219  29.124  90.386  1.00  0.00     0.000 C 
BRANCH   9  10
ATOM     10  C   UNL     1      44.437  29.027  91.321  1.00  0.00     0.006 C 
BRANCH  10  11
ATOM     11  C   UNL     1      44.370  30.045  92.467  1.00  0.00     0.053 C 
BRANCH  11  12
ATOM     12  C   UNL     1      44.784  31.415  92.021  1.00  0.00     0.041 C 
ATOM     13  O   UNL     1      44.398  32.430  92.659  1.00  0.00    -0.550 OA
ATOM     14  O   UNL     1      45.617  31.568  90.921  1.00  0.00    -0.550 OA
ENDBRANCH  11  12
ENDBRANCH  10  11
ENDBRANCH   9  10
ENDBRANCH   8   9
ENDBRANCH   1   8
TORSDOF 9
ENDMDL
