MODEL 1
REMARK VINA RESULT:    -6.440      0.000      0.000
REMARK INTER + INTRA:          -8.038
REMARK INTER:                  -7.758
REMARK INTRA:                  -0.280
REMARK UNBOUND:                -0.280
REMARK SMILES O=c1c(O)c(-c2ccc(O)c(O)c2)oc2cc(O)cc(O)c12
REMARK SMILES IDX 5 1 3 2 2 3 1 4 22 5 20 6 19 7 17 8 16 9 15 10 14 11 6 12
REMARK SMILES IDX 7 13 8 14 9 15 13 16 11 17 10 18 12 20 4 22 21 24 18 26
REMARK H PARENT 10 19 12 21 4 23 21 25 18 27
REMARK Flexibility Score: inf
ROOT
ATOM      1  C   UNL     1      21.395  32.653  25.259  1.00  0.00     0.180 A 
ATOM      2  C   UNL     1      22.245  33.648  24.743  1.00  0.00     0.208 A 
ATOM      3  C   UNL     1      22.506  33.671  23.364  1.00  0.00     0.238 A 
ATOM      4  O   UNL     1      23.311  34.530  22.916  1.00  0.00    -0.285 OA
ATOM      5  C   UNL     1      21.903  32.713  22.516  1.00  0.00     0.111 A 
ATOM      6  C   UNL     1      22.065  32.668  21.098  1.00  0.00     0.134 A 
ATOM      7  C   UNL     1      21.526  31.597  20.376  1.00  0.00     0.093 A 
ATOM      8  C   UNL     1      20.775  30.604  21.009  1.00  0.00     0.123 A 
ATOM      9  C   UNL     1      20.561  30.672  22.385  1.00  0.00     0.094 A 
ATOM     10  C   UNL     1      21.116  31.708  23.139  1.00  0.00     0.146 A 
ATOM     11  O   UNL     1      20.896  31.728  24.448  1.00  0.00    -0.452 OA
ENDROOT
BRANCH   1  12
ATOM     12  C   UNL     1      21.053  32.579  26.698  1.00  0.00     0.025 A 
ATOM     13  C   UNL     1      20.124  33.486  27.234  1.00  0.00     0.016 A 
ATOM     14  C   UNL     1      19.802  33.449  28.593  1.00  0.00     0.051 A 
ATOM     15  C   UNL     1      20.412  32.518  29.439  1.00  0.00     0.157 A 
ATOM     16  C   UNL     1      21.682  31.658  27.555  1.00  0.00     0.062 A 
ATOM     17  C   UNL     1      21.361  31.620  28.919  1.00  0.00     0.158 A 
BRANCH  15  18
ATOM     18  O   UNL     1      20.069  32.503  30.790  1.00  0.00    -0.504 OA
ATOM     19  H   UNL     1      19.170  32.166  31.113  1.00  0.00     0.293 HD
ENDBRANCH  15  18
BRANCH  17  20
ATOM     20  O   UNL     1      21.983  30.699  29.760  1.00  0.00    -0.504 OA
ATOM     21  H   UNL     1      22.567  29.956  29.394  1.00  0.00     0.293 HD
ENDBRANCH  17  20
ENDBRANCH   1  12
BRANCH   2  22
ATOM     22  O   UNL     1      22.848  34.571  25.601  1.00  0.00    -0.502 OA
ATOM     23  H   UNL     1      22.355  35.379  25.964  1.00  0.00     0.293 HD
ENDBRANCH   2  22
BRANCH   6  24
ATOM     24  O   UNL     1      22.717  33.656  20.356  1.00  0.00    -0.507 OA
ATOM     25  H   UNL     1      22.738  33.698  19.348  1.00  0.00     0.293 HD
ENDBRANCH   6  24
BRANCH   8  26
ATOM     26  O   UNL     1      20.228  29.551  20.281  1.00  0.00    -0.508 OA
ATOM     27  H   UNL     1      19.866  28.722  20.739  1.00  0.00     0.293 HD
ENDBRANCH   8  26
TORSDOF 6
ENDMDL
MODEL 2
REMARK VINA RESULT:    -6.437      3.941      7.359
REMARK INTER + INTRA:          -8.034
REMARK INTER:                  -7.719
REMARK INTRA:                  -0.315
REMARK UNBOUND:                -0.280
REMARK SMILES O=c1c(O)c(-c2ccc(O)c(O)c2)oc2cc(O)cc(O)c12
REMARK SMILES IDX 5 1 3 2 2 3 1 4 22 5 20 6 19 7 17 8 16 9 15 10 14 11 6 12
REMARK SMILES IDX 7 13 8 14 9 15 13 16 11 17 10 18 12 20 4 22 21 24 18 26
REMARK H PARENT 10 19 12 21 4 23 21 25 18 27
REMARK Flexibility Score: inf
ROOT
ATOM      1  C   UNL     1      20.574  30.909  20.573  1.00  0.00     0.180 A 
ATOM      2  C   UNL     1      20.890  30.777  21.936  1.00  0.00     0.208 A 
ATOM      3  C   UNL     1      21.787  31.686  22.518  1.00  0.00     0.238 A 
ATOM      4  O   UNL     1      22.108  31.530  23.725  1.00  0.00    -0.285 OA
ATOM      5  C   UNL     1      22.344  32.726  21.736  1.00  0.00     0.111 A 
ATOM      6  C   UNL     1      23.231  33.728  22.232  1.00  0.00     0.134 A 
ATOM      7  C   UNL     1      23.824  34.629  21.339  1.00  0.00     0.093 A 
ATOM      8  C   UNL     1      23.509  34.607  19.979  1.00  0.00     0.123 A 
ATOM      9  C   UNL     1      22.597  33.671  19.495  1.00  0.00     0.094 A 
ATOM     10  C   UNL     1      22.018  32.735  20.354  1.00  0.00     0.146 A 
ATOM     11  O   UNL     1      21.163  31.854  19.849  1.00  0.00    -0.452 OA
ENDROOT
BRANCH   1  12
ATOM     12  C   UNL     1      19.618  30.004  19.895  1.00  0.00     0.025 A 
ATOM     13  C   UNL     1      18.241  30.265  19.981  1.00  0.00     0.016 A 
ATOM     14  C   UNL     1      17.319  29.413  19.367  1.00  0.00     0.051 A 
ATOM     15  C   UNL     1      17.756  28.281  18.673  1.00  0.00     0.157 A 
ATOM     16  C   UNL     1      20.054  28.854  19.214  1.00  0.00     0.062 A 
ATOM     17  C   UNL     1      19.131  27.996  18.598  1.00  0.00     0.158 A 
BRANCH  15  18
ATOM     18  O   UNL     1      16.814  27.450  18.068  1.00  0.00    -0.504 OA
ATOM     19  H   UNL     1      15.826  27.674  18.059  1.00  0.00     0.293 HD
ENDBRANCH  15  18
BRANCH  17  20
ATOM     20  O   UNL     1      19.573  26.862  17.919  1.00  0.00    -0.504 OA
ATOM     21  H   UNL     1      20.373  26.893  17.298  1.00  0.00     0.293 HD
ENDBRANCH  17  20
ENDBRANCH   1  12
BRANCH   2  22
ATOM     22  O   UNL     1      20.346  29.730  22.685  1.00  0.00    -0.502 OA
ATOM     23  H   UNL     1      19.373  29.713  22.970  1.00  0.00     0.293 HD
ENDBRANCH   2  22
BRANCH   6  24
ATOM     24  O   UNL     1      23.541  33.895  23.585  1.00  0.00    -0.507 OA
ATOM     25  H   UNL     1      23.943  33.183  24.175  1.00  0.00     0.293 HD
ENDBRANCH   6  24
BRANCH   8  26
ATOM     26  O   UNL     1      24.090  35.518  19.099  1.00  0.00    -0.508 OA
ATOM     27  H   UNL     1      24.600  35.210  18.279  1.00  0.00     0.293 HD
ENDBRANCH   8  26
TORSDOF 6
ENDMDL
MODEL 3
REMARK VINA RESULT:    -6.266     13.817     15.018
REMARK INTER + INTRA:          -7.828
REMARK INTER:                  -7.658
REMARK INTRA:                  -0.170
REMARK UNBOUND:                -0.280
REMARK SMILES O=c1c(O)c(-c2ccc(O)c(O)c2)oc2cc(O)cc(O)c12
REMARK SMILES IDX 5 1 3 2 2 3 1 4 22 5 20 6 19 7 17 8 16 9 15 10 14 11 6 12
REMARK SMILES IDX 7 13 8 14 9 15 13 16 11 17 10 18 12 20 4 22 21 24 18 26
REMARK H PARENT 10 19 12 21 4 23 21 25 18 27
REMARK Flexibility Score: inf
ROOT
ATOM      1  C   UNL     1      34.402  26.572  20.781  1.00  0.00     0.180 A 
ATOM      2  C   UNL     1      34.911  25.272  20.616  1.00  0.00     0.208 A 
ATOM      3  C   UNL     1      34.573  24.550  19.461  1.00  0.00     0.238 A 
ATOM      4  O   UNL     1      34.987  23.367  19.345  1.00  0.00    -0.285 OA
ATOM      5  C   UNL     1      33.744  25.141  18.478  1.00  0.00     0.111 A 
ATOM      6  C   UNL     1      33.370  24.515  17.250  1.00  0.00     0.134 A 
ATOM      7  C   UNL     1      32.439  25.142  16.412  1.00  0.00     0.093 A 
ATOM      8  C   UNL     1      31.920  26.399  16.725  1.00  0.00     0.123 A 
ATOM      9  C   UNL     1      32.324  27.044  17.892  1.00  0.00     0.094 A 
ATOM     10  C   UNL     1      33.223  26.430  18.766  1.00  0.00     0.146 A 
ATOM     11  O   UNL     1      33.573  27.074  19.872  1.00  0.00    -0.452 OA
ENDROOT
BRANCH   1  12
ATOM     12  C   UNL     1      34.734  27.405  21.959  1.00  0.00     0.025 A 
ATOM     13  C   UNL     1      35.535  28.547  21.795  1.00  0.00     0.016 A 
ATOM     14  C   UNL     1      35.879  29.335  22.895  1.00  0.00     0.051 A 
ATOM     15  C   UNL     1      35.444  28.987  24.177  1.00  0.00     0.157 A 
ATOM     16  C   UNL     1      34.315  27.045  23.253  1.00  0.00     0.062 A 
ATOM     17  C   UNL     1      34.661  27.834  24.359  1.00  0.00     0.158 A 
BRANCH  15  18
ATOM     18  O   UNL     1      35.801  29.795  25.257  1.00  0.00    -0.504 OA
ATOM     19  H   UNL     1      35.666  30.798  25.246  1.00  0.00     0.293 HD
ENDBRANCH  15  18
BRANCH  17  20
ATOM     20  O   UNL     1      34.235  27.475  25.637  1.00  0.00    -0.504 OA
ATOM     21  H   UNL     1      34.889  27.177  26.351  1.00  0.00     0.293 HD
ENDBRANCH  17  20
ENDBRANCH   1  12
BRANCH   2  22
ATOM     22  O   UNL     1      35.710  24.700  21.609  1.00  0.00    -0.502 OA
ATOM     23  H   UNL     1      35.979  23.723  21.596  1.00  0.00     0.293 HD
ENDBRANCH   2  22
BRANCH   6  24
ATOM     24  O   UNL     1      33.900  23.303  16.799  1.00  0.00    -0.507 OA
ATOM     25  H   UNL     1      33.377  22.445  16.713  1.00  0.00     0.293 HD
ENDBRANCH   6  24
BRANCH   8  26
ATOM     26  O   UNL     1      31.007  27.023  15.877  1.00  0.00    -0.508 OA
ATOM     27  H   UNL     1      30.015  27.036  16.085  1.00  0.00     0.293 HD
ENDBRANCH   8  26
TORSDOF 6
ENDMDL
MODEL 4
REMARK VINA RESULT:    -6.112      2.608      8.327
REMARK INTER + INTRA:          -7.642
REMARK INTER:                  -7.325
REMARK INTRA:                  -0.317
REMARK UNBOUND:                -0.280
REMARK SMILES O=c1c(O)c(-c2ccc(O)c(O)c2)oc2cc(O)cc(O)c12
REMARK SMILES IDX 5 1 3 2 2 3 1 4 22 5 20 6 19 7 17 8 16 9 15 10 14 11 6 12
REMARK SMILES IDX 7 13 8 14 9 15 13 16 11 17 10 18 12 20 4 22 21 24 18 26
REMARK H PARENT 10 19 12 21 4 23 21 25 18 27
REMARK Flexibility Score: inf
ROOT
ATOM      1  C   UNL     1      21.093  32.787  28.808  1.00  0.00     0.180 A 
ATOM      2  C   UNL     1      19.788  32.946  29.307  1.00  0.00     0.208 A 
ATOM      3  C   UNL     1      19.608  33.182  30.679  1.00  0.00     0.238 A 
ATOM      4  O   UNL     1      18.435  33.269  31.128  1.00  0.00    -0.285 OA
ATOM      5  C   UNL     1      20.734  33.272  31.532  1.00  0.00     0.111 A 
ATOM      6  C   UNL     1      20.670  33.547  32.931  1.00  0.00     0.134 A 
ATOM      7  C   UNL     1      21.839  33.483  33.701  1.00  0.00     0.093 A 
ATOM      8  C   UNL     1      23.076  33.218  33.111  1.00  0.00     0.123 A 
ATOM      9  C   UNL     1      23.156  33.007  31.736  1.00  0.00     0.094 A 
ATOM     10  C   UNL     1      22.004  33.029  30.947  1.00  0.00     0.146 A 
ATOM     11  O   UNL     1      22.124  32.811  29.643  1.00  0.00    -0.452 OA
ENDROOT
BRANCH   1  12
ATOM     12  C   UNL     1      21.363  32.561  27.369  1.00  0.00     0.025 A 
ATOM     13  C   UNL     1      21.607  33.662  26.531  1.00  0.00     0.016 A 
ATOM     14  C   UNL     1      21.843  33.474  25.167  1.00  0.00     0.051 A 
ATOM     15  C   UNL     1      21.824  32.189  24.617  1.00  0.00     0.157 A 
ATOM     16  C   UNL     1      21.323  31.272  26.810  1.00  0.00     0.062 A 
ATOM     17  C   UNL     1      21.559  31.082  25.440  1.00  0.00     0.158 A 
BRANCH  15  18
ATOM     18  O   UNL     1      22.066  32.033  23.253  1.00  0.00    -0.504 OA
ATOM     19  H   UNL     1      21.945  32.792  22.594  1.00  0.00     0.293 HD
ENDBRANCH  15  18
BRANCH  17  20
ATOM     20  O   UNL     1      21.525  29.799  24.895  1.00  0.00    -0.504 OA
ATOM     21  H   UNL     1      22.104  29.543  24.104  1.00  0.00     0.293 HD
ENDBRANCH  17  20
ENDBRANCH   1  12
BRANCH   2  22
ATOM     22  O   UNL     1      18.689  32.832  28.451  1.00  0.00    -0.502 OA
ATOM     23  H   UNL     1      17.954  33.528  28.413  1.00  0.00     0.293 HD
ENDBRANCH   2  22
BRANCH   6  24
ATOM     24  O   UNL     1      19.500  33.913  33.603  1.00  0.00    -0.507 OA
ATOM     25  H   UNL     1      18.741  33.284  33.817  1.00  0.00     0.293 HD
ENDBRANCH   6  24
BRANCH   8  26
ATOM     26  O   UNL     1      24.237  33.172  33.881  1.00  0.00    -0.508 OA
ATOM     27  H   UNL     1      24.738  34.016  34.133  1.00  0.00     0.293 HD
ENDBRANCH   8  26
TORSDOF 6
ENDMDL
MODEL 5
REMARK VINA RESULT:    -6.017      1.791      3.113
REMARK INTER + INTRA:          -7.528
REMARK INTER:                  -7.266
REMARK INTRA:                  -0.263
REMARK UNBOUND:                -0.280
REMARK SMILES O=c1c(O)c(-c2ccc(O)c(O)c2)oc2cc(O)cc(O)c12
REMARK SMILES IDX 5 1 3 2 2 3 1 4 22 5 20 6 19 7 17 8 16 9 15 10 14 11 6 12
REMARK SMILES IDX 7 13 8 14 9 15 13 16 11 17 10 18 12 20 4 22 21 24 18 26
REMARK H PARENT 10 19 12 21 4 23 21 25 18 27
REMARK Flexibility Score: inf
ROOT
ATOM      1  C   UNL     1      21.620  33.127  24.327  1.00  0.00     0.180 A 
ATOM      2  C   UNL     1      20.521  32.818  23.506  1.00  0.00     0.208 A 
ATOM      3  C   UNL     1      20.642  32.983  22.117  1.00  0.00     0.238 A 
ATOM      4  O   UNL     1      19.638  32.757  21.392  1.00  0.00    -0.285 OA
ATOM      5  C   UNL     1      21.863  33.437  21.565  1.00  0.00     0.111 A 
ATOM      6  C   UNL     1      22.110  33.602  20.168  1.00  0.00     0.134 A 
ATOM      7  C   UNL     1      23.311  34.183  19.743  1.00  0.00     0.093 A 
ATOM      8  C   UNL     1      24.300  34.544  20.660  1.00  0.00     0.123 A 
ATOM      9  C   UNL     1      24.093  34.332  22.021  1.00  0.00     0.094 A 
ATOM     10  C   UNL     1      22.891  33.788  22.479  1.00  0.00     0.146 A 
ATOM     11  O   UNL     1      22.730  33.614  23.785  1.00  0.00    -0.452 OA
ENDROOT
BRANCH   1  12
ATOM     12  C   UNL     1      21.577  32.955  25.797  1.00  0.00     0.025 A 
ATOM     13  C   UNL     1      21.568  34.089  26.625  1.00  0.00     0.016 A 
ATOM     14  C   UNL     1      21.549  33.951  28.015  1.00  0.00     0.051 A 
ATOM     15  C   UNL     1      21.555  32.681  28.599  1.00  0.00     0.157 A 
ATOM     16  C   UNL     1      21.604  31.678  26.387  1.00  0.00     0.062 A 
ATOM     17  C   UNL     1      21.587  31.538  27.782  1.00  0.00     0.158 A 
BRANCH  15  18
ATOM     18  O   UNL     1      21.533  32.573  29.989  1.00  0.00    -0.504 OA
ATOM     19  H   UNL     1      22.208  32.014  30.496  1.00  0.00     0.293 HD
ENDBRANCH  15  18
BRANCH  17  20
ATOM     20  O   UNL     1      21.607  30.268  28.358  1.00  0.00    -0.504 OA
ATOM     21  H   UNL     1      22.280  30.021  29.075  1.00  0.00     0.293 HD
ENDBRANCH  17  20
ENDBRANCH   1  12
BRANCH   2  22
ATOM     22  O   UNL     1      19.318  32.391  24.073  1.00  0.00    -0.502 OA
ATOM     23  H   UNL     1      19.164  31.433  24.367  1.00  0.00     0.293 HD
ENDBRANCH   2  22
BRANCH   6  24
ATOM     24  O   UNL     1      21.227  33.189  19.166  1.00  0.00    -0.507 OA
ATOM     25  H   UNL     1      20.229  33.334  19.185  1.00  0.00     0.293 HD
ENDBRANCH   6  24
BRANCH   8  26
ATOM     26  O   UNL     1      25.500  35.107  20.228  1.00  0.00    -0.508 OA
ATOM     27  H   UNL     1      25.689  36.097  20.335  1.00  0.00     0.293 HD
ENDBRANCH   8  26
TORSDOF 6
ENDMDL
MODEL 6
REMARK VINA RESULT:    -5.975      1.938      7.450
REMARK INTER + INTRA:          -7.478
REMARK INTER:                  -7.267
REMARK INTRA:                  -0.211
REMARK UNBOUND:                -0.280
REMARK SMILES O=c1c(O)c(-c2ccc(O)c(O)c2)oc2cc(O)cc(O)c12
REMARK SMILES IDX 5 1 3 2 2 3 1 4 22 5 20 6 19 7 17 8 16 9 15 10 14 11 6 12
REMARK SMILES IDX 7 13 8 14 9 15 13 16 11 17 10 18 12 20 4 22 21 24 18 26
REMARK H PARENT 10 19 12 21 4 23 21 25 18 27
REMARK Flexibility Score: inf
ROOT
ATOM      1  C   UNL     1      21.266  32.335  22.432  1.00  0.00     0.180 A 
ATOM      2  C   UNL     1      21.296  31.048  22.999  1.00  0.00     0.208 A 
ATOM      3  C   UNL     1      21.433  30.920  24.390  1.00  0.00     0.238 A 
ATOM      4  O   UNL     1      21.513  29.766  24.886  1.00  0.00    -0.285 OA
ATOM      5  C   UNL     1      21.521  32.078  25.199  1.00  0.00     0.111 A 
ATOM      6  C   UNL     1      21.621  32.067  26.623  1.00  0.00     0.134 A 
ATOM      7  C   UNL     1      21.836  33.268  27.309  1.00  0.00     0.093 A 
ATOM      8  C   UNL     1      21.887  34.487  26.630  1.00  0.00     0.123 A 
ATOM      9  C   UNL     1      21.730  34.515  25.246  1.00  0.00     0.094 A 
ATOM     10  C   UNL     1      21.551  33.330  24.529  1.00  0.00     0.146 A 
ATOM     11  O   UNL     1      21.418  33.400  23.210  1.00  0.00    -0.452 OA
ENDROOT
BRANCH   1  12
ATOM     12  C   UNL     1      21.099  32.550  20.977  1.00  0.00     0.025 A 
ATOM     13  C   UNL     1      19.870  32.243  20.370  1.00  0.00     0.016 A 
ATOM     14  C   UNL     1      19.697  32.418  18.994  1.00  0.00     0.051 A 
ATOM     15  C   UNL     1      20.750  32.886  18.203  1.00  0.00     0.157 A 
ATOM     16  C   UNL     1      22.163  33.001  20.175  1.00  0.00     0.062 A 
ATOM     17  C   UNL     1      21.992  33.175  18.795  1.00  0.00     0.158 A 
BRANCH  15  18
ATOM     18  O   UNL     1      20.547  33.053  16.834  1.00  0.00    -0.504 OA
ATOM     19  H   UNL     1      20.885  33.867  16.335  1.00  0.00     0.293 HD
ENDBRANCH  15  18
BRANCH  17  20
ATOM     20  O   UNL     1      23.050  33.630  18.009  1.00  0.00    -0.504 OA
ATOM     21  H   UNL     1      23.990  33.269  18.125  1.00  0.00     0.293 HD
ENDBRANCH  17  20
ENDBRANCH   1  12
BRANCH   2  22
ATOM     22  O   UNL     1      21.228  29.918  22.180  1.00  0.00    -0.502 OA
ATOM     23  H   UNL     1      20.766  29.926  21.279  1.00  0.00     0.293 HD
ENDBRANCH   2  22
BRANCH   6  24
ATOM     24  O   UNL     1      21.491  30.916  27.405  1.00  0.00    -0.507 OA
ATOM     25  H   UNL     1      20.997  30.871  28.283  1.00  0.00     0.293 HD
ENDBRANCH   6  24
BRANCH   8  26
ATOM     26  O   UNL     1      22.084  35.681  27.322  1.00  0.00    -0.508 OA
ATOM     27  H   UNL     1      22.987  36.139  27.340  1.00  0.00     0.293 HD
ENDBRANCH   8  26
TORSDOF 6
ENDMDL
MODEL 7
REMARK VINA RESULT:    -5.955     14.227     16.952
REMARK INTER + INTRA:          -7.454
REMARK INTER:                  -7.135
REMARK INTRA:                  -0.319
REMARK UNBOUND:                -0.280
REMARK SMILES O=c1c(O)c(-c2ccc(O)c(O)c2)oc2cc(O)cc(O)c12
REMARK SMILES IDX 5 1 3 2 2 3 1 4 22 5 20 6 19 7 17 8 16 9 15 10 14 11 6 12
REMARK SMILES IDX 7 13 8 14 9 15 13 16 11 17 10 18 12 20 4 22 21 24 18 26
REMARK H PARENT 10 19 12 21 4 23 21 25 18 27
REMARK Flexibility Score: inf
ROOT
ATOM      1  C   UNL     1      19.363  18.488  30.576  1.00  0.00     0.180 A 
ATOM      2  C   UNL     1      18.637  19.675  30.781  1.00  0.00     0.208 A 
ATOM      3  C   UNL     1      18.071  19.917  32.042  1.00  0.00     0.238 A 
ATOM      4  O   UNL     1      17.377  20.954  32.204  1.00  0.00    -0.285 OA
ATOM      5  C   UNL     1      18.252  18.980  33.088  1.00  0.00     0.111 A 
ATOM      6  C   UNL     1      17.757  19.143  34.417  1.00  0.00     0.134 A 
ATOM      7  C   UNL     1      17.882  18.092  35.333  1.00  0.00     0.093 A 
ATOM      8  C   UNL     1      18.542  16.910  34.990  1.00  0.00     0.123 A 
ATOM      9  C   UNL     1      19.081  16.766  33.713  1.00  0.00     0.094 A 
ATOM     10  C   UNL     1      18.941  17.781  32.765  1.00  0.00     0.146 A 
ATOM     11  O   UNL     1      19.460  17.598  31.557  1.00  0.00    -0.452 OA
ENDROOT
BRANCH   1  12
ATOM     12  C   UNL     1      20.010  18.175  29.282  1.00  0.00     0.025 A 
ATOM     13  C   UNL     1      21.337  18.577  29.057  1.00  0.00     0.016 A 
ATOM     14  C   UNL     1      21.961  18.311  27.836  1.00  0.00     0.051 A 
ATOM     15  C   UNL     1      21.265  17.655  26.816  1.00  0.00     0.157 A 
ATOM     16  C   UNL     1      19.306  17.534  28.246  1.00  0.00     0.062 A 
ATOM     17  C   UNL     1      19.930  17.267  27.019  1.00  0.00     0.158 A 
BRANCH  15  18
ATOM     18  O   UNL     1      21.914  17.400  25.608  1.00  0.00    -0.504 OA
ATOM     19  H   UNL     1      21.977  18.095  24.874  1.00  0.00     0.293 HD
ENDBRANCH  15  18
BRANCH  17  20
ATOM     20  O   UNL     1      19.227  16.624  26.001  1.00  0.00    -0.504 OA
ATOM     21  H   UNL     1      19.653  15.896  25.440  1.00  0.00     0.293 HD
ENDBRANCH  17  20
ENDBRANCH   1  12
BRANCH   2  22
ATOM     22  O   UNL     1      18.453  20.576  29.729  1.00  0.00    -0.502 OA
ATOM     23  H   UNL     1      19.159  21.251  29.461  1.00  0.00     0.293 HD
ENDBRANCH   2  22
BRANCH   6  24
ATOM     24  O   UNL     1      17.164  20.317  34.891  1.00  0.00    -0.507 OA
ATOM     25  H   UNL     1      17.436  21.249  34.615  1.00  0.00     0.293 HD
ENDBRANCH   6  24
BRANCH   8  26
ATOM     26  O   UNL     1      18.677  15.875  35.913  1.00  0.00    -0.508 OA
ATOM     27  H   UNL     1      19.572  15.659  36.338  1.00  0.00     0.293 HD
ENDBRANCH   8  26
TORSDOF 6
ENDMDL
MODEL 8
REMARK VINA RESULT:    -5.821      3.767      7.180
REMARK INTER + INTRA:          -7.292
REMARK INTER:                  -6.969
REMARK INTRA:                  -0.323
REMARK UNBOUND:                -0.280
REMARK SMILES O=c1c(O)c(-c2ccc(O)c(O)c2)oc2cc(O)cc(O)c12
REMARK SMILES IDX 5 1 3 2 2 3 1 4 22 5 20 6 19 7 17 8 16 9 15 10 14 11 6 12
REMARK SMILES IDX 7 13 8 14 9 15 13 16 11 17 10 18 12 20 4 22 21 24 18 26
REMARK H PARENT 10 19 12 21 4 23 21 25 18 27
REMARK Flexibility Score: inf
ROOT
ATOM      1  C   UNL     1      19.539  29.703  20.019  1.00  0.00     0.180 A 
ATOM      2  C   UNL     1      18.134  29.757  19.976  1.00  0.00     0.208 A 
ATOM      3  C   UNL     1      17.445  28.881  19.123  1.00  0.00     0.238 A 
ATOM      4  O   UNL     1      16.192  28.971  19.049  1.00  0.00    -0.285 OA
ATOM      5  C   UNL     1      18.166  27.952  18.335  1.00  0.00     0.111 A 
ATOM      6  C   UNL     1      17.569  26.990  17.466  1.00  0.00     0.134 A 
ATOM      7  C   UNL     1      18.383  26.210  16.636  1.00  0.00     0.093 A 
ATOM      8  C   UNL     1      19.775  26.309  16.692  1.00  0.00     0.123 A 
ATOM      9  C   UNL     1      20.369  27.203  17.581  1.00  0.00     0.094 A 
ATOM     10  C   UNL     1      19.583  28.021  18.396  1.00  0.00     0.146 A 
ATOM     11  O   UNL     1      20.190  28.866  19.220  1.00  0.00    -0.452 OA
ENDROOT
BRANCH   1  12
ATOM     12  C   UNL     1      20.333  30.577  20.912  1.00  0.00     0.025 A 
ATOM     13  C   UNL     1      20.739  31.843  20.458  1.00  0.00     0.016 A 
ATOM     14  C   UNL     1      21.506  32.675  21.276  1.00  0.00     0.051 A 
ATOM     15  C   UNL     1      21.894  32.252  22.550  1.00  0.00     0.157 A 
ATOM     16  C   UNL     1      20.742  30.145  22.186  1.00  0.00     0.062 A 
ATOM     17  C   UNL     1      21.515  30.979  23.008  1.00  0.00     0.158 A 
BRANCH  15  18
ATOM     18  O   UNL     1      22.659  33.106  23.345  1.00  0.00    -0.504 OA
ATOM     19  H   UNL     1      22.673  33.032  24.355  1.00  0.00     0.293 HD
ENDBRANCH  15  18
BRANCH  17  20
ATOM     20  O   UNL     1      21.910  30.545  24.273  1.00  0.00    -0.504 OA
ATOM     21  H   UNL     1      22.282  29.615  24.422  1.00  0.00     0.293 HD
ENDBRANCH  17  20
ENDBRANCH   1  12
BRANCH   2  22
ATOM     22  O   UNL     1      17.443  30.696  20.746  1.00  0.00    -0.502 OA
ATOM     23  H   UNL     1      17.588  31.694  20.646  1.00  0.00     0.293 HD
ENDBRANCH   2  22
BRANCH   6  24
ATOM     24  O   UNL     1      16.194  26.745  17.400  1.00  0.00    -0.507 OA
ATOM     25  H   UNL     1      15.501  27.205  17.970  1.00  0.00     0.293 HD
ENDBRANCH   6  24
BRANCH   8  26
ATOM     26  O   UNL     1      20.579  25.517  15.875  1.00  0.00    -0.508 OA
ATOM     27  H   UNL     1      20.205  24.712  15.386  1.00  0.00     0.293 HD
ENDBRANCH   8  26
TORSDOF 6
ENDMDL
MODEL 9
REMARK VINA RESULT:    -5.750     14.268     16.905
REMARK INTER + INTRA:          -7.207
REMARK INTER:                  -6.883
REMARK INTRA:                  -0.324
REMARK UNBOUND:                -0.280
REMARK SMILES O=c1c(O)c(-c2ccc(O)c(O)c2)oc2cc(O)cc(O)c12
REMARK SMILES IDX 5 1 3 2 2 3 1 4 22 5 20 6 19 7 17 8 16 9 15 10 14 11 6 12
REMARK SMILES IDX 7 13 8 14 9 15 13 16 11 17 10 18 12 20 4 22 21 24 18 26
REMARK H PARENT 10 19 12 21 4 23 21 25 18 27
REMARK Flexibility Score: inf
ROOT
ATOM      1  C   UNL     1      19.402  18.205  30.736  1.00  0.00     0.180 A 
ATOM      2  C   UNL     1      19.544  17.244  31.753  1.00  0.00     0.208 A 
ATOM      3  C   UNL     1      18.867  17.433  32.968  1.00  0.00     0.238 A 
ATOM      4  O   UNL     1      19.041  16.598  33.893  1.00  0.00    -0.285 OA
ATOM      5  C   UNL     1      18.044  18.571  33.146  1.00  0.00     0.111 A 
ATOM      6  C   UNL     1      17.280  18.843  34.321  1.00  0.00     0.134 A 
ATOM      7  C   UNL     1      16.605  20.064  34.438  1.00  0.00     0.093 A 
ATOM      8  C   UNL     1      16.613  20.994  33.397  1.00  0.00     0.123 A 
ATOM      9  C   UNL     1      17.307  20.712  32.222  1.00  0.00     0.094 A 
ATOM     10  C   UNL     1      18.019  19.518  32.089  1.00  0.00     0.146 A 
ATOM     11  O   UNL     1      18.676  19.295  30.958  1.00  0.00    -0.452 OA
ENDROOT
BRANCH   1  12
ATOM     12  C   UNL     1      20.064  18.062  29.420  1.00  0.00     0.025 A 
ATOM     13  C   UNL     1      21.359  18.575  29.238  1.00  0.00     0.016 A 
ATOM     14  C   UNL     1      21.995  18.470  27.999  1.00  0.00     0.051 A 
ATOM     15  C   UNL     1      21.343  17.867  26.919  1.00  0.00     0.157 A 
ATOM     16  C   UNL     1      19.403  17.475  28.326  1.00  0.00     0.062 A 
ATOM     17  C   UNL     1      20.039  17.370  27.081  1.00  0.00     0.158 A 
BRANCH  15  18
ATOM     18  O   UNL     1      22.004  17.774  25.695  1.00  0.00    -0.504 OA
ATOM     19  H   UNL     1      22.055  16.907  25.175  1.00  0.00     0.293 HD
ENDBRANCH  15  18
BRANCH  17  20
ATOM     20  O   UNL     1      19.378  16.780  26.004  1.00  0.00    -0.504 OA
ATOM     21  H   UNL     1      19.278  17.258  25.116  1.00  0.00     0.293 HD
ENDBRANCH  17  20
ENDBRANCH   1  12
BRANCH   2  22
ATOM     22  O   UNL     1      20.378  16.139  31.564  1.00  0.00    -0.502 OA
ATOM     23  H   UNL     1      21.372  16.231  31.390  1.00  0.00     0.293 HD
ENDBRANCH   2  22
BRANCH   6  24
ATOM     24  O   UNL     1      17.131  17.943  35.380  1.00  0.00    -0.507 OA
ATOM     25  H   UNL     1      17.611  18.012  36.265  1.00  0.00     0.293 HD
ENDBRANCH   6  24
BRANCH   8  26
ATOM     26  O   UNL     1      15.925  22.200  33.515  1.00  0.00    -0.508 OA
ATOM     27  H   UNL     1      16.240  23.038  33.040  1.00  0.00     0.293 HD
ENDBRANCH   8  26
TORSDOF 6
ENDMDL
