MODEL 1
REMARK VINA RESULT:    -3.637      0.000      0.000
REMARK INTER + INTRA:          -4.319
REMARK INTER:                  -4.274
REMARK INTRA:                  -0.044
REMARK UNBOUND:                -0.044
REMARK SMILES O=C([O-])CCC(=O)[O-]
REMARK SMILES IDX 4 1 2 2 1 3 3 4 5 5 6 6 7 7 8 8
REMARK H PARENT
REMARK Flexibility Score: inf
ROOT
ATOM      1  C   UNL     1     181.325 181.573 192.239  1.00  0.00     0.059 C 
ENDROOT
BRANCH   1   2
ATOM      2  C   UNL     1     179.853 181.627 191.974  1.00  0.00     0.042 C 
ATOM      3  O   UNL     1     179.035 181.309 192.876  1.00  0.00    -0.550 OA
ATOM      4  O   UNL     1     179.387 181.984 190.715  1.00  0.00    -0.550 OA
ENDBRANCH   1   2
BRANCH   1   5
ATOM      5  C   UNL     1     182.103 182.170 191.066  1.00  0.00     0.059 C 
BRANCH   5   6
ATOM      6  C   UNL     1     183.419 182.710 191.530  1.00  0.00     0.042 C 
ATOM      7  O   UNL     1     183.482 183.421 192.567  1.00  0.00    -0.550 OA
ATOM      8  O   UNL     1     184.582 182.388 190.845  1.00  0.00    -0.550 OA
ENDBRANCH   5   6
ENDBRANCH   1   5
TORSDOF 3
ENDMDL
MODEL 2
REMARK VINA RESULT:    -3.604      0.094      4.121
REMARK INTER + INTRA:          -4.281
REMARK INTER:                  -4.235
REMARK INTRA:                  -0.046
REMARK UNBOUND:                -0.044
REMARK SMILES O=C([O-])CCC(=O)[O-]
REMARK SMILES IDX 4 1 2 2 1 3 3 4 5 5 6 6 7 7 8 8
REMARK H PARENT
REMARK Flexibility Score: inf
ROOT
ATOM      1  C   UNL     1     182.073 182.122 191.097  1.00  0.00     0.059 C 
ENDROOT
BRANCH   1   2
ATOM      2  C   UNL     1     183.392 182.674 191.541  1.00  0.00     0.042 C 
ATOM      3  O   UNL     1     183.469 183.359 192.594  1.00  0.00    -0.550 OA
ATOM      4  O   UNL     1     184.526 182.471 190.766  1.00  0.00    -0.550 OA
ENDBRANCH   1   2
BRANCH   1   5
ATOM      5  C   UNL     1     181.277 181.608 192.297  1.00  0.00     0.059 C 
BRANCH   5   6
ATOM      6  C   UNL     1     179.809 181.644 192.005  1.00  0.00     0.042 C 
ATOM      7  O   UNL     1     178.980 181.269 192.875  1.00  0.00    -0.550 OA
ATOM      8  O   UNL     1     179.355 182.137 190.789  1.00  0.00    -0.550 OA
ENDBRANCH   5   6
ENDBRANCH   1   5
TORSDOF 3
ENDMDL
MODEL 3
REMARK VINA RESULT:    -3.372      9.343     10.569
REMARK INTER + INTRA:          -4.008
REMARK INTER:                  -3.836
REMARK INTRA:                  -0.171
REMARK UNBOUND:                -0.044
REMARK SMILES O=C([O-])CCC(=O)[O-]
REMARK SMILES IDX 4 1 2 2 1 3 3 4 5 5 6 6 7 7 8 8
REMARK H PARENT
REMARK Flexibility Score: inf
ROOT
ATOM      1  C   UNL     1     181.258 183.896 180.695  1.00  0.00     0.059 C 
ENDROOT
BRANCH   1   2
ATOM      2  C   UNL     1     182.330 184.872 181.066  1.00  0.00     0.042 C 
ATOM      3  O   UNL     1     183.538 184.516 181.068  1.00  0.00    -0.550 OA
ATOM      4  O   UNL     1     181.992 186.161 181.457  1.00  0.00    -0.550 OA
ENDBRANCH   1   2
BRANCH   1   5
ATOM      5  C   UNL     1     181.188 182.763 181.718  1.00  0.00     0.059 C 
BRANCH   5   6
ATOM      6  C   UNL     1     180.561 183.243 182.990  1.00  0.00     0.042 C 
ATOM      7  O   UNL     1     181.202 183.192 184.072  1.00  0.00    -0.550 OA
ATOM      8  O   UNL     1     179.286 183.792 182.971  1.00  0.00    -0.550 OA
ENDBRANCH   5   6
ENDBRANCH   1   5
TORSDOF 3
ENDMDL
MODEL 4
REMARK VINA RESULT:    -3.333      9.420     10.346
REMARK INTER + INTRA:          -3.962
REMARK INTER:                  -3.783
REMARK INTRA:                  -0.179
REMARK UNBOUND:                -0.044
REMARK SMILES O=C([O-])CCC(=O)[O-]
REMARK SMILES IDX 4 1 2 2 1 3 3 4 5 5 6 6 7 7 8 8
REMARK H PARENT
REMARK Flexibility Score: inf
ROOT
ATOM      1  C   UNL     1     183.664 180.720 181.146  1.00  0.00     0.059 C 
ENDROOT
BRANCH   1   2
ATOM      2  C   UNL     1     183.097 181.206 182.443  1.00  0.00     0.042 C 
ATOM      3  O   UNL     1     183.223 180.515 183.488  1.00  0.00    -0.550 OA
ATOM      4  O   UNL     1     182.387 182.399 182.487  1.00  0.00    -0.550 OA
ENDBRANCH   1   2
BRANCH   1   5
ATOM      5  C   UNL     1     184.625 181.755 180.561  1.00  0.00     0.059 C 
BRANCH   5   6
ATOM      6  C   UNL     1     185.834 181.898 181.431  1.00  0.00     0.042 C 
ATOM      7  O   UNL     1     186.549 180.896 181.692  1.00  0.00    -0.550 OA
ATOM      8  O   UNL     1     186.198 183.148 181.914  1.00  0.00    -0.550 OA
ENDBRANCH   5   6
ENDBRANCH   1   5
TORSDOF 3
ENDMDL
MODEL 5
REMARK VINA RESULT:    -3.326     10.107     11.188
REMARK INTER + INTRA:          -3.954
REMARK INTER:                  -3.784
REMARK INTRA:                  -0.170
REMARK UNBOUND:                -0.044
REMARK SMILES O=C([O-])CCC(=O)[O-]
REMARK SMILES IDX 4 1 2 2 1 3 3 4 5 5 6 6 7 7 8 8
REMARK H PARENT
REMARK Flexibility Score: inf
ROOT
ATOM      1  C   UNL     1     185.236 181.241 180.620  1.00  0.00     0.059 C 
ENDROOT
BRANCH   1   2
ATOM      2  C   UNL     1     186.045 181.693 181.795  1.00  0.00     0.042 C 
ATOM      3  O   UNL     1     186.362 180.876 182.699  1.00  0.00    -0.550 OA
ATOM      4  O   UNL     1     186.407 183.029 181.917  1.00  0.00    -0.550 OA
ENDBRANCH   1   2
BRANCH   1   5
ATOM      5  C   UNL     1     183.797 180.947 181.042  1.00  0.00     0.059 C 
BRANCH   5   6
ATOM      6  C   UNL     1     183.075 182.218 181.361  1.00  0.00     0.042 C 
ATOM      7  O   UNL     1     182.547 182.380 182.493  1.00  0.00    -0.550 OA
ATOM      8  O   UNL     1     183.027 183.243 180.426  1.00  0.00    -0.550 OA
ENDBRANCH   5   6
ENDBRANCH   1   5
TORSDOF 3
ENDMDL
MODEL 6
REMARK VINA RESULT:    -3.319      9.302     10.671
REMARK INTER + INTRA:          -3.945
REMARK INTER:                  -3.761
REMARK INTRA:                  -0.184
REMARK UNBOUND:                -0.044
REMARK SMILES O=C([O-])CCC(=O)[O-]
REMARK SMILES IDX 4 1 2 2 1 3 3 4 5 5 6 6 7 7 8 8
REMARK H PARENT
REMARK Flexibility Score: inf
ROOT
ATOM      1  C   UNL     1     180.212 183.111 181.175  1.00  0.00     0.059 C 
ENDROOT
BRANCH   1   2
ATOM      2  C   UNL     1     180.762 182.628 182.481  1.00  0.00     0.042 C 
ATOM      3  O   UNL     1     180.742 183.377 183.493  1.00  0.00    -0.550 OA
ATOM      4  O   UNL     1     181.341 181.369 182.567  1.00  0.00    -0.550 OA
ENDBRANCH   1   2
BRANCH   1   5
ATOM      5  C   UNL     1     179.177 182.125 180.634  1.00  0.00     0.059 C 
BRANCH   5   6
ATOM      6  C   UNL     1     178.006 182.032 181.561  1.00  0.00     0.042 C 
ATOM      7  O   UNL     1     177.314 183.053 181.813  1.00  0.00    -0.550 OA
ATOM      8  O   UNL     1     177.651 180.807 182.110  1.00  0.00    -0.550 OA
ENDBRANCH   5   6
ENDBRANCH   1   5
TORSDOF 3
ENDMDL
MODEL 7
REMARK VINA RESULT:    -3.284      9.204     10.068
REMARK INTER + INTRA:          -3.905
REMARK INTER:                  -3.723
REMARK INTRA:                  -0.182
REMARK UNBOUND:                -0.044
REMARK SMILES O=C([O-])CCC(=O)[O-]
REMARK SMILES IDX 4 1 2 2 1 3 3 4 5 5 6 6 7 7 8 8
REMARK H PARENT
REMARK Flexibility Score: inf
ROOT
ATOM      1  C   UNL     1     181.287 184.208 181.672  1.00  0.00     0.059 C 
ENDROOT
BRANCH   1   2
ATOM      2  C   UNL     1     180.382 183.621 182.710  1.00  0.00     0.042 C 
ATOM      3  O   UNL     1     179.190 183.334 182.422  1.00  0.00    -0.550 OA
ATOM      4  O   UNL     1     180.841 183.437 184.008  1.00  0.00    -0.550 OA
ENDBRANCH   1   2
BRANCH   1   5
ATOM      5  C   UNL     1     181.628 183.165 180.608  1.00  0.00     0.059 C 
BRANCH   5   6
ATOM      6  C   UNL     1     182.429 182.050 181.206  1.00  0.00     0.042 C 
ATOM      7  O   UNL     1     183.553 182.285 181.723  1.00  0.00    -0.550 OA
ATOM      8  O   UNL     1     181.914 180.762 181.234  1.00  0.00    -0.550 OA
ENDBRANCH   5   6
ENDBRANCH   1   5
TORSDOF 3
ENDMDL
MODEL 8
REMARK VINA RESULT:    -3.279      9.218     10.437
REMARK INTER + INTRA:          -3.899
REMARK INTER:                  -3.735
REMARK INTRA:                  -0.164
REMARK UNBOUND:                -0.044
REMARK SMILES O=C([O-])CCC(=O)[O-]
REMARK SMILES IDX 4 1 2 2 1 3 3 4 5 5 6 6 7 7 8 8
REMARK H PARENT
REMARK Flexibility Score: inf
ROOT
ATOM      1  C   UNL     1     181.660 183.177 180.618  1.00  0.00     0.059 C 
ENDROOT
BRANCH   1   2
ATOM      2  C   UNL     1     182.483 182.067 181.194  1.00  0.00     0.042 C 
ATOM      3  O   UNL     1     182.102 180.872 181.081  1.00  0.00    -0.550 OA
ATOM      4  O   UNL     1     183.645 182.356 181.897  1.00  0.00    -0.550 OA
ENDBRANCH   1   2
BRANCH   1   5
ATOM      5  C   UNL     1     181.320 184.205 181.696  1.00  0.00     0.059 C 
BRANCH   5   6
ATOM      6  C   UNL     1     180.395 183.612 182.713  1.00  0.00     0.042 C 
ATOM      7  O   UNL     1     180.792 183.411 183.890  1.00  0.00    -0.550 OA
ATOM      8  O   UNL     1     179.080 183.325 182.372  1.00  0.00    -0.550 OA
ENDBRANCH   5   6
ENDBRANCH   1   5
TORSDOF 3
ENDMDL
MODEL 9
REMARK VINA RESULT:    -3.272     10.186     11.381
REMARK INTER + INTRA:          -3.890
REMARK INTER:                  -3.722
REMARK INTRA:                  -0.168
REMARK UNBOUND:                -0.044
REMARK SMILES O=C([O-])CCC(=O)[O-]
REMARK SMILES IDX 4 1 2 2 1 3 3 4 5 5 6 6 7 7 8 8
REMARK H PARENT
REMARK Flexibility Score: inf
ROOT
ATOM      1  C   UNL     1     182.056 179.465 180.992  1.00  0.00     0.059 C 
ENDROOT
BRANCH   1   2
ATOM      2  C   UNL     1     183.084 180.283 181.708  1.00  0.00     0.042 C 
ATOM      3  O   UNL     1     182.984 180.485 182.947  1.00  0.00    -0.550 OA
ATOM      4  O   UNL     1     184.127 180.863 180.998  1.00  0.00    -0.550 OA
ENDBRANCH   1   2
BRANCH   1   5
ATOM      5  C   UNL     1     180.675 180.106 181.126  1.00  0.00     0.059 C 
BRANCH   5   6
ATOM      6  C   UNL     1     180.586 181.339 180.281  1.00  0.00     0.042 C 
ATOM      7  O   UNL     1     180.503 181.244 179.029  1.00  0.00    -0.550 OA
ATOM      8  O   UNL     1     180.545 182.590 180.881  1.00  0.00    -0.550 OA
ENDBRANCH   5   6
ENDBRANCH   1   5
TORSDOF 3
ENDMDL
