MODEL 1
REMARK VINA RESULT:    -5.054      0.000      0.000
REMARK INTER + INTRA:          -3.516
REMARK INTER:                  -6.235
REMARK INTRA:                   2.720
REMARK UNBOUND:                 2.720
REMARK SMILES C=C1CC[C@H]2[C@H]([C@@H]3[C@@H](C)CC[C@@H]13)C2(C)C
REMARK SMILES IDX 3 1 2 2 1 3 12 4 9 5 8 6 10 7 7 8 11 9 4 11 5 12 6 13 13 14
REMARK SMILES IDX 14 16 15 17
REMARK H PARENT
REMARK Flexibility Score: 80.00
ROOT
ATOM      1  C   UNL     1     145.745 150.319 163.438  1.00  0.00     0.031 C 
ENDROOT
BRANCH   1   2
ATOM      2  C   UNL     1     146.838 149.593 164.232  1.00  0.00    -0.074 C 
ATOM      3  C   UNL     1     147.808 150.313 164.819  1.00  0.00     0.008 C 
BRANCH   2   4
ATOM      4  C   UNL     1     146.924 148.073 164.080  1.00  0.00     0.018 C 
ATOM      5  C   UNL     1     149.027 145.533 162.280  1.00  0.00     0.008 C 
ATOM      6  C   UNL     1     147.829 146.133 163.022  1.00  0.00    -0.010 C 
ATOM      7  C   UNL     1     147.909 145.913 164.548  1.00  0.00     0.004 C 
ATOM      8  C   UNL     1     147.731 147.651 162.851  1.00  0.00     0.003 CG0
ATOM      9  C   UNL     1     147.510 147.239 165.215  1.00  0.00     0.008 C 
ATOM     10  G   UNL     1     146.962 148.113 161.599  1.00  0.00     0.000 G0
ENDBRANCH   2   4
ENDBRANCH   1   2
BRANCH   1  11
ATOM     11  C   UNL     1     146.002 150.425 161.899  1.00  0.00     0.009 C 
BRANCH  11  12
ATOM     12  C   UNL     1     147.245 149.635 161.458  1.00  0.00    -0.001 C 
ATOM     13  C   UNL     1     146.935 148.117 161.601  1.00  0.00     0.002 CG0
ATOM     14  C   UNL     1     147.431 148.696 160.276  1.00  0.00    -0.029 C 
ATOM     15  G   UNL     1     147.725 147.661 162.842  1.00  0.00     0.000 G0
ATOM     16  C   UNL     1     146.408 148.818 159.141  1.00  0.00     0.011 C 
ATOM     17  C   UNL     1     148.880 148.395 159.877  1.00  0.00     0.011 C 
ENDBRANCH  11  12
ENDBRANCH   1  11
TORSDOF 0
ENDMDL
MODEL 2
REMARK VINA RESULT:    -4.994      4.745      5.500
REMARK INTER + INTRA:          -3.442
REMARK INTER:                  -6.148
REMARK INTRA:                   2.706
REMARK UNBOUND:                 2.720
REMARK SMILES C=C1CC[C@H]2[C@H]([C@@H]3[C@@H](C)CC[C@@H]13)C2(C)C
REMARK SMILES IDX 3 1 2 2 1 3 12 4 9 5 8 6 10 7 7 8 11 9 4 11 5 12 6 13 13 14
REMARK SMILES IDX 14 16 15 17
REMARK H PARENT
REMARK Flexibility Score: 80.00
ROOT
ATOM      1  C   UNL     1     140.460 145.708 163.517  1.00  0.00     0.031 C 
ENDROOT
BRANCH   1   2
ATOM      2  C   UNL     1     141.198 146.801 164.301  1.00  0.00    -0.074 C 
ATOM      3  C   UNL     1     140.487 147.771 164.899  1.00  0.00     0.008 C 
BRANCH   2   4
ATOM      4  C   UNL     1     142.716 146.888 164.127  1.00  0.00     0.018 C 
ATOM      5  C   UNL     1     145.228 148.990 162.287  1.00  0.00     0.008 C 
ATOM      6  C   UNL     1     144.639 147.792 163.039  1.00  0.00    -0.010 C 
ATOM      7  C   UNL     1     144.881 147.873 164.562  1.00  0.00     0.004 C 
ATOM      8  C   UNL     1     143.120 147.693 162.891  1.00  0.00     0.003 CG0
ATOM      9  C   UNL     1     143.566 147.475 165.248  1.00  0.00     0.008 C 
ATOM     10  G   UNL     1     142.639 146.923 161.647  1.00  0.00     0.000 G0
ENDBRANCH   2   4
ENDBRANCH   1   2
BRANCH   1  11
ATOM     11  C   UNL     1     140.363 145.948 161.975  1.00  0.00     0.009 C 
BRANCH  11  12
ATOM     12  C   UNL     1     141.118 147.211 161.531  1.00  0.00    -0.001 C 
ATOM     13  C   UNL     1     142.644 146.930 161.635  1.00  0.00     0.002 CG0
ATOM     14  C   UNL     1     142.025 147.430 160.330  1.00  0.00    -0.029 C 
ATOM     15  G   UNL     1     143.114 147.715 162.874  1.00  0.00     0.000 G0
ATOM     16  C   UNL     1     141.896 146.418 159.185  1.00  0.00     0.011 C 
ATOM     17  C   UNL     1     142.288 148.889 159.942  1.00  0.00     0.011 C 
ENDBRANCH  11  12
ENDBRANCH   1  11
TORSDOF 0
ENDMDL
MODEL 3
REMARK VINA RESULT:    -4.983      4.655      5.432
REMARK INTER + INTRA:          -3.428
REMARK INTER:                  -6.095
REMARK INTRA:                   2.666
REMARK UNBOUND:                 2.720
REMARK SMILES C=C1CC[C@H]2[C@H]([C@@H]3[C@@H](C)CC[C@@H]13)C2(C)C
REMARK SMILES IDX 3 1 2 2 1 3 12 4 9 5 8 6 10 7 7 8 11 9 4 11 5 12 6 13 13 14
REMARK SMILES IDX 14 16 15 17
REMARK H PARENT
REMARK Flexibility Score: 80.00
ROOT
ATOM      1  C   UNL     1     150.366 145.003 163.662  1.00  0.00     0.031 C 
ENDROOT
BRANCH   1   2
ATOM      2  C   UNL     1     149.603 143.873 164.364  1.00  0.00    -0.074 C 
ATOM      3  C   UNL     1     150.291 142.847 164.892  1.00  0.00     0.008 C 
BRANCH   2   4
ATOM      4  C   UNL     1     148.084 143.831 164.182  1.00  0.00     0.018 C 
ATOM      5  C   UNL     1     145.533 141.920 162.193  1.00  0.00     0.008 C 
ATOM      6  C   UNL     1     146.145 143.048 163.029  1.00  0.00    -0.010 C 
ATOM      7  C   UNL     1     145.897 142.865 164.542  1.00  0.00     0.004 C 
ATOM      8  C   UNL     1     147.667 143.124 162.891  1.00  0.00     0.003 CG0
ATOM      9  C   UNL     1     147.218 143.185 165.257  1.00  0.00     0.008 C 
ATOM     10  G   UNL     1     148.168 143.971 161.705  1.00  0.00     0.000 G0
ENDBRANCH   2   4
ENDBRANCH   1   2
BRANCH   1  11
ATOM     11  C   UNL     1     150.471 144.868 162.108  1.00  0.00     0.009 C 
BRANCH  11  12
ATOM     12  C   UNL     1     149.687 143.659 161.571  1.00  0.00    -0.001 C 
ATOM     13  C   UNL     1     148.168 143.973 161.686  1.00  0.00     0.002 CG0
ATOM     14  C   UNL     1     148.784 143.549 160.352  1.00  0.00    -0.029 C 
ATOM     15  G   UNL     1     147.668 143.117 162.864  1.00  0.00     0.000 G0
ATOM     16  C   UNL     1     148.949 144.635 159.282  1.00  0.00     0.011 C 
ATOM     17  C   UNL     1     148.486 142.128 159.862  1.00  0.00     0.011 C 
ENDBRANCH  11  12
ENDBRANCH   1  11
TORSDOF 0
ENDMDL
MODEL 4
REMARK VINA RESULT:    -4.941      6.107      7.663
REMARK INTER + INTRA:          -3.376
REMARK INTER:                  -6.127
REMARK INTRA:                   2.751
REMARK UNBOUND:                 2.720
REMARK SMILES C=C1CC[C@H]2[C@H]([C@@H]3[C@@H](C)CC[C@@H]13)C2(C)C
REMARK SMILES IDX 3 1 2 2 1 3 12 4 9 5 8 6 10 7 7 8 11 9 4 11 5 12 6 13 13 14
REMARK SMILES IDX 14 16 15 17
REMARK H PARENT
REMARK Flexibility Score: 80.00
ROOT
ATOM      1  C   UNL     1     145.095 140.454 163.370  1.00  0.00     0.031 C 
ENDROOT
BRANCH   1   2
ATOM      2  C   UNL     1     144.038 141.184 164.207  1.00  0.00    -0.074 C 
ATOM      3  C   UNL     1     143.064 140.472 164.797  1.00  0.00     0.008 C 
BRANCH   2   4
ATOM      4  C   UNL     1     143.983 142.709 164.095  1.00  0.00     0.018 C 
ATOM      5  C   UNL     1     141.929 145.339 162.368  1.00  0.00     0.008 C 
ATOM      6  C   UNL     1     143.116 144.694 163.090  1.00  0.00    -0.010 C 
ATOM      7  C   UNL     1     143.045 144.876 164.622  1.00  0.00     0.004 C 
ATOM      8  C   UNL     1     143.182 143.180 162.880  1.00  0.00     0.003 CG0
ATOM      9  C   UNL     1     143.417 143.525 165.252  1.00  0.00     0.008 C 
ATOM     10  G   UNL     1     143.939 142.735 161.614  1.00  0.00     0.000 G0
ENDBRANCH   2   4
ENDBRANCH   1   2
BRANCH   1  11
ATOM     11  C   UNL     1     144.792 140.375 161.838  1.00  0.00     0.009 C 
BRANCH  11  12
ATOM     12  C   UNL     1     143.568 141.216 161.440  1.00  0.00    -0.001 C 
ATOM     13  C   UNL     1     143.934 142.719 161.608  1.00  0.00     0.002 CG0
ATOM     14  C   UNL     1     143.391 142.187 160.282  1.00  0.00    -0.029 C 
ATOM     15  G   UNL     1     143.186 143.176 162.875  1.00  0.00     0.000 G0
ATOM     16  C   UNL     1     144.385 142.053 159.123  1.00  0.00     0.011 C 
ATOM     17  C   UNL     1     141.945 142.546 159.921  1.00  0.00     0.011 C 
ENDBRANCH  11  12
ENDBRANCH   1  11
TORSDOF 0
ENDMDL
MODEL 5
REMARK VINA RESULT:    -4.767      1.018      3.745
REMARK INTER + INTRA:          -3.162
REMARK INTER:                  -5.839
REMARK INTRA:                   2.677
REMARK UNBOUND:                 2.720
REMARK SMILES C=C1CC[C@H]2[C@H]([C@@H]3[C@@H](C)CC[C@@H]13)C2(C)C
REMARK SMILES IDX 3 1 2 2 1 3 12 4 9 5 8 6 10 7 7 8 11 9 4 11 5 12 6 13 13 14
REMARK SMILES IDX 14 16 15 17
REMARK H PARENT
REMARK Flexibility Score: 80.00
ROOT
ATOM      1  C   UNL     1     147.350 149.641 164.495  1.00  0.00     0.031 C 
ENDROOT
BRANCH   1   2
ATOM      2  C   UNL     1     146.696 149.751 163.112  1.00  0.00    -0.074 C 
ATOM      3  C   UNL     1     145.365 149.916 163.029  1.00  0.00     0.008 C 
BRANCH   2   4
ATOM      4  C   UNL     1     147.552 149.386 161.898  1.00  0.00     0.018 C 
ATOM      5  C   UNL     1     147.994 146.512 159.519  1.00  0.00     0.008 C 
ATOM      6  C   UNL     1     148.319 147.793 160.293  1.00  0.00    -0.010 C 
ATOM      7  C   UNL     1     147.904 149.068 159.526  1.00  0.00     0.004 C 
ATOM      8  C   UNL     1     147.575 147.881 161.626  1.00  0.00     0.003 CG0
ATOM      9  C   UNL     1     147.232 150.004 160.542  1.00  0.00     0.008 C 
ATOM     10  G   UNL     1     148.285 147.197 162.810  1.00  0.00     0.000 G0
ENDBRANCH   2   4
ENDBRANCH   1   2
BRANCH   1  11
ATOM     11  C   UNL     1     147.562 148.182 165.016  1.00  0.00     0.009 C 
BRANCH  11  12
ATOM     12  C   UNL     1     147.204 147.125 163.957  1.00  0.00    -0.001 C 
ATOM     13  C   UNL     1     148.271 147.185 162.827  1.00  0.00     0.002 CG0
ATOM     14  C   UNL     1     147.957 145.871 163.542  1.00  0.00    -0.029 C 
ATOM     15  G   UNL     1     147.562 147.863 161.640  1.00  0.00     0.000 G0
ATOM     16  C   UNL     1     149.004 145.346 164.532  1.00  0.00     0.011 C 
ATOM     17  C   UNL     1     147.148 144.826 162.766  1.00  0.00     0.011 C 
ENDBRANCH  11  12
ENDBRANCH   1  11
TORSDOF 0
ENDMDL
MODEL 6
REMARK VINA RESULT:    -4.733      4.312      5.872
REMARK INTER + INTRA:          -3.120
REMARK INTER:                  -5.823
REMARK INTRA:                   2.703
REMARK UNBOUND:                 2.720
REMARK SMILES C=C1CC[C@H]2[C@H]([C@@H]3[C@@H](C)CC[C@@H]13)C2(C)C
REMARK SMILES IDX 3 1 2 2 1 3 12 4 9 5 8 6 10 7 7 8 11 9 4 11 5 12 6 13 13 14
REMARK SMILES IDX 14 16 15 17
REMARK H PARENT
REMARK Flexibility Score: 80.00
ROOT
ATOM      1  C   UNL     1     141.081 147.487 164.586  1.00  0.00     0.031 C 
ENDROOT
BRANCH   1   2
ATOM      2  C   UNL     1     140.949 146.816 163.214  1.00  0.00    -0.074 C 
ATOM      3  C   UNL     1     140.660 145.505 163.151  1.00  0.00     0.008 C 
BRANCH   2   4
ATOM      4  C   UNL     1     141.429 147.607 161.996  1.00  0.00     0.018 C 
ATOM      5  C   UNL     1     144.388 147.704 159.682  1.00  0.00     0.008 C 
ATOM      6  C   UNL     1     143.130 148.175 160.418  1.00  0.00    -0.010 C 
ATOM      7  C   UNL     1     141.837 147.879 159.627  1.00  0.00     0.004 C 
ATOM      8  C   UNL     1     142.935 147.468 161.761  1.00  0.00     0.003 CG0
ATOM      9  C   UNL     1     140.813 147.326 160.630  1.00  0.00     0.008 C 
ATOM     10  G   UNL     1     143.660 148.126 162.950  1.00  0.00     0.000 G0
ENDBRANCH   2   4
ENDBRANCH   1   2
BRANCH   1  11
ATOM     11  C   UNL     1     142.540 147.586 165.141  1.00  0.00     0.009 C 
BRANCH  11  12
ATOM     12  C   UNL     1     143.586 147.101 164.123  1.00  0.00    -0.001 C 
ATOM     13  C   UNL     1     143.650 148.132 162.960  1.00  0.00     0.002 CG0
ATOM     14  C   UNL     1     144.913 147.726 163.720  1.00  0.00    -0.029 C 
ATOM     15  G   UNL     1     142.942 147.447 161.776  1.00  0.00     0.000 G0
ATOM     16  C   UNL     1     145.504 148.754 164.692  1.00  0.00     0.011 C 
ATOM     17  C   UNL     1     145.900 146.801 162.998  1.00  0.00     0.011 C 
ENDBRANCH  11  12
ENDBRANCH   1  11
TORSDOF 0
ENDMDL
MODEL 7
REMARK VINA RESULT:    -4.647      4.745      6.223
REMARK INTER + INTRA:          -3.014
REMARK INTER:                  -5.716
REMARK INTRA:                   2.702
REMARK UNBOUND:                 2.720
REMARK SMILES C=C1CC[C@H]2[C@H]([C@@H]3[C@@H](C)CC[C@@H]13)C2(C)C
REMARK SMILES IDX 3 1 2 2 1 3 12 4 9 5 8 6 10 7 7 8 11 9 4 11 5 12 6 13 13 14
REMARK SMILES IDX 14 16 15 17
REMARK H PARENT
REMARK Flexibility Score: 80.00
ROOT
ATOM      1  C   UNL     1     149.597 143.156 164.604  1.00  0.00     0.031 C 
ENDROOT
BRANCH   1   2
ATOM      2  C   UNL     1     149.839 143.848 163.257  1.00  0.00    -0.074 C 
ATOM      3  C   UNL     1     150.250 145.127 163.243  1.00  0.00     0.008 C 
BRANCH   2   4
ATOM      4  C   UNL     1     149.332 143.138 162.001  1.00  0.00     0.018 C 
ATOM      5  C   UNL     1     146.444 143.358 159.608  1.00  0.00     0.008 C 
ATOM      6  C   UNL     1     147.637 142.763 160.360  1.00  0.00    -0.010 C 
ATOM      7  C   UNL     1     148.973 142.975 159.614  1.00  0.00     0.004 C 
ATOM      8  C   UNL     1     147.850 143.408 161.731  1.00  0.00     0.003 CG0
ATOM      9  C   UNL     1     150.009 143.410 160.661  1.00  0.00     0.008 C 
ATOM     10  G   UNL     1     147.039 142.776 162.877  1.00  0.00     0.000 G0
ENDBRANCH   2   4
ENDBRANCH   1   2
BRANCH   1  11
ATOM     11  C   UNL     1     148.123 143.208 165.122  1.00  0.00     0.009 C 
BRANCH  11  12
ATOM     12  C   UNL     1     147.156 143.789 164.077  1.00  0.00    -0.001 C 
ATOM     13  C   UNL     1     147.044 142.778 162.900  1.00  0.00     0.002 CG0
ATOM     14  C   UNL     1     145.795 143.282 163.624  1.00  0.00    -0.029 C 
ATOM     15  G   UNL     1     147.846 143.412 161.749  1.00  0.00     0.000 G0
ATOM     16  C   UNL     1     145.087 142.299 164.563  1.00  0.00     0.011 C 
ATOM     17  C   UNL     1     144.914 144.293 162.881  1.00  0.00     0.011 C 
ENDBRANCH  11  12
ENDBRANCH   1  11
TORSDOF 0
ENDMDL
MODEL 8
REMARK VINA RESULT:    -4.451      5.061      6.887
REMARK INTER + INTRA:          -2.772
REMARK INTER:                  -5.527
REMARK INTRA:                   2.755
REMARK UNBOUND:                 2.720
REMARK SMILES C=C1CC[C@H]2[C@H]([C@@H]3[C@@H](C)CC[C@@H]13)C2(C)C
REMARK SMILES IDX 3 1 2 2 1 3 12 4 9 5 8 6 10 7 7 8 11 9 4 11 5 12 6 13 13 14
REMARK SMILES IDX 14 16 15 17
REMARK H PARENT
REMARK Flexibility Score: 80.00
ROOT
ATOM      1  C   UNL     1     144.884 140.583 162.196  1.00  0.00     0.031 C 
ENDROOT
BRANCH   1   2
ATOM      2  C   UNL     1     145.361 141.028 163.584  1.00  0.00    -0.074 C 
ATOM      3  C   UNL     1     144.991 140.317 164.662  1.00  0.00     0.008 C 
BRANCH   2   4
ATOM      4  C   UNL     1     145.998 142.414 163.697  1.00  0.00     0.018 C 
ATOM      5  C   UNL     1     145.058 145.866 164.845  1.00  0.00     0.008 C 
ATOM      6  C   UNL     1     145.825 144.759 164.115  1.00  0.00    -0.010 C 
ATOM      7  C   UNL     1     147.016 144.223 164.940  1.00  0.00     0.004 C 
ATOM      8  C   UNL     1     144.959 143.529 163.836  1.00  0.00     0.003 CG0
ATOM      9  C   UNL     1     146.994 142.692 164.818  1.00  0.00     0.008 C 
ATOM     10  G   UNL     1     144.152 143.589 162.526  1.00  0.00     0.000 G0
ENDBRANCH   2   4
ENDBRANCH   1   2
BRANCH   1  11
ATOM     11  C   UNL     1     143.589 141.291 161.680  1.00  0.00     0.009 C 
BRANCH  11  12
ATOM     12  C   UNL     1     143.129 142.423 162.614  1.00  0.00    -0.001 C 
ATOM     13  C   UNL     1     144.161 143.583 162.519  1.00  0.00     0.002 CG0
ATOM     14  C   UNL     1     142.672 143.834 162.280  1.00  0.00    -0.029 C 
ATOM     15  G   UNL     1     144.957 143.522 163.836  1.00  0.00     0.000 G0
ATOM     16  C   UNL     1     142.229 144.082 160.833  1.00  0.00     0.011 C 
ATOM     17  C   UNL     1     141.898 144.569 163.380  1.00  0.00     0.011 C 
ENDBRANCH  11  12
ENDBRANCH   1  11
TORSDOF 0
ENDMDL
MODEL 9
REMARK VINA RESULT:    -4.416      4.460      5.047
REMARK INTER + INTRA:          -2.729
REMARK INTER:                  -5.464
REMARK INTRA:                   2.735
REMARK UNBOUND:                 2.720
REMARK SMILES C=C1CC[C@H]2[C@H]([C@@H]3[C@@H](C)CC[C@@H]13)C2(C)C
REMARK SMILES IDX 3 1 2 2 1 3 12 4 9 5 8 6 10 7 7 8 11 9 4 11 5 12 6 13 13 14
REMARK SMILES IDX 14 16 15 17
REMARK H PARENT
REMARK Flexibility Score: 80.00
ROOT
ATOM      1  C   UNL     1     140.680 145.911 162.474  1.00  0.00     0.031 C 
ENDROOT
BRANCH   1   2
ATOM      2  C   UNL     1     141.303 145.514 163.818  1.00  0.00    -0.074 C 
ATOM      3  C   UNL     1     140.727 145.934 164.956  1.00  0.00     0.008 C 
BRANCH   2   4
ATOM      4  C   UNL     1     142.703 144.898 163.789  1.00  0.00     0.018 C 
ATOM      5  C   UNL     1     146.256 145.936 164.434  1.00  0.00     0.008 C 
ATOM      6  C   UNL     1     145.079 145.118 163.895  1.00  0.00    -0.010 C 
ATOM      7  C   UNL     1     144.672 143.971 164.845  1.00  0.00     0.004 C 
ATOM      8  C   UNL     1     143.808 145.954 163.727  1.00  0.00     0.003 CG0
ATOM      9  C   UNL     1     143.137 143.971 164.919  1.00  0.00     0.008 C 
ATOM     10  G   UNL     1     143.688 146.686 162.377  1.00  0.00     0.000 G0
ENDBRANCH   2   4
ENDBRANCH   1   2
BRANCH   1  11
ATOM     11  C   UNL     1     141.301 147.179 161.803  1.00  0.00     0.009 C 
BRANCH  11  12
ATOM     12  C   UNL     1     142.525 147.707 162.569  1.00  0.00    -0.001 C 
ATOM     13  C   UNL     1     143.694 146.700 162.374  1.00  0.00     0.002 CG0
ATOM     14  C   UNL     1     143.871 148.182 162.043  1.00  0.00    -0.029 C 
ATOM     15  G   UNL     1     143.818 145.962 163.721  1.00  0.00     0.000 G0
ATOM     16  C   UNL     1     143.926 148.564 160.560  1.00  0.00     0.011 C 
ATOM     17  C   UNL     1     144.713 149.021 163.011  1.00  0.00     0.011 C 
ENDBRANCH  11  12
ENDBRANCH   1  11
TORSDOF 0
ENDMDL
