MODEL 1
REMARK VINA RESULT:    -3.511      0.000      0.000
REMARK INTER + INTRA:          -5.156
REMARK INTER:                  -4.948
REMARK INTRA:                  -0.208
REMARK UNBOUND:                -0.208
REMARK SMILES C=CCCCCCCC(=O)[O-]
REMARK SMILES IDX 6 1 7 2 8 3 9 4 10 5 11 6 5 7 4 8 3 9 2 10 1 11
REMARK H PARENT
REMARK Flexibility Score: inf
ROOT
ATOM      1  C   UNL     1       8.288   0.381  46.311  1.00  0.00     0.000 C 
ENDROOT
BRANCH   1   2
ATOM      2  C   UNL     1       7.930   1.084  44.991  1.00  0.00     0.006 C 
BRANCH   2   3
ATOM      3  C   UNL     1       6.495   0.782  44.544  1.00  0.00     0.053 C 
BRANCH   3   4
ATOM      4  C   UNL     1       5.772   2.025  44.124  1.00  0.00     0.041 C 
ATOM      5  O   UNL     1       6.374   3.131  44.104  1.00  0.00    -0.550 OA
ATOM      6  O   UNL     1       4.444   1.956  43.721  1.00  0.00    -0.550 OA
ENDBRANCH   3   4
ENDBRANCH   2   3
ENDBRANCH   1   2
BRANCH   1   7
ATOM      7  C   UNL     1       9.513  -0.544  46.187  1.00  0.00     0.000 C 
BRANCH   7   8
ATOM      8  C   UNL     1      10.564  -0.092  45.157  1.00  0.00     0.004 C 
BRANCH   8   9
ATOM      9  C   UNL     1      11.997  -0.466  45.562  1.00  0.00     0.027 C 
BRANCH   9  10
ATOM     10  C   UNL     1      12.839  -0.773  44.354  1.00  0.00    -0.035 C 
ATOM     11  C   UNL     1      14.150  -0.512  44.326  1.00  0.00     0.004 C 
ENDBRANCH   9  10
ENDBRANCH   8   9
ENDBRANCH   7   8
ENDBRANCH   1   7
TORSDOF 7
ENDMDL
MODEL 2
REMARK VINA RESULT:    -3.482      0.775      1.151
REMARK INTER + INTRA:          -5.115
REMARK INTER:                  -4.851
REMARK INTRA:                  -0.264
REMARK UNBOUND:                -0.208
REMARK SMILES C=CCCCCCCC(=O)[O-]
REMARK SMILES IDX 6 1 7 2 8 3 9 4 10 5 11 6 5 7 4 8 3 9 2 10 1 11
REMARK H PARENT
REMARK Flexibility Score: inf
ROOT
ATOM      1  C   UNL     1       8.303   1.622  46.025  1.00  0.00     0.000 C 
ENDROOT
BRANCH   1   2
ATOM      2  C   UNL     1       7.798   1.154  44.650  1.00  0.00     0.006 C 
BRANCH   2   3
ATOM      3  C   UNL     1       6.331   0.709  44.692  1.00  0.00     0.053 C 
BRANCH   3   4
ATOM      4  C   UNL     1       5.402   1.827  44.330  1.00  0.00     0.041 C 
ATOM      5  O   UNL     1       4.228   1.848  44.785  1.00  0.00    -0.550 OA
ATOM      6  O   UNL     1       5.844   2.866  43.520  1.00  0.00    -0.550 OA
ENDBRANCH   3   4
ENDBRANCH   2   3
ENDBRANCH   1   2
BRANCH   1   7
ATOM      7  C   UNL     1       9.608   0.926  46.455  1.00  0.00     0.000 C 
BRANCH   7   8
ATOM      8  C   UNL     1      10.230   0.003  45.391  1.00  0.00     0.004 C 
BRANCH   8   9
ATOM      9  C   UNL     1      11.710  -0.306  45.660  1.00  0.00     0.027 C 
BRANCH   9  10
ATOM     10  C   UNL     1      12.454  -0.556  44.376  1.00  0.00    -0.035 C 
ATOM     11  C   UNL     1      13.758  -0.847  44.365  1.00  0.00     0.004 C 
ENDBRANCH   9  10
ENDBRANCH   8   9
ENDBRANCH   7   8
ENDBRANCH   1   7
TORSDOF 7
ENDMDL
MODEL 3
REMARK VINA RESULT:    -3.428      9.575     11.213
REMARK INTER + INTRA:          -5.038
REMARK INTER:                  -4.496
REMARK INTRA:                  -0.542
REMARK UNBOUND:                -0.208
REMARK SMILES C=CCCCCCCC(=O)[O-]
REMARK SMILES IDX 6 1 7 2 8 3 9 4 10 5 11 6 5 7 4 8 3 9 2 10 1 11
REMARK H PARENT
REMARK Flexibility Score: inf
ROOT
ATOM      1  C   UNL     1      14.648   1.331  38.453  1.00  0.00     0.000 C 
ENDROOT
BRANCH   1   2
ATOM      2  C   UNL     1      14.276   2.808  38.245  1.00  0.00     0.006 C 
BRANCH   2   3
ATOM      3  C   UNL     1      15.476   3.650  37.795  1.00  0.00     0.053 C 
BRANCH   3   4
ATOM      4  C   UNL     1      15.332   4.107  36.375  1.00  0.00     0.041 C 
ATOM      5  O   UNL     1      14.714   5.172  36.112  1.00  0.00    -0.550 OA
ATOM      6  O   UNL     1      15.910   3.375  35.346  1.00  0.00    -0.550 OA
ENDBRANCH   3   4
ENDBRANCH   2   3
ENDBRANCH   1   2
BRANCH   1   7
ATOM      7  C   UNL     1      14.671   0.526  37.140  1.00  0.00     0.000 C 
BRANCH   7   8
ATOM      8  C   UNL     1      16.073   0.097  36.668  1.00  0.00     0.004 C 
BRANCH   8   9
ATOM      9  C   UNL     1      16.110  -0.290  35.183  1.00  0.00     0.027 C 
BRANCH   9  10
ATOM     10  C   UNL     1      14.748  -0.173  34.557  1.00  0.00    -0.035 C 
ATOM     11  C   UNL     1      14.592   0.068  33.252  1.00  0.00     0.004 C 
ENDBRANCH   9  10
ENDBRANCH   8   9
ENDBRANCH   7   8
ENDBRANCH   1   7
TORSDOF 7
ENDMDL
MODEL 4
REMARK VINA RESULT:    -3.400      9.699     11.817
REMARK INTER + INTRA:          -5.000
REMARK INTER:                  -4.273
REMARK INTRA:                  -0.726
REMARK UNBOUND:                -0.208
REMARK SMILES C=CCCCCCCC(=O)[O-]
REMARK SMILES IDX 6 1 7 2 8 3 9 4 10 5 11 6 5 7 4 8 3 9 2 10 1 11
REMARK H PARENT
REMARK Flexibility Score: inf
ROOT
ATOM      1  C   UNL     1      17.091   1.096  36.257  1.00  0.00     0.000 C 
ENDROOT
BRANCH   1   2
ATOM      2  C   UNL     1      16.396  -0.224  35.882  1.00  0.00     0.006 C 
BRANCH   2   3
ATOM      3  C   UNL     1      15.037   0.007  35.210  1.00  0.00     0.053 C 
BRANCH   3   4
ATOM      4  C   UNL     1      15.097  -0.248  33.735  1.00  0.00     0.041 C 
ATOM      5  O   UNL     1      16.143  -0.722  33.217  1.00  0.00    -0.550 OA
ATOM      6  O   UNL     1      13.987   0.003  32.939  1.00  0.00    -0.550 OA
ENDBRANCH   3   4
ENDBRANCH   2   3
ENDBRANCH   1   2
BRANCH   1   7
ATOM      7  C   UNL     1      16.129   2.298  36.271  1.00  0.00     0.000 C 
BRANCH   7   8
ATOM      8  C   UNL     1      16.094   3.084  37.595  1.00  0.00     0.004 C 
BRANCH   8   9
ATOM      9  C   UNL     1      15.227   2.408  38.668  1.00  0.00     0.027 C 
BRANCH   9  10
ATOM     10  C   UNL     1      13.905   1.969  38.100  1.00  0.00    -0.035 C 
ATOM     11  C   UNL     1      13.407   0.752  38.340  1.00  0.00     0.004 C 
ENDBRANCH   9  10
ENDBRANCH   8   9
ENDBRANCH   7   8
ENDBRANCH   1   7
TORSDOF 7
ENDMDL
MODEL 5
REMARK VINA RESULT:    -3.302     10.037     11.558
REMARK INTER + INTRA:          -4.862
REMARK INTER:                  -4.161
REMARK INTRA:                  -0.701
REMARK UNBOUND:                -0.208
REMARK SMILES C=CCCCCCCC(=O)[O-]
REMARK SMILES IDX 6 1 7 2 8 3 9 4 10 5 11 6 5 7 4 8 3 9 2 10 1 11
REMARK H PARENT
REMARK Flexibility Score: inf
ROOT
ATOM      1  C   UNL     1      15.958   0.552  37.782  1.00  0.00     0.000 C 
ENDROOT
BRANCH   1   2
ATOM      2  C   UNL     1      16.329   0.182  36.335  1.00  0.00     0.006 C 
BRANCH   2   3
ATOM      3  C   UNL     1      15.124  -0.343  35.545  1.00  0.00     0.053 C 
BRANCH   3   4
ATOM      4  C   UNL     1      15.134   0.148  34.130  1.00  0.00     0.041 C 
ATOM      5  O   UNL     1      14.353  -0.356  33.279  1.00  0.00    -0.550 OA
ATOM      6  O   UNL     1      15.979   1.186  33.758  1.00  0.00    -0.550 OA
ENDBRANCH   3   4
ENDBRANCH   2   3
ENDBRANCH   1   2
BRANCH   1   7
ATOM      7  C   UNL     1      14.445   0.755  37.981  1.00  0.00     0.000 C 
BRANCH   7   8
ATOM      8  C   UNL     1      14.003   2.222  38.137  1.00  0.00     0.004 C 
BRANCH   8   9
ATOM      9  C   UNL     1      15.181   3.206  38.112  1.00  0.00     0.027 C 
BRANCH   9  10
ATOM     10  C   UNL     1      15.159   4.047  36.865  1.00  0.00    -0.035 C 
ATOM     11  C   UNL     1      16.128   3.969  35.948  1.00  0.00     0.004 C 
ENDBRANCH   9  10
ENDBRANCH   8   9
ENDBRANCH   7   8
ENDBRANCH   1   7
TORSDOF 7
ENDMDL
MODEL 6
REMARK VINA RESULT:    -3.297      9.696     10.940
REMARK INTER + INTRA:          -4.854
REMARK INTER:                  -4.385
REMARK INTRA:                  -0.469
REMARK UNBOUND:                -0.208
REMARK SMILES C=CCCCCCCC(=O)[O-]
REMARK SMILES IDX 6 1 7 2 8 3 9 4 10 5 11 6 5 7 4 8 3 9 2 10 1 11
REMARK H PARENT
REMARK Flexibility Score: inf
ROOT
ATOM      1  C   UNL     1      14.393   1.012  37.649  1.00  0.00     0.000 C 
ENDROOT
BRANCH   1   2
ATOM      2  C   UNL     1      15.310   1.003  36.414  1.00  0.00     0.006 C 
BRANCH   2   3
ATOM      3  C   UNL     1      15.222  -0.315  35.636  1.00  0.00     0.053 C 
BRANCH   3   4
ATOM      4  C   UNL     1      15.072  -0.080  34.164  1.00  0.00     0.041 C 
ATOM      5  O   UNL     1      13.937  -0.158  33.623  1.00  0.00    -0.550 OA
ATOM      6  O   UNL     1      16.179   0.259  33.396  1.00  0.00    -0.550 OA
ENDBRANCH   3   4
ENDBRANCH   2   3
ENDBRANCH   1   2
BRANCH   1   7
ATOM      7  C   UNL     1      14.182   2.421  38.232  1.00  0.00     0.000 C 
BRANCH   7   8
ATOM      8  C   UNL     1      15.477   3.212  38.496  1.00  0.00     0.004 C 
BRANCH   8   9
ATOM      9  C   UNL     1      15.776   3.384  39.993  1.00  0.00     0.027 C 
BRANCH   9  10
ATOM     10  C   UNL     1      16.455   2.165  40.554  1.00  0.00    -0.035 C 
ATOM     11  C   UNL     1      17.361   1.479  39.851  1.00  0.00     0.004 C 
ENDBRANCH   9  10
ENDBRANCH   8   9
ENDBRANCH   7   8
ENDBRANCH   1   7
TORSDOF 7
ENDMDL
MODEL 7
REMARK VINA RESULT:    -3.272      1.100      1.485
REMARK INTER + INTRA:          -4.819
REMARK INTER:                  -4.615
REMARK INTRA:                  -0.204
REMARK UNBOUND:                -0.208
REMARK SMILES C=CCCCCCCC(=O)[O-]
REMARK SMILES IDX 6 1 7 2 8 3 9 4 10 5 11 6 5 7 4 8 3 9 2 10 1 11
REMARK H PARENT
REMARK Flexibility Score: inf
ROOT
ATOM      1  C   UNL     1       8.097   1.093  44.965  1.00  0.00     0.000 C 
ENDROOT
BRANCH   1   2
ATOM      2  C   UNL     1       6.622   0.656  44.978  1.00  0.00     0.006 C 
BRANCH   2   3
ATOM      3  C   UNL     1       5.717   1.649  44.238  1.00  0.00     0.053 C 
BRANCH   3   4
ATOM      4  C   UNL     1       5.906   3.049  44.736  1.00  0.00     0.041 C 
ATOM      5  O   UNL     1       5.572   3.353  45.912  1.00  0.00    -0.550 OA
ATOM      6  O   UNL     1       6.485   4.009  43.915  1.00  0.00    -0.550 OA
ENDBRANCH   3   4
ENDBRANCH   2   3
ENDBRANCH   1   2
BRANCH   1   7
ATOM      7  C   UNL     1       9.005   0.166  45.794  1.00  0.00     0.000 C 
BRANCH   7   8
ATOM      8  C   UNL     1      10.421  -0.032  45.223  1.00  0.00     0.004 C 
BRANCH   8   9
ATOM      9  C   UNL     1      11.345  -0.811  46.172  1.00  0.00     0.027 C 
BRANCH   9  10
ATOM     10  C   UNL     1      12.589  -1.270  45.462  1.00  0.00    -0.035 C 
ATOM     11  C   UNL     1      13.011  -0.688  44.336  1.00  0.00     0.004 C 
ENDBRANCH   9  10
ENDBRANCH   8   9
ENDBRANCH   7   8
ENDBRANCH   1   7
TORSDOF 7
ENDMDL
MODEL 8
REMARK VINA RESULT:    -3.231      3.827      6.369
REMARK INTER + INTRA:          -4.761
REMARK INTER:                  -4.522
REMARK INTRA:                  -0.239
REMARK UNBOUND:                -0.208
REMARK SMILES C=CCCCCCCC(=O)[O-]
REMARK SMILES IDX 6 1 7 2 8 3 9 4 10 5 11 6 5 7 4 8 3 9 2 10 1 11
REMARK H PARENT
REMARK Flexibility Score: inf
ROOT
ATOM      1  C   UNL     1       9.702   0.653  46.137  1.00  0.00     0.000 C 
ENDROOT
BRANCH   1   2
ATOM      2  C   UNL     1      10.589  -0.175  45.191  1.00  0.00     0.006 C 
BRANCH   2   3
ATOM      3  C   UNL     1      11.814  -0.757  45.906  1.00  0.00     0.053 C 
BRANCH   3   4
ATOM      4  C   UNL     1      13.093  -0.226  45.333  1.00  0.00     0.041 C 
ATOM      5  O   UNL     1      13.753   0.646  45.959  1.00  0.00    -0.550 OA
ATOM      6  O   UNL     1      13.574  -0.719  44.127  1.00  0.00    -0.550 OA
ENDBRANCH   3   4
ENDBRANCH   2   3
ENDBRANCH   1   2
BRANCH   1   7
ATOM      7  C   UNL     1       8.198   0.466  45.868  1.00  0.00     0.000 C 
BRANCH   7   8
ATOM      8  C   UNL     1       7.695   1.077  44.547  1.00  0.00     0.004 C 
BRANCH   8   9
ATOM      9  C   UNL     1       6.169   1.240  44.507  1.00  0.00     0.027 C 
BRANCH   9  10
ATOM     10  C   UNL     1       5.781   2.595  43.982  1.00  0.00    -0.035 C 
ATOM     11  C   UNL     1       6.512   3.684  44.240  1.00  0.00     0.004 C 
ENDBRANCH   9  10
ENDBRANCH   8   9
ENDBRANCH   7   8
ENDBRANCH   1   7
TORSDOF 7
ENDMDL
MODEL 9
REMARK VINA RESULT:    -3.213      9.029     10.903
REMARK INTER + INTRA:          -4.736
REMARK INTER:                  -4.199
REMARK INTRA:                  -0.538
REMARK UNBOUND:                -0.208
REMARK SMILES C=CCCCCCCC(=O)[O-]
REMARK SMILES IDX 6 1 7 2 8 3 9 4 10 5 11 6 5 7 4 8 3 9 2 10 1 11
REMARK H PARENT
REMARK Flexibility Score: inf
ROOT
ATOM      1  C   UNL     1      15.521   3.292  39.294  1.00  0.00     0.000 C 
ENDROOT
BRANCH   1   2
ATOM      2  C   UNL     1      15.747   1.817  39.669  1.00  0.00     0.006 C 
BRANCH   2   3
ATOM      3  C   UNL     1      15.945   0.929  38.435  1.00  0.00     0.053 C 
BRANCH   3   4
ATOM      4  C   UNL     1      14.669   0.752  37.669  1.00  0.00     0.041 C 
ATOM      5  O   UNL     1      13.575   0.628  38.282  1.00  0.00    -0.550 OA
ATOM      6  O   UNL     1      14.684   0.759  36.280  1.00  0.00    -0.550 OA
ENDBRANCH   3   4
ENDBRANCH   2   3
ENDBRANCH   1   2
BRANCH   1   7
ATOM      7  C   UNL     1      16.829   4.035  38.966  1.00  0.00     0.000 C 
BRANCH   7   8
ATOM      8  C   UNL     1      16.905   4.612  37.540  1.00  0.00     0.004 C 
BRANCH   8   9
ATOM      9  C   UNL     1      15.669   4.278  36.693  1.00  0.00     0.027 C 
BRANCH   9  10
ATOM     10  C   UNL     1      15.180   5.488  35.945  1.00  0.00    -0.035 C 
ATOM     11  C   UNL     1      15.991   6.509  35.655  1.00  0.00     0.004 C 
ENDBRANCH   9  10
ENDBRANCH   8   9
ENDBRANCH   7   8
ENDBRANCH   1   7
TORSDOF 7
ENDMDL
