MODEL 1
REMARK VINA RESULT:    -4.213      0.000      0.000
REMARK INTER + INTRA:          -5.628
REMARK INTER:                  -5.936
REMARK INTRA:                   0.309
REMARK UNBOUND:                 0.309
REMARK SMILES CC1=CCC(=C(C)C)C(=O)CC(C)=CCC1
REMARK SMILES IDX 12 1 14 2 13 3 15 4 16 5 2 6 1 7 3 8 11 10 9 11 10 12 5 13
REMARK SMILES IDX 6 14 7 15 8 16 4 17
REMARK H PARENT
REMARK Flexibility Score: 60.00
ROOT
ATOM      1  C   UNL     1       2.632  24.821  27.594  1.00  0.00    -0.070 C 
ATOM      2  C   UNL     1       2.138  23.688  28.140  1.00  0.00    -0.027 C 
ATOM      3  C   UNL     1       4.035  25.232  27.969  1.00  0.00     0.039 C 
ENDROOT
BRANCH   2   4
ATOM      4  C   UNL     1       0.798  23.064  27.816  1.00  0.00     0.032 C 
BRANCH   4   5
ATOM      5  C   UNL     1      -0.412  23.739  28.495  1.00  0.00     0.034 C 
BRANCH   5   6
ATOM      6  C   UNL     1      -1.479  24.184  27.510  1.00  0.00    -0.077 C 
ATOM      7  C   UNL     1      -2.255  23.113  26.786  1.00  0.00     0.039 C 
ATOM      8  C   UNL     1      -1.824  25.476  27.291  1.00  0.00    -0.023 CG0
ATOM      9  G   UNL     1      -1.176  26.710  27.885  1.00  0.00     0.000 G0
ENDBRANCH   5   6
ENDBRANCH   4   5
ENDBRANCH   2   4
BRANCH   1  10
ATOM     10  C   UNL     1       1.887  25.641  26.561  1.00  0.00     0.111 C 
BRANCH  10  11
ATOM     11  C   UNL     1       1.301  26.891  27.160  1.00  0.00     0.163 C 
ATOM     12  O   UNL     1       2.062  27.645  27.827  1.00  0.00    -0.294 OA
BRANCH  11  13
ATOM     13  C   UNL     1      -0.120  27.295  26.942  1.00  0.00    -0.002 C 
ATOM     14  C   UNL     1      -0.466  28.095  25.889  1.00  0.00    -0.069 C 
ATOM     15  C   UNL     1      -1.911  28.392  25.550  1.00  0.00     0.039 C 
ATOM     16  C   UNL     1       0.586  28.726  25.003  1.00  0.00     0.039 C 
BRANCH  13  17
ATOM     17  C   UNL     1      -1.162  26.705  27.878  1.00  0.00     0.066 CG0
ATOM     18  G   UNL     1      -1.821  25.467  27.301  1.00  0.00     0.000 G0
ENDBRANCH  13  17
ENDBRANCH  11  13
ENDBRANCH  10  11
ENDBRANCH   1  10
TORSDOF 0
ENDMDL
MODEL 2
REMARK VINA RESULT:    -4.138      1.968      3.775
REMARK INTER + INTRA:          -5.523
REMARK INTER:                  -5.864
REMARK INTRA:                   0.341
REMARK UNBOUND:                 0.309
REMARK SMILES CC1=CCC(=C(C)C)C(=O)CC(C)=CCC1
REMARK SMILES IDX 12 1 14 2 13 3 15 4 16 5 2 6 1 7 3 8 11 10 9 11 10 12 5 13
REMARK SMILES IDX 6 14 7 15 8 16 4 17
REMARK H PARENT
REMARK Flexibility Score: 60.00
ROOT
ATOM      1  C   UNL     1       1.420  23.918  27.907  1.00  0.00    -0.070 C 
ATOM      2  C   UNL     1       2.727  24.257  27.965  1.00  0.00    -0.027 C 
ATOM      3  C   UNL     1       1.077  22.462  27.711  1.00  0.00     0.039 C 
ENDROOT
BRANCH   2   4
ATOM      4  C   UNL     1       3.268  25.641  28.251  1.00  0.00     0.032 C 
BRANCH   4   5
ATOM      5  C   UNL     1       3.067  26.663  27.112  1.00  0.00     0.034 C 
BRANCH   5   6
ATOM      6  C   UNL     1       2.296  27.897  27.546  1.00  0.00    -0.077 C 
ATOM      7  C   UNL     1       2.901  28.758  28.627  1.00  0.00     0.039 C 
ATOM      8  C   UNL     1       1.138  28.313  26.979  1.00  0.00    -0.023 CG0
ATOM      9  G   UNL     1       0.342  27.606  25.899  1.00  0.00     0.000 G0
ENDBRANCH   5   6
ENDBRANCH   4   5
ENDBRANCH   2   4
BRANCH   1  10
ATOM     10  C   UNL     1       0.294  24.907  28.122  1.00  0.00     0.111 C 
BRANCH  10  11
ATOM     11  C   UNL     1      -0.366  25.290  26.824  1.00  0.00     0.163 C 
ATOM     12  O   UNL     1      -0.648  24.372  26.007  1.00  0.00    -0.294 OA
BRANCH  11  13
ATOM     13  C   UNL     1      -0.746  26.698  26.502  1.00  0.00    -0.002 C 
ATOM     14  C   UNL     1      -1.987  27.177  26.819  1.00  0.00    -0.069 C 
ATOM     15  C   UNL     1      -2.349  28.637  26.651  1.00  0.00     0.039 C 
ATOM     16  C   UNL     1      -3.066  26.264  27.359  1.00  0.00     0.039 C 
BRANCH  13  17
ATOM     17  C   UNL     1       0.329  27.589  25.900  1.00  0.00     0.066 CG0
ATOM     18  G   UNL     1       1.131  28.320  26.959  1.00  0.00     0.000 G0
ENDBRANCH  13  17
ENDBRANCH  11  13
ENDBRANCH  10  11
ENDBRANCH   1  10
TORSDOF 0
ENDMDL
MODEL 3
REMARK VINA RESULT:    -3.988      1.986      3.868
REMARK INTER + INTRA:          -5.311
REMARK INTER:                  -5.589
REMARK INTRA:                   0.278
REMARK UNBOUND:                 0.309
REMARK SMILES CC1=CCC(=C(C)C)C(=O)CC(C)=CCC1
REMARK SMILES IDX 12 1 14 2 13 3 15 4 16 5 2 6 1 7 3 8 11 10 9 11 10 12 5 13
REMARK SMILES IDX 6 14 7 15 8 16 4 17
REMARK H PARENT
REMARK Flexibility Score: 60.00
ROOT
ATOM      1  C   UNL     1      -0.540  23.991  27.675  1.00  0.00    -0.070 C 
ATOM      2  C   UNL     1       0.516  23.155  27.782  1.00  0.00    -0.027 C 
ATOM      3  C   UNL     1      -1.899  23.384  27.434  1.00  0.00     0.039 C 
ENDROOT
BRANCH   2   4
ATOM      4  C   UNL     1       1.934  23.563  28.118  1.00  0.00     0.032 C 
BRANCH   4   5
ATOM      5  C   UNL     1       2.666  24.340  27.003  1.00  0.00     0.034 C 
BRANCH   5   6
ATOM      6  C   UNL     1       3.199  25.685  27.463  1.00  0.00    -0.077 C 
ATOM      7  C   UNL     1       4.216  25.692  28.577  1.00  0.00     0.039 C 
ATOM      8  C   UNL     1       2.874  26.871  26.894  1.00  0.00    -0.023 CG0
ATOM      9  G   UNL     1       1.870  27.109  25.784  1.00  0.00     0.000 G0
ENDBRANCH   5   6
ENDBRANCH   4   5
ENDBRANCH   2   4
BRANCH   1  10
ATOM     10  C   UNL     1      -0.439  25.489  27.877  1.00  0.00     0.111 C 
BRANCH  10  11
ATOM     11  C   UNL     1      -0.420  26.227  26.564  1.00  0.00     0.163 C 
ATOM     12  O   UNL     1      -1.225  25.861  25.664  1.00  0.00    -0.294 OA
BRANCH  11  13
ATOM     13  C   UNL     1       0.467  27.402  26.318  1.00  0.00    -0.002 C 
ATOM     14  C   UNL     1       0.058  28.667  26.638  1.00  0.00    -0.069 C 
ATOM     15  C   UNL     1       0.989  29.857  26.548  1.00  0.00     0.039 C 
ATOM     16  C   UNL     1      -1.355  28.940  27.103  1.00  0.00     0.039 C 
BRANCH  13  17
ATOM     17  C   UNL     1       1.865  27.120  25.789  1.00  0.00     0.066 CG0
ATOM     18  G   UNL     1       2.862  26.866  26.903  1.00  0.00     0.000 G0
ENDBRANCH  13  17
ENDBRANCH  11  13
ENDBRANCH  10  11
ENDBRANCH   1  10
TORSDOF 0
ENDMDL
MODEL 4
REMARK VINA RESULT:    -3.983      1.468      3.757
REMARK INTER + INTRA:          -5.303
REMARK INTER:                  -5.451
REMARK INTRA:                   0.148
REMARK UNBOUND:                 0.309
REMARK SMILES CC1=CCC(=C(C)C)C(=O)CC(C)=CCC1
REMARK SMILES IDX 12 1 14 2 13 3 15 4 16 5 2 6 1 7 3 8 11 10 9 11 10 12 5 13
REMARK SMILES IDX 6 14 7 15 8 16 4 17
REMARK H PARENT
REMARK Flexibility Score: 60.00
ROOT
ATOM      1  C   UNL     1       2.152  25.433  26.731  1.00  0.00    -0.070 C 
ATOM      2  C   UNL     1       2.628  26.639  26.348  1.00  0.00    -0.027 C 
ATOM      3  C   UNL     1       3.069  24.530  27.518  1.00  0.00     0.039 C 
ENDROOT
BRANCH   2   4
ATOM      4  C   UNL     1       1.836  27.717  25.642  1.00  0.00     0.032 C 
BRANCH   4   5
ATOM      5  C   UNL     1       0.888  28.526  26.553  1.00  0.00     0.034 C 
BRANCH   5   6
ATOM      6  C   UNL     1      -0.510  28.672  25.980  1.00  0.00    -0.077 C 
ATOM      7  C   UNL     1      -0.665  29.455  24.700  1.00  0.00     0.039 C 
ATOM      8  C   UNL     1      -1.616  28.089  26.503  1.00  0.00    -0.023 CG0
ATOM      9  G   UNL     1      -1.704  27.279  27.782  1.00  0.00     0.000 G0
ENDBRANCH   5   6
ENDBRANCH   4   5
ENDBRANCH   2   4
BRANCH   1  10
ATOM     10  C   UNL     1       0.724  24.990  26.493  1.00  0.00     0.111 C 
BRANCH  10  11
ATOM     11  C   UNL     1      -0.146  25.247  27.695  1.00  0.00     0.163 C 
ATOM     12  O   UNL     1       0.344  25.043  28.839  1.00  0.00    -0.294 OA
BRANCH  11  13
ATOM     13  C   UNL     1      -1.533  25.789  27.580  1.00  0.00    -0.002 C 
ATOM     14  C   UNL     1      -2.595  24.952  27.377  1.00  0.00    -0.069 C 
ATOM     15  C   UNL     1      -4.024  25.450  27.413  1.00  0.00     0.039 C 
ATOM     16  C   UNL     1      -2.393  23.477  27.107  1.00  0.00     0.039 C 
BRANCH  13  17
ATOM     17  C   UNL     1      -1.716  27.283  27.791  1.00  0.00     0.066 CG0
ATOM     18  G   UNL     1      -1.609  28.066  26.496  1.00  0.00     0.000 G0
ENDBRANCH  13  17
ENDBRANCH  11  13
ENDBRANCH  10  11
ENDBRANCH   1  10
TORSDOF 0
ENDMDL
MODEL 5
REMARK VINA RESULT:    -3.957      1.821      2.817
REMARK INTER + INTRA:          -5.267
REMARK INTER:                  -5.491
REMARK INTRA:                   0.223
REMARK UNBOUND:                 0.309
REMARK SMILES CC1=CCC(=C(C)C)C(=O)CC(C)=CCC1
REMARK SMILES IDX 12 1 14 2 13 3 15 4 16 5 2 6 1 7 3 8 11 10 9 11 10 12 5 13
REMARK SMILES IDX 6 14 7 15 8 16 4 17
REMARK H PARENT
REMARK Flexibility Score: 60.00
ROOT
ATOM      1  C   UNL     1       2.099  24.428  27.367  1.00  0.00    -0.070 C 
ATOM      2  C   UNL     1       1.210  23.553  27.886  1.00  0.00    -0.027 C 
ATOM      3  C   UNL     1       3.544  24.297  27.781  1.00  0.00     0.039 C 
ENDROOT
BRANCH   2   4
ATOM      4  C   UNL     1      -0.256  23.461  27.522  1.00  0.00     0.032 C 
BRANCH   4   5
ATOM      5  C   UNL     1      -1.046  24.778  27.681  1.00  0.00     0.034 C 
BRANCH   5   6
ATOM      6  C   UNL     1      -0.962  25.359  29.081  1.00  0.00    -0.077 C 
ATOM      7  C   UNL     1      -1.486  24.522  30.220  1.00  0.00     0.039 C 
ATOM      8  C   UNL     1      -0.387  26.549  29.381  1.00  0.00    -0.023 CG0
ATOM      9  G   UNL     1       0.185  27.561  28.407  1.00  0.00     0.000 G0
ENDBRANCH   5   6
ENDBRANCH   4   5
ENDBRANCH   2   4
BRANCH   1  10
ATOM     10  C   UNL     1       1.733  25.465  26.325  1.00  0.00     0.111 C 
BRANCH  10  11
ATOM     11  C   UNL     1       2.070  26.859  26.786  1.00  0.00     0.163 C 
ATOM     12  O   UNL     1       2.665  27.624  25.979  1.00  0.00    -0.294 OA
BRANCH  11  13
ATOM     13  C   UNL     1       1.673  27.377  28.129  1.00  0.00    -0.002 C 
ATOM     14  C   UNL     1       2.620  27.744  29.045  1.00  0.00    -0.069 C 
ATOM     15  C   UNL     1       2.253  28.417  30.349  1.00  0.00     0.039 C 
ATOM     16  C   UNL     1       4.091  27.493  28.796  1.00  0.00     0.039 C 
BRANCH  13  17
ATOM     17  C   UNL     1       0.187  27.565  28.391  1.00  0.00     0.066 CG0
ATOM     18  G   UNL     1      -0.358  26.548  29.374  1.00  0.00     0.000 G0
ENDBRANCH  13  17
ENDBRANCH  11  13
ENDBRANCH  10  11
ENDBRANCH   1  10
TORSDOF 0
ENDMDL
MODEL 6
REMARK VINA RESULT:    -3.952      1.843      4.521
REMARK INTER + INTRA:          -5.261
REMARK INTER:                  -5.588
REMARK INTRA:                   0.328
REMARK UNBOUND:                 0.309
REMARK SMILES CC1=CCC(=C(C)C)C(=O)CC(C)=CCC1
REMARK SMILES IDX 12 1 14 2 13 3 15 4 16 5 2 6 1 7 3 8 11 10 9 11 10 12 5 13
REMARK SMILES IDX 6 14 7 15 8 16 4 17
REMARK H PARENT
REMARK Flexibility Score: 60.00
ROOT
ATOM      1  C   UNL     1      -1.889  24.434  27.507  1.00  0.00    -0.070 C 
ATOM      2  C   UNL     1      -2.812  25.406  27.336  1.00  0.00    -0.027 C 
ATOM      3  C   UNL     1      -2.338  23.139  28.137  1.00  0.00     0.039 C 
ENDROOT
BRANCH   2   4
ATOM      4  C   UNL     1      -2.581  26.730  26.640  1.00  0.00     0.032 C 
BRANCH   4   5
ATOM      5  C   UNL     1      -1.856  27.793  27.493  1.00  0.00     0.034 C 
BRANCH   5   6
ATOM      6  C   UNL     1      -0.564  28.283  26.866  1.00  0.00    -0.077 C 
ATOM      7  C   UNL     1      -0.665  29.151  25.637  1.00  0.00     0.039 C 
ATOM      8  C   UNL     1       0.670  28.049  27.376  1.00  0.00    -0.023 CG0
ATOM      9  G   UNL     1       1.015  27.196  28.581  1.00  0.00     0.000 G0
ENDBRANCH   5   6
ENDBRANCH   4   5
ENDBRANCH   2   4
BRANCH   1  10
ATOM     10  C   UNL     1      -0.461  24.546  27.015  1.00  0.00     0.111 C 
BRANCH  10  11
ATOM     11  C   UNL     1       0.509  24.709  28.155  1.00  0.00     0.163 C 
ATOM     12  O   UNL     1       0.489  23.852  29.080  1.00  0.00    -0.294 OA
BRANCH  11  13
ATOM     13  C   UNL     1       1.522  25.805  28.195  1.00  0.00    -0.002 C 
ATOM     14  C   UNL     1       2.813  25.578  27.803  1.00  0.00    -0.069 C 
ATOM     15  C   UNL     1       3.821  26.700  27.683  1.00  0.00     0.039 C 
ATOM     16  C   UNL     1       3.298  24.185  27.468  1.00  0.00     0.039 C 
BRANCH  13  17
ATOM     17  C   UNL     1       1.036  27.188  28.596  1.00  0.00     0.066 CG0
ATOM     18  G   UNL     1       0.664  28.038  27.396  1.00  0.00     0.000 G0
ENDBRANCH  13  17
ENDBRANCH  11  13
ENDBRANCH  10  11
ENDBRANCH   1  10
TORSDOF 0
ENDMDL
MODEL 7
REMARK VINA RESULT:    -3.944      1.539      3.721
REMARK INTER + INTRA:          -5.249
REMARK INTER:                  -5.744
REMARK INTRA:                   0.495
REMARK UNBOUND:                 0.309
REMARK SMILES CC1=CCC(=C(C)C)C(=O)CC(C)=CCC1
REMARK SMILES IDX 12 1 14 2 13 3 15 4 16 5 2 6 1 7 3 8 11 10 9 11 10 12 5 13
REMARK SMILES IDX 6 14 7 15 8 16 4 17
REMARK H PARENT
REMARK Flexibility Score: 60.00
ROOT
ATOM      1  C   UNL     1      -0.377  23.528  28.329  1.00  0.00    -0.070 C 
ATOM      2  C   UNL     1       0.730  23.128  27.665  1.00  0.00    -0.027 C 
ATOM      3  C   UNL     1      -1.698  22.919  27.929  1.00  0.00     0.039 C 
ENDROOT
BRANCH   2   4
ATOM      4  C   UNL     1       2.149  23.546  27.982  1.00  0.00     0.032 C 
BRANCH   4   5
ATOM      5  C   UNL     1       2.798  24.479  26.938  1.00  0.00     0.034 C 
BRANCH   5   6
ATOM      6  C   UNL     1       2.796  25.939  27.357  1.00  0.00    -0.077 C 
ATOM      7  C   UNL     1       4.066  26.501  27.944  1.00  0.00     0.039 C 
ATOM      8  C   UNL     1       1.753  26.785  27.177  1.00  0.00    -0.023 CG0
ATOM      9  G   UNL     1       0.382  26.443  26.629  1.00  0.00     0.000 G0
ENDBRANCH   5   6
ENDBRANCH   4   5
ENDBRANCH   2   4
BRANCH   1  10
ATOM     10  C   UNL     1      -0.342  24.478  29.508  1.00  0.00     0.111 C 
BRANCH  10  11
ATOM     11  C   UNL     1      -0.251  25.914  29.062  1.00  0.00     0.163 C 
ATOM     12  O   UNL     1       0.265  26.750  29.853  1.00  0.00    -0.294 OA
BRANCH  11  13
ATOM     13  C   UNL     1      -0.690  26.362  27.708  1.00  0.00    -0.002 C 
ATOM     14  C   UNL     1      -1.983  26.749  27.484  1.00  0.00    -0.069 C 
ATOM     15  C   UNL     1      -2.421  27.355  26.168  1.00  0.00     0.039 C 
ATOM     16  C   UNL     1      -3.045  26.589  28.549  1.00  0.00     0.039 C 
BRANCH  13  17
ATOM     17  C   UNL     1       0.375  26.458  26.627  1.00  0.00     0.066 CG0
ATOM     18  G   UNL     1       1.744  26.780  27.193  1.00  0.00     0.000 G0
ENDBRANCH  13  17
ENDBRANCH  11  13
ENDBRANCH  10  11
ENDBRANCH   1  10
TORSDOF 0
ENDMDL
MODEL 8
REMARK VINA RESULT:    -3.902      1.890      3.385
REMARK INTER + INTRA:          -5.189
REMARK INTER:                  -5.433
REMARK INTRA:                   0.243
REMARK UNBOUND:                 0.309
REMARK SMILES CC1=CCC(=C(C)C)C(=O)CC(C)=CCC1
REMARK SMILES IDX 12 1 14 2 13 3 15 4 16 5 2 6 1 7 3 8 11 10 9 11 10 12 5 13
REMARK SMILES IDX 6 14 7 15 8 16 4 17
REMARK H PARENT
REMARK Flexibility Score: 60.00
ROOT
ATOM      1  C   UNL     1      -0.277  23.611  27.549  1.00  0.00    -0.070 C 
ATOM      2  C   UNL     1      -1.319  23.380  28.377  1.00  0.00    -0.027 C 
ATOM      3  C   UNL     1       1.000  22.845  27.792  1.00  0.00     0.039 C 
ENDROOT
BRANCH   2   4
ATOM      4  C   UNL     1      -2.705  23.973  28.238  1.00  0.00     0.032 C 
BRANCH   4   5
ATOM      5  C   UNL     1      -2.796  25.484  28.541  1.00  0.00     0.034 C 
BRANCH   5   6
ATOM      6  C   UNL     1      -1.910  25.916  29.696  1.00  0.00    -0.077 C 
ATOM      7  C   UNL     1      -2.297  25.466  31.082  1.00  0.00     0.039 C 
ATOM      8  C   UNL     1      -0.762  26.621  29.556  1.00  0.00    -0.023 CG0
ATOM      9  G   UNL     1      -0.189  27.193  28.273  1.00  0.00     0.000 G0
ENDBRANCH   5   6
ENDBRANCH   4   5
ENDBRANCH   2   4
BRANCH   1  10
ATOM     10  C   UNL     1      -0.359  24.522  26.342  1.00  0.00     0.111 C 
BRANCH  10  11
ATOM     11  C   UNL     1       0.649  25.638  26.418  1.00  0.00     0.163 C 
ATOM     12  O   UNL     1       1.234  25.985  25.356  1.00  0.00    -0.294 OA
BRANCH  11  13
ATOM     13  C   UNL     1       0.931  26.379  27.683  1.00  0.00    -0.002 C 
ATOM     14  C   UNL     1       2.182  26.368  28.237  1.00  0.00    -0.069 C 
ATOM     15  C   UNL     1       2.538  27.233  29.427  1.00  0.00     0.039 C 
ATOM     16  C   UNL     1       3.278  25.486  27.681  1.00  0.00     0.039 C 
BRANCH  13  17
ATOM     17  C   UNL     1      -0.198  27.212  28.268  1.00  0.00     0.066 CG0
ATOM     18  G   UNL     1      -0.751  26.617  29.549  1.00  0.00     0.000 G0
ENDBRANCH  13  17
ENDBRANCH  11  13
ENDBRANCH  10  11
ENDBRANCH   1  10
TORSDOF 0
ENDMDL
MODEL 9
REMARK VINA RESULT:    -3.884      1.985      4.093
REMARK INTER + INTRA:          -5.165
REMARK INTER:                  -5.599
REMARK INTRA:                   0.434
REMARK UNBOUND:                 0.309
REMARK SMILES CC1=CCC(=C(C)C)C(=O)CC(C)=CCC1
REMARK SMILES IDX 12 1 14 2 13 3 15 4 16 5 2 6 1 7 3 8 11 10 9 11 10 12 5 13
REMARK SMILES IDX 6 14 7 15 8 16 4 17
REMARK H PARENT
REMARK Flexibility Score: 60.00
ROOT
ATOM      1  C   UNL     1      -1.246  24.394  29.201  1.00  0.00    -0.070 C 
ATOM      2  C   UNL     1      -2.355  25.150  29.048  1.00  0.00    -0.027 C 
ATOM      3  C   UNL     1      -0.480  24.517  30.495  1.00  0.00     0.039 C 
ENDROOT
BRANCH   2   4
ATOM      4  C   UNL     1      -3.305  25.097  27.871  1.00  0.00     0.032 C 
BRANCH   4   5
ATOM      5  C   UNL     1      -3.249  26.326  26.938  1.00  0.00     0.034 C 
BRANCH   5   6
ATOM      6  C   UNL     1      -2.236  27.366  27.380  1.00  0.00    -0.077 C 
ATOM      7  C   UNL     1      -2.694  28.418  28.358  1.00  0.00     0.039 C 
ATOM      8  C   UNL     1      -0.933  27.371  27.007  1.00  0.00    -0.023 CG0
ATOM      9  G   UNL     1      -0.258  26.432  26.027  1.00  0.00     0.000 G0
ENDBRANCH   5   6
ENDBRANCH   4   5
ENDBRANCH   2   4
BRANCH   1  10
ATOM     10  C   UNL     1      -0.793  23.367  28.183  1.00  0.00     0.111 C 
BRANCH  10  11
ATOM     11  C   UNL     1      -0.492  24.000  26.850  1.00  0.00     0.163 C 
ATOM     12  O   UNL     1      -1.034  23.508  25.823  1.00  0.00    -0.294 OA
BRANCH  11  13
ATOM     13  C   UNL     1       0.366  25.214  26.715  1.00  0.00    -0.002 C 
ATOM     14  C   UNL     1       1.672  25.197  27.121  1.00  0.00    -0.069 C 
ATOM     15  C   UNL     1       2.609  26.355  26.854  1.00  0.00     0.039 C 
ATOM     16  C   UNL     1       2.247  24.009  27.862  1.00  0.00     0.039 C 
BRANCH  13  17
ATOM     17  C   UNL     1      -0.244  26.424  26.026  1.00  0.00     0.066 CG0
ATOM     18  G   UNL     1      -0.922  27.364  27.003  1.00  0.00     0.000 G0
ENDBRANCH  13  17
ENDBRANCH  11  13
ENDBRANCH  10  11
ENDBRANCH   1  10
TORSDOF 0
ENDMDL
